MODEL 1
REMARK VINA RESULT:    -6.936      0.000      0.000
REMARK INTER + INTRA:          -8.417
REMARK INTER:                  -8.153
REMARK INTRA:                  -0.264
REMARK UNBOUND:                -0.264
REMARK SMILES O=c1c(O)c(-c2ccc(O)cc2)oc2cc(O)cc(O)c12
REMARK SMILES IDX 5 1 3 2 2 3 1 4 21 5 19 6 18 7 16 8 15 9 14 10 13 11 6 12
REMARK SMILES IDX 7 13 8 14 9 15 12 16 11 17 10 18 4 20 20 22 17 24
REMARK H PARENT 10 19 4 21 20 23 17 25
REMARK Flexibility Score: inf
ROOT
ATOM      1  C   UNL     1       9.700  11.413 -16.058  1.00  0.00     0.180 A 
ATOM      2  C   UNL     1      10.269  10.207 -16.507  1.00  0.00     0.208 A 
ATOM      3  C   UNL     1       9.927   9.011 -15.860  1.00  0.00     0.238 A 
ATOM      4  O   UNL     1      10.396   7.929 -16.301  1.00  0.00    -0.285 OA
ATOM      5  C   UNL     1       9.033   9.033 -14.762  1.00  0.00     0.111 A 
ATOM      6  C   UNL     1       8.647   7.885 -14.007  1.00  0.00     0.134 A 
ATOM      7  C   UNL     1       7.656   8.005 -13.024  1.00  0.00     0.093 A 
ATOM      8  C   UNL     1       7.084   9.245 -12.726  1.00  0.00     0.123 A 
ATOM      9  C   UNL     1       7.497  10.381 -13.417  1.00  0.00     0.094 A 
ATOM     10  C   UNL     1       8.458  10.287 -14.427  1.00  0.00     0.146 A 
ATOM     11  O   UNL     1       8.815  11.393 -15.069  1.00  0.00    -0.452 OA
ENDROOT
BRANCH   1  12
ATOM     12  C   UNL     1      10.033  12.718 -16.673  1.00  0.00     0.021 A 
ATOM     13  C   UNL     1      10.956  13.596 -16.077  1.00  0.00     0.016 A 
ATOM     14  C   UNL     1      11.235  14.834 -16.664  1.00  0.00     0.047 A 
ATOM     15  C   UNL     1      10.587  15.216 -17.846  1.00  0.00     0.115 A 
ATOM     16  C   UNL     1       9.370  13.118 -17.847  1.00  0.00     0.016 A 
ATOM     17  C   UNL     1       9.652  14.355 -18.432  1.00  0.00     0.047 A 
BRANCH  15  18
ATOM     18  O   UNL     1      10.857  16.445 -18.441  1.00  0.00    -0.508 OA
ATOM     19  H   UNL     1      11.789  16.845 -18.428  1.00  0.00     0.293 HD
ENDBRANCH  15  18
ENDBRANCH   1  12
BRANCH   2  20
ATOM     20  O   UNL     1      11.132  10.205 -17.606  1.00  0.00    -0.502 OA
ATOM     21  H   UNL     1      12.092  10.526 -17.544  1.00  0.00     0.293 HD
ENDBRANCH   2  20
BRANCH   6  22
ATOM     22  O   UNL     1       9.222   6.620 -14.162  1.00  0.00    -0.507 OA
ATOM     23  H   UNL     1       8.727   5.799 -14.478  1.00  0.00     0.293 HD
ENDBRANCH   6  22
BRANCH   8  24
ATOM     24  O   UNL     1       6.110   9.358 -11.737  1.00  0.00    -0.508 OA
ATOM     25  H   UNL     1       5.863   8.574 -11.145  1.00  0.00     0.293 HD
ENDBRANCH   8  24
TORSDOF 5
ENDMDL
MODEL 2
REMARK VINA RESULT:    -6.594      2.739      7.679
REMARK INTER + INTRA:          -8.015
REMARK INTER:                  -7.721
REMARK INTRA:                  -0.294
REMARK UNBOUND:                -0.264
REMARK SMILES O=c1c(O)c(-c2ccc(O)cc2)oc2cc(O)cc(O)c12
REMARK SMILES IDX 5 1 3 2 2 3 1 4 21 5 19 6 18 7 16 8 15 9 14 10 13 11 6 12
REMARK SMILES IDX 7 13 8 14 9 15 12 16 11 17 10 18 4 20 20 22 17 24
REMARK H PARENT 10 19 4 21 20 23 17 25
REMARK Flexibility Score: inf
ROOT
ATOM      1  C   UNL     1       9.274  12.208 -18.196  1.00  0.00     0.180 A 
ATOM      2  C   UNL     1       9.787  13.183 -17.322  1.00  0.00     0.208 A 
ATOM      3  C   UNL     1       9.939  14.499 -17.786  1.00  0.00     0.238 A 
ATOM      4  O   UNL     1      10.347  15.379 -16.983  1.00  0.00    -0.285 OA
ATOM      5  C   UNL     1       9.591  14.822 -19.119  1.00  0.00     0.111 A 
ATOM      6  C   UNL     1       9.741  16.115 -19.706  1.00  0.00     0.134 A 
ATOM      7  C   UNL     1       9.243  16.351 -20.994  1.00  0.00     0.093 A 
ATOM      8  C   UNL     1       8.659  15.323 -21.739  1.00  0.00     0.123 A 
ATOM      9  C   UNL     1       8.562  14.044 -21.198  1.00  0.00     0.094 A 
ATOM     10  C   UNL     1       9.017  13.786 -19.902  1.00  0.00     0.146 A 
ATOM     11  O   UNL     1       8.896  12.556 -19.419  1.00  0.00    -0.452 OA
ENDROOT
BRANCH   1  12
ATOM     12  C   UNL     1       9.109  10.794 -17.788  1.00  0.00     0.021 A 
ATOM     13  C   UNL     1      10.176   9.880 -17.866  1.00  0.00     0.016 A 
ATOM     14  C   UNL     1       9.989   8.543 -17.498  1.00  0.00     0.047 A 
ATOM     15  C   UNL     1       8.734   8.101 -17.062  1.00  0.00     0.115 A 
ATOM     16  C   UNL     1       7.848  10.338 -17.369  1.00  0.00     0.016 A 
ATOM     17  C   UNL     1       7.664   9.001 -17.001  1.00  0.00     0.047 A 
BRANCH  15  18
ATOM     18  O   UNL     1       8.536   6.773 -16.691  1.00  0.00    -0.508 OA
ATOM     19  H   UNL     1       8.398   6.046 -17.384  1.00  0.00     0.293 HD
ENDBRANCH  15  18
ENDBRANCH   1  12
BRANCH   2  20
ATOM     20  O   UNL     1      10.104  12.848 -16.003  1.00  0.00    -0.502 OA
ATOM     21  H   UNL     1      11.034  12.968 -15.620  1.00  0.00     0.293 HD
ENDBRANCH   2  20
BRANCH   6  22
ATOM     22  O   UNL     1      10.392  17.184 -19.083  1.00  0.00    -0.507 OA
ATOM     23  H   UNL     1      11.392  17.311 -19.057  1.00  0.00     0.293 HD
ENDBRANCH   6  22
BRANCH   8  24
ATOM     24  O   UNL     1       8.180  15.563 -23.026  1.00  0.00    -0.508 OA
ATOM     25  H   UNL     1       7.210  15.805 -23.193  1.00  0.00     0.293 HD
ENDBRANCH   8  24
TORSDOF 5
ENDMDL
MODEL 3
REMARK VINA RESULT:    -6.545      2.726      7.732
REMARK INTER + INTRA:          -7.957
REMARK INTER:                  -7.678
REMARK INTRA:                  -0.279
REMARK UNBOUND:                -0.264
REMARK SMILES O=c1c(O)c(-c2ccc(O)cc2)oc2cc(O)cc(O)c12
REMARK SMILES IDX 5 1 3 2 2 3 1 4 21 5 19 6 18 7 16 8 15 9 14 10 13 11 6 12
REMARK SMILES IDX 7 13 8 14 9 15 12 16 11 17 10 18 4 20 20 22 17 24
REMARK H PARENT 10 19 4 21 20 23 17 25
REMARK Flexibility Score: inf
ROOT
ATOM      1  C   UNL     1       9.180  12.183 -18.261  1.00  0.00     0.180 A 
ATOM      2  C   UNL     1       9.699  13.154 -17.385  1.00  0.00     0.208 A 
ATOM      3  C   UNL     1       9.874  14.466 -17.850  1.00  0.00     0.238 A 
ATOM      4  O   UNL     1      10.288  15.342 -17.046  1.00  0.00    -0.285 OA
ATOM      5  C   UNL     1       9.541  14.791 -19.188  1.00  0.00     0.111 A 
ATOM      6  C   UNL     1       9.715  16.080 -19.776  1.00  0.00     0.134 A 
ATOM      7  C   UNL     1       9.230  16.320 -21.068  1.00  0.00     0.093 A 
ATOM      8  C   UNL     1       8.638  15.299 -21.816  1.00  0.00     0.123 A 
ATOM      9  C   UNL     1       8.518  14.023 -21.273  1.00  0.00     0.094 A 
ATOM     10  C   UNL     1       8.959  13.762 -19.973  1.00  0.00     0.146 A 
ATOM     11  O   UNL     1       8.817  12.534 -19.489  1.00  0.00    -0.452 OA
ENDROOT
BRANCH   1  12
ATOM     12  C   UNL     1       8.992  10.773 -17.852  1.00  0.00     0.021 A 
ATOM     13  C   UNL     1       7.758  10.309 -17.362  1.00  0.00     0.016 A 
ATOM     14  C   UNL     1       7.612   8.978 -16.958  1.00  0.00     0.047 A 
ATOM     15  C   UNL     1       8.699   8.098 -17.027  1.00  0.00     0.115 A 
ATOM     16  C   UNL     1      10.084   9.889 -17.898  1.00  0.00     0.016 A 
ATOM     17  C   UNL     1       9.935   8.558 -17.496  1.00  0.00     0.047 A 
BRANCH  15  18
ATOM     18  O   UNL     1       8.566   6.770 -16.631  1.00  0.00    -0.508 OA
ATOM     19  H   UNL     1       8.578   6.012 -17.305  1.00  0.00     0.293 HD
ENDBRANCH  15  18
ENDBRANCH   1  12
BRANCH   2  20
ATOM     20  O   UNL     1      10.000  12.817 -16.063  1.00  0.00    -0.502 OA
ATOM     21  H   UNL     1      10.395  11.919 -15.807  1.00  0.00     0.293 HD
ENDBRANCH   2  20
BRANCH   6  22
ATOM     22  O   UNL     1      10.375  17.141 -19.150  1.00  0.00    -0.507 OA
ATOM     23  H   UNL     1       9.923  17.972 -18.799  1.00  0.00     0.293 HD
ENDBRANCH   6  22
BRANCH   8  24
ATOM     24  O   UNL     1       8.173  15.543 -23.107  1.00  0.00    -0.508 OA
ATOM     25  H   UNL     1       7.291  15.165 -23.432  1.00  0.00     0.293 HD
ENDBRANCH   8  24
TORSDOF 5
ENDMDL
MODEL 4
REMARK VINA RESULT:    -6.540      2.634      7.320
REMARK INTER + INTRA:          -7.951
REMARK INTER:                  -7.696
REMARK INTRA:                  -0.255
REMARK UNBOUND:                -0.264
REMARK SMILES O=c1c(O)c(-c2ccc(O)cc2)oc2cc(O)cc(O)c12
REMARK SMILES IDX 5 1 3 2 2 3 1 4 21 5 19 6 18 7 16 8 15 9 14 10 13 11 6 12
REMARK SMILES IDX 7 13 8 14 9 15 12 16 11 17 10 18 4 20 20 22 17 24
REMARK H PARENT 10 19 4 21 20 23 17 25
REMARK Flexibility Score: inf
ROOT
ATOM      1  C   UNL     1       7.554   8.020 -14.645  1.00  0.00     0.180 A 
ATOM      2  C   UNL     1       7.080   8.520 -13.418  1.00  0.00     0.208 A 
ATOM      3  C   UNL     1       7.362   9.850 -13.071  1.00  0.00     0.238 A 
ATOM      4  O   UNL     1       6.889  10.308 -11.998  1.00  0.00    -0.285 OA
ATOM      5  C   UNL     1       8.127  10.660 -13.945  1.00  0.00     0.111 A 
ATOM      6  C   UNL     1       8.506  12.010 -13.676  1.00  0.00     0.134 A 
ATOM      7  C   UNL     1       9.152  12.757 -14.669  1.00  0.00     0.093 A 
ATOM      8  C   UNL     1       9.489  12.183 -15.897  1.00  0.00     0.123 A 
ATOM      9  C   UNL     1       9.177  10.849 -16.147  1.00  0.00     0.094 A 
ATOM     10  C   UNL     1       8.501  10.088 -15.190  1.00  0.00     0.146 A 
ATOM     11  O   UNL     1       8.212   8.824 -15.471  1.00  0.00    -0.452 OA
ENDROOT
BRANCH   1  12
ATOM     12  C   UNL     1       7.319   6.620 -15.069  1.00  0.00     0.021 A 
ATOM     13  C   UNL     1       6.087   6.215 -15.611  1.00  0.00     0.016 A 
ATOM     14  C   UNL     1       5.880   4.882 -15.981  1.00  0.00     0.047 A 
ATOM     15  C   UNL     1       6.898   3.936 -15.802  1.00  0.00     0.115 A 
ATOM     16  C   UNL     1       8.328   5.661 -14.873  1.00  0.00     0.016 A 
ATOM     17  C   UNL     1       8.120   4.330 -15.245  1.00  0.00     0.047 A 
BRANCH  15  18
ATOM     18  O   UNL     1       6.706   2.607 -16.169  1.00  0.00    -0.508 OA
ATOM     19  H   UNL     1       6.919   2.280 -17.104  1.00  0.00     0.293 HD
ENDBRANCH  15  18
ENDBRANCH   1  12
BRANCH   2  20
ATOM     20  O   UNL     1       6.309   7.709 -12.581  1.00  0.00    -0.502 OA
ATOM     21  H   UNL     1       5.517   7.176 -12.920  1.00  0.00     0.293 HD
ENDBRANCH   2  20
BRANCH   6  22
ATOM     22  O   UNL     1       8.298  12.649 -12.450  1.00  0.00    -0.507 OA
ATOM     23  H   UNL     1       8.278  13.649 -12.320  1.00  0.00     0.293 HD
ENDBRANCH   6  22
BRANCH   8  24
ATOM     24  O   UNL     1      10.146  12.929 -16.874  1.00  0.00    -0.508 OA
ATOM     25  H   UNL     1       9.655  13.289 -17.684  1.00  0.00     0.293 HD
ENDBRANCH   8  24
TORSDOF 5
ENDMDL
MODEL 5
REMARK VINA RESULT:    -6.424      2.529      3.628
REMARK INTER + INTRA:          -7.815
REMARK INTER:                  -7.982
REMARK INTRA:                   0.167
REMARK UNBOUND:                -0.264
REMARK SMILES O=c1c(O)c(-c2ccc(O)cc2)oc2cc(O)cc(O)c12
REMARK SMILES IDX 5 1 3 2 2 3 1 4 21 5 19 6 18 7 16 8 15 9 14 10 13 11 6 12
REMARK SMILES IDX 7 13 8 14 9 15 12 16 11 17 10 18 4 20 20 22 17 24
REMARK H PARENT 10 19 4 21 20 23 17 25
REMARK Flexibility Score: inf
ROOT
ATOM      1  C   UNL     1       9.057  13.183 -18.774  1.00  0.00     0.180 A 
ATOM      2  C   UNL     1       9.439  11.858 -19.049  1.00  0.00     0.208 A 
ATOM      3  C   UNL     1       9.513  10.938 -17.992  1.00  0.00     0.238 A 
ATOM      4  O   UNL     1       9.802   9.741 -18.251  1.00  0.00    -0.285 OA
ATOM      5  C   UNL     1       9.219  11.356 -16.671  1.00  0.00     0.111 A 
ATOM      6  C   UNL     1       9.301  10.518 -15.518  1.00  0.00     0.134 A 
ATOM      7  C   UNL     1       8.862  11.003 -14.280  1.00  0.00     0.093 A 
ATOM      8  C   UNL     1       8.406  12.316 -14.141  1.00  0.00     0.123 A 
ATOM      9  C   UNL     1       8.379  13.160 -15.248  1.00  0.00     0.094 A 
ATOM     10  C   UNL     1       8.776  12.694 -16.504  1.00  0.00     0.146 A 
ATOM     11  O   UNL     1       8.725  13.528 -17.536  1.00  0.00    -0.452 OA
ENDROOT
BRANCH   1  12
ATOM     12  C   UNL     1       8.981  14.217 -19.832  1.00  0.00     0.021 A 
ATOM     13  C   UNL     1       9.452  15.524 -19.615  1.00  0.00     0.016 A 
ATOM     14  C   UNL     1       9.348  16.490 -20.622  1.00  0.00     0.047 A 
ATOM     15  C   UNL     1       8.760  16.165 -21.851  1.00  0.00     0.115 A 
ATOM     16  C   UNL     1       8.373  13.904 -21.061  1.00  0.00     0.016 A 
ATOM     17  C   UNL     1       8.271  14.871 -22.066  1.00  0.00     0.047 A 
BRANCH  15  18
ATOM     18  O   UNL     1       8.652  17.117 -22.862  1.00  0.00    -0.508 OA
ATOM     19  H   UNL     1       7.758  17.340 -23.284  1.00  0.00     0.293 HD
ENDBRANCH  15  18
ENDBRANCH   1  12
BRANCH   2  20
ATOM     20  O   UNL     1       9.703  11.461 -20.363  1.00  0.00    -0.502 OA
ATOM     21  H   UNL     1      10.204  12.050 -21.018  1.00  0.00     0.293 HD
ENDBRANCH   2  20
BRANCH   6  22
ATOM     22  O   UNL     1       9.827   9.222 -15.531  1.00  0.00    -0.507 OA
ATOM     23  H   UNL     1       9.665   8.544 -16.260  1.00  0.00     0.293 HD
ENDBRANCH   6  22
BRANCH   8  24
ATOM     24  O   UNL     1       7.986  12.795 -12.902  1.00  0.00    -0.508 OA
ATOM     25  H   UNL     1       7.003  12.863 -12.666  1.00  0.00     0.293 HD
ENDBRANCH   8  24
TORSDOF 5
ENDMDL
MODEL 6
REMARK VINA RESULT:    -6.246      1.927      2.331
REMARK INTER + INTRA:          -7.605
REMARK INTER:                  -7.322
REMARK INTRA:                  -0.283
REMARK UNBOUND:                -0.264
REMARK SMILES O=c1c(O)c(-c2ccc(O)cc2)oc2cc(O)cc(O)c12
REMARK SMILES IDX 5 1 3 2 2 3 1 4 21 5 19 6 18 7 16 8 15 9 14 10 13 11 6 12
REMARK SMILES IDX 7 13 8 14 9 15 12 16 11 17 10 18 4 20 20 22 17 24
REMARK H PARENT 10 19 4 21 20 23 17 25
REMARK Flexibility Score: inf
ROOT
ATOM      1  C   UNL     1       8.630  11.063 -17.629  1.00  0.00     0.180 A 
ATOM      2  C   UNL     1       9.625  10.071 -17.694  1.00  0.00     0.208 A 
ATOM      3  C   UNL     1       9.767   9.178 -16.621  1.00  0.00     0.238 A 
ATOM      4  O   UNL     1      10.622   8.258 -16.708  1.00  0.00    -0.285 OA
ATOM      5  C   UNL     1       8.923   9.295 -15.489  1.00  0.00     0.111 A 
ATOM      6  C   UNL     1       9.005   8.469 -14.328  1.00  0.00     0.134 A 
ATOM      7  C   UNL     1       8.035   8.590 -13.325  1.00  0.00     0.093 A 
ATOM      8  C   UNL     1       7.025   9.552 -13.412  1.00  0.00     0.123 A 
ATOM      9  C   UNL     1       6.973  10.402 -14.513  1.00  0.00     0.094 A 
ATOM     10  C   UNL     1       7.904  10.282 -15.547  1.00  0.00     0.146 A 
ATOM     11  O   UNL     1       7.812  11.105 -16.584  1.00  0.00    -0.452 OA
ENDROOT
BRANCH   1  12
ATOM     12  C   UNL     1       8.437  12.057 -18.709  1.00  0.00     0.021 A 
ATOM     13  C   UNL     1       9.239  13.209 -18.797  1.00  0.00     0.016 A 
ATOM     14  C   UNL     1       9.021  14.146 -19.813  1.00  0.00     0.047 A 
ATOM     15  C   UNL     1       7.993  13.950 -20.743  1.00  0.00     0.115 A 
ATOM     16  C   UNL     1       7.393  11.879 -19.634  1.00  0.00     0.016 A 
ATOM     17  C   UNL     1       7.179  12.816 -20.649  1.00  0.00     0.047 A 
BRANCH  15  18
ATOM     18  O   UNL     1       7.767  14.875 -21.760  1.00  0.00    -0.508 OA
ATOM     19  H   UNL     1       7.708  14.590 -22.731  1.00  0.00     0.293 HD
ENDBRANCH  15  18
ENDBRANCH   1  12
BRANCH   2  20
ATOM     20  O   UNL     1      10.432   9.960 -18.829  1.00  0.00    -0.502 OA
ATOM     21  H   UNL     1      10.768  10.769 -19.339  1.00  0.00     0.293 HD
ENDBRANCH   2  20
BRANCH   6  22
ATOM     22  O   UNL     1      10.026   7.541 -14.101  1.00  0.00    -0.507 OA
ATOM     23  H   UNL     1      10.630   7.538 -13.292  1.00  0.00     0.293 HD
ENDBRANCH   6  22
BRANCH   8  24
ATOM     24  O   UNL     1       6.074   9.675 -12.401  1.00  0.00    -0.508 OA
ATOM     25  H   UNL     1       5.885   8.918 -11.756  1.00  0.00     0.293 HD
ENDBRANCH   8  24
TORSDOF 5
ENDMDL
MODEL 7
REMARK VINA RESULT:    -6.219      2.883      7.417
REMARK INTER + INTRA:          -7.574
REMARK INTER:                  -7.353
REMARK INTRA:                  -0.222
REMARK UNBOUND:                -0.264
REMARK SMILES O=c1c(O)c(-c2ccc(O)cc2)oc2cc(O)cc(O)c12
REMARK SMILES IDX 5 1 3 2 2 3 1 4 21 5 19 6 18 7 16 8 15 9 14 10 13 11 6 12
REMARK SMILES IDX 7 13 8 14 9 15 12 16 11 17 10 18 4 20 20 22 17 24
REMARK H PARENT 10 19 4 21 20 23 17 25
REMARK Flexibility Score: inf
ROOT
ATOM      1  C   UNL     1       9.160  12.695 -18.572  1.00  0.00     0.180 A 
ATOM      2  C   UNL     1       9.184  12.764 -19.976  1.00  0.00     0.208 A 
ATOM      3  C   UNL     1       8.923  13.993 -20.602  1.00  0.00     0.238 A 
ATOM      4  O   UNL     1       9.000  14.061 -21.857  1.00  0.00    -0.285 OA
ATOM      5  C   UNL     1       8.624  15.134 -19.819  1.00  0.00     0.111 A 
ATOM      6  C   UNL     1       8.304  16.420 -20.348  1.00  0.00     0.134 A 
ATOM      7  C   UNL     1       8.154  17.507 -19.478  1.00  0.00     0.093 A 
ATOM      8  C   UNL     1       8.248  17.341 -18.094  1.00  0.00     0.123 A 
ATOM      9  C   UNL     1       8.501  16.078 -17.565  1.00  0.00     0.094 A 
ATOM     10  C   UNL     1       8.692  14.981 -18.409  1.00  0.00     0.146 A 
ATOM     11  O   UNL     1       8.941  13.796 -17.864  1.00  0.00    -0.452 OA
ENDROOT
BRANCH   1  12
ATOM     12  C   UNL     1       9.400  11.429 -17.841  1.00  0.00     0.021 A 
ATOM     13  C   UNL     1       8.451  10.391 -17.842  1.00  0.00     0.016 A 
ATOM     14  C   UNL     1       8.690   9.214 -17.124  1.00  0.00     0.047 A 
ATOM     15  C   UNL     1       9.872   9.067 -16.387  1.00  0.00     0.115 A 
ATOM     16  C   UNL     1      10.573  11.282 -17.082  1.00  0.00     0.016 A 
ATOM     17  C   UNL     1      10.810  10.105 -16.366  1.00  0.00     0.047 A 
BRANCH  15  18
ATOM     18  O   UNL     1      10.122   7.900 -15.669  1.00  0.00    -0.508 OA
ATOM     19  H   UNL     1       9.382   7.415 -15.173  1.00  0.00     0.293 HD
ENDBRANCH  15  18
ENDBRANCH   1  12
BRANCH   2  20
ATOM     20  O   UNL     1       9.503  11.631 -20.730  1.00  0.00    -0.502 OA
ATOM     21  H   UNL     1      10.455  11.302 -20.842  1.00  0.00     0.293 HD
ENDBRANCH   2  20
BRANCH   6  22
ATOM     22  O   UNL     1       8.097  16.675 -21.708  1.00  0.00    -0.507 OA
ATOM     23  H   UNL     1       7.193  16.794 -22.138  1.00  0.00     0.293 HD
ENDBRANCH   6  22
BRANCH   8  24
ATOM     24  O   UNL     1       8.082  18.425 -17.235  1.00  0.00    -0.508 OA
ATOM     25  H   UNL     1       7.281  18.495 -16.619  1.00  0.00     0.293 HD
ENDBRANCH   8  24
TORSDOF 5
ENDMDL
MODEL 8
REMARK VINA RESULT:    -6.133      2.686      6.648
REMARK INTER + INTRA:          -7.473
REMARK INTER:                  -7.479
REMARK INTRA:                   0.007
REMARK UNBOUND:                -0.264
REMARK SMILES O=c1c(O)c(-c2ccc(O)cc2)oc2cc(O)cc(O)c12
REMARK SMILES IDX 5 1 3 2 2 3 1 4 21 5 19 6 18 7 16 8 15 9 14 10 13 11 6 12
REMARK SMILES IDX 7 13 8 14 9 15 12 16 11 17 10 18 4 20 20 22 17 24
REMARK H PARENT 10 19 4 21 20 23 17 25
REMARK Flexibility Score: inf
ROOT
ATOM      1  C   UNL     1       8.446   8.159 -16.040  1.00  0.00     0.180 A 
ATOM      2  C   UNL     1       9.085   8.769 -17.135  1.00  0.00     0.208 A 
ATOM      3  C   UNL     1       9.393  10.137 -17.067  1.00  0.00     0.238 A 
ATOM      4  O   UNL     1      10.013  10.665 -18.027  1.00  0.00    -0.285 OA
ATOM      5  C   UNL     1       9.047  10.882 -15.914  1.00  0.00     0.111 A 
ATOM      6  C   UNL     1       9.275  12.282 -15.755  1.00  0.00     0.134 A 
ATOM      7  C   UNL     1       9.010  12.888 -14.520  1.00  0.00     0.093 A 
ATOM      8  C   UNL     1       8.463  12.159 -13.462  1.00  0.00     0.123 A 
ATOM      9  C   UNL     1       8.181  10.805 -13.627  1.00  0.00     0.094 A 
ATOM     10  C   UNL     1       8.468  10.164 -14.834  1.00  0.00     0.146 A 
ATOM     11  O   UNL     1       8.194   8.870 -14.948  1.00  0.00    -0.452 OA
ENDROOT
BRANCH   1  12
ATOM     12  C   UNL     1       8.066   6.728 -16.047  1.00  0.00     0.021 A 
ATOM     13  C   UNL     1       7.341   6.167 -17.113  1.00  0.00     0.016 A 
ATOM     14  C   UNL     1       6.971   4.818 -17.086  1.00  0.00     0.047 A 
ATOM     15  C   UNL     1       7.311   4.018 -15.988  1.00  0.00     0.115 A 
ATOM     16  C   UNL     1       8.385   5.923 -14.940  1.00  0.00     0.016 A 
ATOM     17  C   UNL     1       8.016   4.574 -14.915  1.00  0.00     0.047 A 
BRANCH  15  18
ATOM     18  O   UNL     1       6.951   2.673 -15.950  1.00  0.00    -0.508 OA
ATOM     19  H   UNL     1       7.559   1.952 -16.322  1.00  0.00     0.293 HD
ENDBRANCH  15  18
ENDBRANCH   1  12
BRANCH   2  20
ATOM     20  O   UNL     1       9.437   8.010 -18.254  1.00  0.00    -0.502 OA
ATOM     21  H   UNL     1       9.274   8.331 -19.201  1.00  0.00     0.293 HD
ENDBRANCH   2  20
BRANCH   6  22
ATOM     22  O   UNL     1       9.731  13.120 -16.777  1.00  0.00    -0.507 OA
ATOM     23  H   UNL     1      10.541  12.937 -17.351  1.00  0.00     0.293 HD
ENDBRANCH   6  22
BRANCH   8  24
ATOM     24  O   UNL     1       8.188  12.774 -12.242  1.00  0.00    -0.508 OA
ATOM     25  H   UNL     1       7.781  12.260 -11.470  1.00  0.00     0.293 HD
ENDBRANCH   8  24
TORSDOF 5
ENDMDL
MODEL 9
REMARK VINA RESULT:    -6.129      2.300      4.138
REMARK INTER + INTRA:          -7.469
REMARK INTER:                  -7.235
REMARK INTRA:                  -0.234
REMARK UNBOUND:                -0.264
REMARK SMILES O=c1c(O)c(-c2ccc(O)cc2)oc2cc(O)cc(O)c12
REMARK SMILES IDX 5 1 3 2 2 3 1 4 21 5 19 6 18 7 16 8 15 9 14 10 13 11 6 12
REMARK SMILES IDX 7 13 8 14 9 15 12 16 11 17 10 18 4 20 20 22 17 24
REMARK H PARENT 10 19 4 21 20 23 17 25
REMARK Flexibility Score: inf
ROOT
ATOM      1  C   UNL     1       8.983  12.983 -18.114  1.00  0.00     0.180 A 
ATOM      2  C   UNL     1       8.199  13.150 -16.958  1.00  0.00     0.208 A 
ATOM      3  C   UNL     1       8.232  12.158 -15.965  1.00  0.00     0.238 A 
ATOM      4  O   UNL     1       7.571  12.339 -14.909  1.00  0.00    -0.285 OA
ATOM      5  C   UNL     1       9.034  11.006 -16.145  1.00  0.00     0.111 A 
ATOM      6  C   UNL     1       9.112   9.920 -15.222  1.00  0.00     0.134 A 
ATOM      7  C   UNL     1      10.038   8.892 -15.441  1.00  0.00     0.093 A 
ATOM      8  C   UNL     1      10.842   8.879 -16.584  1.00  0.00     0.123 A 
ATOM      9  C   UNL     1      10.730   9.903 -17.520  1.00  0.00     0.094 A 
ATOM     10  C   UNL     1       9.842  10.961 -17.311  1.00  0.00     0.146 A 
ATOM     11  O   UNL     1       9.774  11.923 -18.223  1.00  0.00    -0.452 OA
ENDROOT
BRANCH   1  12
ATOM     12  C   UNL     1       8.981  13.972 -19.216  1.00  0.00     0.021 A 
ATOM     13  C   UNL     1       9.659  15.200 -19.100  1.00  0.00     0.016 A 
ATOM     14  C   UNL     1       9.622  16.129 -20.146  1.00  0.00     0.047 A 
ATOM     15  C   UNL     1       8.899  15.848 -21.312  1.00  0.00     0.115 A 
ATOM     16  C   UNL     1       8.241  13.707 -20.381  1.00  0.00     0.016 A 
ATOM     17  C   UNL     1       8.207  14.637 -21.425  1.00  0.00     0.047 A 
BRANCH  15  18
ATOM     18  O   UNL     1       8.856  16.763 -22.361  1.00  0.00    -0.508 OA
ATOM     19  H   UNL     1       9.479  17.563 -22.391  1.00  0.00     0.293 HD
ENDBRANCH  15  18
ENDBRANCH   1  12
BRANCH   2  20
ATOM     20  O   UNL     1       7.431  14.305 -16.791  1.00  0.00    -0.502 OA
ATOM     21  H   UNL     1       6.428  14.317 -16.934  1.00  0.00     0.293 HD
ENDBRANCH   2  20
BRANCH   6  22
ATOM     22  O   UNL     1       8.290   9.790 -14.098  1.00  0.00    -0.507 OA
ATOM     23  H   UNL     1       8.501   9.217 -13.295  1.00  0.00     0.293 HD
ENDBRANCH   6  22
BRANCH   8  24
ATOM     24  O   UNL     1      11.749   7.844 -16.802  1.00  0.00    -0.508 OA
ATOM     25  H   UNL     1      12.206   7.369 -16.032  1.00  0.00     0.293 HD
ENDBRANCH   8  24
TORSDOF 5
ENDMDL
