MODEL 1
REMARK VINA RESULT:    -6.548      0.000      0.000
REMARK INTER + INTRA:          -7.982
REMARK INTER:                  -7.697
REMARK INTRA:                  -0.285
REMARK UNBOUND:                -0.285
REMARK SMILES O=c1cc(-c2ccc(O)c(O)c2)oc2cc(O)cc(O)c12
REMARK SMILES IDX 4 1 3 2 2 3 1 4 21 5 19 6 18 7 16 8 15 9 14 10 13 11 5 12
REMARK SMILES IDX 6 13 7 14 8 15 12 16 10 17 9 18 11 20 20 22 17 24
REMARK H PARENT 9 19 11 21 20 23 17 25
REMARK Flexibility Score: inf
ROOT
ATOM      1  C   UNL     1      18.512  13.203  -0.240  1.00  0.00     0.138 A 
ATOM      2  C   UNL     1      19.639  13.106  -1.067  1.00  0.00     0.100 A 
ATOM      3  C   UNL     1      19.485  13.149  -2.453  1.00  0.00     0.197 A 
ATOM      4  O   UNL     1      20.521  13.116  -3.165  1.00  0.00    -0.289 OA
ATOM      5  C   UNL     1      18.189  13.254  -3.014  1.00  0.00     0.107 A 
ATOM      6  C   UNL     1      17.907  13.273  -4.413  1.00  0.00     0.134 A 
ATOM      7  C   UNL     1      16.592  13.480  -4.850  1.00  0.00     0.093 A 
ATOM      8  C   UNL     1      15.544  13.611  -3.941  1.00  0.00     0.123 A 
ATOM      9  C   UNL     1      15.800  13.544  -2.571  1.00  0.00     0.094 A 
ATOM     10  C   UNL     1      17.106  13.373  -2.103  1.00  0.00     0.146 A 
ATOM     11  O   UNL     1      17.310  13.332  -0.791  1.00  0.00    -0.456 OA
ENDROOT
BRANCH   1  12
ATOM     12  C   UNL     1      18.617  13.159   1.240  1.00  0.00     0.021 A 
ATOM     13  C   UNL     1      17.594  12.556   1.987  1.00  0.00     0.016 A 
ATOM     14  C   UNL     1      17.666  12.508   3.381  1.00  0.00     0.051 A 
ATOM     15  C   UNL     1      18.753  13.066   4.060  1.00  0.00     0.157 A 
ATOM     16  C   UNL     1      19.704  13.736   1.923  1.00  0.00     0.062 A 
ATOM     17  C   UNL     1      19.783  13.694   3.321  1.00  0.00     0.158 A 
BRANCH  15  18
ATOM     18  O   UNL     1      18.767  12.979   5.453  1.00  0.00    -0.504 OA
ATOM     19  H   UNL     1      19.162  13.684   6.060  1.00  0.00     0.293 HD
ENDBRANCH  15  18
BRANCH  17  20
ATOM     20  O   UNL     1      20.891  14.289   3.930  1.00  0.00    -0.504 OA
ATOM     21  H   UNL     1      20.874  15.198   4.371  1.00  0.00     0.293 HD
ENDBRANCH  17  20
ENDBRANCH   1  12
BRANCH   6  22
ATOM     22  O   UNL     1      18.868  13.073  -5.410  1.00  0.00    -0.507 OA
ATOM     23  H   UNL     1      19.279  13.800  -5.974  1.00  0.00     0.293 HD
ENDBRANCH   6  22
BRANCH   8  24
ATOM     24  O   UNL     1      14.246  13.800  -4.411  1.00  0.00    -0.508 OA
ATOM     25  H   UNL     1      14.064  14.064  -5.372  1.00  0.00     0.293 HD
ENDBRANCH   8  24
TORSDOF 5
ENDMDL
MODEL 2
REMARK VINA RESULT:    -6.488      2.611      5.309
REMARK INTER + INTRA:          -7.911
REMARK INTER:                  -7.614
REMARK INTRA:                  -0.297
REMARK UNBOUND:                -0.285
REMARK SMILES O=c1cc(-c2ccc(O)c(O)c2)oc2cc(O)cc(O)c12
REMARK SMILES IDX 4 1 3 2 2 3 1 4 21 5 19 6 18 7 16 8 15 9 14 10 13 11 5 12
REMARK SMILES IDX 6 13 7 14 8 15 12 16 10 17 9 18 11 20 20 22 17 24
REMARK H PARENT 9 19 11 21 20 23 17 25
REMARK Flexibility Score: inf
ROOT
ATOM      1  C   UNL     1      16.595  12.967  -4.191  1.00  0.00     0.138 A 
ATOM      2  C   UNL     1      15.202  13.067  -4.074  1.00  0.00     0.100 A 
ATOM      3  C   UNL     1      14.401  12.922  -5.207  1.00  0.00     0.197 A 
ATOM      4  O   UNL     1      13.152  12.962  -5.059  1.00  0.00    -0.289 OA
ATOM      5  C   UNL     1      15.002  12.712  -6.472  1.00  0.00     0.107 A 
ATOM      6  C   UNL     1      14.288  12.584  -7.701  1.00  0.00     0.134 A 
ATOM      7  C   UNL     1      14.987  12.279  -8.876  1.00  0.00     0.093 A 
ATOM      8  C   UNL     1      16.376  12.156  -8.878  1.00  0.00     0.123 A 
ATOM      9  C   UNL     1      17.089  12.328  -7.691  1.00  0.00     0.094 A 
ATOM     10  C   UNL     1      16.418  12.598  -6.495  1.00  0.00     0.146 A 
ATOM     11  O   UNL     1      17.133  12.738  -5.384  1.00  0.00    -0.456 OA
ENDROOT
BRANCH   1  12
ATOM     12  C   UNL     1      17.494  13.116  -3.019  1.00  0.00     0.021 A 
ATOM     13  C   UNL     1      18.884  13.109  -3.211  1.00  0.00     0.016 A 
ATOM     14  C   UNL     1      19.752  13.240  -2.126  1.00  0.00     0.051 A 
ATOM     15  C   UNL     1      19.254  13.372  -0.826  1.00  0.00     0.157 A 
ATOM     16  C   UNL     1      16.992  13.232  -1.710  1.00  0.00     0.062 A 
ATOM     17  C   UNL     1      17.856  13.362  -0.614  1.00  0.00     0.158 A 
BRANCH  15  18
ATOM     18  O   UNL     1      20.175  13.506   0.215  1.00  0.00    -0.504 OA
ATOM     19  H   UNL     1      20.201  14.291   0.850  1.00  0.00     0.293 HD
ENDBRANCH  15  18
BRANCH  17  20
ATOM     20  O   UNL     1      17.285  13.472   0.657  1.00  0.00    -0.504 OA
ATOM     21  H   UNL     1      16.430  13.012   0.933  1.00  0.00     0.293 HD
ENDBRANCH  17  20
ENDBRANCH   1  12
BRANCH   6  22
ATOM     22  O   UNL     1      12.908  12.767  -7.829  1.00  0.00    -0.507 OA
ATOM     23  H   UNL     1      12.282  12.142  -8.312  1.00  0.00     0.293 HD
ENDBRANCH   6  22
BRANCH   8  24
ATOM     24  O   UNL     1      17.039  11.868 -10.069  1.00  0.00    -0.508 OA
ATOM     25  H   UNL     1      16.790  12.325 -10.938  1.00  0.00     0.293 HD
ENDBRANCH   8  24
TORSDOF 5
ENDMDL
MODEL 3
REMARK VINA RESULT:    -6.443      3.182      5.841
REMARK INTER + INTRA:          -7.858
REMARK INTER:                  -7.550
REMARK INTRA:                  -0.308
REMARK UNBOUND:                -0.285
REMARK SMILES O=c1cc(-c2ccc(O)c(O)c2)oc2cc(O)cc(O)c12
REMARK SMILES IDX 4 1 3 2 2 3 1 4 21 5 19 6 18 7 16 8 15 9 14 10 13 11 5 12
REMARK SMILES IDX 6 13 7 14 8 15 12 16 10 17 9 18 11 20 20 22 17 24
REMARK H PARENT 9 19 11 21 20 23 17 25
REMARK Flexibility Score: inf
ROOT
ATOM      1  C   UNL     1      15.089  12.720  -3.511  1.00  0.00     0.138 A 
ATOM      2  C   UNL     1      14.903  12.956  -4.880  1.00  0.00     0.100 A 
ATOM      3  C   UNL     1      13.652  12.734  -5.455  1.00  0.00     0.197 A 
ATOM      4  O   UNL     1      13.503  13.008  -6.674  1.00  0.00    -0.289 OA
ATOM      5  C   UNL     1      12.589  12.238  -4.661  1.00  0.00     0.107 A 
ATOM      6  C   UNL     1      11.280  11.942  -5.145  1.00  0.00     0.134 A 
ATOM      7  C   UNL     1      10.283  11.549  -4.244  1.00  0.00     0.093 A 
ATOM      8  C   UNL     1      10.561  11.386  -2.887  1.00  0.00     0.123 A 
ATOM      9  C   UNL     1      11.850  11.625  -2.410  1.00  0.00     0.094 A 
ATOM     10  C   UNL     1      12.858  12.052  -3.278  1.00  0.00     0.146 A 
ATOM     11  O   UNL     1      14.068  12.285  -2.781  1.00  0.00    -0.456 OA
ENDROOT
BRANCH   1  12
ATOM     12  C   UNL     1      16.400  12.937  -2.848  1.00  0.00     0.021 A 
ATOM     13  C   UNL     1      17.580  12.803  -3.594  1.00  0.00     0.016 A 
ATOM     14  C   UNL     1      18.825  12.994  -2.992  1.00  0.00     0.051 A 
ATOM     15  C   UNL     1      18.922  13.313  -1.635  1.00  0.00     0.157 A 
ATOM     16  C   UNL     1      16.495  13.242  -1.477  1.00  0.00     0.062 A 
ATOM     17  C   UNL     1      17.741  13.433  -0.865  1.00  0.00     0.158 A 
BRANCH  15  18
ATOM     18  O   UNL     1      20.197  13.498  -1.096  1.00  0.00    -0.504 OA
ATOM     19  H   UNL     1      20.464  14.296  -0.538  1.00  0.00     0.293 HD
ENDBRANCH  15  18
BRANCH  17  20
ATOM     20  O   UNL     1      17.758  13.732   0.500  1.00  0.00    -0.504 OA
ATOM     21  H   UNL     1      17.411  13.113   1.218  1.00  0.00     0.293 HD
ENDBRANCH  17  20
ENDBRANCH   1  12
BRANCH   6  22
ATOM     22  O   UNL     1      10.913  11.993  -6.494  1.00  0.00    -0.507 OA
ATOM     23  H   UNL     1      10.947  11.216  -7.135  1.00  0.00     0.293 HD
ENDBRANCH   6  22
BRANCH   8  24
ATOM     24  O   UNL     1       9.548  10.979  -2.022  1.00  0.00    -0.508 OA
ATOM     25  H   UNL     1       8.798  10.372  -2.332  1.00  0.00     0.293 HD
ENDBRANCH   8  24
TORSDOF 5
ENDMDL
MODEL 4
REMARK VINA RESULT:    -6.420      2.771      7.757
REMARK INTER + INTRA:          -7.831
REMARK INTER:                  -7.534
REMARK INTRA:                  -0.297
REMARK UNBOUND:                -0.285
REMARK SMILES O=c1cc(-c2ccc(O)c(O)c2)oc2cc(O)cc(O)c12
REMARK SMILES IDX 4 1 3 2 2 3 1 4 21 5 19 6 18 7 16 8 15 9 14 10 13 11 5 12
REMARK SMILES IDX 6 13 7 14 8 15 12 16 10 17 9 18 11 20 20 22 17 24
REMARK H PARENT 9 19 11 21 20 23 17 25
REMARK Flexibility Score: inf
ROOT
ATOM      1  C   UNL     1      14.841  12.719  -2.637  1.00  0.00     0.138 A 
ATOM      2  C   UNL     1      16.144  13.215  -2.780  1.00  0.00     0.100 A 
ATOM      3  C   UNL     1      16.967  13.327  -1.659  1.00  0.00     0.197 A 
ATOM      4  O   UNL     1      18.148  13.723  -1.828  1.00  0.00    -0.289 OA
ATOM      5  C   UNL     1      16.468  12.972  -0.381  1.00  0.00     0.107 A 
ATOM      6  C   UNL     1      17.204  13.076   0.837  1.00  0.00     0.134 A 
ATOM      7  C   UNL     1      16.639  12.602   2.028  1.00  0.00     0.093 A 
ATOM      8  C   UNL     1      15.345  12.082   2.054  1.00  0.00     0.123 A 
ATOM      9  C   UNL     1      14.598  12.022   0.878  1.00  0.00     0.094 A 
ATOM     10  C   UNL     1      15.146  12.454  -0.332  1.00  0.00     0.146 A 
ATOM     11  O   UNL     1      14.408  12.364  -1.433  1.00  0.00    -0.456 OA
ENDROOT
BRANCH   1  12
ATOM     12  C   UNL     1      13.921  12.583  -3.796  1.00  0.00     0.021 A 
ATOM     13  C   UNL     1      12.609  12.133  -3.585  1.00  0.00     0.016 A 
ATOM     14  C   UNL     1      11.727  11.990  -4.658  1.00  0.00     0.051 A 
ATOM     15  C   UNL     1      12.136  12.282  -5.962  1.00  0.00     0.157 A 
ATOM     16  C   UNL     1      14.339  12.862  -5.110  1.00  0.00     0.062 A 
ATOM     17  C   UNL     1      13.462  12.718  -6.193  1.00  0.00     0.158 A 
BRANCH  15  18
ATOM     18  O   UNL     1      11.203  12.123  -6.989  1.00  0.00    -0.504 OA
ATOM     19  H   UNL     1      10.237  12.409  -6.924  1.00  0.00     0.293 HD
ENDBRANCH  15  18
BRANCH  17  20
ATOM     20  O   UNL     1      13.947  13.012  -7.469  1.00  0.00    -0.504 OA
ATOM     21  H   UNL     1      14.639  13.723  -7.660  1.00  0.00     0.293 HD
ENDBRANCH  17  20
ENDBRANCH   1  12
BRANCH   6  22
ATOM     22  O   UNL     1      18.475  13.652   0.939  1.00  0.00    -0.507 OA
ATOM     23  H   UNL     1      18.953  14.138   0.197  1.00  0.00     0.293 HD
ENDBRANCH   6  22
BRANCH   8  24
ATOM     24  O   UNL     1      14.809  11.634   3.260  1.00  0.00    -0.508 OA
ATOM     25  H   UNL     1      13.889  11.213   3.306  1.00  0.00     0.293 HD
ENDBRANCH   8  24
TORSDOF 5
ENDMDL
MODEL 5
REMARK VINA RESULT:    -6.420      2.751      5.273
REMARK INTER + INTRA:          -7.831
REMARK INTER:                  -7.516
REMARK INTRA:                  -0.315
REMARK UNBOUND:                -0.285
REMARK SMILES O=c1cc(-c2ccc(O)c(O)c2)oc2cc(O)cc(O)c12
REMARK SMILES IDX 4 1 3 2 2 3 1 4 21 5 19 6 18 7 16 8 15 9 14 10 13 11 5 12
REMARK SMILES IDX 6 13 7 14 8 15 12 16 10 17 9 18 11 20 20 22 17 24
REMARK H PARENT 9 19 11 21 20 23 17 25
REMARK Flexibility Score: inf
ROOT
ATOM      1  C   UNL     1      15.012  12.662  -3.459  1.00  0.00     0.138 A 
ATOM      2  C   UNL     1      13.618  12.547  -3.549  1.00  0.00     0.100 A 
ATOM      3  C   UNL     1      13.014  12.429  -4.802  1.00  0.00     0.197 A 
ATOM      4  O   UNL     1      11.767  12.273  -4.846  1.00  0.00    -0.289 OA
ATOM      5  C   UNL     1      13.810  12.463  -5.973  1.00  0.00     0.107 A 
ATOM      6  C   UNL     1      13.302  12.386  -7.305  1.00  0.00     0.134 A 
ATOM      7  C   UNL     1      14.196  12.330  -8.382  1.00  0.00     0.093 A 
ATOM      8  C   UNL     1      15.573  12.406  -8.180  1.00  0.00     0.123 A 
ATOM      9  C   UNL     1      16.079  12.532  -6.886  1.00  0.00     0.094 A 
ATOM     10  C   UNL     1      15.215  12.555  -5.788  1.00  0.00     0.146 A 
ATOM     11  O   UNL     1      15.738  12.659  -4.571  1.00  0.00    -0.456 OA
ENDROOT
BRANCH   1  12
ATOM     12  C   UNL     1      15.706  12.793  -2.153  1.00  0.00     0.021 A 
ATOM     13  C   UNL     1      15.004  12.522  -0.969  1.00  0.00     0.016 A 
ATOM     14  C   UNL     1      15.631  12.645   0.272  1.00  0.00     0.051 A 
ATOM     15  C   UNL     1      16.967  13.049   0.361  1.00  0.00     0.157 A 
ATOM     16  C   UNL     1      17.046  13.216  -2.065  1.00  0.00     0.062 A 
ATOM     17  C   UNL     1      17.682  13.344  -0.823  1.00  0.00     0.158 A 
BRANCH  15  18
ATOM     18  O   UNL     1      17.537  13.145   1.632  1.00  0.00    -0.504 OA
ATOM     19  H   UNL     1      18.456  13.524   1.812  1.00  0.00     0.293 HD
ENDBRANCH  15  18
BRANCH  17  20
ATOM     20  O   UNL     1      19.013  13.769  -0.814  1.00  0.00    -0.504 OA
ATOM     21  H   UNL     1      19.405  14.413  -1.485  1.00  0.00     0.293 HD
ENDBRANCH  17  20
ENDBRANCH   1  12
BRANCH   6  22
ATOM     22  O   UNL     1      11.941  12.385  -7.626  1.00  0.00    -0.507 OA
ATOM     23  H   UNL     1      11.254  13.016  -7.244  1.00  0.00     0.293 HD
ENDBRANCH   6  22
BRANCH   8  24
ATOM     24  O   UNL     1      16.432  12.363  -9.277  1.00  0.00    -0.508 OA
ATOM     25  H   UNL     1      16.203  12.827 -10.148  1.00  0.00     0.293 HD
ENDBRANCH   8  24
TORSDOF 5
ENDMDL
MODEL 6
REMARK VINA RESULT:    -6.400      1.712      7.354
REMARK INTER + INTRA:          -7.807
REMARK INTER:                  -7.490
REMARK INTRA:                  -0.318
REMARK UNBOUND:                -0.285
REMARK SMILES O=c1cc(-c2ccc(O)c(O)c2)oc2cc(O)cc(O)c12
REMARK SMILES IDX 4 1 3 2 2 3 1 4 21 5 19 6 18 7 16 8 15 9 14 10 13 11 5 12
REMARK SMILES IDX 6 13 7 14 8 15 12 16 10 17 9 18 11 20 20 22 17 24
REMARK H PARENT 9 19 11 21 20 23 17 25
REMARK Flexibility Score: inf
ROOT
ATOM      1  C   UNL     1      16.249  12.825  -0.054  1.00  0.00     0.138 A 
ATOM      2  C   UNL     1      15.490  12.237   0.968  1.00  0.00     0.100 A 
ATOM      3  C   UNL     1      16.054  12.058   2.231  1.00  0.00     0.197 A 
ATOM      4  O   UNL     1      15.330  11.579   3.141  1.00  0.00    -0.289 OA
ATOM      5  C   UNL     1      17.399  12.438   2.462  1.00  0.00     0.107 A 
ATOM      6  C   UNL     1      18.090  12.273   3.700  1.00  0.00     0.134 A 
ATOM      7  C   UNL     1      19.390  12.778   3.837  1.00  0.00     0.093 A 
ATOM      8  C   UNL     1      20.042  13.389   2.767  1.00  0.00     0.123 A 
ATOM      9  C   UNL     1      19.394  13.512   1.538  1.00  0.00     0.094 A 
ATOM     10  C   UNL     1      18.085  13.050   1.379  1.00  0.00     0.146 A 
ATOM     11  O   UNL     1      17.497  13.202   0.197  1.00  0.00    -0.456 OA
ENDROOT
BRANCH   1  12
ATOM     12  C   UNL     1      15.700  13.035  -1.418  1.00  0.00     0.021 A 
ATOM     13  C   UNL     1      14.355  12.729  -1.675  1.00  0.00     0.016 A 
ATOM     14  C   UNL     1      13.816  12.912  -2.949  1.00  0.00     0.051 A 
ATOM     15  C   UNL     1      14.607  13.394  -3.997  1.00  0.00     0.157 A 
ATOM     16  C   UNL     1      16.501  13.506  -2.475  1.00  0.00     0.062 A 
ATOM     17  C   UNL     1      15.969  13.689  -3.758  1.00  0.00     0.158 A 
BRANCH  15  18
ATOM     18  O   UNL     1      14.005  13.560  -5.246  1.00  0.00    -0.504 OA
ATOM     19  H   UNL     1      14.418  13.256  -6.117  1.00  0.00     0.293 HD
ENDBRANCH  15  18
BRANCH  17  20
ATOM     20  O   UNL     1      16.825  14.158  -4.757  1.00  0.00    -0.504 OA
ATOM     21  H   UNL     1      17.011  15.136  -4.929  1.00  0.00     0.293 HD
ENDBRANCH  17  20
ENDBRANCH   1  12
BRANCH   6  22
ATOM     22  O   UNL     1      17.563  11.606   4.810  1.00  0.00    -0.507 OA
ATOM     23  H   UNL     1      17.583  11.949   5.757  1.00  0.00     0.293 HD
ENDBRANCH   6  22
BRANCH   8  24
ATOM     24  O   UNL     1      21.340  13.867   2.936  1.00  0.00    -0.508 OA
ATOM     25  H   UNL     1      21.839  13.748   3.810  1.00  0.00     0.293 HD
ENDBRANCH   8  24
TORSDOF 5
ENDMDL
MODEL 7
REMARK VINA RESULT:    -6.375      1.541      6.708
REMARK INTER + INTRA:          -7.778
REMARK INTER:                  -7.460
REMARK INTRA:                  -0.318
REMARK UNBOUND:                -0.285
REMARK SMILES O=c1cc(-c2ccc(O)c(O)c2)oc2cc(O)cc(O)c12
REMARK SMILES IDX 4 1 3 2 2 3 1 4 21 5 19 6 18 7 16 8 15 9 14 10 13 11 5 12
REMARK SMILES IDX 6 13 7 14 8 15 12 16 10 17 9 18 11 20 20 22 17 24
REMARK H PARENT 9 19 11 21 20 23 17 25
REMARK Flexibility Score: inf
ROOT
ATOM      1  C   UNL     1      18.361  13.322  -1.286  1.00  0.00     0.138 A 
ATOM      2  C   UNL     1      19.680  13.240  -1.752  1.00  0.00     0.100 A 
ATOM      3  C   UNL     1      20.735  13.219  -0.839  1.00  0.00     0.197 A 
ATOM      4  O   UNL     1      21.903  13.090  -1.287  1.00  0.00    -0.289 OA
ATOM      5  C   UNL     1      20.467  13.317   0.548  1.00  0.00     0.107 A 
ATOM      6  C   UNL     1      21.464  13.339   1.570  1.00  0.00     0.134 A 
ATOM      7  C   UNL     1      21.073  13.339   2.915  1.00  0.00     0.093 A 
ATOM      8  C   UNL     1      19.727  13.375   3.274  1.00  0.00     0.123 A 
ATOM      9  C   UNL     1      18.744  13.403   2.284  1.00  0.00     0.094 A 
ATOM     10  C   UNL     1      19.101  13.369   0.933  1.00  0.00     0.146 A 
ATOM     11  O   UNL     1      18.134  13.380   0.021  1.00  0.00    -0.456 OA
ENDROOT
BRANCH   1  12
ATOM     12  C   UNL     1      17.201  13.351  -2.214  1.00  0.00     0.021 A 
ATOM     13  C   UNL     1      17.426  13.384  -3.598  1.00  0.00     0.016 A 
ATOM     14  C   UNL     1      16.353  13.419  -4.491  1.00  0.00     0.051 A 
ATOM     15  C   UNL     1      15.035  13.431  -4.024  1.00  0.00     0.157 A 
ATOM     16  C   UNL     1      15.875  13.380  -1.741  1.00  0.00     0.062 A 
ATOM     17  C   UNL     1      14.793  13.417  -2.630  1.00  0.00     0.158 A 
BRANCH  15  18
ATOM     18  O   UNL     1      14.008  13.460  -4.969  1.00  0.00    -0.504 OA
ATOM     19  H   UNL     1      13.177  14.029  -4.884  1.00  0.00     0.293 HD
ENDBRANCH  15  18
BRANCH  17  20
ATOM     20  O   UNL     1      13.505  13.446  -2.089  1.00  0.00    -0.504 OA
ATOM     21  H   UNL     1      13.026  12.633  -1.729  1.00  0.00     0.293 HD
ENDBRANCH  17  20
ENDBRANCH   1  12
BRANCH   6  22
ATOM     22  O   UNL     1      22.839  13.386   1.322  1.00  0.00    -0.507 OA
ATOM     23  H   UNL     1      23.513  12.717   1.660  1.00  0.00     0.293 HD
ENDBRANCH   6  22
BRANCH   8  24
ATOM     24  O   UNL     1      19.375  13.389   4.623  1.00  0.00    -0.508 OA
ATOM     25  H   UNL     1      18.761  12.687   5.017  1.00  0.00     0.293 HD
ENDBRANCH   8  24
TORSDOF 5
ENDMDL
MODEL 8
REMARK VINA RESULT:    -6.362      2.864      8.569
REMARK INTER + INTRA:          -7.763
REMARK INTER:                  -7.466
REMARK INTRA:                  -0.297
REMARK UNBOUND:                -0.285
REMARK SMILES O=c1cc(-c2ccc(O)c(O)c2)oc2cc(O)cc(O)c12
REMARK SMILES IDX 4 1 3 2 2 3 1 4 21 5 19 6 18 7 16 8 15 9 14 10 13 11 5 12
REMARK SMILES IDX 6 13 7 14 8 15 12 16 10 17 9 18 11 20 20 22 17 24
REMARK H PARENT 9 19 11 21 20 23 17 25
REMARK Flexibility Score: inf
ROOT
ATOM      1  C   UNL     1      15.553  12.819  -4.747  1.00  0.00     0.138 A 
ATOM      2  C   UNL     1      14.695  12.981  -3.649  1.00  0.00     0.100 A 
ATOM      3  C   UNL     1      15.232  13.161  -2.375  1.00  0.00     0.197 A 
ATOM      4  O   UNL     1      14.438  13.359  -1.420  1.00  0.00    -0.289 OA
ATOM      5  C   UNL     1      16.637  13.143  -2.193  1.00  0.00     0.107 A 
ATOM      6  C   UNL     1      17.297  13.283  -0.935  1.00  0.00     0.134 A 
ATOM      7  C   UNL     1      18.696  13.348  -0.893  1.00  0.00     0.093 A 
ATOM      8  C   UNL     1      19.458  13.221  -2.053  1.00  0.00     0.123 A 
ATOM      9  C   UNL     1      18.826  13.034  -3.282  1.00  0.00     0.094 A 
ATOM     10  C   UNL     1      17.431  13.000  -3.362  1.00  0.00     0.146 A 
ATOM     11  O   UNL     1      16.867  12.838  -4.555  1.00  0.00    -0.456 OA
ENDROOT
BRANCH   1  12
ATOM     12  C   UNL     1      15.035  12.621  -6.124  1.00  0.00     0.021 A 
ATOM     13  C   UNL     1      15.941  12.464  -7.185  1.00  0.00     0.016 A 
ATOM     14  C   UNL     1      15.480  12.283  -8.490  1.00  0.00     0.051 A 
ATOM     15  C   UNL     1      14.111  12.264  -8.769  1.00  0.00     0.157 A 
ATOM     16  C   UNL     1      13.656  12.618  -6.405  1.00  0.00     0.062 A 
ATOM     17  C   UNL     1      13.186  12.439  -7.712  1.00  0.00     0.158 A 
BRANCH  15  18
ATOM     18  O   UNL     1      13.716  12.072 -10.094  1.00  0.00    -0.504 OA
ATOM     19  H   UNL     1      12.754  11.981 -10.390  1.00  0.00     0.293 HD
ENDBRANCH  15  18
BRANCH  17  20
ATOM     20  O   UNL     1      11.803  12.448  -7.915  1.00  0.00    -0.504 OA
ATOM     21  H   UNL     1      11.360  12.233  -8.797  1.00  0.00     0.293 HD
ENDBRANCH  17  20
ENDBRANCH   1  12
BRANCH   6  22
ATOM     22  O   UNL     1      16.635  13.338   0.296  1.00  0.00    -0.507 OA
ATOM     23  H   UNL     1      16.287  14.178   0.730  1.00  0.00     0.293 HD
ENDBRANCH   6  22
BRANCH   8  24
ATOM     24  O   UNL     1      20.848  13.275  -1.972  1.00  0.00    -0.508 OA
ATOM     25  H   UNL     1      21.434  13.066  -2.771  1.00  0.00     0.293 HD
ENDBRANCH   8  24
TORSDOF 5
ENDMDL
MODEL 9
REMARK VINA RESULT:    -6.350      2.373      3.427
REMARK INTER + INTRA:          -7.748
REMARK INTER:                  -7.451
REMARK INTRA:                  -0.297
REMARK UNBOUND:                -0.285
REMARK SMILES O=c1cc(-c2ccc(O)c(O)c2)oc2cc(O)cc(O)c12
REMARK SMILES IDX 4 1 3 2 2 3 1 4 21 5 19 6 18 7 16 8 15 9 14 10 13 11 5 12
REMARK SMILES IDX 6 13 7 14 8 15 12 16 10 17 9 18 11 20 20 22 17 24
REMARK H PARENT 9 19 11 21 20 23 17 25
REMARK Flexibility Score: inf
ROOT
ATOM      1  C   UNL     1      15.811  12.864  -1.346  1.00  0.00     0.138 A 
ATOM      2  C   UNL     1      16.440  13.315  -2.515  1.00  0.00     0.100 A 
ATOM      3  C   UNL     1      15.739  13.310  -3.722  1.00  0.00     0.197 A 
ATOM      4  O   UNL     1      16.312  13.772  -4.742  1.00  0.00    -0.289 OA
ATOM      5  C   UNL     1      14.412  12.816  -3.763  1.00  0.00     0.107 A 
ATOM      6  C   UNL     1      13.611  12.732  -4.942  1.00  0.00     0.134 A 
ATOM      7  C   UNL     1      12.277  12.318  -4.842  1.00  0.00     0.093 A 
ATOM      8  C   UNL     1      11.732  11.931  -3.618  1.00  0.00     0.123 A 
ATOM      9  C   UNL     1      12.520  11.963  -2.467  1.00  0.00     0.094 A 
ATOM     10  C   UNL     1      13.844  12.405  -2.528  1.00  0.00     0.146 A 
ATOM     11  O   UNL     1      14.556  12.436  -1.406  1.00  0.00    -0.456 OA
ENDROOT
BRANCH   1  12
ATOM     12  C   UNL     1      16.511  12.844  -0.037  1.00  0.00     0.021 A 
ATOM     13  C   UNL     1      15.834  12.378   1.100  1.00  0.00     0.016 A 
ATOM     14  C   UNL     1      16.466  12.356   2.344  1.00  0.00     0.051 A 
ATOM     15  C   UNL     1      17.783  12.805   2.484  1.00  0.00     0.157 A 
ATOM     16  C   UNL     1      17.831  13.312   0.106  1.00  0.00     0.062 A 
ATOM     17  C   UNL     1      18.473  13.295   1.351  1.00  0.00     0.158 A 
BRANCH  15  18
ATOM     18  O   UNL     1      18.360  12.750   3.755  1.00  0.00    -0.504 OA
ATOM     19  H   UNL     1      18.508  13.557   4.343  1.00  0.00     0.293 HD
ENDBRANCH  15  18
BRANCH  17  20
ATOM     20  O   UNL     1      19.783  13.776   1.416  1.00  0.00    -0.504 OA
ATOM     21  H   UNL     1      20.322  13.832   2.268  1.00  0.00     0.293 HD
ENDBRANCH  17  20
ENDBRANCH   1  12
BRANCH   6  22
ATOM     22  O   UNL     1      14.078  13.017  -6.229  1.00  0.00    -0.507 OA
ATOM     23  H   UNL     1      13.498  13.130  -7.045  1.00  0.00     0.293 HD
ENDBRANCH   6  22
BRANCH   8  24
ATOM     24  O   UNL     1      10.405  11.510  -3.558  1.00  0.00    -0.508 OA
ATOM     25  H   UNL     1       9.673  11.994  -4.064  1.00  0.00     0.293 HD
ENDBRANCH   8  24
TORSDOF 5
ENDMDL
