MODEL 1
REMARK VINA RESULT:    -3.522      0.000      0.000
REMARK INTER + INTRA:          -8.877
REMARK INTER:                  -6.816
REMARK INTRA:                  -2.061
REMARK UNBOUND:                -2.061
REMARK SMILES CCCCCCCCCCCCCCCCCC(=O)[O-]
REMARK SMILES IDX 10 1 11 2 12 3 13 4 14 5 15 6 16 7 17 8 18 9 19 10 20 11
REMARK SMILES IDX 9 12 8 13 7 14 6 15 5 16 4 17 3 18 2 19 1 20
REMARK H PARENT
REMARK Flexibility Score: inf
ROOT
ATOM      1  C   UNL     1     -18.660   4.151 -24.965  1.00  0.00     0.000 C 
ENDROOT
BRANCH   1   2
ATOM      2  C   UNL     1     -17.596   4.816 -25.864  1.00  0.00     0.000 C 
BRANCH   2   3
ATOM      3  C   UNL     1     -17.418   4.180 -27.255  1.00  0.00     0.000 C 
BRANCH   3   4
ATOM      4  C   UNL     1     -18.339   2.970 -27.481  1.00  0.00     0.000 C 
BRANCH   4   5
ATOM      5  C   UNL     1     -19.685   3.352 -28.125  1.00  0.00     0.000 C 
BRANCH   5   6
ATOM      6  C   UNL     1     -20.890   2.507 -27.674  1.00  0.00     0.000 C 
BRANCH   6   7
ATOM      7  C   UNL     1     -20.580   1.000 -27.617  1.00  0.00     0.006 C 
BRANCH   7   8
ATOM      8  C   UNL     1     -20.993   0.375 -26.278  1.00  0.00     0.053 C 
BRANCH   8   9
ATOM      9  C   UNL     1     -19.803   0.057 -25.425  1.00  0.00     0.041 C 
ATOM     10  O   UNL     1     -19.928  -0.050 -24.177  1.00  0.00    -0.550 OA
ATOM     11  O   UNL     1     -18.549  -0.088 -26.005  1.00  0.00    -0.550 OA
ENDBRANCH   8   9
ENDBRANCH   7   8
ENDBRANCH   6   7
ENDBRANCH   5   6
ENDBRANCH   4   5
ENDBRANCH   3   4
ENDBRANCH   2   3
ENDBRANCH   1   2
BRANCH   1  12
ATOM     12  C   UNL     1     -19.687   5.115 -24.346  1.00  0.00     0.000 C 
BRANCH  12  13
ATOM     13  C   UNL     1     -21.104   4.915 -24.903  1.00  0.00    -0.000 C 
BRANCH  13  14
ATOM     14  C   UNL     1     -21.656   3.534 -24.517  1.00  0.00    -0.000 C 
BRANCH  14  15
ATOM     15  C   UNL     1     -21.739   3.323 -22.995  1.00  0.00    -0.000 C 
BRANCH  15  16
ATOM     16  C   UNL     1     -22.725   4.249 -22.250  1.00  0.00    -0.000 C 
BRANCH  16  17
ATOM     17  C   UNL     1     -22.094   5.123 -21.148  1.00  0.00    -0.000 C 
BRANCH  17  18
ATOM     18  C   UNL     1     -20.632   4.748 -20.817  1.00  0.00    -0.000 C 
BRANCH  18  19
ATOM     19  C   UNL     1     -20.502   3.765 -19.642  1.00  0.00    -0.003 C 
ATOM     20  C   UNL     1     -19.483   2.657 -19.905  1.00  0.00     0.004 C 
ENDBRANCH  18  19
ENDBRANCH  17  18
ENDBRANCH  16  17
ENDBRANCH  15  16
ENDBRANCH  14  15
ENDBRANCH  13  14
ENDBRANCH  12  13
ENDBRANCH   1  12
TORSDOF 16
ENDMDL
MODEL 2
REMARK VINA RESULT:    -3.481      1.230      2.453
REMARK INTER + INTRA:          -8.797
REMARK INTER:                  -6.236
REMARK INTRA:                  -2.561
REMARK UNBOUND:                -2.061
REMARK SMILES CCCCCCCCCCCCCCCCCC(=O)[O-]
REMARK SMILES IDX 10 1 11 2 12 3 13 4 14 5 15 6 16 7 17 8 18 9 19 10 20 11
REMARK SMILES IDX 9 12 8 13 7 14 6 15 5 16 4 17 3 18 2 19 1 20
REMARK H PARENT
REMARK Flexibility Score: inf
ROOT
ATOM      1  C   UNL     1     -18.052   3.516 -25.406  1.00  0.00     0.000 C 
ENDROOT
BRANCH   1   2
ATOM      2  C   UNL     1     -17.225   3.997 -26.615  1.00  0.00     0.000 C 
BRANCH   2   3
ATOM      3  C   UNL     1     -17.975   4.020 -27.960  1.00  0.00     0.000 C 
BRANCH   3   4
ATOM      4  C   UNL     1     -18.992   2.875 -28.096  1.00  0.00     0.000 C 
BRANCH   4   5
ATOM      5  C   UNL     1     -20.451   3.368 -28.124  1.00  0.00     0.000 C 
BRANCH   5   6
ATOM      6  C   UNL     1     -21.508   2.304 -27.783  1.00  0.00     0.000 C 
BRANCH   6   7
ATOM      7  C   UNL     1     -20.894   0.939 -27.426  1.00  0.00     0.006 C 
BRANCH   7   8
ATOM      8  C   UNL     1     -21.075   0.593 -25.942  1.00  0.00     0.053 C 
BRANCH   8   9
ATOM      9  C   UNL     1     -19.794   0.126 -25.321  1.00  0.00     0.041 C 
ATOM     10  O   UNL     1     -19.745  -0.137 -24.091  1.00  0.00    -0.550 OA
ATOM     11  O   UNL     1     -18.646   0.014 -26.095  1.00  0.00    -0.550 OA
ENDBRANCH   8   9
ENDBRANCH   7   8
ENDBRANCH   6   7
ENDBRANCH   5   6
ENDBRANCH   4   5
ENDBRANCH   3   4
ENDBRANCH   2   3
ENDBRANCH   1   2
BRANCH   1  12
ATOM     12  C   UNL     1     -19.036   4.552 -24.833  1.00  0.00     0.000 C 
BRANCH  12  13
ATOM     13  C   UNL     1     -20.390   3.938 -24.446  1.00  0.00    -0.000 C 
BRANCH  13  14
ATOM     14  C   UNL     1     -20.268   3.107 -23.159  1.00  0.00    -0.000 C 
BRANCH  14  15
ATOM     15  C   UNL     1     -21.197   3.598 -22.035  1.00  0.00    -0.000 C 
BRANCH  15  16
ATOM     16  C   UNL     1     -22.059   4.833 -22.378  1.00  0.00    -0.000 C 
BRANCH  16  17
ATOM     17  C   UNL     1     -23.522   4.762 -21.896  1.00  0.00    -0.000 C 
BRANCH  17  18
ATOM     18  C   UNL     1     -24.434   3.902 -22.799  1.00  0.00    -0.000 C 
BRANCH  18  19
ATOM     19  C   UNL     1     -24.376   4.298 -24.284  1.00  0.00    -0.003 C 
ATOM     20  C   UNL     1     -23.890   3.162 -25.182  1.00  0.00     0.004 C 
ENDBRANCH  18  19
ENDBRANCH  17  18
ENDBRANCH  16  17
ENDBRANCH  15  16
ENDBRANCH  14  15
ENDBRANCH  13  14
ENDBRANCH  12  13
ENDBRANCH   1  12
TORSDOF 16
ENDMDL
MODEL 3
REMARK VINA RESULT:    -3.445      1.410      4.630
REMARK INTER + INTRA:          -8.727
REMARK INTER:                  -6.385
REMARK INTRA:                  -2.342
REMARK UNBOUND:                -2.061
REMARK SMILES CCCCCCCCCCCCCCCCCC(=O)[O-]
REMARK SMILES IDX 10 1 11 2 12 3 13 4 14 5 15 6 16 7 17 8 18 9 19 10 20 11
REMARK SMILES IDX 9 12 8 13 7 14 6 15 5 16 4 17 3 18 2 19 1 20
REMARK H PARENT
REMARK Flexibility Score: inf
ROOT
ATOM      1  C   UNL     1     -23.217   5.125 -22.947  1.00  0.00     0.000 C 
ENDROOT
BRANCH   1   2
ATOM      2  C   UNL     1     -24.120   4.083 -23.638  1.00  0.00     0.000 C 
BRANCH   2   3
ATOM      3  C   UNL     1     -24.253   4.234 -25.165  1.00  0.00     0.000 C 
BRANCH   3   4
ATOM      4  C   UNL     1     -24.299   2.883 -25.897  1.00  0.00     0.000 C 
BRANCH   4   5
ATOM      5  C   UNL     1     -22.945   2.148 -25.888  1.00  0.00     0.000 C 
BRANCH   5   6
ATOM      6  C   UNL     1     -21.875   2.736 -26.825  1.00  0.00     0.000 C 
BRANCH   6   7
ATOM      7  C   UNL     1     -20.714   1.763 -27.095  1.00  0.00     0.006 C 
BRANCH   7   8
ATOM      8  C   UNL     1     -20.892   0.429 -26.358  1.00  0.00     0.053 C 
BRANCH   8   9
ATOM      9  C   UNL     1     -19.650   0.032 -25.622  1.00  0.00     0.041 C 
ATOM     10  O   UNL     1     -18.586  -0.200 -26.253  1.00  0.00    -0.550 OA
ATOM     11  O   UNL     1     -19.677  -0.116 -24.240  1.00  0.00    -0.550 OA
ENDBRANCH   8   9
ENDBRANCH   7   8
ENDBRANCH   6   7
ENDBRANCH   5   6
ENDBRANCH   4   5
ENDBRANCH   3   4
ENDBRANCH   2   3
ENDBRANCH   1   2
BRANCH   1  12
ATOM     12  C   UNL     1     -22.703   4.722 -21.553  1.00  0.00     0.000 C 
BRANCH  12  13
ATOM     13  C   UNL     1     -21.186   4.481 -21.524  1.00  0.00    -0.000 C 
BRANCH  13  14
ATOM     14  C   UNL     1     -20.837   3.106 -22.113  1.00  0.00    -0.000 C 
BRANCH  14  15
ATOM     15  C   UNL     1     -20.256   3.191 -23.535  1.00  0.00    -0.000 C 
BRANCH  15  16
ATOM     16  C   UNL     1     -19.709   4.575 -23.948  1.00  0.00    -0.000 C 
BRANCH  16  17
ATOM     17  C   UNL     1     -19.127   4.649 -25.373  1.00  0.00    -0.000 C 
BRANCH  17  18
ATOM     18  C   UNL     1     -17.620   4.317 -25.448  1.00  0.00    -0.000 C 
BRANCH  18  19
ATOM     19  C   UNL     1     -17.258   3.367 -26.603  1.00  0.00    -0.003 C 
ATOM     20  C   UNL     1     -17.807   3.836 -27.949  1.00  0.00     0.004 C 
ENDBRANCH  18  19
ENDBRANCH  17  18
ENDBRANCH  16  17
ENDBRANCH  15  16
ENDBRANCH  14  15
ENDBRANCH  13  14
ENDBRANCH  12  13
ENDBRANCH   1  12
TORSDOF 16
ENDMDL
MODEL 4
REMARK VINA RESULT:    -3.381     12.041     14.534
REMARK INTER + INTRA:          -8.605
REMARK INTER:                  -6.261
REMARK INTRA:                  -2.344
REMARK UNBOUND:                -2.061
REMARK SMILES CCCCCCCCCCCCCCCCCC(=O)[O-]
REMARK SMILES IDX 10 1 11 2 12 3 13 4 14 5 15 6 16 7 17 8 18 9 19 10 20 11
REMARK SMILES IDX 9 12 8 13 7 14 6 15 5 16 4 17 3 18 2 19 1 20
REMARK H PARENT
REMARK Flexibility Score: inf
ROOT
ATOM      1  C   UNL     1      -6.996  -1.009 -22.810  1.00  0.00     0.000 C 
ENDROOT
BRANCH   1   2
ATOM      2  C   UNL     1      -6.304   0.369 -22.795  1.00  0.00     0.000 C 
BRANCH   2   3
ATOM      3  C   UNL     1      -4.998   0.460 -23.608  1.00  0.00     0.000 C 
BRANCH   3   4
ATOM      4  C   UNL     1      -5.206   1.063 -25.007  1.00  0.00     0.000 C 
BRANCH   4   5
ATOM      5  C   UNL     1      -5.564   0.007 -26.069  1.00  0.00     0.000 C 
BRANCH   5   6
ATOM      6  C   UNL     1      -7.023   0.039 -26.557  1.00  0.00     0.000 C 
BRANCH   6   7
ATOM      7  C   UNL     1      -7.806   1.255 -26.034  1.00  0.00     0.006 C 
BRANCH   7   8
ATOM      8  C   UNL     1      -9.278   1.227 -26.468  1.00  0.00     0.053 C 
BRANCH   8   9
ATOM      9  C   UNL     1     -10.015   0.078 -25.853  1.00  0.00     0.041 C 
ATOM     10  O   UNL     1      -9.989  -0.098 -24.606  1.00  0.00    -0.550 OA
ATOM     11  O   UNL     1     -10.705  -0.819 -26.659  1.00  0.00    -0.550 OA
ENDBRANCH   8   9
ENDBRANCH   7   8
ENDBRANCH   6   7
ENDBRANCH   5   6
ENDBRANCH   4   5
ENDBRANCH   3   4
ENDBRANCH   2   3
ENDBRANCH   1   2
BRANCH   1  12
ATOM     12  C   UNL     1      -6.054  -2.212 -22.995  1.00  0.00     0.000 C 
BRANCH  12  13
ATOM     13  C   UNL     1      -6.418  -3.071 -24.215  1.00  0.00    -0.000 C 
BRANCH  13  14
ATOM     14  C   UNL     1      -7.925  -3.004 -24.505  1.00  0.00    -0.000 C 
BRANCH  14  15
ATOM     15  C   UNL     1      -8.269  -3.296 -25.976  1.00  0.00    -0.000 C 
BRANCH  15  16
ATOM     16  C   UNL     1      -7.235  -4.148 -26.743  1.00  0.00    -0.000 C 
BRANCH  16  17
ATOM     17  C   UNL     1      -7.681  -5.591 -27.055  1.00  0.00    -0.000 C 
BRANCH  17  18
ATOM     18  C   UNL     1      -8.338  -6.313 -25.857  1.00  0.00    -0.000 C 
BRANCH  18  19
ATOM     19  C   UNL     1      -8.156  -7.840 -25.888  1.00  0.00    -0.003 C 
ATOM     20  C   UNL     1      -9.481  -8.596 -25.820  1.00  0.00     0.004 C 
ENDBRANCH  18  19
ENDBRANCH  17  18
ENDBRANCH  16  17
ENDBRANCH  15  16
ENDBRANCH  14  15
ENDBRANCH  13  14
ENDBRANCH  12  13
ENDBRANCH   1  12
TORSDOF 16
ENDMDL
MODEL 5
REMARK VINA RESULT:    -3.363     12.427     15.254
REMARK INTER + INTRA:          -8.569
REMARK INTER:                  -6.900
REMARK INTRA:                  -1.669
REMARK UNBOUND:                -2.061
REMARK SMILES CCCCCCCCCCCCCCCCCC(=O)[O-]
REMARK SMILES IDX 10 1 11 2 12 3 13 4 14 5 15 6 16 7 17 8 18 9 19 10 20 11
REMARK SMILES IDX 9 12 8 13 7 14 6 15 5 16 4 17 3 18 2 19 1 20
REMARK H PARENT
REMARK Flexibility Score: inf
ROOT
ATOM      1  C   UNL     1      -7.773  -3.508 -24.887  1.00  0.00     0.000 C 
ENDROOT
BRANCH   1   2
ATOM      2  C   UNL     1      -6.266  -3.320 -25.153  1.00  0.00     0.000 C 
BRANCH   2   3
ATOM      3  C   UNL     1      -5.559  -2.294 -24.247  1.00  0.00     0.000 C 
BRANCH   3   4
ATOM      4  C   UNL     1      -6.342  -1.996 -22.958  1.00  0.00     0.000 C 
BRANCH   4   5
ATOM      5  C   UNL     1      -6.708  -0.507 -22.808  1.00  0.00     0.000 C 
BRANCH   5   6
ATOM      6  C   UNL     1      -6.371   0.375 -24.023  1.00  0.00     0.000 C 
BRANCH   6   7
ATOM      7  C   UNL     1      -7.585   1.158 -24.553  1.00  0.00     0.006 C 
BRANCH   7   8
ATOM      8  C   UNL     1      -8.168   0.529 -25.825  1.00  0.00     0.053 C 
BRANCH   8   9
ATOM      9  C   UNL     1      -9.400  -0.271 -25.533  1.00  0.00     0.041 C 
ATOM     10  O   UNL     1      -9.981  -0.901 -26.455  1.00  0.00    -0.550 OA
ATOM     11  O   UNL     1      -9.927  -0.294 -24.248  1.00  0.00    -0.550 OA
ENDBRANCH   8   9
ENDBRANCH   7   8
ENDBRANCH   6   7
ENDBRANCH   5   6
ENDBRANCH   4   5
ENDBRANCH   3   4
ENDBRANCH   2   3
ENDBRANCH   1   2
BRANCH   1  12
ATOM     12  C   UNL     1      -8.393  -4.774 -25.505  1.00  0.00     0.000 C 
BRANCH  12  13
ATOM     13  C   UNL     1      -7.877  -5.059 -26.923  1.00  0.00    -0.000 C 
BRANCH  13  14
ATOM     14  C   UNL     1      -7.319  -6.486 -27.029  1.00  0.00    -0.000 C 
BRANCH  14  15
ATOM     15  C   UNL     1      -7.581  -7.329 -25.768  1.00  0.00    -0.000 C 
BRANCH  15  16
ATOM     16  C   UNL     1      -8.459  -8.582 -25.977  1.00  0.00    -0.000 C 
BRANCH  16  17
ATOM     17  C   UNL     1      -9.976  -8.312 -26.040  1.00  0.00    -0.000 C 
BRANCH  17  18
ATOM     18  C   UNL     1     -10.578  -8.472 -27.454  1.00  0.00    -0.000 C 
BRANCH  18  19
ATOM     19  C   UNL     1     -10.806  -9.939 -27.860  1.00  0.00    -0.003 C 
ATOM     20  C   UNL     1     -12.285 -10.288 -28.014  1.00  0.00     0.004 C 
ENDBRANCH  18  19
ENDBRANCH  17  18
ENDBRANCH  16  17
ENDBRANCH  15  16
ENDBRANCH  14  15
ENDBRANCH  13  14
ENDBRANCH  12  13
ENDBRANCH   1  12
TORSDOF 16
ENDMDL
MODEL 6
REMARK VINA RESULT:    -3.257     13.300     15.784
REMARK INTER + INTRA:          -8.364
REMARK INTER:                  -7.211
REMARK INTRA:                  -1.153
REMARK UNBOUND:                -2.061
REMARK SMILES CCCCCCCCCCCCCCCCCC(=O)[O-]
REMARK SMILES IDX 10 1 11 2 12 3 13 4 14 5 15 6 16 7 17 8 18 9 19 10 20 11
REMARK SMILES IDX 9 12 8 13 7 14 6 15 5 16 4 17 3 18 2 19 1 20
REMARK H PARENT
REMARK Flexibility Score: inf
ROOT
ATOM      1  C   UNL     1      -7.870  -3.479 -24.900  1.00  0.00     0.000 C 
ENDROOT
BRANCH   1   2
ATOM      2  C   UNL     1      -7.393  -2.302 -25.776  1.00  0.00     0.000 C 
BRANCH   2   3
ATOM      3  C   UNL     1      -7.482  -0.912 -25.120  1.00  0.00     0.000 C 
BRANCH   3   4
ATOM      4  C   UNL     1      -7.984  -0.968 -23.668  1.00  0.00     0.000 C 
BRANCH   4   5
ATOM      5  C   UNL     1      -6.867  -0.725 -22.636  1.00  0.00     0.000 C 
BRANCH   5   6
ATOM      6  C   UNL     1      -5.537  -0.215 -23.220  1.00  0.00     0.000 C 
BRANCH   6   7
ATOM      7  C   UNL     1      -4.991   1.020 -22.482  1.00  0.00     0.006 C 
BRANCH   7   8
ATOM      8  C   UNL     1      -6.088   2.052 -22.191  1.00  0.00     0.053 C 
BRANCH   8   9
ATOM      9  C   UNL     1      -6.447   2.839 -23.414  1.00  0.00     0.041 C 
ATOM     10  O   UNL     1      -5.595   3.587 -23.959  1.00  0.00    -0.550 OA
ATOM     11  O   UNL     1      -7.735   2.772 -23.932  1.00  0.00    -0.550 OA
ENDBRANCH   8   9
ENDBRANCH   7   8
ENDBRANCH   6   7
ENDBRANCH   5   6
ENDBRANCH   4   5
ENDBRANCH   3   4
ENDBRANCH   2   3
ENDBRANCH   1   2
BRANCH   1  12
ATOM     12  C   UNL     1      -8.307  -4.735 -25.675  1.00  0.00     0.000 C 
BRANCH  12  13
ATOM     13  C   UNL     1      -7.182  -5.324 -26.538  1.00  0.00    -0.000 C 
BRANCH  13  14
ATOM     14  C   UNL     1      -6.778  -6.719 -26.037  1.00  0.00    -0.000 C 
BRANCH  14  15
ATOM     15  C   UNL     1      -7.986  -7.627 -25.748  1.00  0.00    -0.000 C 
BRANCH  15  16
ATOM     16  C   UNL     1      -8.805  -8.058 -26.984  1.00  0.00    -0.000 C 
BRANCH  16  17
ATOM     17  C   UNL     1     -10.245  -8.518 -26.686  1.00  0.00    -0.000 C 
BRANCH  17  18
ATOM     18  C   UNL     1     -11.080  -8.813 -27.952  1.00  0.00    -0.000 C 
BRANCH  18  19
ATOM     19  C   UNL     1     -11.746 -10.199 -27.938  1.00  0.00    -0.003 C 
ATOM     20  C   UNL     1     -11.425 -10.998 -26.676  1.00  0.00     0.004 C 
ENDBRANCH  18  19
ENDBRANCH  17  18
ENDBRANCH  16  17
ENDBRANCH  15  16
ENDBRANCH  14  15
ENDBRANCH  13  14
ENDBRANCH  12  13
ENDBRANCH   1  12
TORSDOF 16
ENDMDL
MODEL 7
REMARK VINA RESULT:    -3.180      1.654      3.669
REMARK INTER + INTRA:          -8.216
REMARK INTER:                  -6.251
REMARK INTRA:                  -1.965
REMARK UNBOUND:                -2.061
REMARK SMILES CCCCCCCCCCCCCCCCCC(=O)[O-]
REMARK SMILES IDX 10 1 11 2 12 3 13 4 14 5 15 6 16 7 17 8 18 9 19 10 20 11
REMARK SMILES IDX 9 12 8 13 7 14 6 15 5 16 4 17 3 18 2 19 1 20
REMARK H PARENT
REMARK Flexibility Score: inf
ROOT
ATOM      1  C   UNL     1     -20.525   2.921 -22.486  1.00  0.00     0.000 C 
ENDROOT
BRANCH   1   2
ATOM      2  C   UNL     1     -19.817   3.835 -23.507  1.00  0.00     0.000 C 
BRANCH   2   3
ATOM      3  C   UNL     1     -19.831   3.333 -24.963  1.00  0.00     0.000 C 
BRANCH   3   4
ATOM      4  C   UNL     1     -20.714   4.192 -25.882  1.00  0.00     0.000 C 
BRANCH   4   5
ATOM      5  C   UNL     1     -20.957   3.545 -27.259  1.00  0.00     0.000 C 
BRANCH   5   6
ATOM      6  C   UNL     1     -21.841   2.285 -27.243  1.00  0.00     0.000 C 
BRANCH   6   7
ATOM      7  C   UNL     1     -21.098   1.024 -27.717  1.00  0.00     0.006 C 
BRANCH   7   8
ATOM      8  C   UNL     1     -20.831   0.043 -26.567  1.00  0.00     0.053 C 
BRANCH   8   9
ATOM      9  C   UNL     1     -19.407  -0.420 -26.553  1.00  0.00     0.041 C 
ATOM     10  O   UNL     1     -19.079  -1.481 -27.146  1.00  0.00    -0.550 OA
ATOM     11  O   UNL     1     -18.447   0.302 -25.855  1.00  0.00    -0.550 OA
ENDBRANCH   8   9
ENDBRANCH   7   8
ENDBRANCH   6   7
ENDBRANCH   5   6
ENDBRANCH   4   5
ENDBRANCH   3   4
ENDBRANCH   2   3
ENDBRANCH   1   2
BRANCH   1  12
ATOM     12  C   UNL     1     -20.006   3.030 -21.041  1.00  0.00     0.000 C 
BRANCH  12  13
ATOM     13  C   UNL     1     -20.908   3.894 -20.148  1.00  0.00    -0.000 C 
BRANCH  13  14
ATOM     14  C   UNL     1     -21.675   4.932 -20.981  1.00  0.00    -0.000 C 
BRANCH  14  15
ATOM     15  C   UNL     1     -23.184   4.951 -20.679  1.00  0.00    -0.000 C 
BRANCH  15  16
ATOM     16  C   UNL     1     -24.104   5.123 -21.907  1.00  0.00    -0.000 C 
BRANCH  16  17
ATOM     17  C   UNL     1     -23.406   4.972 -23.273  1.00  0.00    -0.000 C 
BRANCH  17  18
ATOM     18  C   UNL     1     -23.632   3.596 -23.938  1.00  0.00    -0.000 C 
BRANCH  18  19
ATOM     19  C   UNL     1     -24.853   3.560 -24.872  1.00  0.00    -0.003 C 
ATOM     20  C   UNL     1     -24.665   4.410 -26.128  1.00  0.00     0.004 C 
ENDBRANCH  18  19
ENDBRANCH  17  18
ENDBRANCH  16  17
ENDBRANCH  15  16
ENDBRANCH  14  15
ENDBRANCH  13  14
ENDBRANCH  12  13
ENDBRANCH   1  12
TORSDOF 16
ENDMDL
MODEL 8
REMARK VINA RESULT:    -3.142     13.242     15.908
REMARK INTER + INTRA:          -8.142
REMARK INTER:                  -6.676
REMARK INTRA:                  -1.467
REMARK UNBOUND:                -2.061
REMARK SMILES CCCCCCCCCCCCCCCCCC(=O)[O-]
REMARK SMILES IDX 10 1 11 2 12 3 13 4 14 5 15 6 16 7 17 8 18 9 19 10 20 11
REMARK SMILES IDX 9 12 8 13 7 14 6 15 5 16 4 17 3 18 2 19 1 20
REMARK H PARENT
REMARK Flexibility Score: inf
ROOT
ATOM      1  C   UNL     1      -5.880  -6.290 -26.224  1.00  0.00     0.000 C 
ENDROOT
BRANCH   1   2
ATOM      2  C   UNL     1      -6.018  -4.770 -25.999  1.00  0.00     0.000 C 
BRANCH   2   3
ATOM      3  C   UNL     1      -5.820  -3.897 -27.253  1.00  0.00     0.000 C 
BRANCH   3   4
ATOM      4  C   UNL     1      -6.692  -2.631 -27.243  1.00  0.00     0.000 C 
BRANCH   4   5
ATOM      5  C   UNL     1      -8.078  -2.861 -26.613  1.00  0.00     0.000 C 
BRANCH   5   6
ATOM      6  C   UNL     1      -8.779  -1.594 -26.092  1.00  0.00     0.000 C 
BRANCH   6   7
ATOM      7  C   UNL     1      -8.229  -1.117 -24.736  1.00  0.00     0.006 C 
BRANCH   7   8
ATOM      8  C   UNL     1      -7.706  -2.280 -23.882  1.00  0.00     0.053 C 
BRANCH   8   9
ATOM      9  C   UNL     1      -6.286  -2.062 -23.460  1.00  0.00     0.041 C 
ATOM     10  O   UNL     1      -5.785  -2.758 -22.538  1.00  0.00    -0.550 OA
ATOM     11  O   UNL     1      -5.525  -1.067 -24.061  1.00  0.00    -0.550 OA
ENDBRANCH   8   9
ENDBRANCH   7   8
ENDBRANCH   6   7
ENDBRANCH   5   6
ENDBRANCH   4   5
ENDBRANCH   3   4
ENDBRANCH   2   3
ENDBRANCH   1   2
BRANCH   1  12
ATOM     12  C   UNL     1      -7.063  -7.135 -25.720  1.00  0.00     0.000 C 
BRANCH  12  13
ATOM     13  C   UNL     1      -8.424  -6.473 -25.985  1.00  0.00    -0.000 C 
BRANCH  13  14
ATOM     14  C   UNL     1      -8.691  -6.354 -27.493  1.00  0.00    -0.000 C 
BRANCH  14  15
ATOM     15  C   UNL     1      -9.269  -7.642 -28.106  1.00  0.00    -0.000 C 
BRANCH  15  16
ATOM     16  C   UNL     1     -10.271  -8.409 -27.216  1.00  0.00    -0.000 C 
BRANCH  16  17
ATOM     17  C   UNL     1     -11.516  -8.948 -27.949  1.00  0.00    -0.000 C 
BRANCH  17  18
ATOM     18  C   UNL     1     -11.566 -10.490 -28.039  1.00  0.00    -0.000 C 
BRANCH  18  19
ATOM     19  C   UNL     1     -11.484 -11.186 -26.669  1.00  0.00    -0.003 C 
ATOM     20  C   UNL     1     -12.287 -12.485 -26.616  1.00  0.00     0.004 C 
ENDBRANCH  18  19
ENDBRANCH  17  18
ENDBRANCH  16  17
ENDBRANCH  15  16
ENDBRANCH  14  15
ENDBRANCH  13  14
ENDBRANCH  12  13
ENDBRANCH   1  12
TORSDOF 16
ENDMDL
