MODEL 1
REMARK VINA RESULT:    -4.904      0.000      0.000
REMARK INTER + INTRA:         -15.908
REMARK INTER:                 -12.931
REMARK INTRA:                  -2.977
REMARK UNBOUND:                -2.977
REMARK SMILES CCCCCCCCCCCCCCCCCCCCCCCCCCCCCC(=O)[O-]
REMARK SMILES IDX 16 1 17 2 18 3 19 4 20 5 21 6 22 7 23 8 24 9 25 10 26 11
REMARK SMILES IDX 27 12 28 13 29 14 30 15 31 16 32 17 15 18 14 19 13 20 12 21
REMARK SMILES IDX 11 22 10 23 9 24 8 25 7 26 6 27 5 28 4 29 3 30 2 31 1 32
REMARK H PARENT
REMARK Flexibility Score: inf
ROOT
ATOM      1  C   UNL     1      61.142  32.609  15.281  1.00  0.00     0.000 C 
ENDROOT
BRANCH   1   2
ATOM      2  C   UNL     1      61.841  33.061  16.577  1.00  0.00     0.000 C 
BRANCH   2   3
ATOM      3  C   UNL     1      62.065  34.579  16.635  1.00  0.00     0.000 C 
BRANCH   3   4
ATOM      4  C   UNL     1      63.126  34.938  17.686  1.00  0.00     0.000 C 
BRANCH   4   5
ATOM      5  C   UNL     1      64.561  34.717  17.180  1.00  0.00     0.000 C 
BRANCH   5   6
ATOM      6  C   UNL     1      65.592  35.749  17.678  1.00  0.00     0.000 C 
BRANCH   6   7
ATOM      7  C   UNL     1      66.665  35.156  18.617  1.00  0.00     0.000 C 
BRANCH   7   8
ATOM      8  C   UNL     1      66.326  35.361  20.104  1.00  0.00     0.000 C 
BRANCH   8   9
ATOM      9  C   UNL     1      67.452  34.853  21.033  1.00  0.00     0.000 C 
BRANCH   9  10
ATOM     10  C   UNL     1      67.507  33.319  21.152  1.00  0.00     0.000 C 
BRANCH  10  11
ATOM     11  C   UNL     1      67.103  32.763  22.529  1.00  0.00     0.000 C 
BRANCH  11  12
ATOM     12  C   UNL     1      66.677  31.283  22.528  1.00  0.00     0.000 C 
BRANCH  12  13
ATOM     13  C   UNL     1      65.598  30.946  23.579  1.00  0.00     0.006 C 
BRANCH  13  14
ATOM     14  C   UNL     1      65.392  29.434  23.735  1.00  0.00     0.053 C 
BRANCH  14  15
ATOM     15  C   UNL     1      64.125  29.151  24.478  1.00  0.00     0.041 C 
ATOM     16  O   UNL     1      63.356  30.093  24.803  1.00  0.00    -0.550 OA
ATOM     17  O   UNL     1      63.767  27.839  24.765  1.00  0.00    -0.550 OA
ENDBRANCH  14  15
ENDBRANCH  13  14
ENDBRANCH  12  13
ENDBRANCH  11  12
ENDBRANCH  10  11
ENDBRANCH   9  10
ENDBRANCH   8   9
ENDBRANCH   7   8
ENDBRANCH   6   7
ENDBRANCH   5   6
ENDBRANCH   4   5
ENDBRANCH   3   4
ENDBRANCH   2   3
ENDBRANCH   1   2
BRANCH   1  18
ATOM     18  C   UNL     1      61.400  33.503  14.048  1.00  0.00     0.000 C 
BRANCH  18  19
ATOM     19  C   UNL     1      62.479  32.991  13.076  1.00  0.00     0.000 C 
BRANCH  19  20
ATOM     20  C   UNL     1      63.907  33.180  13.614  1.00  0.00     0.000 C 
BRANCH  20  21
ATOM     21  C   UNL     1      64.984  33.014  12.527  1.00  0.00     0.000 C 
BRANCH  21  22
ATOM     22  C   UNL     1      64.710  31.901  11.499  1.00  0.00     0.000 C 
BRANCH  22  23
ATOM     23  C   UNL     1      65.656  31.954  10.290  1.00  0.00     0.000 C 
BRANCH  23  24
ATOM     24  C   UNL     1      65.043  31.224   9.087  1.00  0.00    -0.000 C 
BRANCH  24  25
ATOM     25  C   UNL     1      64.925  29.705   9.301  1.00  0.00    -0.000 C 
BRANCH  25  26
ATOM     26  C   UNL     1      63.486  29.185   9.481  1.00  0.00    -0.000 C 
BRANCH  26  27
ATOM     27  C   UNL     1      62.420  30.207   9.055  1.00  0.00    -0.000 C 
BRANCH  27  28
ATOM     28  C   UNL     1      61.137  30.044   9.878  1.00  0.00    -0.000 C 
BRANCH  28  29
ATOM     29  C   UNL     1      61.371  29.126  11.087  1.00  0.00    -0.000 C 
BRANCH  29  30
ATOM     30  C   UNL     1      60.935  29.763  12.419  1.00  0.00    -0.000 C 
BRANCH  30  31
ATOM     31  C   UNL     1      61.633  29.194  13.668  1.00  0.00    -0.003 C 
ATOM     32  C   UNL     1      63.152  29.351  13.630  1.00  0.00     0.004 C 
ENDBRANCH  30  31
ENDBRANCH  29  30
ENDBRANCH  28  29
ENDBRANCH  27  28
ENDBRANCH  26  27
ENDBRANCH  25  26
ENDBRANCH  24  25
ENDBRANCH  23  24
ENDBRANCH  22  23
ENDBRANCH  21  22
ENDBRANCH  20  21
ENDBRANCH  19  20
ENDBRANCH  18  19
ENDBRANCH   1  18
TORSDOF 28
ENDMDL
MODEL 2
REMARK VINA RESULT:    -4.883      1.453      2.736
REMARK INTER + INTRA:         -15.854
REMARK INTER:                 -12.040
REMARK INTRA:                  -3.814
REMARK UNBOUND:                -2.977
REMARK SMILES CCCCCCCCCCCCCCCCCCCCCCCCCCCCCC(=O)[O-]
REMARK SMILES IDX 16 1 17 2 18 3 19 4 20 5 21 6 22 7 23 8 24 9 25 10 26 11
REMARK SMILES IDX 27 12 28 13 29 14 30 15 31 16 32 17 15 18 14 19 13 20 12 21
REMARK SMILES IDX 11 22 10 23 9 24 8 25 7 26 6 27 5 28 4 29 3 30 2 31 1 32
REMARK H PARENT
REMARK Flexibility Score: inf
ROOT
ATOM      1  C   UNL     1      61.224  32.955  15.302  1.00  0.00     0.000 C 
ENDROOT
BRANCH   1   2
ATOM      2  C   UNL     1      61.921  33.255  16.642  1.00  0.00     0.000 C 
BRANCH   2   3
ATOM      3  C   UNL     1      62.134  34.758  16.878  1.00  0.00     0.000 C 
BRANCH   3   4
ATOM      4  C   UNL     1      63.300  35.001  17.848  1.00  0.00     0.000 C 
BRANCH   4   5
ATOM      5  C   UNL     1      64.675  34.850  17.174  1.00  0.00     0.000 C 
BRANCH   5   6
ATOM      6  C   UNL     1      65.883  35.025  18.114  1.00  0.00     0.000 C 
BRANCH   6   7
ATOM      7  C   UNL     1      67.030  34.026  17.848  1.00  0.00     0.000 C 
BRANCH   7   8
ATOM      8  C   UNL     1      67.992  33.900  19.043  1.00  0.00     0.000 C 
BRANCH   8   9
ATOM      9  C   UNL     1      67.345  34.374  20.363  1.00  0.00     0.000 C 
BRANCH   9  10
ATOM     10  C   UNL     1      67.946  33.713  21.616  1.00  0.00     0.000 C 
BRANCH  10  11
ATOM     11  C   UNL     1      67.038  32.672  22.296  1.00  0.00     0.000 C 
BRANCH  11  12
ATOM     12  C   UNL     1      67.430  31.206  22.038  1.00  0.00     0.000 C 
BRANCH  12  13
ATOM     13  C   UNL     1      67.658  30.387  23.327  1.00  0.00     0.006 C 
BRANCH  13  14
ATOM     14  C   UNL     1      67.267  28.914  23.155  1.00  0.00     0.053 C 
BRANCH  14  15
ATOM     15  C   UNL     1      67.020  28.278  24.486  1.00  0.00     0.041 C 
ATOM     16  O   UNL     1      66.473  27.146  24.556  1.00  0.00    -0.550 OA
ATOM     17  O   UNL     1      67.440  28.913  25.648  1.00  0.00    -0.550 OA
ENDBRANCH  14  15
ENDBRANCH  13  14
ENDBRANCH  12  13
ENDBRANCH  11  12
ENDBRANCH  10  11
ENDBRANCH   9  10
ENDBRANCH   8   9
ENDBRANCH   7   8
ENDBRANCH   6   7
ENDBRANCH   5   6
ENDBRANCH   4   5
ENDBRANCH   3   4
ENDBRANCH   2   3
ENDBRANCH   1   2
BRANCH   1  18
ATOM     18  C   UNL     1      61.725  33.782  14.098  1.00  0.00     0.000 C 
BRANCH  18  19
ATOM     19  C   UNL     1      62.826  33.116  13.253  1.00  0.00     0.000 C 
BRANCH  19  20
ATOM     20  C   UNL     1      64.245  33.459  13.739  1.00  0.00     0.000 C 
BRANCH  20  21
ATOM     21  C   UNL     1      65.037  32.222  14.198  1.00  0.00     0.000 C 
BRANCH  21  22
ATOM     22  C   UNL     1      64.180  30.999  14.574  1.00  0.00     0.000 C 
BRANCH  22  23
ATOM     23  C   UNL     1      64.465  29.773  13.694  1.00  0.00     0.000 C 
BRANCH  23  24
ATOM     24  C   UNL     1      63.175  28.985  13.423  1.00  0.00    -0.000 C 
BRANCH  24  25
ATOM     25  C   UNL     1      61.933  29.628  14.064  1.00  0.00    -0.000 C 
BRANCH  25  26
ATOM     26  C   UNL     1      60.839  30.059  13.069  1.00  0.00    -0.000 C 
BRANCH  26  27
ATOM     27  C   UNL     1      60.440  28.941  12.093  1.00  0.00    -0.000 C 
BRANCH  27  28
ATOM     28  C   UNL     1      60.669  29.369  10.639  1.00  0.00    -0.000 C 
BRANCH  28  29
ATOM     29  C   UNL     1      61.702  28.462   9.954  1.00  0.00    -0.000 C 
BRANCH  29  30
ATOM     30  C   UNL     1      62.851  29.249   9.297  1.00  0.00    -0.000 C 
BRANCH  30  31
ATOM     31  C   UNL     1      63.331  30.478  10.092  1.00  0.00    -0.003 C 
ATOM     32  C   UNL     1      64.849  30.529  10.255  1.00  0.00     0.004 C 
ENDBRANCH  30  31
ENDBRANCH  29  30
ENDBRANCH  28  29
ENDBRANCH  27  28
ENDBRANCH  26  27
ENDBRANCH  25  26
ENDBRANCH  24  25
ENDBRANCH  23  24
ENDBRANCH  22  23
ENDBRANCH  21  22
ENDBRANCH  20  21
ENDBRANCH  19  20
ENDBRANCH  18  19
ENDBRANCH   1  18
TORSDOF 28
ENDMDL
MODEL 3
REMARK VINA RESULT:    -4.868      4.076     10.873
REMARK INTER + INTRA:         -15.814
REMARK INTER:                 -13.127
REMARK INTRA:                  -2.688
REMARK UNBOUND:                -2.977
REMARK SMILES CCCCCCCCCCCCCCCCCCCCCCCCCCCCCC(=O)[O-]
REMARK SMILES IDX 16 1 17 2 18 3 19 4 20 5 21 6 22 7 23 8 24 9 25 10 26 11
REMARK SMILES IDX 27 12 28 13 29 14 30 15 31 16 32 17 15 18 14 19 13 20 12 21
REMARK SMILES IDX 11 22 10 23 9 24 8 25 7 26 6 27 5 28 4 29 3 30 2 31 1 32
REMARK H PARENT
REMARK Flexibility Score: inf
ROOT
ATOM      1  C   UNL     1      62.486  34.002  17.192  1.00  0.00     0.000 C 
ENDROOT
BRANCH   1   2
ATOM      2  C   UNL     1      61.803  34.350  15.856  1.00  0.00     0.000 C 
BRANCH   2   3
ATOM      3  C   UNL     1      61.646  33.132  14.933  1.00  0.00     0.000 C 
BRANCH   3   4
ATOM      4  C   UNL     1      62.065  33.475  13.496  1.00  0.00     0.000 C 
BRANCH   4   5
ATOM      5  C   UNL     1      63.382  32.795  13.083  1.00  0.00     0.000 C 
BRANCH   5   6
ATOM      6  C   UNL     1      64.316  32.424  14.251  1.00  0.00     0.000 C 
BRANCH   6   7
ATOM      7  C   UNL     1      64.630  30.915  14.343  1.00  0.00     0.000 C 
BRANCH   7   8
ATOM      8  C   UNL     1      64.196  30.144  13.084  1.00  0.00     0.000 C 
BRANCH   8   9
ATOM      9  C   UNL     1      63.146  29.055  13.401  1.00  0.00     0.000 C 
BRANCH   9  10
ATOM     10  C   UNL     1      61.851  29.610  14.021  1.00  0.00     0.000 C 
BRANCH  10  11
ATOM     11  C   UNL     1      60.787  30.059  13.003  1.00  0.00     0.000 C 
BRANCH  11  12
ATOM     12  C   UNL     1      60.491  29.041  11.887  1.00  0.00     0.000 C 
BRANCH  12  13
ATOM     13  C   UNL     1      60.997  29.479  10.496  1.00  0.00     0.006 C 
BRANCH  13  14
ATOM     14  C   UNL     1      62.187  28.637  10.020  1.00  0.00     0.053 C 
BRANCH  14  15
ATOM     15  C   UNL     1      63.253  29.514   9.443  1.00  0.00     0.041 C 
ATOM     16  O   UNL     1      62.990  30.700   9.114  1.00  0.00    -0.550 OA
ATOM     17  O   UNL     1      64.552  29.035   9.315  1.00  0.00    -0.550 OA
ENDBRANCH  14  15
ENDBRANCH  13  14
ENDBRANCH  12  13
ENDBRANCH  11  12
ENDBRANCH  10  11
ENDBRANCH   9  10
ENDBRANCH   8   9
ENDBRANCH   7   8
ENDBRANCH   6   7
ENDBRANCH   5   6
ENDBRANCH   4   5
ENDBRANCH   3   4
ENDBRANCH   2   3
ENDBRANCH   1   2
BRANCH   1  18
ATOM     18  C   UNL     1      63.593  34.981  17.640  1.00  0.00     0.000 C 
BRANCH  18  19
ATOM     19  C   UNL     1      64.968  34.769  16.979  1.00  0.00     0.000 C 
BRANCH  19  20
ATOM     20  C   UNL     1      66.118  34.701  17.999  1.00  0.00     0.000 C 
BRANCH  20  21
ATOM     21  C   UNL     1      66.052  35.822  19.052  1.00  0.00     0.000 C 
BRANCH  21  22
ATOM     22  C   UNL     1      66.973  35.630  20.270  1.00  0.00     0.000 C 
BRANCH  22  23
ATOM     23  C   UNL     1      67.545  34.208  20.371  1.00  0.00     0.000 C 
BRANCH  23  24
ATOM     24  C   UNL     1      67.251  33.599  21.750  1.00  0.00    -0.000 C 
BRANCH  24  25
ATOM     25  C   UNL     1      67.388  32.066  21.772  1.00  0.00    -0.000 C 
BRANCH  25  26
ATOM     26  C   UNL     1      66.948  31.395  23.087  1.00  0.00    -0.000 C 
BRANCH  26  27
ATOM     27  C   UNL     1      65.431  31.166  23.167  1.00  0.00    -0.000 C 
BRANCH  27  28
ATOM     28  C   UNL     1      65.092  30.044  24.156  1.00  0.00    -0.000 C 
BRANCH  28  29
ATOM     29  C   UNL     1      64.300  30.587  25.354  1.00  0.00    -0.000 C 
BRANCH  29  30
ATOM     30  C   UNL     1      62.818  30.172  25.332  1.00  0.00    -0.000 C 
BRANCH  30  31
ATOM     31  C   UNL     1      62.570  28.653  25.391  1.00  0.00    -0.003 C 
ATOM     32  C   UNL     1      61.107  28.294  25.645  1.00  0.00     0.004 C 
ENDBRANCH  30  31
ENDBRANCH  29  30
ENDBRANCH  28  29
ENDBRANCH  27  28
ENDBRANCH  26  27
ENDBRANCH  25  26
ENDBRANCH  24  25
ENDBRANCH  23  24
ENDBRANCH  22  23
ENDBRANCH  21  22
ENDBRANCH  20  21
ENDBRANCH  19  20
ENDBRANCH  18  19
ENDBRANCH   1  18
TORSDOF 28
ENDMDL
MODEL 4
REMARK VINA RESULT:    -4.735      1.796      6.039
REMARK INTER + INTRA:         -15.462
REMARK INTER:                 -12.647
REMARK INTRA:                  -2.815
REMARK UNBOUND:                -2.977
REMARK SMILES CCCCCCCCCCCCCCCCCCCCCCCCCCCCCC(=O)[O-]
REMARK SMILES IDX 16 1 17 2 18 3 19 4 20 5 21 6 22 7 23 8 24 9 25 10 26 11
REMARK SMILES IDX 27 12 28 13 29 14 30 15 31 16 32 17 15 18 14 19 13 20 12 21
REMARK SMILES IDX 11 22 10 23 9 24 8 25 7 26 6 27 5 28 4 29 3 30 2 31 1 32
REMARK H PARENT
REMARK Flexibility Score: inf
ROOT
ATOM      1  C   UNL     1      66.881  34.632  20.986  1.00  0.00     0.000 C 
ENDROOT
BRANCH   1   2
ATOM      2  C   UNL     1      67.940  33.572  20.629  1.00  0.00     0.000 C 
BRANCH   2   3
ATOM      3  C   UNL     1      67.651  32.204  21.264  1.00  0.00     0.000 C 
BRANCH   3   4
ATOM      4  C   UNL     1      67.211  32.360  22.728  1.00  0.00     0.000 C 
BRANCH   4   5
ATOM      5  C   UNL     1      65.791  31.827  22.981  1.00  0.00     0.000 C 
BRANCH   5   6
ATOM      6  C   UNL     1      65.725  30.479  23.724  1.00  0.00     0.000 C 
BRANCH   6   7
ATOM      7  C   UNL     1      66.858  30.278  24.754  1.00  0.00     0.000 C 
BRANCH   7   8
ATOM      8  C   UNL     1      67.412  28.842  24.750  1.00  0.00     0.000 C 
BRANCH   8   9
ATOM      9  C   UNL     1      67.385  28.212  23.340  1.00  0.00     0.000 C 
BRANCH   9  10
ATOM     10  C   UNL     1      66.722  26.823  23.298  1.00  0.00     0.000 C 
BRANCH  10  11
ATOM     11  C   UNL     1      66.090  26.368  24.626  1.00  0.00     0.000 C 
BRANCH  11  12
ATOM     12  C   UNL     1      64.555  26.255  24.606  1.00  0.00     0.000 C 
BRANCH  12  13
ATOM     13  C   UNL     1      63.832  27.525  25.102  1.00  0.00     0.006 C 
BRANCH  13  14
ATOM     14  C   UNL     1      63.181  27.324  26.476  1.00  0.00     0.053 C 
BRANCH  14  15
ATOM     15  C   UNL     1      61.872  28.044  26.548  1.00  0.00     0.041 C 
ATOM     16  O   UNL     1      61.537  28.649  27.599  1.00  0.00    -0.550 OA
ATOM     17  O   UNL     1      61.043  28.089  25.433  1.00  0.00    -0.550 OA
ENDBRANCH  14  15
ENDBRANCH  13  14
ENDBRANCH  12  13
ENDBRANCH  11  12
ENDBRANCH  10  11
ENDBRANCH   9  10
ENDBRANCH   8   9
ENDBRANCH   7   8
ENDBRANCH   6   7
ENDBRANCH   5   6
ENDBRANCH   4   5
ENDBRANCH   3   4
ENDBRANCH   2   3
ENDBRANCH   1   2
BRANCH   1  18
ATOM     18  C   UNL     1      66.525  35.616  19.851  1.00  0.00     0.000 C 
BRANCH  18  19
ATOM     19  C   UNL     1      66.470  35.003  18.440  1.00  0.00     0.000 C 
BRANCH  19  20
ATOM     20  C   UNL     1      65.423  35.675  17.535  1.00  0.00     0.000 C 
BRANCH  20  21
ATOM     21  C   UNL     1      64.138  34.841  17.384  1.00  0.00     0.000 C 
BRANCH  21  22
ATOM     22  C   UNL     1      64.018  34.059  16.063  1.00  0.00     0.000 C 
BRANCH  22  23
ATOM     23  C   UNL     1      62.679  33.318  15.925  1.00  0.00     0.000 C 
BRANCH  23  24
ATOM     24  C   UNL     1      61.736  34.070  14.975  1.00  0.00    -0.000 C 
BRANCH  24  25
ATOM     25  C   UNL     1      61.333  33.238  13.744  1.00  0.00    -0.000 C 
BRANCH  25  26
ATOM     26  C   UNL     1      60.582  31.932  14.062  1.00  0.00    -0.000 C 
BRANCH  26  27
ATOM     27  C   UNL     1      60.972  30.772  13.132  1.00  0.00    -0.000 C 
BRANCH  27  28
ATOM     28  C   UNL     1      62.036  29.877  13.780  1.00  0.00    -0.000 C 
BRANCH  28  29
ATOM     29  C   UNL     1      63.450  30.328  13.386  1.00  0.00    -0.000 C 
BRANCH  29  30
ATOM     30  C   UNL     1      63.575  30.670  11.890  1.00  0.00    -0.000 C 
BRANCH  30  31
ATOM     31  C   UNL     1      64.662  31.706  11.552  1.00  0.00    -0.003 C 
ATOM     32  C   UNL     1      64.718  32.863  12.549  1.00  0.00     0.004 C 
ENDBRANCH  30  31
ENDBRANCH  29  30
ENDBRANCH  28  29
ENDBRANCH  27  28
ENDBRANCH  26  27
ENDBRANCH  25  26
ENDBRANCH  24  25
ENDBRANCH  23  24
ENDBRANCH  22  23
ENDBRANCH  21  22
ENDBRANCH  20  21
ENDBRANCH  19  20
ENDBRANCH  18  19
ENDBRANCH   1  18
TORSDOF 28
ENDMDL
MODEL 5
REMARK VINA RESULT:    -4.733      3.727     11.744
REMARK INTER + INTRA:         -15.456
REMARK INTER:                 -12.307
REMARK INTRA:                  -3.149
REMARK UNBOUND:                -2.977
REMARK SMILES CCCCCCCCCCCCCCCCCCCCCCCCCCCCCC(=O)[O-]
REMARK SMILES IDX 16 1 17 2 18 3 19 4 20 5 21 6 22 7 23 8 24 9 25 10 26 11
REMARK SMILES IDX 27 12 28 13 29 14 30 15 31 16 32 17 15 18 14 19 13 20 12 21
REMARK SMILES IDX 11 22 10 23 9 24 8 25 7 26 6 27 5 28 4 29 3 30 2 31 1 32
REMARK H PARENT
REMARK Flexibility Score: inf
ROOT
ATOM      1  C   UNL     1      65.982  30.873  22.950  1.00  0.00     0.000 C 
ENDROOT
BRANCH   1   2
ATOM      2  C   UNL     1      66.326  32.361  22.753  1.00  0.00     0.000 C 
BRANCH   2   3
ATOM      3  C   UNL     1      67.657  32.573  22.017  1.00  0.00     0.000 C 
BRANCH   3   4
ATOM      4  C   UNL     1      67.727  33.979  21.402  1.00  0.00     0.000 C 
BRANCH   4   5
ATOM      5  C   UNL     1      66.337  34.598  21.175  1.00  0.00     0.000 C 
BRANCH   5   6
ATOM      6  C   UNL     1      66.292  35.728  20.129  1.00  0.00     0.000 C 
BRANCH   6   7
ATOM      7  C   UNL     1      66.401  35.233  18.670  1.00  0.00     0.000 C 
BRANCH   7   8
ATOM      8  C   UNL     1      65.186  35.638  17.817  1.00  0.00     0.000 C 
BRANCH   8   9
ATOM      9  C   UNL     1      64.566  34.433  17.076  1.00  0.00     0.000 C 
BRANCH   9  10
ATOM     10  C   UNL     1      63.050  34.564  16.845  1.00  0.00     0.000 C 
BRANCH  10  11
ATOM     11  C   UNL     1      62.342  33.258  16.439  1.00  0.00     0.000 C 
BRANCH  11  12
ATOM     12  C   UNL     1      63.000  32.504  15.270  1.00  0.00     0.000 C 
BRANCH  12  13
ATOM     13  C   UNL     1      62.680  30.994  15.246  1.00  0.00     0.006 C 
BRANCH  13  14
ATOM     14  C   UNL     1      61.730  30.620  14.101  1.00  0.00     0.053 C 
BRANCH  14  15
ATOM     15  C   UNL     1      62.258  29.441  13.345  1.00  0.00     0.041 C 
ATOM     16  O   UNL     1      63.357  28.920  13.669  1.00  0.00    -0.550 OA
ATOM     17  O   UNL     1      61.510  28.888  12.313  1.00  0.00    -0.550 OA
ENDBRANCH  14  15
ENDBRANCH  13  14
ENDBRANCH  12  13
ENDBRANCH  11  12
ENDBRANCH  10  11
ENDBRANCH   9  10
ENDBRANCH   8   9
ENDBRANCH   7   8
ENDBRANCH   6   7
ENDBRANCH   5   6
ENDBRANCH   4   5
ENDBRANCH   3   4
ENDBRANCH   2   3
ENDBRANCH   1   2
BRANCH   1  18
ATOM     18  C   UNL     1      65.870  30.412  24.419  1.00  0.00     0.000 C 
BRANCH  18  19
ATOM     19  C   UNL     1      67.176  29.894  25.050  1.00  0.00     0.000 C 
BRANCH  19  20
ATOM     20  C   UNL     1      66.975  29.336  26.469  1.00  0.00     0.000 C 
BRANCH  20  21
ATOM     21  C   UNL     1      66.492  30.401  27.470  1.00  0.00     0.000 C 
BRANCH  21  22
ATOM     22  C   UNL     1      65.253  30.010  28.294  1.00  0.00     0.000 C 
BRANCH  22  23
ATOM     23  C   UNL     1      64.010  30.840  27.940  1.00  0.00     0.000 C 
BRANCH  23  24
ATOM     24  C   UNL     1      62.918  29.952  27.328  1.00  0.00    -0.000 C 
BRANCH  24  25
ATOM     25  C   UNL     1      62.829  30.078  25.796  1.00  0.00    -0.000 C 
BRANCH  25  26
ATOM     26  C   UNL     1      62.509  28.766  25.056  1.00  0.00    -0.000 C 
BRANCH  26  27
ATOM     27  C   UNL     1      62.685  27.519  25.937  1.00  0.00    -0.000 C 
BRANCH  27  28
ATOM     28  C   UNL     1      64.158  27.101  26.017  1.00  0.00    -0.000 C 
BRANCH  28  29
ATOM     29  C   UNL     1      64.531  26.172  24.853  1.00  0.00    -0.000 C 
BRANCH  29  30
ATOM     30  C   UNL     1      65.973  26.379  24.356  1.00  0.00    -0.000 C 
BRANCH  30  31
ATOM     31  C   UNL     1      66.093  26.865  22.900  1.00  0.00    -0.003 C 
ATOM     32  C   UNL     1      64.778  27.403  22.338  1.00  0.00     0.004 C 
ENDBRANCH  30  31
ENDBRANCH  29  30
ENDBRANCH  28  29
ENDBRANCH  27  28
ENDBRANCH  26  27
ENDBRANCH  25  26
ENDBRANCH  24  25
ENDBRANCH  23  24
ENDBRANCH  22  23
ENDBRANCH  21  22
ENDBRANCH  20  21
ENDBRANCH  19  20
ENDBRANCH  18  19
ENDBRANCH   1  18
TORSDOF 28
ENDMDL
MODEL 6
REMARK VINA RESULT:    -4.705      3.001      9.076
REMARK INTER + INTRA:         -15.384
REMARK INTER:                 -12.432
REMARK INTRA:                  -2.953
REMARK UNBOUND:                -2.977
REMARK SMILES CCCCCCCCCCCCCCCCCCCCCCCCCCCCCC(=O)[O-]
REMARK SMILES IDX 16 1 17 2 18 3 19 4 20 5 21 6 22 7 23 8 24 9 25 10 26 11
REMARK SMILES IDX 27 12 28 13 29 14 30 15 31 16 32 17 15 18 14 19 13 20 12 21
REMARK SMILES IDX 11 22 10 23 9 24 8 25 7 26 6 27 5 28 4 29 3 30 2 31 1 32
REMARK H PARENT
REMARK Flexibility Score: inf
ROOT
ATOM      1  C   UNL     1      64.556  31.091  25.180  1.00  0.00     0.000 C 
ENDROOT
BRANCH   1   2
ATOM      2  C   UNL     1      65.012  30.488  26.522  1.00  0.00     0.000 C 
BRANCH   2   3
ATOM      3  C   UNL     1      64.078  30.852  27.686  1.00  0.00     0.000 C 
BRANCH   3   4
ATOM      4  C   UNL     1      63.572  29.589  28.399  1.00  0.00     0.000 C 
BRANCH   4   5
ATOM      5  C   UNL     1      62.088  29.303  28.118  1.00  0.00     0.000 C 
BRANCH   5   6
ATOM      6  C   UNL     1      61.744  27.819  27.883  1.00  0.00     0.000 C 
BRANCH   6   7
ATOM      7  C   UNL     1      61.288  27.505  26.442  1.00  0.00     0.000 C 
BRANCH   7   8
ATOM      8  C   UNL     1      61.780  28.552  25.426  1.00  0.00     0.000 C 
BRANCH   8   9
ATOM      9  C   UNL     1      62.917  28.008  24.533  1.00  0.00     0.000 C 
BRANCH   9  10
ATOM     10  C   UNL     1      63.626  26.775  25.122  1.00  0.00     0.000 C 
BRANCH  10  11
ATOM     11  C   UNL     1      64.924  27.081  25.891  1.00  0.00     0.000 C 
BRANCH  11  12
ATOM     12  C   UNL     1      66.199  26.482  25.270  1.00  0.00     0.000 C 
BRANCH  12  13
ATOM     13  C   UNL     1      66.229  26.547  23.728  1.00  0.00     0.006 C 
BRANCH  13  14
ATOM     14  C   UNL     1      67.240  27.576  23.208  1.00  0.00     0.053 C 
BRANCH  14  15
ATOM     15  C   UNL     1      67.370  27.481  21.721  1.00  0.00     0.041 C 
ATOM     16  O   UNL     1      67.805  28.459  21.059  1.00  0.00    -0.550 OA
ATOM     17  O   UNL     1      67.057  26.293  21.072  1.00  0.00    -0.550 OA
ENDBRANCH  14  15
ENDBRANCH  13  14
ENDBRANCH  12  13
ENDBRANCH  11  12
ENDBRANCH  10  11
ENDBRANCH   9  10
ENDBRANCH   8   9
ENDBRANCH   7   8
ENDBRANCH   6   7
ENDBRANCH   5   6
ENDBRANCH   4   5
ENDBRANCH   3   4
ENDBRANCH   2   3
ENDBRANCH   1   2
BRANCH   1  18
ATOM     18  C   UNL     1      65.229  30.492  23.926  1.00  0.00     0.000 C 
BRANCH  18  19
ATOM     19  C   UNL     1      66.550  31.161  23.504  1.00  0.00     0.000 C 
BRANCH  19  20
ATOM     20  C   UNL     1      66.336  32.465  22.717  1.00  0.00     0.000 C 
BRANCH  20  21
ATOM     21  C   UNL     1      67.464  32.750  21.710  1.00  0.00     0.000 C 
BRANCH  21  22
ATOM     22  C   UNL     1      67.514  34.193  21.174  1.00  0.00     0.000 C 
BRANCH  22  23
ATOM     23  C   UNL     1      67.346  34.273  19.650  1.00  0.00     0.000 C 
BRANCH  23  24
ATOM     24  C   UNL     1      66.541  35.519  19.255  1.00  0.00    -0.000 C 
BRANCH  24  25
ATOM     25  C   UNL     1      65.895  35.402  17.863  1.00  0.00    -0.000 C 
BRANCH  25  26
ATOM     26  C   UNL     1      64.370  35.193  17.871  1.00  0.00    -0.000 C 
BRANCH  26  27
ATOM     27  C   UNL     1      63.884  34.258  16.753  1.00  0.00    -0.000 C 
BRANCH  27  28
ATOM     28  C   UNL     1      62.386  33.962  16.890  1.00  0.00    -0.000 C 
BRANCH  28  29
ATOM     29  C   UNL     1      61.921  32.967  15.817  1.00  0.00    -0.000 C 
BRANCH  29  30
ATOM     30  C   UNL     1      61.396  33.657  14.545  1.00  0.00    -0.000 C 
BRANCH  30  31
ATOM     31  C   UNL     1      61.955  33.095  13.225  1.00  0.00    -0.003 C 
ATOM     32  C   UNL     1      63.472  32.914  13.246  1.00  0.00     0.004 C 
ENDBRANCH  30  31
ENDBRANCH  29  30
ENDBRANCH  28  29
ENDBRANCH  27  28
ENDBRANCH  26  27
ENDBRANCH  25  26
ENDBRANCH  24  25
ENDBRANCH  23  24
ENDBRANCH  22  23
ENDBRANCH  21  22
ENDBRANCH  20  21
ENDBRANCH  19  20
ENDBRANCH  18  19
ENDBRANCH   1  18
TORSDOF 28
ENDMDL
MODEL 7
REMARK VINA RESULT:    -4.651      3.092     10.474
REMARK INTER + INTRA:         -15.240
REMARK INTER:                 -12.470
REMARK INTRA:                  -2.770
REMARK UNBOUND:                -2.977
REMARK SMILES CCCCCCCCCCCCCCCCCCCCCCCCCCCCCC(=O)[O-]
REMARK SMILES IDX 16 1 17 2 18 3 19 4 20 5 21 6 22 7 23 8 24 9 25 10 26 11
REMARK SMILES IDX 27 12 28 13 29 14 30 15 31 16 32 17 15 18 14 19 13 20 12 21
REMARK SMILES IDX 11 22 10 23 9 24 8 25 7 26 6 27 5 28 4 29 3 30 2 31 1 32
REMARK H PARENT
REMARK Flexibility Score: inf
ROOT
ATOM      1  C   UNL     1      62.161  33.278  16.073  1.00  0.00     0.000 C 
ENDROOT
BRANCH   1   2
ATOM      2  C   UNL     1      63.363  32.684  15.316  1.00  0.00     0.000 C 
BRANCH   2   3
ATOM      3  C   UNL     1      63.633  33.390  13.979  1.00  0.00     0.000 C 
BRANCH   3   4
ATOM      4  C   UNL     1      65.105  33.818  13.871  1.00  0.00     0.000 C 
BRANCH   4   5
ATOM      5  C   UNL     1      65.733  33.448  12.517  1.00  0.00     0.000 C 
BRANCH   5   6
ATOM      6  C   UNL     1      64.957  32.392  11.707  1.00  0.00     0.000 C 
BRANCH   6   7
ATOM      7  C   UNL     1      65.491  32.190  10.272  1.00  0.00     0.000 C 
BRANCH   7   8
ATOM      8  C   UNL     1      64.758  31.064   9.522  1.00  0.00     0.000 C 
BRANCH   8   9
ATOM      9  C   UNL     1      64.398  29.884  10.451  1.00  0.00     0.000 C 
BRANCH   9  10
ATOM     10  C   UNL     1      63.097  29.162  10.056  1.00  0.00     0.000 C 
BRANCH  10  11
ATOM     11  C   UNL     1      61.928  30.092   9.685  1.00  0.00     0.000 C 
BRANCH  11  12
ATOM     12  C   UNL     1      60.892  30.305  10.804  1.00  0.00     0.000 C 
BRANCH  12  13
ATOM     13  C   UNL     1      61.398  31.198  11.957  1.00  0.00     0.006 C 
BRANCH  13  14
ATOM     14  C   UNL     1      61.059  30.615  13.334  1.00  0.00     0.053 C 
BRANCH  14  15
ATOM     15  C   UNL     1      61.556  29.208  13.445  1.00  0.00     0.041 C 
ATOM     16  O   UNL     1      62.781  28.980  13.619  1.00  0.00    -0.550 OA
ATOM     17  O   UNL     1      60.656  28.150  13.408  1.00  0.00    -0.550 OA
ENDBRANCH  14  15
ENDBRANCH  13  14
ENDBRANCH  12  13
ENDBRANCH  11  12
ENDBRANCH  10  11
ENDBRANCH   9  10
ENDBRANCH   8   9
ENDBRANCH   7   8
ENDBRANCH   6   7
ENDBRANCH   5   6
ENDBRANCH   4   5
ENDBRANCH   3   4
ENDBRANCH   2   3
ENDBRANCH   1   2
BRANCH   1  18
ATOM     18  C   UNL     1      62.416  34.644  16.747  1.00  0.00     0.000 C 
BRANCH  18  19
ATOM     19  C   UNL     1      63.479  34.641  17.860  1.00  0.00     0.000 C 
BRANCH  19  20
ATOM     20  C   UNL     1      64.755  35.407  17.472  1.00  0.00     0.000 C 
BRANCH  20  21
ATOM     21  C   UNL     1      65.979  34.997  18.311  1.00  0.00     0.000 C 
BRANCH  21  22
ATOM     22  C   UNL     1      66.294  35.919  19.502  1.00  0.00     0.000 C 
BRANCH  22  23
ATOM     23  C   UNL     1      66.409  35.162  20.833  1.00  0.00     0.000 C 
BRANCH  23  24
ATOM     24  C   UNL     1      67.399  33.995  20.713  1.00  0.00    -0.000 C 
BRANCH  24  25
ATOM     25  C   UNL     1      67.602  33.239  22.038  1.00  0.00    -0.000 C 
BRANCH  25  26
ATOM     26  C   UNL     1      67.088  31.787  22.041  1.00  0.00    -0.000 C 
BRANCH  26  27
ATOM     27  C   UNL     1      65.939  31.559  23.035  1.00  0.00    -0.000 C 
BRANCH  27  28
ATOM     28  C   UNL     1      66.025  30.166  23.671  1.00  0.00    -0.000 C 
BRANCH  28  29
ATOM     29  C   UNL     1      64.682  29.429  23.567  1.00  0.00    -0.000 C 
BRANCH  29  30
ATOM     30  C   UNL     1      64.826  27.900  23.675  1.00  0.00    -0.000 C 
BRANCH  30  31
ATOM     31  C   UNL     1      66.172  27.415  24.242  1.00  0.00    -0.003 C 
ATOM     32  C   UNL     1      66.042  26.755  25.614  1.00  0.00     0.004 C 
ENDBRANCH  30  31
ENDBRANCH  29  30
ENDBRANCH  28  29
ENDBRANCH  27  28
ENDBRANCH  26  27
ENDBRANCH  25  26
ENDBRANCH  24  25
ENDBRANCH  23  24
ENDBRANCH  22  23
ENDBRANCH  21  22
ENDBRANCH  20  21
ENDBRANCH  19  20
ENDBRANCH  18  19
ENDBRANCH   1  18
TORSDOF 28
ENDMDL
MODEL 8
REMARK VINA RESULT:    -4.648      3.870     11.310
REMARK INTER + INTRA:         -15.232
REMARK INTER:                 -11.898
REMARK INTRA:                  -3.334
REMARK UNBOUND:                -2.977
REMARK SMILES CCCCCCCCCCCCCCCCCCCCCCCCCCCCCC(=O)[O-]
REMARK SMILES IDX 16 1 17 2 18 3 19 4 20 5 21 6 22 7 23 8 24 9 25 10 26 11
REMARK SMILES IDX 27 12 28 13 29 14 30 15 31 16 32 17 15 18 14 19 13 20 12 21
REMARK SMILES IDX 11 22 10 23 9 24 8 25 7 26 6 27 5 28 4 29 3 30 2 31 1 32
REMARK H PARENT
REMARK Flexibility Score: inf
ROOT
ATOM      1  C   UNL     1      66.596  30.881  22.893  1.00  0.00     0.000 C 
ENDROOT
BRANCH   1   2
ATOM      2  C   UNL     1      66.607  32.398  22.625  1.00  0.00     0.000 C 
BRANCH   2   3
ATOM      3  C   UNL     1      67.535  32.791  21.467  1.00  0.00     0.000 C 
BRANCH   3   4
ATOM      4  C   UNL     1      67.520  34.311  21.243  1.00  0.00     0.000 C 
BRANCH   4   5
ATOM      5  C   UNL     1      67.051  34.698  19.830  1.00  0.00     0.000 C 
BRANCH   5   6
ATOM      6  C   UNL     1      67.701  33.896  18.686  1.00  0.00     0.000 C 
BRANCH   6   7
ATOM      7  C   UNL     1      66.859  33.863  17.392  1.00  0.00     0.000 C 
BRANCH   7   8
ATOM      8  C   UNL     1      65.936  35.087  17.256  1.00  0.00     0.000 C 
BRANCH   8   9
ATOM      9  C   UNL     1      64.675  34.775  16.421  1.00  0.00     0.000 C 
BRANCH   9  10
ATOM     10  C   UNL     1      63.419  34.519  17.273  1.00  0.00     0.000 C 
BRANCH  10  11
ATOM     11  C   UNL     1      62.330  33.676  16.584  1.00  0.00     0.000 C 
BRANCH  11  12
ATOM     12  C   UNL     1      62.227  33.874  15.061  1.00  0.00     0.000 C 
BRANCH  12  13
ATOM     13  C   UNL     1      61.256  32.893  14.371  1.00  0.00     0.006 C 
BRANCH  13  14
ATOM     14  C   UNL     1      61.624  31.428  14.637  1.00  0.00     0.053 C 
BRANCH  14  15
ATOM     15  C   UNL     1      61.581  30.637  13.368  1.00  0.00     0.041 C 
ATOM     16  O   UNL     1      61.204  31.178  12.296  1.00  0.00    -0.550 OA
ATOM     17  O   UNL     1      62.006  29.314  13.360  1.00  0.00    -0.550 OA
ENDBRANCH  14  15
ENDBRANCH  13  14
ENDBRANCH  12  13
ENDBRANCH  11  12
ENDBRANCH  10  11
ENDBRANCH   9  10
ENDBRANCH   8   9
ENDBRANCH   7   8
ENDBRANCH   6   7
ENDBRANCH   5   6
ENDBRANCH   4   5
ENDBRANCH   3   4
ENDBRANCH   2   3
ENDBRANCH   1   2
BRANCH   1  18
ATOM     18  C   UNL     1      67.960  30.270  23.277  1.00  0.00     0.000 C 
BRANCH  18  19
ATOM     19  C   UNL     1      68.124  28.771  22.964  1.00  0.00     0.000 C 
BRANCH  19  20
ATOM     20  C   UNL     1      67.359  28.336  21.703  1.00  0.00     0.000 C 
BRANCH  20  21
ATOM     21  C   UNL     1      66.470  27.101  21.937  1.00  0.00     0.000 C 
BRANCH  21  22
ATOM     22  C   UNL     1      65.105  27.391  22.586  1.00  0.00     0.000 C 
BRANCH  22  23
ATOM     23  C   UNL     1      64.788  26.455  23.761  1.00  0.00     0.000 C 
BRANCH  23  24
ATOM     24  C   UNL     1      65.995  26.335  24.702  1.00  0.00    -0.000 C 
BRANCH  24  25
ATOM     25  C   UNL     1      65.792  27.070  26.039  1.00  0.00    -0.000 C 
BRANCH  25  26
ATOM     26  C   UNL     1      66.489  28.440  26.138  1.00  0.00    -0.000 C 
BRANCH  26  27
ATOM     27  C   UNL     1      65.500  29.615  26.196  1.00  0.00    -0.000 C 
BRANCH  27  28
ATOM     28  C   UNL     1      64.055  29.117  26.322  1.00  0.00    -0.000 C 
BRANCH  28  29
ATOM     29  C   UNL     1      63.206  29.585  25.132  1.00  0.00    -0.000 C 
BRANCH  29  30
ATOM     30  C   UNL     1      61.782  28.998  25.142  1.00  0.00    -0.000 C 
BRANCH  30  31
ATOM     31  C   UNL     1      61.572  27.826  26.118  1.00  0.00    -0.003 C 
ATOM     32  C   UNL     1      60.302  27.027  25.831  1.00  0.00     0.004 C 
ENDBRANCH  30  31
ENDBRANCH  29  30
ENDBRANCH  28  29
ENDBRANCH  27  28
ENDBRANCH  26  27
ENDBRANCH  25  26
ENDBRANCH  24  25
ENDBRANCH  23  24
ENDBRANCH  22  23
ENDBRANCH  21  22
ENDBRANCH  20  21
ENDBRANCH  19  20
ENDBRANCH  18  19
ENDBRANCH   1  18
TORSDOF 28
ENDMDL
MODEL 9
REMARK VINA RESULT:    -4.617      3.101     10.757
REMARK INTER + INTRA:         -15.152
REMARK INTER:                 -12.582
REMARK INTRA:                  -2.570
REMARK UNBOUND:                -2.977
REMARK SMILES CCCCCCCCCCCCCCCCCCCCCCCCCCCCCC(=O)[O-]
REMARK SMILES IDX 16 1 17 2 18 3 19 4 20 5 21 6 22 7 23 8 24 9 25 10 26 11
REMARK SMILES IDX 27 12 28 13 29 14 30 15 31 16 32 17 15 18 14 19 13 20 12 21
REMARK SMILES IDX 11 22 10 23 9 24 8 25 7 26 6 27 5 28 4 29 3 30 2 31 1 32
REMARK H PARENT
REMARK Flexibility Score: inf
ROOT
ATOM      1  C   UNL     1      62.638  34.332  16.990  1.00  0.00     0.000 C 
ENDROOT
BRANCH   1   2
ATOM      2  C   UNL     1      63.014  33.924  15.554  1.00  0.00     0.000 C 
BRANCH   2   3
ATOM      3  C   UNL     1      61.801  33.877  14.612  1.00  0.00     0.000 C 
BRANCH   3   4
ATOM      4  C   UNL     1      62.068  32.947  13.419  1.00  0.00     0.000 C 
BRANCH   4   5
ATOM      5  C   UNL     1      63.568  32.770  13.128  1.00  0.00     0.000 C 
BRANCH   5   6
ATOM      6  C   UNL     1      64.116  31.352  13.378  1.00  0.00     0.000 C 
BRANCH   6   7
ATOM      7  C   UNL     1      64.491  30.592  12.088  1.00  0.00     0.000 C 
BRANCH   7   8
ATOM      8  C   UNL     1      64.845  31.538  10.927  1.00  0.00     0.000 C 
BRANCH   8   9
ATOM      9  C   UNL     1      64.465  30.942   9.553  1.00  0.00     0.000 C 
BRANCH   9  10
ATOM     10  C   UNL     1      64.186  29.429   9.594  1.00  0.00     0.000 C 
BRANCH  10  11
ATOM     11  C   UNL     1      62.743  29.027   9.240  1.00  0.00     0.000 C 
BRANCH  11  12
ATOM     12  C   UNL     1      61.696  30.138   9.441  1.00  0.00     0.000 C 
BRANCH  12  13
ATOM     13  C   UNL     1      60.891  30.002  10.751  1.00  0.00     0.006 C 
BRANCH  13  14
ATOM     14  C   UNL     1      61.424  28.877  11.646  1.00  0.00     0.053 C 
BRANCH  14  15
ATOM     15  C   UNL     1      60.721  28.879  12.967  1.00  0.00     0.041 C 
ATOM     16  O   UNL     1      59.521  28.510  13.048  1.00  0.00    -0.550 OA
ATOM     17  O   UNL     1      61.410  29.241  14.119  1.00  0.00    -0.550 OA
ENDBRANCH  14  15
ENDBRANCH  13  14
ENDBRANCH  12  13
ENDBRANCH  11  12
ENDBRANCH  10  11
ENDBRANCH   9  10
ENDBRANCH   8   9
ENDBRANCH   7   8
ENDBRANCH   6   7
ENDBRANCH   5   6
ENDBRANCH   4   5
ENDBRANCH   3   4
ENDBRANCH   2   3
ENDBRANCH   1   2
BRANCH   1  18
ATOM     18  C   UNL     1      63.773  34.990  17.806  1.00  0.00     0.000 C 
BRANCH  18  19
ATOM     19  C   UNL     1      65.149  35.018  17.117  1.00  0.00     0.000 C 
BRANCH  19  20
ATOM     20  C   UNL     1      66.298  34.620  18.058  1.00  0.00     0.000 C 
BRANCH  20  21
ATOM     21  C   UNL     1      66.187  35.271  19.449  1.00  0.00     0.000 C 
BRANCH  21  22
ATOM     22  C   UNL     1      67.117  34.680  20.524  1.00  0.00     0.000 C 
BRANCH  22  23
ATOM     23  C   UNL     1      67.855  33.418  20.052  1.00  0.00     0.000 C 
BRANCH  23  24
ATOM     24  C   UNL     1      67.691  32.279  21.068  1.00  0.00    -0.000 C 
BRANCH  24  25
ATOM     25  C   UNL     1      67.085  32.747  22.404  1.00  0.00    -0.000 C 
BRANCH  25  26
ATOM     26  C   UNL     1      65.779  32.038  22.806  1.00  0.00    -0.000 C 
BRANCH  26  27
ATOM     27  C   UNL     1      65.991  30.936  23.856  1.00  0.00    -0.000 C 
BRANCH  27  28
ATOM     28  C   UNL     1      65.505  29.577  23.338  1.00  0.00    -0.000 C 
BRANCH  28  29
ATOM     29  C   UNL     1      64.833  28.770  24.457  1.00  0.00    -0.000 C 
BRANCH  29  30
ATOM     30  C   UNL     1      64.183  29.660  25.533  1.00  0.00    -0.000 C 
BRANCH  30  31
ATOM     31  C   UNL     1      62.685  29.943  25.321  1.00  0.00    -0.003 C 
ATOM     32  C   UNL     1      61.825  28.681  25.360  1.00  0.00     0.004 C 
ENDBRANCH  30  31
ENDBRANCH  29  30
ENDBRANCH  28  29
ENDBRANCH  27  28
ENDBRANCH  26  27
ENDBRANCH  25  26
ENDBRANCH  24  25
ENDBRANCH  23  24
ENDBRANCH  22  23
ENDBRANCH  21  22
ENDBRANCH  20  21
ENDBRANCH  19  20
ENDBRANCH  18  19
ENDBRANCH   1  18
TORSDOF 28
ENDMDL
