MODEL 1
REMARK VINA RESULT:     4.630      0.000      0.000
REMARK INTER + INTRA:           9.335
REMARK INTER:                  10.042
REMARK INTRA:                  -0.708
REMARK UNBOUND:                -0.708
REMARK SMILES CCCCCCCCCCCCCCCCCCCCCC(=O)[O-]
REMARK SMILES IDX 12 1 11 2 10 3 9 4 8 5 7 6 6 7 5 8 4 9 3 10 2 11 1 12 13 13
REMARK SMILES IDX 14 14 15 15 16 16 17 17 18 18 19 19 20 20 21 21 22 22 23 23
REMARK SMILES IDX 24 24
REMARK H PARENT
REMARK Flexibility Score: inf
ROOT
ATOM      1  C   UNL     1      18.373  12.408 -14.637  1.00  0.00     0.000 C 
ENDROOT
BRANCH   1   2
ATOM      2  C   UNL     1      19.398  13.147 -15.516  1.00  0.00     0.000 C 
BRANCH   2   3
ATOM      3  C   UNL     1      20.699  13.479 -14.770  1.00  0.00     0.000 C 
BRANCH   3   4
ATOM      4  C   UNL     1      21.692  12.313 -14.849  1.00  0.00    -0.000 C 
BRANCH   4   5
ATOM      5  C   UNL     1      21.396  11.419 -16.062  1.00  0.00    -0.000 C 
BRANCH   5   6
ATOM      6  C   UNL     1      22.091  10.049 -15.978  1.00  0.00    -0.000 C 
BRANCH   6   7
ATOM      7  C   UNL     1      21.153   8.833 -16.120  1.00  0.00    -0.000 C 
BRANCH   7   8
ATOM      8  C   UNL     1      20.023   8.756 -15.075  1.00  0.00    -0.000 C 
BRANCH   8   9
ATOM      9  C   UNL     1      18.657   8.294 -15.622  1.00  0.00    -0.000 C 
BRANCH   9  10
ATOM     10  C   UNL     1      17.439   8.753 -14.800  1.00  0.00    -0.000 C 
BRANCH  10  11
ATOM     11  C   UNL     1      16.160   7.980 -15.149  1.00  0.00    -0.003 C 
ATOM     12  C   UNL     1      15.029   8.320 -14.182  1.00  0.00     0.004 C 
ENDBRANCH  10  11
ENDBRANCH   9  10
ENDBRANCH   8   9
ENDBRANCH   7   8
ENDBRANCH   6   7
ENDBRANCH   5   6
ENDBRANCH   4   5
ENDBRANCH   3   4
ENDBRANCH   2   3
ENDBRANCH   1   2
BRANCH   1  13
ATOM     13  C   UNL     1      18.963  11.731 -13.387  1.00  0.00     0.000 C 
BRANCH  13  14
ATOM     14  C   UNL     1      17.887  11.320 -12.366  1.00  0.00     0.000 C 
BRANCH  14  15
ATOM     15  C   UNL     1      16.728  12.328 -12.297  1.00  0.00     0.000 C 
BRANCH  15  16
ATOM     16  C   UNL     1      16.507  12.874 -10.876  1.00  0.00     0.000 C 
BRANCH  16  17
ATOM     17  C   UNL     1      16.558  11.774  -9.802  1.00  0.00     0.000 C 
BRANCH  17  18
ATOM     18  C   UNL     1      17.924  11.074  -9.655  1.00  0.00     0.000 C 
BRANCH  18  19
ATOM     19  C   UNL     1      18.185  10.425  -8.281  1.00  0.00     0.000 C 
BRANCH  19  20
ATOM     20  C   UNL     1      19.459   9.566  -8.201  1.00  0.00     0.006 C 
BRANCH  20  21
ATOM     21  C   UNL     1      20.406  10.007  -7.077  1.00  0.00     0.053 C 
BRANCH  21  22
ATOM     22  C   UNL     1      21.442   8.959  -6.826  1.00  0.00     0.041 C 
ATOM     23  O   UNL     1      22.116   8.487  -7.782  1.00  0.00    -0.550 OA
ATOM     24  O   UNL     1      21.642   8.475  -5.541  1.00  0.00    -0.550 OA
ENDBRANCH  21  22
ENDBRANCH  20  21
ENDBRANCH  19  20
ENDBRANCH  18  19
ENDBRANCH  17  18
ENDBRANCH  16  17
ENDBRANCH  15  16
ENDBRANCH  14  15
ENDBRANCH  13  14
ENDBRANCH   1  13
TORSDOF 20
ENDMDL
MODEL 2
REMARK VINA RESULT:     5.658      2.792      7.592
REMARK INTER + INTRA:          11.566
REMARK INTER:                  11.085
REMARK INTRA:                   0.482
REMARK UNBOUND:                -0.708
REMARK SMILES CCCCCCCCCCCCCCCCCCCCCC(=O)[O-]
REMARK SMILES IDX 12 1 11 2 10 3 9 4 8 5 7 6 6 7 5 8 4 9 3 10 2 11 1 12 13 13
REMARK SMILES IDX 14 14 15 15 16 16 17 17 18 18 19 19 20 20 21 21 22 22 23 23
REMARK SMILES IDX 24 24
REMARK H PARENT
REMARK Flexibility Score: inf
ROOT
ATOM      1  C   UNL     1      18.720  12.770 -13.663  1.00  0.00     0.000 C 
ENDROOT
BRANCH   1   2
ATOM      2  C   UNL     1      18.198  11.381 -13.253  1.00  0.00     0.000 C 
BRANCH   2   3
ATOM      3  C   UNL     1      16.909  11.447 -12.420  1.00  0.00     0.000 C 
BRANCH   3   4
ATOM      4  C   UNL     1      17.078  12.381 -11.216  1.00  0.00    -0.000 C 
BRANCH   4   5
ATOM      5  C   UNL     1      17.172  11.583  -9.908  1.00  0.00    -0.000 C 
BRANCH   5   6
ATOM      6  C   UNL     1      16.062  11.943  -8.906  1.00  0.00    -0.000 C 
BRANCH   6   7
ATOM      7  C   UNL     1      15.640  10.800  -7.962  1.00  0.00    -0.000 C 
BRANCH   7   8
ATOM      8  C   UNL     1      16.704   9.706  -7.747  1.00  0.00    -0.000 C 
BRANCH   8   9
ATOM      9  C   UNL     1      18.100  10.030  -8.319  1.00  0.00    -0.000 C 
BRANCH   9  10
ATOM     10  C   UNL     1      19.263   9.256  -7.672  1.00  0.00    -0.000 C 
BRANCH  10  11
ATOM     11  C   UNL     1      20.501  10.131  -7.434  1.00  0.00    -0.003 C 
ATOM     12  C   UNL     1      21.741   9.276  -7.190  1.00  0.00     0.004 C 
ENDBRANCH  10  11
ENDBRANCH   9  10
ENDBRANCH   8   9
ENDBRANCH   7   8
ENDBRANCH   6   7
ENDBRANCH   5   6
ENDBRANCH   4   5
ENDBRANCH   3   4
ENDBRANCH   2   3
ENDBRANCH   1   2
BRANCH   1  13
ATOM     13  C   UNL     1      19.488  12.804 -14.996  1.00  0.00     0.000 C 
BRANCH  13  14
ATOM     14  C   UNL     1      20.455  13.997 -15.099  1.00  0.00     0.000 C 
BRANCH  14  15
ATOM     15  C   UNL     1      21.926  13.556 -15.167  1.00  0.00     0.000 C 
BRANCH  15  16
ATOM     16  C   UNL     1      22.124  12.096 -14.728  1.00  0.00     0.000 C 
BRANCH  16  17
ATOM     17  C   UNL     1      21.697  11.087 -15.808  1.00  0.00     0.000 C 
BRANCH  17  18
ATOM     18  C   UNL     1      21.246   9.714 -15.272  1.00  0.00     0.000 C 
BRANCH  18  19
ATOM     19  C   UNL     1      20.182   8.994 -16.123  1.00  0.00     0.000 C 
BRANCH  19  20
ATOM     20  C   UNL     1      18.729   9.218 -15.670  1.00  0.00     0.006 C 
BRANCH  20  21
ATOM     21  C   UNL     1      17.878   7.944 -15.742  1.00  0.00     0.053 C 
BRANCH  21  22
ATOM     22  C   UNL     1      16.676   8.068 -14.861  1.00  0.00     0.041 C 
ATOM     23  O   UNL     1      16.812   8.221 -13.617  1.00  0.00    -0.550 OA
ATOM     24  O   UNL     1      15.403   7.980 -15.407  1.00  0.00    -0.550 OA
ENDBRANCH  21  22
ENDBRANCH  20  21
ENDBRANCH  19  20
ENDBRANCH  18  19
ENDBRANCH  17  18
ENDBRANCH  16  17
ENDBRANCH  15  16
ENDBRANCH  14  15
ENDBRANCH  13  14
ENDBRANCH   1  13
TORSDOF 20
ENDMDL
MODEL 3
REMARK VINA RESULT:     5.708      3.794      5.277
REMARK INTER + INTRA:          11.674
REMARK INTER:                   8.682
REMARK INTRA:                   2.992
REMARK UNBOUND:                -0.708
REMARK SMILES CCCCCCCCCCCCCCCCCCCCCC(=O)[O-]
REMARK SMILES IDX 12 1 11 2 10 3 9 4 8 5 7 6 6 7 5 8 4 9 3 10 2 11 1 12 13 13
REMARK SMILES IDX 14 14 15 15 16 16 17 17 18 18 19 19 20 20 21 21 22 22 23 23
REMARK SMILES IDX 24 24
REMARK H PARENT
REMARK Flexibility Score: inf
ROOT
ATOM      1  C   UNL     1      21.246  12.994 -14.025  1.00  0.00     0.000 C 
ENDROOT
BRANCH   1   2
ATOM      2  C   UNL     1      22.094  12.241 -15.066  1.00  0.00     0.000 C 
BRANCH   2   3
ATOM      3  C   UNL     1      22.032  10.716 -14.901  1.00  0.00     0.000 C 
BRANCH   3   4
ATOM      4  C   UNL     1      20.636  10.267 -14.452  1.00  0.00    -0.000 C 
BRANCH   4   5
ATOM      5  C   UNL     1      19.761   9.898 -15.659  1.00  0.00    -0.000 C 
BRANCH   5   6
ATOM      6  C   UNL     1      19.528   8.383 -15.786  1.00  0.00    -0.000 C 
BRANCH   6   7
ATOM      7  C   UNL     1      18.075   7.925 -15.545  1.00  0.00    -0.000 C 
BRANCH   7   8
ATOM      8  C   UNL     1      17.492   8.306 -14.170  1.00  0.00    -0.000 C 
BRANCH   8   9
ATOM      9  C   UNL     1      15.952   8.363 -14.106  1.00  0.00    -0.000 C 
BRANCH   9  10
ATOM     10  C   UNL     1      15.251   8.519 -15.467  1.00  0.00    -0.000 C 
BRANCH  10  11
ATOM     11  C   UNL     1      13.844   7.906 -15.487  1.00  0.00    -0.003 C 
ATOM     12  C   UNL     1      12.836   8.860 -16.122  1.00  0.00     0.004 C 
ENDBRANCH  10  11
ENDBRANCH   9  10
ENDBRANCH   8   9
ENDBRANCH   7   8
ENDBRANCH   6   7
ENDBRANCH   5   6
ENDBRANCH   4   5
ENDBRANCH   3   4
ENDBRANCH   2   3
ENDBRANCH   1   2
BRANCH   1  13
ATOM     13  C   UNL     1      21.741  14.413 -13.692  1.00  0.00     0.000 C 
BRANCH  13  14
ATOM     14  C   UNL     1      21.970  15.276 -14.946  1.00  0.00     0.000 C 
BRANCH  14  15
ATOM     15  C   UNL     1      20.653  15.747 -15.583  1.00  0.00     0.000 C 
BRANCH  15  16
ATOM     16  C   UNL     1      19.809  14.579 -16.121  1.00  0.00     0.000 C 
BRANCH  16  17
ATOM     17  C   UNL     1      19.129  13.772 -15.001  1.00  0.00     0.000 C 
BRANCH  17  18
ATOM     18  C   UNL     1      18.143  12.690 -15.487  1.00  0.00     0.000 C 
BRANCH  18  19
ATOM     19  C   UNL     1      17.901  11.532 -14.500  1.00  0.00     0.000 C 
BRANCH  19  20
ATOM     20  C   UNL     1      18.451  11.763 -13.081  1.00  0.00     0.006 C 
BRANCH  20  21
ATOM     21  C   UNL     1      17.373  11.645 -11.996  1.00  0.00     0.053 C 
BRANCH  21  22
ATOM     22  C   UNL     1      16.053  12.118 -12.518  1.00  0.00     0.041 C 
ATOM     23  O   UNL     1      15.321  11.345 -13.192  1.00  0.00    -0.550 OA
ATOM     24  O   UNL     1      15.646  13.426 -12.290  1.00  0.00    -0.550 OA
ENDBRANCH  21  22
ENDBRANCH  20  21
ENDBRANCH  19  20
ENDBRANCH  18  19
ENDBRANCH  17  18
ENDBRANCH  16  17
ENDBRANCH  15  16
ENDBRANCH  14  15
ENDBRANCH  13  14
ENDBRANCH   1  13
TORSDOF 20
ENDMDL
MODEL 4
REMARK VINA RESULT:     6.560      8.445     11.464
REMARK INTER + INTRA:          13.523
REMARK INTER:                  14.634
REMARK INTRA:                  -1.111
REMARK UNBOUND:                -0.708
REMARK SMILES CCCCCCCCCCCCCCCCCCCCCC(=O)[O-]
REMARK SMILES IDX 12 1 11 2 10 3 9 4 8 5 7 6 6 7 5 8 4 9 3 10 2 11 1 12 13 13
REMARK SMILES IDX 14 14 15 15 16 16 17 17 18 18 19 19 20 20 21 21 22 22 23 23
REMARK SMILES IDX 24 24
REMARK H PARENT
REMARK Flexibility Score: inf
ROOT
ATOM      1  C   UNL     1      11.014  12.248 -13.159  1.00  0.00     0.000 C 
ENDROOT
BRANCH   1   2
ATOM      2  C   UNL     1      12.267  11.839 -13.954  1.00  0.00     0.000 C 
BRANCH   2   3
ATOM      3  C   UNL     1      13.523  11.728 -13.077  1.00  0.00     0.000 C 
BRANCH   3   4
ATOM      4  C   UNL     1      14.378  10.524 -13.492  1.00  0.00    -0.000 C 
BRANCH   4   5
ATOM      5  C   UNL     1      15.875  10.835 -13.345  1.00  0.00    -0.000 C 
BRANCH   5   6
ATOM      6  C   UNL     1      16.775   9.694 -13.851  1.00  0.00    -0.000 C 
BRANCH   6   7
ATOM      7  C   UNL     1      18.229  10.101 -14.161  1.00  0.00    -0.000 C 
BRANCH   7   8
ATOM      8  C   UNL     1      18.506  11.616 -14.116  1.00  0.00    -0.000 C 
BRANCH   8   9
ATOM      9  C   UNL     1      19.829  12.059 -14.774  1.00  0.00    -0.000 C 
BRANCH   9  10
ATOM     10  C   UNL     1      20.668  13.048 -13.945  1.00  0.00    -0.000 C 
BRANCH  10  11
ATOM     11  C   UNL     1      21.571  13.935 -14.812  1.00  0.00    -0.003 C 
ATOM     12  C   UNL     1      20.757  14.705 -15.848  1.00  0.00     0.004 C 
ENDBRANCH  10  11
ENDBRANCH   9  10
ENDBRANCH   8   9
ENDBRANCH   7   8
ENDBRANCH   6   7
ENDBRANCH   5   6
ENDBRANCH   4   5
ENDBRANCH   3   4
ENDBRANCH   2   3
ENDBRANCH   1   2
BRANCH   1  13
ATOM     13  C   UNL     1       9.676  11.924 -13.849  1.00  0.00     0.000 C 
BRANCH  13  14
ATOM     14  C   UNL     1       8.549  11.608 -12.849  1.00  0.00     0.000 C 
BRANCH  14  15
ATOM     15  C   UNL     1       7.407  10.801 -13.488  1.00  0.00     0.000 C 
BRANCH  15  16
ATOM     16  C   UNL     1       6.646   9.945 -12.461  1.00  0.00     0.000 C 
BRANCH  16  17
ATOM     17  C   UNL     1       6.901   8.438 -12.638  1.00  0.00     0.000 C 
BRANCH  17  18
ATOM     18  C   UNL     1       6.693   7.909 -14.071  1.00  0.00     0.000 C 
BRANCH  18  19
ATOM     19  C   UNL     1       5.230   7.888 -14.558  1.00  0.00     0.000 C 
BRANCH  19  20
ATOM     20  C   UNL     1       4.842   9.044 -15.497  1.00  0.00     0.006 C 
BRANCH  20  21
ATOM     21  C   UNL     1       3.447   9.611 -15.201  1.00  0.00     0.053 C 
BRANCH  21  22
ATOM     22  C   UNL     1       3.512  10.597 -14.079  1.00  0.00     0.041 C 
ATOM     23  O   UNL     1       3.059  10.297 -12.941  1.00  0.00    -0.550 OA
ATOM     24  O   UNL     1       4.041  11.862 -14.296  1.00  0.00    -0.550 OA
ENDBRANCH  21  22
ENDBRANCH  20  21
ENDBRANCH  19  20
ENDBRANCH  18  19
ENDBRANCH  17  18
ENDBRANCH  16  17
ENDBRANCH  15  16
ENDBRANCH  14  15
ENDBRANCH  13  14
ENDBRANCH   1  13
TORSDOF 20
ENDMDL
MODEL 5
REMARK VINA RESULT:     6.935      8.192     10.833
REMARK INTER + INTRA:          14.336
REMARK INTER:                  15.429
REMARK INTRA:                  -1.092
REMARK UNBOUND:                -0.708
REMARK SMILES CCCCCCCCCCCCCCCCCCCCCC(=O)[O-]
REMARK SMILES IDX 12 1 11 2 10 3 9 4 8 5 7 6 6 7 5 8 4 9 3 10 2 11 1 12 13 13
REMARK SMILES IDX 14 14 15 15 16 16 17 17 18 18 19 19 20 20 21 21 22 22 23 23
REMARK SMILES IDX 24 24
REMARK H PARENT
REMARK Flexibility Score: inf
ROOT
ATOM      1  C   UNL     1      13.221  11.903 -13.088  1.00  0.00     0.000 C 
ENDROOT
BRANCH   1   2
ATOM      2  C   UNL     1      14.243  10.803 -13.426  1.00  0.00     0.000 C 
BRANCH   2   3
ATOM      3  C   UNL     1      15.687  11.199 -13.081  1.00  0.00     0.000 C 
BRANCH   3   4
ATOM      4  C   UNL     1      16.689  10.210 -13.688  1.00  0.00    -0.000 C 
BRANCH   4   5
ATOM      5  C   UNL     1      18.082  10.844 -13.815  1.00  0.00    -0.000 C 
BRANCH   5   6
ATOM      6  C   UNL     1      19.113   9.900 -14.456  1.00  0.00    -0.000 C 
BRANCH   6   7
ATOM      7  C   UNL     1      19.738  10.412 -15.770  1.00  0.00    -0.000 C 
BRANCH   7   8
ATOM      8  C   UNL     1      21.279  10.446 -15.788  1.00  0.00    -0.000 C 
BRANCH   8   9
ATOM      9  C   UNL     1      21.902  11.852 -15.674  1.00  0.00    -0.000 C 
BRANCH   9  10
ATOM     10  C   UNL     1      21.847  12.476 -14.267  1.00  0.00    -0.000 C 
BRANCH  10  11
ATOM     11  C   UNL     1      21.201  13.868 -14.258  1.00  0.00    -0.003 C 
ATOM     12  C   UNL     1      20.266  14.050 -15.450  1.00  0.00     0.004 C 
ENDBRANCH  10  11
ENDBRANCH   9  10
ENDBRANCH   8   9
ENDBRANCH   7   8
ENDBRANCH   6   7
ENDBRANCH   5   6
ENDBRANCH   4   5
ENDBRANCH   3   4
ENDBRANCH   2   3
ENDBRANCH   1   2
BRANCH   1  13
ATOM     13  C   UNL     1      11.925  11.858 -13.917  1.00  0.00     0.000 C 
BRANCH  13  14
ATOM     14  C   UNL     1      10.689  12.311 -13.119  1.00  0.00     0.000 C 
BRANCH  14  15
ATOM     15  C   UNL     1       9.371  11.880 -13.783  1.00  0.00     0.000 C 
BRANCH  15  16
ATOM     16  C   UNL     1       8.293  11.495 -12.756  1.00  0.00     0.000 C 
BRANCH  16  17
ATOM     17  C   UNL     1       7.156  10.662 -13.372  1.00  0.00     0.000 C 
BRANCH  17  18
ATOM     18  C   UNL     1       6.811   9.369 -12.606  1.00  0.00     0.000 C 
BRANCH  18  19
ATOM     19  C   UNL     1       5.806   8.437 -13.312  1.00  0.00     0.000 C 
BRANCH  19  20
ATOM     20  C   UNL     1       5.317   8.930 -14.685  1.00  0.00     0.006 C 
BRANCH  20  21
ATOM     21  C   UNL     1       3.815   9.241 -14.707  1.00  0.00     0.053 C 
BRANCH  21  22
ATOM     22  C   UNL     1       3.585  10.679 -15.049  1.00  0.00     0.041 C 
ATOM     23  O   UNL     1       4.114  11.590 -14.357  1.00  0.00    -0.550 OA
ATOM     24  O   UNL     1       2.759  11.015 -16.113  1.00  0.00    -0.550 OA
ENDBRANCH  21  22
ENDBRANCH  20  21
ENDBRANCH  19  20
ENDBRANCH  18  19
ENDBRANCH  17  18
ENDBRANCH  16  17
ENDBRANCH  15  16
ENDBRANCH  14  15
ENDBRANCH  13  14
ENDBRANCH   1  13
TORSDOF 20
ENDMDL
MODEL 6
REMARK VINA RESULT:     7.017      6.684     10.203
REMARK INTER + INTRA:          14.514
REMARK INTER:                  15.856
REMARK INTRA:                  -1.342
REMARK UNBOUND:                -0.708
REMARK SMILES CCCCCCCCCCCCCCCCCCCCCC(=O)[O-]
REMARK SMILES IDX 12 1 11 2 10 3 9 4 8 5 7 6 6 7 5 8 4 9 3 10 2 11 1 12 13 13
REMARK SMILES IDX 14 14 15 15 16 16 17 17 18 18 19 19 20 20 21 21 22 22 23 23
REMARK SMILES IDX 24 24
REMARK H PARENT
REMARK Flexibility Score: inf
ROOT
ATOM      1  C   UNL     1      12.371  11.626 -13.890  1.00  0.00     0.000 C 
ENDROOT
BRANCH   1   2
ATOM      2  C   UNL     1      11.164  12.254 -13.171  1.00  0.00     0.000 C 
BRANCH   2   3
ATOM      3  C   UNL     1       9.830  11.972 -13.879  1.00  0.00     0.000 C 
BRANCH   3   4
ATOM      4  C   UNL     1       8.705  11.743 -12.862  1.00  0.00    -0.000 C 
BRANCH   4   5
ATOM      5  C   UNL     1       7.559  10.931 -13.482  1.00  0.00    -0.000 C 
BRANCH   5   6
ATOM      6  C   UNL     1       6.797  10.087 -12.446  1.00  0.00    -0.000 C 
BRANCH   6   7
ATOM      7  C   UNL     1       6.758   8.574 -12.740  1.00  0.00    -0.000 C 
BRANCH   7   8
ATOM      8  C   UNL     1       5.575   8.110 -13.613  1.00  0.00    -0.000 C 
BRANCH   8   9
ATOM      9  C   UNL     1       5.641   8.549 -15.090  1.00  0.00    -0.000 C 
BRANCH   9  10
ATOM     10  C   UNL     1       4.471   9.434 -15.557  1.00  0.00    -0.000 C 
BRANCH  10  11
ATOM     11  C   UNL     1       3.763  10.146 -14.398  1.00  0.00    -0.003 C 
ATOM     12  C   UNL     1       3.951  11.658 -14.482  1.00  0.00     0.004 C 
ENDBRANCH  10  11
ENDBRANCH   9  10
ENDBRANCH   8   9
ENDBRANCH   7   8
ENDBRANCH   6   7
ENDBRANCH   5   6
ENDBRANCH   4   5
ENDBRANCH   3   4
ENDBRANCH   2   3
ENDBRANCH   1   2
BRANCH   1  13
ATOM     13  C   UNL     1      13.658  11.552 -13.049  1.00  0.00     0.000 C 
BRANCH  13  14
ATOM     14  C   UNL     1      14.691  10.564 -13.621  1.00  0.00     0.000 C 
BRANCH  14  15
ATOM     15  C   UNL     1      14.092   9.171 -13.875  1.00  0.00     0.000 C 
BRANCH  15  16
ATOM     16  C   UNL     1      15.062   8.241 -14.623  1.00  0.00     0.000 C 
BRANCH  16  17
ATOM     17  C   UNL     1      16.520   8.409 -14.163  1.00  0.00     0.000 C 
BRANCH  17  18
ATOM     18  C   UNL     1      17.545   8.576 -15.303  1.00  0.00     0.000 C 
BRANCH  18  19
ATOM     19  C   UNL     1      18.763   9.459 -14.966  1.00  0.00     0.000 C 
BRANCH  19  20
ATOM     20  C   UNL     1      18.791  10.824 -15.676  1.00  0.00     0.006 C 
BRANCH  20  21
ATOM     21  C   UNL     1      18.925  12.001 -14.702  1.00  0.00     0.053 C 
BRANCH  21  22
ATOM     22  C   UNL     1      20.337  12.495 -14.671  1.00  0.00     0.041 C 
ATOM     23  O   UNL     1      20.709  13.304 -13.779  1.00  0.00    -0.550 OA
ATOM     24  O   UNL     1      21.235  12.088 -15.648  1.00  0.00    -0.550 OA
ENDBRANCH  21  22
ENDBRANCH  20  21
ENDBRANCH  19  20
ENDBRANCH  18  19
ENDBRANCH  17  18
ENDBRANCH  16  17
ENDBRANCH  15  16
ENDBRANCH  14  15
ENDBRANCH  13  14
ENDBRANCH   1  13
TORSDOF 20
ENDMDL
MODEL 7
REMARK VINA RESULT:     7.086      8.828     11.365
REMARK INTER + INTRA:          14.664
REMARK INTER:                  15.571
REMARK INTRA:                  -0.907
REMARK UNBOUND:                -0.708
REMARK SMILES CCCCCCCCCCCCCCCCCCCCCC(=O)[O-]
REMARK SMILES IDX 12 1 11 2 10 3 9 4 8 5 7 6 6 7 5 8 4 9 3 10 2 11 1 12 13 13
REMARK SMILES IDX 14 14 15 15 16 16 17 17 18 18 19 19 20 20 21 21 22 22 23 23
REMARK SMILES IDX 24 24
REMARK H PARENT
REMARK Flexibility Score: inf
ROOT
ATOM      1  C   UNL     1      10.836  12.234 -13.169  1.00  0.00     0.000 C 
ENDROOT
BRANCH   1   2
ATOM      2  C   UNL     1      12.028  11.556 -13.868  1.00  0.00     0.000 C 
BRANCH   2   3
ATOM      3  C   UNL     1      13.387  12.035 -13.335  1.00  0.00     0.000 C 
BRANCH   3   4
ATOM      4  C   UNL     1      14.313  10.848 -13.042  1.00  0.00    -0.000 C 
BRANCH   4   5
ATOM      5  C   UNL     1      14.238   9.801 -14.163  1.00  0.00    -0.000 C 
BRANCH   5   6
ATOM      6  C   UNL     1      15.043   8.529 -13.848  1.00  0.00    -0.000 C 
BRANCH   6   7
ATOM      7  C   UNL     1      16.391   8.410 -14.588  1.00  0.00    -0.000 C 
BRANCH   7   8
ATOM      8  C   UNL     1      17.349   9.602 -14.391  1.00  0.00    -0.000 C 
BRANCH   8   9
ATOM      9  C   UNL     1      18.731   9.445 -15.058  1.00  0.00    -0.000 C 
BRANCH   9  10
ATOM     10  C   UNL     1      19.836  10.351 -14.483  1.00  0.00    -0.000 C 
BRANCH  10  11
ATOM     11  C   UNL     1      19.291  11.671 -13.922  1.00  0.00    -0.003 C 
ATOM     12  C   UNL     1      20.262  12.821 -14.179  1.00  0.00     0.004 C 
ENDBRANCH  10  11
ENDBRANCH   9  10
ENDBRANCH   8   9
ENDBRANCH   7   8
ENDBRANCH   6   7
ENDBRANCH   5   6
ENDBRANCH   4   5
ENDBRANCH   3   4
ENDBRANCH   2   3
ENDBRANCH   1   2
BRANCH   1  13
ATOM     13  C   UNL     1       9.462  11.926 -13.791  1.00  0.00     0.000 C 
BRANCH  13  14
ATOM     14  C   UNL     1       8.416  11.498 -12.746  1.00  0.00     0.000 C 
BRANCH  14  15
ATOM     15  C   UNL     1       7.219  10.769 -13.379  1.00  0.00     0.000 C 
BRANCH  15  16
ATOM     16  C   UNL     1       7.043   9.342 -12.832  1.00  0.00     0.000 C 
BRANCH  16  17
ATOM     17  C   UNL     1       5.767   9.183 -11.988  1.00  0.00     0.000 C 
BRANCH  17  18
ATOM     18  C   UNL     1       4.483   9.736 -12.640  1.00  0.00     0.000 C 
BRANCH  18  19
ATOM     19  C   UNL     1       3.350   8.708 -12.832  1.00  0.00     0.000 C 
BRANCH  19  20
ATOM     20  C   UNL     1       2.861   8.033 -11.539  1.00  0.00     0.006 C 
BRANCH  20  21
ATOM     21  C   UNL     1       2.450   9.041 -10.458  1.00  0.00     0.053 C 
BRANCH  21  22
ATOM     22  C   UNL     1       2.886   8.566  -9.109  1.00  0.00     0.041 C 
ATOM     23  O   UNL     1       2.034   8.182  -8.262  1.00  0.00    -0.550 OA
ATOM     24  O   UNL     1       4.233   8.578  -8.771  1.00  0.00    -0.550 OA
ENDBRANCH  21  22
ENDBRANCH  20  21
ENDBRANCH  19  20
ENDBRANCH  18  19
ENDBRANCH  17  18
ENDBRANCH  16  17
ENDBRANCH  15  16
ENDBRANCH  14  15
ENDBRANCH  13  14
ENDBRANCH   1  13
TORSDOF 20
ENDMDL
MODEL 8
REMARK VINA RESULT:     7.135      7.968     10.490
REMARK INTER + INTRA:          14.769
REMARK INTER:                  15.539
REMARK INTRA:                  -0.770
REMARK UNBOUND:                -0.708
REMARK SMILES CCCCCCCCCCCCCCCCCCCCCC(=O)[O-]
REMARK SMILES IDX 12 1 11 2 10 3 9 4 8 5 7 6 6 7 5 8 4 9 3 10 2 11 1 12 13 13
REMARK SMILES IDX 14 14 15 15 16 16 17 17 18 18 19 19 20 20 21 21 22 22 23 23
REMARK SMILES IDX 24 24
REMARK H PARENT
REMARK Flexibility Score: inf
ROOT
ATOM      1  C   UNL     1      13.054  12.030 -13.393  1.00  0.00     0.000 C 
ENDROOT
BRANCH   1   2
ATOM      2  C   UNL     1      14.009  10.845 -13.165  1.00  0.00     0.000 C 
BRANCH   2   3
ATOM      3  C   UNL     1      13.980   9.822 -14.310  1.00  0.00     0.000 C 
BRANCH   3   4
ATOM      4  C   UNL     1      14.656   8.510 -13.895  1.00  0.00    -0.000 C 
BRANCH   4   5
ATOM      5  C   UNL     1      15.934   8.266 -14.710  1.00  0.00    -0.000 C 
BRANCH   5   6
ATOM      6  C   UNL     1      17.181   8.900 -14.071  1.00  0.00    -0.000 C 
BRANCH   6   7
ATOM      7  C   UNL     1      18.278   9.327 -15.067  1.00  0.00    -0.000 C 
BRANCH   7   8
ATOM      8  C   UNL     1      18.969  10.666 -14.741  1.00  0.00    -0.000 C 
BRANCH   8   9
ATOM      9  C   UNL     1      20.505  10.597 -14.623  1.00  0.00    -0.000 C 
BRANCH   9  10
ATOM     10  C   UNL     1      21.241  11.908 -14.954  1.00  0.00    -0.000 C 
BRANCH  10  11
ATOM     11  C   UNL     1      20.796  13.080 -14.069  1.00  0.00    -0.003 C 
ATOM     12  C   UNL     1      21.732  14.275 -14.224  1.00  0.00     0.004 C 
ENDBRANCH  10  11
ENDBRANCH   9  10
ENDBRANCH   8   9
ENDBRANCH   7   8
ENDBRANCH   6   7
ENDBRANCH   5   6
ENDBRANCH   4   5
ENDBRANCH   3   4
ENDBRANCH   2   3
ENDBRANCH   1   2
BRANCH   1  13
ATOM     13  C   UNL     1      11.712  11.662 -14.052  1.00  0.00     0.000 C 
BRANCH  13  14
ATOM     14  C   UNL     1      10.497  12.197 -13.273  1.00  0.00     0.000 C 
BRANCH  14  15
ATOM     15  C   UNL     1       9.162  11.761 -13.898  1.00  0.00     0.000 C 
BRANCH  15  16
ATOM     16  C   UNL     1       8.077  11.494 -12.841  1.00  0.00     0.000 C 
BRANCH  16  17
ATOM     17  C   UNL     1       7.223  10.256 -13.164  1.00  0.00     0.000 C 
BRANCH  17  18
ATOM     18  C   UNL     1       5.776  10.562 -13.601  1.00  0.00     0.000 C 
BRANCH  18  19
ATOM     19  C   UNL     1       4.678   9.886 -12.757  1.00  0.00     0.000 C 
BRANCH  19  20
ATOM     20  C   UNL     1       5.105   8.579 -12.065  1.00  0.00     0.006 C 
BRANCH  20  21
ATOM     21  C   UNL     1       5.274   8.735 -10.548  1.00  0.00     0.053 C 
BRANCH  21  22
ATOM     22  C   UNL     1       4.003   8.384  -9.842  1.00  0.00     0.041 C 
ATOM     23  O   UNL     1       3.970   8.323  -8.584  1.00  0.00    -0.550 OA
ATOM     24  O   UNL     1       2.862   8.090 -10.575  1.00  0.00    -0.550 OA
ENDBRANCH  21  22
ENDBRANCH  20  21
ENDBRANCH  19  20
ENDBRANCH  18  19
ENDBRANCH  17  18
ENDBRANCH  16  17
ENDBRANCH  15  16
ENDBRANCH  14  15
ENDBRANCH  13  14
ENDBRANCH   1  13
TORSDOF 20
ENDMDL
MODEL 9
REMARK VINA RESULT:     7.277      7.876     11.469
REMARK INTER + INTRA:          15.077
REMARK INTER:                  16.135
REMARK INTRA:                  -1.058
REMARK UNBOUND:                -0.708
REMARK SMILES CCCCCCCCCCCCCCCCCCCCCC(=O)[O-]
REMARK SMILES IDX 12 1 11 2 10 3 9 4 8 5 7 6 6 7 5 8 4 9 3 10 2 11 1 12 13 13
REMARK SMILES IDX 14 14 15 15 16 16 17 17 18 18 19 19 20 20 21 21 22 22 23 23
REMARK SMILES IDX 24 24
REMARK H PARENT
REMARK Flexibility Score: inf
ROOT
ATOM      1  C   UNL     1       9.609  11.961 -13.776  1.00  0.00     0.000 C 
ENDROOT
BRANCH   1   2
ATOM      2  C   UNL     1       8.532  11.581 -12.744  1.00  0.00     0.000 C 
BRANCH   2   3
ATOM      3  C   UNL     1       7.280  10.961 -13.383  1.00  0.00     0.000 C 
BRANCH   3   4
ATOM      4  C   UNL     1       7.155   9.476 -13.021  1.00  0.00    -0.000 C 
BRANCH   4   5
ATOM      5  C   UNL     1       6.171   9.273 -11.860  1.00  0.00    -0.000 C 
BRANCH   5   6
ATOM      6  C   UNL     1       4.773   8.839 -12.331  1.00  0.00    -0.000 C 
BRANCH   6   7
ATOM      7  C   UNL     1       3.940   9.947 -13.007  1.00  0.00    -0.000 C 
BRANCH   7   8
ATOM      8  C   UNL     1       3.467   9.625 -14.439  1.00  0.00    -0.000 C 
BRANCH   8   9
ATOM      9  C   UNL     1       4.392  10.136 -15.562  1.00  0.00    -0.000 C 
BRANCH   9  10
ATOM     10  C   UNL     1       4.463  11.668 -15.698  1.00  0.00    -0.000 C 
BRANCH  10  11
ATOM     11  C   UNL     1       3.085  12.339 -15.610  1.00  0.00    -0.003 C 
ATOM     12  C   UNL     1       3.075  13.441 -14.555  1.00  0.00     0.004 C 
ENDBRANCH  10  11
ENDBRANCH   9  10
ENDBRANCH   8   9
ENDBRANCH   7   8
ENDBRANCH   6   7
ENDBRANCH   5   6
ENDBRANCH   4   5
ENDBRANCH   3   4
ENDBRANCH   2   3
ENDBRANCH   1   2
BRANCH   1  13
ATOM     13  C   UNL     1      10.980  12.321 -13.177  1.00  0.00     0.000 C 
BRANCH  13  14
ATOM     14  C   UNL     1      12.149  11.624 -13.896  1.00  0.00     0.000 C 
BRANCH  14  15
ATOM     15  C   UNL     1      13.492  11.843 -13.182  1.00  0.00     0.000 C 
BRANCH  15  16
ATOM     16  C   UNL     1      14.410  10.611 -13.264  1.00  0.00     0.000 C 
BRANCH  16  17
ATOM     17  C   UNL     1      13.901   9.557 -14.261  1.00  0.00     0.000 C 
BRANCH  17  18
ATOM     18  C   UNL     1      14.616   8.192 -14.184  1.00  0.00     0.000 C 
BRANCH  18  19
ATOM     19  C   UNL     1      16.153   8.261 -14.081  1.00  0.00     0.000 C 
BRANCH  19  20
ATOM     20  C   UNL     1      16.896   8.218 -15.428  1.00  0.00     0.006 C 
BRANCH  20  21
ATOM     21  C   UNL     1      18.340   8.725 -15.329  1.00  0.00     0.053 C 
BRANCH  21  22
ATOM     22  C   UNL     1      18.361  10.211 -15.155  1.00  0.00     0.041 C 
ATOM     23  O   UNL     1      17.700  10.752 -14.228  1.00  0.00    -0.550 OA
ATOM     24  O   UNL     1      19.082  11.003 -16.038  1.00  0.00    -0.550 OA
ENDBRANCH  21  22
ENDBRANCH  20  21
ENDBRANCH  19  20
ENDBRANCH  18  19
ENDBRANCH  17  18
ENDBRANCH  16  17
ENDBRANCH  15  16
ENDBRANCH  14  15
ENDBRANCH  13  14
ENDBRANCH   1  13
TORSDOF 20
ENDMDL
