MODEL 1
REMARK VINA RESULT:    -7.470      0.000      0.000
REMARK INTER + INTRA:          -8.293
REMARK INTER:                  -8.781
REMARK INTRA:                   0.487
REMARK UNBOUND:                 0.487
REMARK SMILES O=c1c(O)c(-c2ccc(O)cc2)oc2cc(O)cc(O)c12
REMARK SMILES IDX 5 1 3 2 2 3 1 4 21 5 19 6 18 7 16 8 15 9 14 10 13 11 6 12
REMARK SMILES IDX 7 13 8 14 9 15 12 16 11 17 10 18 4 20 20 22 17 24
REMARK H PARENT 10 19 4 21 20 23 17 25
REMARK Flexibility Score: inf
ROOT
ATOM      1  C   UNL     1      16.380  29.950  23.818  1.00  0.00     0.180 A 
ATOM      2  C   UNL     1      16.311  31.246  23.277  1.00  0.00     0.208 A 
ATOM      3  C   UNL     1      15.378  31.510  22.261  1.00  0.00     0.238 A 
ATOM      4  O   UNL     1      15.357  32.656  21.744  1.00  0.00    -0.285 OA
ATOM      5  C   UNL     1      14.516  30.482  21.812  1.00  0.00     0.111 A 
ATOM      6  C   UNL     1      13.504  30.648  20.818  1.00  0.00     0.134 A 
ATOM      7  C   UNL     1      12.798  29.531  20.358  1.00  0.00     0.093 A 
ATOM      8  C   UNL     1      13.018  28.265  20.901  1.00  0.00     0.123 A 
ATOM      9  C   UNL     1      13.962  28.101  21.916  1.00  0.00     0.094 A 
ATOM     10  C   UNL     1      14.708  29.191  22.371  1.00  0.00     0.146 A 
ATOM     11  O   UNL     1      15.603  28.990  23.330  1.00  0.00    -0.452 OA
ENDROOT
BRANCH   1  12
ATOM     12  C   UNL     1      17.322  29.601  24.907  1.00  0.00     0.021 A 
ATOM     13  C   UNL     1      17.916  30.626  25.662  1.00  0.00     0.016 A 
ATOM     14  C   UNL     1      18.825  30.321  26.680  1.00  0.00     0.047 A 
ATOM     15  C   UNL     1      19.163  28.990  26.945  1.00  0.00     0.115 A 
ATOM     16  C   UNL     1      17.682  28.266  25.166  1.00  0.00     0.016 A 
ATOM     17  C   UNL     1      18.592  27.964  26.184  1.00  0.00     0.047 A 
BRANCH  15  18
ATOM     18  O   UNL     1      20.070  28.701  27.963  1.00  0.00    -0.508 OA
ATOM     19  H   UNL     1      19.777  28.241  28.817  1.00  0.00     0.293 HD
ENDBRANCH  15  18
ENDBRANCH   1  12
BRANCH   2  20
ATOM     20  O   UNL     1      17.187  32.241  23.719  1.00  0.00    -0.502 OA
ATOM     21  H   UNL     1      17.612  32.221  24.638  1.00  0.00     0.293 HD
ENDBRANCH   2  20
BRANCH   6  22
ATOM     22  O   UNL     1      13.141  31.883  20.274  1.00  0.00    -0.507 OA
ATOM     23  H   UNL     1      12.228  32.302  20.359  1.00  0.00     0.293 HD
ENDBRANCH   6  22
BRANCH   8  24
ATOM     24  O   UNL     1      12.285  27.177  20.430  1.00  0.00    -0.508 OA
ATOM     25  H   UNL     1      12.147  27.021  19.439  1.00  0.00     0.293 HD
ENDBRANCH   8  24
TORSDOF 5
ENDMDL
MODEL 2
REMARK VINA RESULT:    -7.302      5.933      7.769
REMARK INTER + INTRA:          -8.095
REMARK INTER:                  -8.132
REMARK INTRA:                   0.037
REMARK UNBOUND:                 0.487
REMARK SMILES O=c1c(O)c(-c2ccc(O)cc2)oc2cc(O)cc(O)c12
REMARK SMILES IDX 5 1 3 2 2 3 1 4 21 5 19 6 18 7 16 8 15 9 14 10 13 11 6 12
REMARK SMILES IDX 7 13 8 14 9 15 12 16 11 17 10 18 4 20 20 22 17 24
REMARK H PARENT 10 19 4 21 20 23 17 25
REMARK Flexibility Score: inf
ROOT
ATOM      1  C   UNL     1      11.551  33.005  21.281  1.00  0.00     0.180 A 
ATOM      2  C   UNL     1      10.476  32.376  20.628  1.00  0.00     0.208 A 
ATOM      3  C   UNL     1       9.370  31.958  21.386  1.00  0.00     0.238 A 
ATOM      4  O   UNL     1       8.436  31.348  20.805  1.00  0.00    -0.285 OA
ATOM      5  C   UNL     1       9.344  32.191  22.782  1.00  0.00     0.111 A 
ATOM      6  C   UNL     1       8.257  31.848  23.641  1.00  0.00     0.134 A 
ATOM      7  C   UNL     1       8.393  32.006  25.025  1.00  0.00     0.093 A 
ATOM      8  C   UNL     1       9.551  32.555  25.576  1.00  0.00     0.123 A 
ATOM      9  C   UNL     1      10.597  32.950  24.741  1.00  0.00     0.094 A 
ATOM     10  C   UNL     1      10.504  32.771  23.359  1.00  0.00     0.146 A 
ATOM     11  O   UNL     1      11.526  33.150  22.600  1.00  0.00    -0.452 OA
ENDROOT
BRANCH   1  12
ATOM     12  C   UNL     1      12.740  33.494  20.546  1.00  0.00     0.021 A 
ATOM     13  C   UNL     1      14.023  33.234  21.057  1.00  0.00     0.016 A 
ATOM     14  C   UNL     1      15.159  33.706  20.392  1.00  0.00     0.047 A 
ATOM     15  C   UNL     1      15.028  34.456  19.220  1.00  0.00     0.115 A 
ATOM     16  C   UNL     1      12.614  34.266  19.377  1.00  0.00     0.016 A 
ATOM     17  C   UNL     1      13.753  34.737  18.715  1.00  0.00     0.047 A 
BRANCH  15  18
ATOM     18  O   UNL     1      16.169  34.918  18.568  1.00  0.00    -0.508 OA
ATOM     19  H   UNL     1      16.271  35.893  18.308  1.00  0.00     0.293 HD
ENDBRANCH  15  18
ENDBRANCH   1  12
BRANCH   2  20
ATOM     20  O   UNL     1      10.532  32.135  19.252  1.00  0.00    -0.502 OA
ATOM     21  H   UNL     1      11.406  32.008  18.758  1.00  0.00     0.293 HD
ENDBRANCH   2  20
BRANCH   6  22
ATOM     22  O   UNL     1       7.022  31.378  23.186  1.00  0.00    -0.507 OA
ATOM     23  H   UNL     1       6.309  31.952  22.762  1.00  0.00     0.293 HD
ENDBRANCH   6  22
BRANCH   8  24
ATOM     24  O   UNL     1       9.647  32.712  26.958  1.00  0.00    -0.508 OA
ATOM     25  H   UNL     1       8.942  32.341  27.583  1.00  0.00     0.293 HD
ENDBRANCH   8  24
TORSDOF 5
ENDMDL
MODEL 3
REMARK VINA RESULT:    -7.282      5.505      7.249
REMARK INTER + INTRA:          -8.071
REMARK INTER:                  -7.782
REMARK INTRA:                  -0.289
REMARK UNBOUND:                 0.487
REMARK SMILES O=c1c(O)c(-c2ccc(O)cc2)oc2cc(O)cc(O)c12
REMARK SMILES IDX 5 1 3 2 2 3 1 4 21 5 19 6 18 7 16 8 15 9 14 10 13 11 6 12
REMARK SMILES IDX 7 13 8 14 9 15 12 16 11 17 10 18 4 20 20 22 17 24
REMARK H PARENT 10 19 4 21 20 23 17 25
REMARK Flexibility Score: inf
ROOT
ATOM      1  C   UNL     1      11.796  32.547  21.354  1.00  0.00     0.180 A 
ATOM      2  C   UNL     1      10.597  32.739  20.645  1.00  0.00     0.208 A 
ATOM      3  C   UNL     1       9.402  32.911  21.362  1.00  0.00     0.238 A 
ATOM      4  O   UNL     1       8.325  33.028  20.723  1.00  0.00    -0.285 OA
ATOM      5  C   UNL     1       9.424  32.907  22.777  1.00  0.00     0.111 A 
ATOM      6  C   UNL     1       8.280  33.114  23.606  1.00  0.00     0.134 A 
ATOM      7  C   UNL     1       8.394  32.958  24.993  1.00  0.00     0.093 A 
ATOM      8  C   UNL     1       9.623  32.669  25.586  1.00  0.00     0.123 A 
ATOM      9  C   UNL     1      10.760  32.525  24.790  1.00  0.00     0.094 A 
ATOM     10  C   UNL     1      10.670  32.638  23.401  1.00  0.00     0.146 A 
ATOM     11  O   UNL     1      11.774  32.483  22.680  1.00  0.00    -0.452 OA
ENDROOT
BRANCH   1  12
ATOM     12  C   UNL     1      13.099  32.382  20.668  1.00  0.00     0.021 A 
ATOM     13  C   UNL     1      13.853  33.520  20.335  1.00  0.00     0.016 A 
ATOM     14  C   UNL     1      15.075  33.389  19.667  1.00  0.00     0.047 A 
ATOM     15  C   UNL     1      15.548  32.123  19.309  1.00  0.00     0.115 A 
ATOM     16  C   UNL     1      13.571  31.113  20.287  1.00  0.00     0.016 A 
ATOM     17  C   UNL     1      14.793  30.986  19.618  1.00  0.00     0.047 A 
BRANCH  15  18
ATOM     18  O   UNL     1      16.767  32.008  18.644  1.00  0.00    -0.508 OA
ATOM     19  H   UNL     1      17.648  32.041  19.144  1.00  0.00     0.293 HD
ENDBRANCH  15  18
ENDBRANCH   1  12
BRANCH   2  20
ATOM     20  O   UNL     1      10.595  32.717  19.247  1.00  0.00    -0.502 OA
ATOM     21  H   UNL     1       9.753  32.559  18.707  1.00  0.00     0.293 HD
ENDBRANCH   2  20
BRANCH   6  22
ATOM     22  O   UNL     1       7.025  33.495  23.123  1.00  0.00    -0.507 OA
ATOM     23  H   UNL     1       6.459  34.233  23.513  1.00  0.00     0.293 HD
ENDBRANCH   6  22
BRANCH   8  24
ATOM     24  O   UNL     1       9.703  32.537  26.971  1.00  0.00    -0.508 OA
ATOM     25  H   UNL     1      10.099  33.267  27.551  1.00  0.00     0.293 HD
ENDBRANCH   8  24
TORSDOF 5
ENDMDL
MODEL 4
REMARK VINA RESULT:    -7.190      2.671      3.948
REMARK INTER + INTRA:          -7.964
REMARK INTER:                  -7.824
REMARK INTRA:                  -0.140
REMARK UNBOUND:                 0.487
REMARK SMILES O=c1c(O)c(-c2ccc(O)cc2)oc2cc(O)cc(O)c12
REMARK SMILES IDX 5 1 3 2 2 3 1 4 21 5 19 6 18 7 16 8 15 9 14 10 13 11 6 12
REMARK SMILES IDX 7 13 8 14 9 15 12 16 11 17 10 18 4 20 20 22 17 24
REMARK H PARENT 10 19 4 21 20 23 17 25
REMARK Flexibility Score: inf
ROOT
ATOM      1  C   UNL     1      14.522  31.592  22.263  1.00  0.00     0.180 A 
ATOM      2  C   UNL     1      14.731  32.003  20.935  1.00  0.00     0.208 A 
ATOM      3  C   UNL     1      13.677  32.614  20.237  1.00  0.00     0.238 A 
ATOM      4  O   UNL     1      13.853  32.930  19.032  1.00  0.00    -0.285 OA
ATOM      5  C   UNL     1      12.433  32.820  20.881  1.00  0.00     0.111 A 
ATOM      6  C   UNL     1      11.308  33.466  20.283  1.00  0.00     0.134 A 
ATOM      7  C   UNL     1      10.087  33.499  20.967  1.00  0.00     0.093 A 
ATOM      8  C   UNL     1       9.966  32.969  22.251  1.00  0.00     0.123 A 
ATOM      9  C   UNL     1      11.075  32.390  22.869  1.00  0.00     0.094 A 
ATOM     10  C   UNL     1      12.298  32.310  22.198  1.00  0.00     0.146 A 
ATOM     11  O   UNL     1      13.325  31.740  22.817  1.00  0.00    -0.452 OA
ENDROOT
BRANCH   1  12
ATOM     12  C   UNL     1      15.593  30.964  23.071  1.00  0.00     0.021 A 
ATOM     13  C   UNL     1      15.404  29.669  23.582  1.00  0.00     0.016 A 
ATOM     14  C   UNL     1      16.392  29.065  24.365  1.00  0.00     0.047 A 
ATOM     15  C   UNL     1      17.573  29.753  24.662  1.00  0.00     0.115 A 
ATOM     16  C   UNL     1      16.775  31.658  23.389  1.00  0.00     0.016 A 
ATOM     17  C   UNL     1      17.760  31.052  24.174  1.00  0.00     0.047 A 
BRANCH  15  18
ATOM     18  O   UNL     1      18.549  29.139  25.444  1.00  0.00    -0.508 OA
ATOM     19  H   UNL     1      18.610  29.305  26.442  1.00  0.00     0.293 HD
ENDBRANCH  15  18
ENDBRANCH   1  12
BRANCH   2  20
ATOM     20  O   UNL     1      15.960  31.769  20.311  1.00  0.00    -0.502 OA
ATOM     21  H   UNL     1      16.706  31.249  20.757  1.00  0.00     0.293 HD
ENDBRANCH   2  20
BRANCH   6  22
ATOM     22  O   UNL     1      11.346  34.107  19.042  1.00  0.00    -0.507 OA
ATOM     23  H   UNL     1      11.618  35.068  18.900  1.00  0.00     0.293 HD
ENDBRANCH   6  22
BRANCH   8  24
ATOM     24  O   UNL     1       8.739  33.034  22.909  1.00  0.00    -0.508 OA
ATOM     25  H   UNL     1       8.636  33.520  23.791  1.00  0.00     0.293 HD
ENDBRANCH   8  24
TORSDOF 5
ENDMDL
MODEL 5
REMARK VINA RESULT:    -7.175      5.297      7.967
REMARK INTER + INTRA:          -7.945
REMARK INTER:                  -7.736
REMARK INTRA:                  -0.209
REMARK UNBOUND:                 0.487
REMARK SMILES O=c1c(O)c(-c2ccc(O)cc2)oc2cc(O)cc(O)c12
REMARK SMILES IDX 5 1 3 2 2 3 1 4 21 5 19 6 18 7 16 8 15 9 14 10 13 11 6 12
REMARK SMILES IDX 7 13 8 14 9 15 12 16 11 17 10 18 4 20 20 22 17 24
REMARK H PARENT 10 19 4 21 20 23 17 25
REMARK Flexibility Score: inf
ROOT
ATOM      1  C   UNL     1      10.307  33.051  21.995  1.00  0.00     0.180 A 
ATOM      2  C   UNL     1       9.898  33.673  20.802  1.00  0.00     0.208 A 
ATOM      3  C   UNL     1      10.869  34.026  19.851  1.00  0.00     0.238 A 
ATOM      4  O   UNL     1      10.503  34.631  18.810  1.00  0.00    -0.285 OA
ATOM      5  C   UNL     1      12.232  33.736  20.096  1.00  0.00     0.111 A 
ATOM      6  C   UNL     1      13.296  34.011  19.184  1.00  0.00     0.134 A 
ATOM      7  C   UNL     1      14.621  33.802  19.585  1.00  0.00     0.093 A 
ATOM      8  C   UNL     1      14.918  33.266  20.838  1.00  0.00     0.123 A 
ATOM      9  C   UNL     1      13.883  32.937  21.714  1.00  0.00     0.094 A 
ATOM     10  C   UNL     1      12.553  33.169  21.357  1.00  0.00     0.146 A 
ATOM     11  O   UNL     1      11.599  32.852  22.224  1.00  0.00    -0.452 OA
ENDROOT
BRANCH   1  12
ATOM     12  C   UNL     1       9.339  32.629  23.034  1.00  0.00     0.021 A 
ATOM     13  C   UNL     1       9.342  33.273  24.283  1.00  0.00     0.016 A 
ATOM     14  C   UNL     1       8.452  32.875  25.286  1.00  0.00     0.047 A 
ATOM     15  C   UNL     1       7.563  31.820  25.061  1.00  0.00     0.115 A 
ATOM     16  C   UNL     1       8.456  31.555  22.820  1.00  0.00     0.016 A 
ATOM     17  C   UNL     1       7.569  31.159  23.827  1.00  0.00     0.047 A 
BRANCH  15  18
ATOM     18  O   UNL     1       6.683  31.435  26.070  1.00  0.00    -0.508 OA
ATOM     19  H   UNL     1       7.014  31.002  26.924  1.00  0.00     0.293 HD
ENDBRANCH  15  18
ENDBRANCH   1  12
BRANCH   2  20
ATOM     20  O   UNL     1       8.549  33.971  20.590  1.00  0.00    -0.502 OA
ATOM     21  H   UNL     1       8.165  34.129  19.667  1.00  0.00     0.293 HD
ENDBRANCH   2  20
BRANCH   6  22
ATOM     22  O   UNL     1      13.104  34.462  17.875  1.00  0.00    -0.507 OA
ATOM     23  H   UNL     1      12.325  35.025  17.570  1.00  0.00     0.293 HD
ENDBRANCH   6  22
BRANCH   8  24
ATOM     24  O   UNL     1      16.248  33.056  21.198  1.00  0.00    -0.508 OA
ATOM     25  H   UNL     1      16.538  33.038  22.168  1.00  0.00     0.293 HD
ENDBRANCH   8  24
TORSDOF 5
ENDMDL
MODEL 6
REMARK VINA RESULT:    -7.041      5.418      7.649
REMARK INTER + INTRA:          -7.788
REMARK INTER:                  -7.506
REMARK INTRA:                  -0.283
REMARK UNBOUND:                 0.487
REMARK SMILES O=c1c(O)c(-c2ccc(O)cc2)oc2cc(O)cc(O)c12
REMARK SMILES IDX 5 1 3 2 2 3 1 4 21 5 19 6 18 7 16 8 15 9 14 10 13 11 6 12
REMARK SMILES IDX 7 13 8 14 9 15 12 16 11 17 10 18 4 20 20 22 17 24
REMARK H PARENT 10 19 4 21 20 23 17 25
REMARK Flexibility Score: inf
ROOT
ATOM      1  C   UNL     1      12.136  32.807  21.221  1.00  0.00     0.180 A 
ATOM      2  C   UNL     1      12.660  31.526  20.972  1.00  0.00     0.208 A 
ATOM      3  C   UNL     1      13.797  31.402  20.158  1.00  0.00     0.238 A 
ATOM      4  O   UNL     1      14.229  30.250  19.895  1.00  0.00    -0.285 OA
ATOM      5  C   UNL     1      14.406  32.560  19.619  1.00  0.00     0.111 A 
ATOM      6  C   UNL     1      15.586  32.556  18.815  1.00  0.00     0.134 A 
ATOM      7  C   UNL     1      16.025  33.748  18.226  1.00  0.00     0.093 A 
ATOM      8  C   UNL     1      15.367  34.954  18.465  1.00  0.00     0.123 A 
ATOM      9  C   UNL     1      14.247  34.980  19.298  1.00  0.00     0.094 A 
ATOM     10  C   UNL     1      13.764  33.801  19.870  1.00  0.00     0.146 A 
ATOM     11  O   UNL     1      12.690  33.868  20.647  1.00  0.00    -0.452 OA
ENDROOT
BRANCH   1  12
ATOM     12  C   UNL     1      10.953  33.019  22.088  1.00  0.00     0.021 A 
ATOM     13  C   UNL     1      11.123  33.097  23.481  1.00  0.00     0.016 A 
ATOM     14  C   UNL     1      10.018  33.274  24.320  1.00  0.00     0.047 A 
ATOM     15  C   UNL     1       8.731  33.358  23.780  1.00  0.00     0.115 A 
ATOM     16  C   UNL     1       9.654  33.084  21.553  1.00  0.00     0.016 A 
ATOM     17  C   UNL     1       8.551  33.259  22.396  1.00  0.00     0.047 A 
BRANCH  15  18
ATOM     18  O   UNL     1       7.640  33.534  24.629  1.00  0.00    -0.508 OA
ATOM     19  H   UNL     1       7.444  32.885  25.382  1.00  0.00     0.293 HD
ENDBRANCH  15  18
ENDBRANCH   1  12
BRANCH   2  20
ATOM     20  O   UNL     1      12.030  30.394  21.497  1.00  0.00    -0.502 OA
ATOM     21  H   UNL     1      11.557  30.401  22.392  1.00  0.00     0.293 HD
ENDBRANCH   2  20
BRANCH   6  22
ATOM     22  O   UNL     1      16.371  31.422  18.588  1.00  0.00    -0.507 OA
ATOM     23  H   UNL     1      17.379  31.414  18.578  1.00  0.00     0.293 HD
ENDBRANCH   6  22
BRANCH   8  24
ATOM     24  O   UNL     1      15.841  36.125  17.875  1.00  0.00    -0.508 OA
ATOM     25  H   UNL     1      16.293  36.116  16.968  1.00  0.00     0.293 HD
ENDBRANCH   8  24
TORSDOF 5
ENDMDL
MODEL 7
REMARK VINA RESULT:    -6.969      4.892      6.272
REMARK INTER + INTRA:          -7.704
REMARK INTER:                  -7.406
REMARK INTRA:                  -0.298
REMARK UNBOUND:                 0.487
REMARK SMILES O=c1c(O)c(-c2ccc(O)cc2)oc2cc(O)cc(O)c12
REMARK SMILES IDX 5 1 3 2 2 3 1 4 21 5 19 6 18 7 16 8 15 9 14 10 13 11 6 12
REMARK SMILES IDX 7 13 8 14 9 15 12 16 11 17 10 18 4 20 20 22 17 24
REMARK H PARENT 10 19 4 21 20 23 17 25
REMARK Flexibility Score: inf
ROOT
ATOM      1  C   UNL     1      12.302  31.743  21.694  1.00  0.00     0.180 A 
ATOM      2  C   UNL     1      13.531  32.222  21.206  1.00  0.00     0.208 A 
ATOM      3  C   UNL     1      14.323  31.379  20.411  1.00  0.00     0.238 A 
ATOM      4  O   UNL     1      15.445  31.793  20.022  1.00  0.00    -0.285 OA
ATOM      5  C   UNL     1      13.870  30.075  20.099  1.00  0.00     0.111 A 
ATOM      6  C   UNL     1      14.571  29.149  19.269  1.00  0.00     0.134 A 
ATOM      7  C   UNL     1      14.093  27.840  19.135  1.00  0.00     0.093 A 
ATOM      8  C   UNL     1      12.905  27.442  19.748  1.00  0.00     0.123 A 
ATOM      9  C   UNL     1      12.179  28.356  20.513  1.00  0.00     0.094 A 
ATOM     10  C   UNL     1      12.650  29.658  20.694  1.00  0.00     0.146 A 
ATOM     11  O   UNL     1      11.935  30.493  21.439  1.00  0.00    -0.452 OA
ENDROOT
BRANCH   1  12
ATOM     12  C   UNL     1      11.401  32.582  22.518  1.00  0.00     0.021 A 
ATOM     13  C   UNL     1      11.447  32.475  23.918  1.00  0.00     0.016 A 
ATOM     14  C   UNL     1      10.590  33.241  24.715  1.00  0.00     0.047 A 
ATOM     15  C   UNL     1       9.667  34.108  24.124  1.00  0.00     0.115 A 
ATOM     16  C   UNL     1      10.456  33.441  21.929  1.00  0.00     0.016 A 
ATOM     17  C   UNL     1       9.600  34.204  22.729  1.00  0.00     0.047 A 
BRANCH  15  18
ATOM     18  O   UNL     1       8.820  34.865  24.930  1.00  0.00    -0.508 OA
ATOM     19  H   UNL     1       8.570  34.564  25.865  1.00  0.00     0.293 HD
ENDBRANCH  15  18
ENDBRANCH   1  12
BRANCH   2  20
ATOM     20  O   UNL     1      13.970  33.506  21.544  1.00  0.00    -0.502 OA
ATOM     21  H   UNL     1      14.000  34.264  20.874  1.00  0.00     0.293 HD
ENDBRANCH   2  20
BRANCH   6  22
ATOM     22  O   UNL     1      15.718  29.471  18.538  1.00  0.00    -0.507 OA
ATOM     23  H   UNL     1      15.996  30.408  18.289  1.00  0.00     0.293 HD
ENDBRANCH   6  22
BRANCH   8  24
ATOM     24  O   UNL     1      12.450  26.135  19.580  1.00  0.00    -0.508 OA
ATOM     25  H   UNL     1      13.052  25.407  19.214  1.00  0.00     0.293 HD
ENDBRANCH   8  24
TORSDOF 5
ENDMDL
MODEL 8
REMARK VINA RESULT:    -6.807      7.027      8.683
REMARK INTER + INTRA:          -7.514
REMARK INTER:                  -7.245
REMARK INTRA:                  -0.269
REMARK UNBOUND:                 0.487
REMARK SMILES O=c1c(O)c(-c2ccc(O)cc2)oc2cc(O)cc(O)c12
REMARK SMILES IDX 5 1 3 2 2 3 1 4 21 5 19 6 18 7 16 8 15 9 14 10 13 11 6 12
REMARK SMILES IDX 7 13 8 14 9 15 12 16 11 17 10 18 4 20 20 22 17 24
REMARK H PARENT 10 19 4 21 20 23 17 25
REMARK Flexibility Score: inf
ROOT
ATOM      1  C   UNL     1       9.552  32.648  21.892  1.00  0.00     0.180 A 
ATOM      2  C   UNL     1       9.194  33.355  23.054  1.00  0.00     0.208 A 
ATOM      3  C   UNL     1       8.349  32.740  23.992  1.00  0.00     0.238 A 
ATOM      4  O   UNL     1       7.989  33.397  25.002  1.00  0.00    -0.285 OA
ATOM      5  C   UNL     1       7.889  31.421  23.766  1.00  0.00     0.111 A 
ATOM      6  C   UNL     1       7.063  30.685  24.669  1.00  0.00     0.134 A 
ATOM      7  C   UNL     1       6.560  29.437  24.284  1.00  0.00     0.093 A 
ATOM      8  C   UNL     1       6.905  28.868  23.058  1.00  0.00     0.123 A 
ATOM      9  C   UNL     1       7.760  29.552  22.193  1.00  0.00     0.094 A 
ATOM     10  C   UNL     1       8.249  30.815  22.534  1.00  0.00     0.146 A 
ATOM     11  O   UNL     1       9.051  31.437  21.678  1.00  0.00    -0.452 OA
ENDROOT
BRANCH   1  12
ATOM     12  C   UNL     1      10.457  33.221  20.869  1.00  0.00     0.021 A 
ATOM     13  C   UNL     1      11.846  33.189  21.080  1.00  0.00     0.016 A 
ATOM     14  C   UNL     1      12.718  33.745  20.138  1.00  0.00     0.047 A 
ATOM     15  C   UNL     1      12.213  34.352  18.985  1.00  0.00     0.115 A 
ATOM     16  C   UNL     1       9.955  33.851  19.716  1.00  0.00     0.016 A 
ATOM     17  C   UNL     1      10.830  34.407  18.777  1.00  0.00     0.047 A 
BRANCH  15  18
ATOM     18  O   UNL     1      13.094  34.901  18.055  1.00  0.00    -0.508 OA
ATOM     19  H   UNL     1      12.766  35.276  17.172  1.00  0.00     0.293 HD
ENDBRANCH  15  18
ENDBRANCH   1  12
BRANCH   2  20
ATOM     20  O   UNL     1       9.642  34.665  23.245  1.00  0.00    -0.502 OA
ATOM     21  H   UNL     1       9.095  35.472  22.971  1.00  0.00     0.293 HD
ENDBRANCH   2  20
BRANCH   6  22
ATOM     22  O   UNL     1       6.732  31.121  25.955  1.00  0.00    -0.507 OA
ATOM     23  H   UNL     1       5.997  30.730  26.523  1.00  0.00     0.293 HD
ENDBRANCH   6  22
BRANCH   8  24
ATOM     24  O   UNL     1       6.399  27.616  22.714  1.00  0.00    -0.508 OA
ATOM     25  H   UNL     1       6.870  27.020  22.045  1.00  0.00     0.293 HD
ENDBRANCH   8  24
TORSDOF 5
ENDMDL
MODEL 9
REMARK VINA RESULT:    -6.585      5.411      7.110
REMARK INTER + INTRA:          -7.253
REMARK INTER:                  -6.965
REMARK INTRA:                  -0.288
REMARK UNBOUND:                 0.487
REMARK SMILES O=c1c(O)c(-c2ccc(O)cc2)oc2cc(O)cc(O)c12
REMARK SMILES IDX 5 1 3 2 2 3 1 4 21 5 19 6 18 7 16 8 15 9 14 10 13 11 6 12
REMARK SMILES IDX 7 13 8 14 9 15 12 16 11 17 10 18 4 20 20 22 17 24
REMARK H PARENT 10 19 4 21 20 23 17 25
REMARK Flexibility Score: inf
ROOT
ATOM      1  C   UNL     1      11.659  31.639  21.422  1.00  0.00     0.180 A 
ATOM      2  C   UNL     1      11.095  30.410  21.038  1.00  0.00     0.208 A 
ATOM      3  C   UNL     1      11.809  29.578  20.160  1.00  0.00     0.238 A 
ATOM      4  O   UNL     1      11.276  28.505  19.778  1.00  0.00    -0.285 OA
ATOM      5  C   UNL     1      13.083  29.978  19.691  1.00  0.00     0.111 A 
ATOM      6  C   UNL     1      13.913  29.196  18.831  1.00  0.00     0.134 A 
ATOM      7  C   UNL     1      15.096  29.746  18.326  1.00  0.00     0.093 A 
ATOM      8  C   UNL     1      15.514  31.023  18.699  1.00  0.00     0.123 A 
ATOM      9  C   UNL     1      14.741  31.773  19.587  1.00  0.00     0.094 A 
ATOM     10  C   UNL     1      13.537  31.265  20.080  1.00  0.00     0.146 A 
ATOM     11  O   UNL     1      12.827  32.015  20.914  1.00  0.00    -0.452 OA
ENDROOT
BRANCH   1  12
ATOM     12  C   UNL     1      10.978  32.558  22.363  1.00  0.00     0.021 A 
ATOM     13  C   UNL     1      11.211  32.432  23.743  1.00  0.00     0.016 A 
ATOM     14  C   UNL     1      10.561  33.274  24.651  1.00  0.00     0.047 A 
ATOM     15  C   UNL     1       9.659  34.240  24.193  1.00  0.00     0.115 A 
ATOM     16  C   UNL     1      10.054  33.519  21.911  1.00  0.00     0.016 A 
ATOM     17  C   UNL     1       9.405  34.358  22.821  1.00  0.00     0.047 A 
BRANCH  15  18
ATOM     18  O   UNL     1       9.019  35.072  25.109  1.00  0.00    -0.508 OA
ATOM     19  H   UNL     1       8.524  34.696  25.910  1.00  0.00     0.293 HD
ENDBRANCH  15  18
ENDBRANCH   1  12
BRANCH   2  20
ATOM     20  O   UNL     1       9.826  30.045  21.495  1.00  0.00    -0.502 OA
ATOM     21  H   UNL     1       9.220  29.421  20.977  1.00  0.00     0.293 HD
ENDBRANCH   2  20
BRANCH   6  22
ATOM     22  O   UNL     1      13.634  27.875  18.469  1.00  0.00    -0.507 OA
ATOM     23  H   UNL     1      13.667  27.087  19.097  1.00  0.00     0.293 HD
ENDBRANCH   6  22
BRANCH   8  24
ATOM     24  O   UNL     1      16.706  31.533  18.189  1.00  0.00    -0.508 OA
ATOM     25  H   UNL     1      17.335  30.960  17.639  1.00  0.00     0.293 HD
ENDBRANCH   8  24
TORSDOF 5
ENDMDL
