MODEL 1
REMARK VINA RESULT:    -4.828      0.000      0.000
REMARK INTER + INTRA:          -5.879
REMARK INTER:                  -5.816
REMARK INTRA:                  -0.063
REMARK UNBOUND:                -0.063
REMARK SMILES O=c1c(O)c(-c2ccc(O)c(O)c2)oc2cc(O)cc(O)c12
REMARK SMILES IDX 5 1 3 2 2 3 1 4 22 5 20 6 19 7 17 8 16 9 15 10 14 11 6 12
REMARK SMILES IDX 7 13 8 14 9 15 13 16 11 17 10 18 12 20 4 22 21 24 18 26
REMARK H PARENT 10 19 12 21 4 23 21 25 18 27
REMARK Flexibility Score: inf
ROOT
ATOM      1  C   UNL     1       0.856   8.410 -17.687  1.00  0.00     0.180 A 
ATOM      2  C   UNL     1       1.044   9.532 -16.857  1.00  0.00     0.208 A 
ATOM      3  C   UNL     1       0.939   9.372 -15.466  1.00  0.00     0.238 A 
ATOM      4  O   UNL     1       1.096  10.371 -14.713  1.00  0.00    -0.285 OA
ATOM      5  C   UNL     1       0.667   8.096 -14.930  1.00  0.00     0.111 A 
ATOM      6  C   UNL     1       0.550   7.849 -13.540  1.00  0.00     0.134 A 
ATOM      7  C   UNL     1       0.288   6.548 -13.086  1.00  0.00     0.093 A 
ATOM      8  C   UNL     1       0.142   5.493 -13.988  1.00  0.00     0.123 A 
ATOM      9  C   UNL     1       0.257   5.732 -15.362  1.00  0.00     0.094 A 
ATOM     10  C   UNL     1       0.517   7.020 -15.836  1.00  0.00     0.146 A 
ATOM     11  O   UNL     1       0.616   7.220 -17.145  1.00  0.00    -0.452 OA
ENDROOT
BRANCH   1  12
ATOM     12  C   UNL     1       0.933   8.503 -19.163  1.00  0.00     0.025 A 
ATOM     13  C   UNL     1       0.108   9.414 -19.842  1.00  0.00     0.016 A 
ATOM     14  C   UNL     1       0.179   9.534 -21.232  1.00  0.00     0.051 A 
ATOM     15  C   UNL     1       1.088   8.756 -21.961  1.00  0.00     0.157 A 
ATOM     16  C   UNL     1       1.859   7.740 -19.897  1.00  0.00     0.062 A 
ATOM     17  C   UNL     1       1.932   7.861 -21.293  1.00  0.00     0.158 A 
BRANCH  15  18
ATOM     18  O   UNL     1       1.160   8.871 -23.349  1.00  0.00    -0.504 OA
ATOM     19  H   UNL     1       1.940   8.491 -23.872  1.00  0.00     0.293 HD
ENDBRANCH  15  18
BRANCH  17  20
ATOM     20  O   UNL     1       2.844   7.099 -22.020  1.00  0.00    -0.504 OA
ATOM     21  H   UNL     1       2.543   6.471 -22.756  1.00  0.00     0.293 HD
ENDBRANCH  17  20
ENDBRANCH   1  12
BRANCH   2  22
ATOM     22  O   UNL     1       1.361  10.776 -17.410  1.00  0.00    -0.502 OA
ATOM     23  H   UNL     1       2.210  10.933 -17.939  1.00  0.00     0.293 HD
ENDBRANCH   2  22
BRANCH   6  24
ATOM     24  O   UNL     1       0.691   8.882 -12.613  1.00  0.00    -0.507 OA
ATOM     25  H   UNL     1       1.175   8.746 -11.733  1.00  0.00     0.293 HD
ENDBRANCH   6  24
BRANCH   8  26
ATOM     26  O   UNL     1      -0.117   4.211 -13.510  1.00  0.00    -0.508 OA
ATOM     27  H   UNL     1      -0.724   4.055 -12.714  1.00  0.00     0.293 HD
ENDBRANCH   8  26
TORSDOF 6
ENDMDL
MODEL 2
REMARK VINA RESULT:    -4.449      2.964      5.896
REMARK INTER + INTRA:          -5.422
REMARK INTER:                  -5.887
REMARK INTRA:                   0.465
REMARK UNBOUND:                -0.063
REMARK SMILES O=c1c(O)c(-c2ccc(O)c(O)c2)oc2cc(O)cc(O)c12
REMARK SMILES IDX 5 1 3 2 2 3 1 4 22 5 20 6 19 7 17 8 16 9 15 10 14 11 6 12
REMARK SMILES IDX 7 13 8 14 9 15 13 16 11 17 10 18 12 20 4 22 21 24 18 26
REMARK H PARENT 10 19 12 21 4 23 21 25 18 27
REMARK Flexibility Score: inf
ROOT
ATOM      1  C   UNL     1       0.352   6.363 -12.919  1.00  0.00     0.180 A 
ATOM      2  C   UNL     1       0.362   5.067 -12.367  1.00  0.00     0.208 A 
ATOM      3  C   UNL     1       0.437   4.924 -10.973  1.00  0.00     0.238 A 
ATOM      4  O   UNL     1       0.457   3.768 -10.468  1.00  0.00    -0.285 OA
ATOM      5  C   UNL     1       0.481   6.072 -10.155  1.00  0.00     0.111 A 
ATOM      6  C   UNL     1       0.553   6.014  -8.742  1.00  0.00     0.134 A 
ATOM      7  C   UNL     1       0.584   7.204  -7.999  1.00  0.00     0.093 A 
ATOM      8  C   UNL     1       0.544   8.445  -8.637  1.00  0.00     0.123 A 
ATOM      9  C   UNL     1       0.472   8.508 -10.033  1.00  0.00     0.094 A 
ATOM     10  C   UNL     1       0.442   7.335 -10.792  1.00  0.00     0.146 A 
ATOM     11  O   UNL     1       0.380   7.423 -12.115  1.00  0.00    -0.452 OA
ENDROOT
BRANCH   1  12
ATOM     12  C   UNL     1       0.292   6.595 -14.379  1.00  0.00     0.025 A 
ATOM     13  C   UNL     1       0.449   7.898 -14.879  1.00  0.00     0.016 A 
ATOM     14  C   UNL     1       0.418   8.137 -16.255  1.00  0.00     0.051 A 
ATOM     15  C   UNL     1       0.247   7.075 -17.152  1.00  0.00     0.157 A 
ATOM     16  C   UNL     1       0.142   5.529 -15.285  1.00  0.00     0.062 A 
ATOM     17  C   UNL     1       0.112   5.768 -16.667  1.00  0.00     0.158 A 
BRANCH  15  18
ATOM     18  O   UNL     1       0.213   7.310 -18.526  1.00  0.00    -0.504 OA
ATOM     19  H   UNL     1      -0.664   7.389 -19.028  1.00  0.00     0.293 HD
ENDBRANCH  15  18
BRANCH  17  20
ATOM     20  O   UNL     1      -0.044   4.713 -17.563  1.00  0.00    -0.504 OA
ATOM     21  H   UNL     1      -0.555   4.825 -18.431  1.00  0.00     0.293 HD
ENDBRANCH  17  20
ENDBRANCH   1  12
BRANCH   2  22
ATOM     22  O   UNL     1       0.267   3.946 -13.196  1.00  0.00    -0.502 OA
ATOM     23  H   UNL     1       0.943   3.193 -13.169  1.00  0.00     0.293 HD
ENDBRANCH   2  22
BRANCH   6  24
ATOM     24  O   UNL     1       0.595   4.790  -8.074  1.00  0.00    -0.507 OA
ATOM     25  H   UNL     1       1.457   4.266  -7.973  1.00  0.00     0.293 HD
ENDBRANCH   6  24
BRANCH   8  26
ATOM     26  O   UNL     1       0.575   9.611  -7.875  1.00  0.00    -0.508 OA
ATOM     27  H   UNL     1       1.107   9.667  -7.015  1.00  0.00     0.293 HD
ENDBRANCH   8  26
TORSDOF 6
ENDMDL
MODEL 3
REMARK VINA RESULT:    -4.098      2.490      4.482
REMARK INTER + INTRA:          -5.000
REMARK INTER:                  -5.521
REMARK INTRA:                   0.521
REMARK UNBOUND:                -0.063
REMARK SMILES O=c1c(O)c(-c2ccc(O)c(O)c2)oc2cc(O)cc(O)c12
REMARK SMILES IDX 5 1 3 2 2 3 1 4 22 5 20 6 19 7 17 8 16 9 15 10 14 11 6 12
REMARK SMILES IDX 7 13 8 14 9 15 13 16 11 17 10 18 12 20 4 22 21 24 18 26
REMARK H PARENT 10 19 12 21 4 23 21 25 18 27
REMARK Flexibility Score: inf
ROOT
ATOM      1  C   UNL     1       0.184   7.201 -13.491  1.00  0.00     0.180 A 
ATOM      2  C   UNL     1       0.180   8.314 -12.628  1.00  0.00     0.208 A 
ATOM      3  C   UNL     1       0.106   8.098 -11.243  1.00  0.00     0.238 A 
ATOM      4  O   UNL     1       0.091   9.087 -10.460  1.00  0.00    -0.285 OA
ATOM      5  C   UNL     1       0.057   6.780 -10.745  1.00  0.00     0.111 A 
ATOM      6  C   UNL     1      -0.014   6.476  -9.364  1.00  0.00     0.134 A 
ATOM      7  C   UNL     1      -0.050   5.136  -8.948  1.00  0.00     0.093 A 
ATOM      8  C   UNL     1      -0.015   4.099  -9.881  1.00  0.00     0.123 A 
ATOM      9  C   UNL     1       0.055   4.393 -11.247  1.00  0.00     0.094 A 
ATOM     10  C   UNL     1       0.090   5.720 -11.683  1.00  0.00     0.146 A 
ATOM     11  O   UNL     1       0.152   5.972 -12.984  1.00  0.00    -0.452 OA
ENDROOT
BRANCH   1  12
ATOM     12  C   UNL     1       0.242   7.349 -14.963  1.00  0.00     0.025 A 
ATOM     13  C   UNL     1       0.494   8.612 -15.521  1.00  0.00     0.016 A 
ATOM     14  C   UNL     1       0.575   8.771 -16.907  1.00  0.00     0.051 A 
ATOM     15  C   UNL     1       0.421   7.666 -17.754  1.00  0.00     0.157 A 
ATOM     16  C   UNL     1       0.110   6.238 -15.816  1.00  0.00     0.062 A 
ATOM     17  C   UNL     1       0.192   6.396 -17.208  1.00  0.00     0.158 A 
BRANCH  15  18
ATOM     18  O   UNL     1       0.498   7.820 -19.137  1.00  0.00    -0.504 OA
ATOM     19  H   UNL     1       1.086   7.222 -19.705  1.00  0.00     0.293 HD
ENDBRANCH  15  18
BRANCH  17  20
ATOM     20  O   UNL     1       0.053   5.297 -18.053  1.00  0.00    -0.504 OA
ATOM     21  H   UNL     1      -0.650   4.586 -17.887  1.00  0.00     0.293 HD
ENDBRANCH  17  20
ENDBRANCH   1  12
BRANCH   2  22
ATOM     22  O   UNL     1       0.279   9.609 -13.144  1.00  0.00    -0.502 OA
ATOM     23  H   UNL     1      -0.419  10.320 -12.963  1.00  0.00     0.293 HD
ENDBRANCH   2  22
BRANCH   6  24
ATOM     24  O   UNL     1      -0.050   7.490  -8.406  1.00  0.00    -0.507 OA
ATOM     25  H   UNL     1      -0.832   8.132  -8.337  1.00  0.00     0.293 HD
ENDBRANCH   6  24
BRANCH   8  26
ATOM     26  O   UNL     1      -0.051   2.777  -9.441  1.00  0.00    -0.508 OA
ATOM     27  H   UNL     1       0.471   2.048  -9.913  1.00  0.00     0.293 HD
ENDBRANCH   8  26
TORSDOF 6
ENDMDL
MODEL 4
REMARK VINA RESULT:    -4.052      2.411      8.056
REMARK INTER + INTRA:          -4.944
REMARK INTER:                  -4.951
REMARK INTRA:                   0.007
REMARK UNBOUND:                -0.063
REMARK SMILES O=c1c(O)c(-c2ccc(O)c(O)c2)oc2cc(O)cc(O)c12
REMARK SMILES IDX 5 1 3 2 2 3 1 4 22 5 20 6 19 7 17 8 16 9 15 10 14 11 6 12
REMARK SMILES IDX 7 13 8 14 9 15 13 16 11 17 10 18 12 20 4 22 21 24 18 26
REMARK H PARENT 10 19 12 21 4 23 21 25 18 27
REMARK Flexibility Score: inf
ROOT
ATOM      1  C   UNL     1       0.665   6.602 -13.494  1.00  0.00     0.180 A 
ATOM      2  C   UNL     1       0.721   5.507 -14.377  1.00  0.00     0.208 A 
ATOM      3  C   UNL     1       0.576   5.738 -15.755  1.00  0.00     0.238 A 
ATOM      4  O   UNL     1       0.616   4.764 -16.555  1.00  0.00    -0.285 OA
ATOM      5  C   UNL     1       0.398   7.055 -16.225  1.00  0.00     0.111 A 
ATOM      6  C   UNL     1       0.249   7.374 -17.597  1.00  0.00     0.134 A 
ATOM      7  C   UNL     1       0.085   8.712 -17.986  1.00  0.00     0.093 A 
ATOM      8  C   UNL     1       0.068   9.734 -17.035  1.00  0.00     0.123 A 
ATOM      9  C   UNL     1       0.215   9.425 -15.678  1.00  0.00     0.094 A 
ATOM     10  C   UNL     1       0.378   8.098 -15.270  1.00  0.00     0.146 A 
ATOM     11  O   UNL     1       0.510   7.832 -13.976  1.00  0.00    -0.452 OA
ENDROOT
BRANCH   1  12
ATOM     12  C   UNL     1       0.791   6.437 -12.028  1.00  0.00     0.025 A 
ATOM     13  C   UNL     1      -0.006   5.487 -11.369  1.00  0.00     0.016 A 
ATOM     14  C   UNL     1       0.112   5.299  -9.990  1.00  0.00     0.051 A 
ATOM     15  C   UNL     1       1.039   6.046  -9.252  1.00  0.00     0.157 A 
ATOM     16  C   UNL     1       1.736   7.170 -11.287  1.00  0.00     0.062 A 
ATOM     17  C   UNL     1       1.855   6.980  -9.902  1.00  0.00     0.158 A 
BRANCH  15  18
ATOM     18  O   UNL     1       1.158   5.863  -7.875  1.00  0.00    -0.504 OA
ATOM     19  H   UNL     1       1.876   5.268  -7.480  1.00  0.00     0.293 HD
ENDBRANCH  15  18
BRANCH  17  20
ATOM     20  O   UNL     1       2.786   7.712  -9.167  1.00  0.00    -0.504 OA
ATOM     21  H   UNL     1       3.780   7.643  -9.353  1.00  0.00     0.293 HD
ENDBRANCH  17  20
ENDBRANCH   1  12
BRANCH   2  22
ATOM     22  O   UNL     1       0.949   4.217 -13.890  1.00  0.00    -0.502 OA
ATOM     23  H   UNL     1       1.784   3.972 -13.372  1.00  0.00     0.293 HD
ENDBRANCH   2  22
BRANCH   6  24
ATOM     24  O   UNL     1       0.262   6.375 -18.572  1.00  0.00    -0.507 OA
ATOM     25  H   UNL     1      -0.526   5.754 -18.710  1.00  0.00     0.293 HD
ENDBRANCH   6  24
BRANCH   8  26
ATOM     26  O   UNL     1      -0.095  11.054 -17.448  1.00  0.00    -0.508 OA
ATOM     27  H   UNL     1       0.424  11.432 -18.232  1.00  0.00     0.293 HD
ENDBRANCH   8  26
TORSDOF 6
ENDMDL
MODEL 5
REMARK VINA RESULT:    -3.929      2.532      4.986
REMARK INTER + INTRA:          -4.795
REMARK INTER:                  -5.174
REMARK INTRA:                   0.378
REMARK UNBOUND:                -0.063
REMARK SMILES O=c1c(O)c(-c2ccc(O)c(O)c2)oc2cc(O)cc(O)c12
REMARK SMILES IDX 5 1 3 2 2 3 1 4 22 5 20 6 19 7 17 8 16 9 15 10 14 11 6 12
REMARK SMILES IDX 7 13 8 14 9 15 13 16 11 17 10 18 12 20 4 22 21 24 18 26
REMARK H PARENT 10 19 12 21 4 23 21 25 18 27
REMARK Flexibility Score: inf
ROOT
ATOM      1  C   UNL     1       0.802   7.406 -13.826  1.00  0.00     0.180 A 
ATOM      2  C   UNL     1       0.546   6.021 -13.858  1.00  0.00     0.208 A 
ATOM      3  C   UNL     1       0.491   5.314 -12.647  1.00  0.00     0.238 A 
ATOM      4  O   UNL     1       0.272   4.071 -12.663  1.00  0.00    -0.285 OA
ATOM      5  C   UNL     1       0.671   6.001 -11.429  1.00  0.00     0.111 A 
ATOM      6  C   UNL     1       0.626   5.363 -10.165  1.00  0.00     0.134 A 
ATOM      7  C   UNL     1       0.806   6.120  -8.998  1.00  0.00     0.093 A 
ATOM      8  C   UNL     1       1.030   7.497  -9.068  1.00  0.00     0.123 A 
ATOM      9  C   UNL     1       1.075   8.132 -10.314  1.00  0.00     0.094 A 
ATOM     10  C   UNL     1       0.899   7.396 -11.489  1.00  0.00     0.146 A 
ATOM     11  O   UNL     1       0.952   8.023 -12.658  1.00  0.00    -0.452 OA
ENDROOT
BRANCH   1  12
ATOM     12  C   UNL     1       0.893   8.217 -15.061  1.00  0.00     0.025 A 
ATOM     13  C   UNL     1       1.612   9.423 -15.044  1.00  0.00     0.016 A 
ATOM     14  C   UNL     1       1.730  10.193 -16.204  1.00  0.00     0.051 A 
ATOM     15  C   UNL     1       1.145   9.761 -17.401  1.00  0.00     0.157 A 
ATOM     16  C   UNL     1       0.325   7.776 -16.271  1.00  0.00     0.062 A 
ATOM     17  C   UNL     1       0.445   8.548 -17.436  1.00  0.00     0.158 A 
BRANCH  15  18
ATOM     18  O   UNL     1       1.257  10.528 -18.559  1.00  0.00    -0.504 OA
ATOM     19  H   UNL     1       1.351  11.536 -18.520  1.00  0.00     0.293 HD
ENDBRANCH  15  18
BRANCH  17  20
ATOM     20  O   UNL     1      -0.125   8.115 -18.631  1.00  0.00    -0.504 OA
ATOM     21  H   UNL     1      -0.991   8.508 -18.979  1.00  0.00     0.293 HD
ENDBRANCH  17  20
ENDBRANCH   1  12
BRANCH   2  22
ATOM     22  O   UNL     1       0.321   5.372 -15.075  1.00  0.00    -0.502 OA
ATOM     23  H   UNL     1       0.140   4.378 -15.134  1.00  0.00     0.293 HD
ENDBRANCH   2  22
BRANCH   6  24
ATOM     24  O   UNL     1       0.405   3.990 -10.062  1.00  0.00    -0.507 OA
ATOM     25  H   UNL     1       0.915   3.416  -9.400  1.00  0.00     0.293 HD
ENDBRANCH   6  24
BRANCH   8  26
ATOM     26  O   UNL     1       1.205   8.225  -7.893  1.00  0.00    -0.508 OA
ATOM     27  H   UNL     1       2.018   8.092  -7.304  1.00  0.00     0.293 HD
ENDBRANCH   8  26
TORSDOF 6
ENDMDL
MODEL 6
REMARK VINA RESULT:    -3.779      1.365      2.903
REMARK INTER + INTRA:          -4.616
REMARK INTER:                  -4.698
REMARK INTRA:                   0.082
REMARK UNBOUND:                -0.063
REMARK SMILES O=c1c(O)c(-c2ccc(O)c(O)c2)oc2cc(O)cc(O)c12
REMARK SMILES IDX 5 1 3 2 2 3 1 4 22 5 20 6 19 7 17 8 16 9 15 10 14 11 6 12
REMARK SMILES IDX 7 13 8 14 9 15 13 16 11 17 10 18 12 20 4 22 21 24 18 26
REMARK H PARENT 10 19 12 21 4 23 21 25 18 27
REMARK Flexibility Score: inf
ROOT
ATOM      1  C   UNL     1       0.591   7.806 -17.148  1.00  0.00     0.180 A 
ATOM      2  C   UNL     1       0.376   6.416 -17.075  1.00  0.00     0.208 A 
ATOM      3  C   UNL     1       0.208   5.821 -15.814  1.00  0.00     0.238 A 
ATOM      4  O   UNL     1       0.024   4.575 -15.736  1.00  0.00    -0.285 OA
ATOM      5  C   UNL     1       0.237   6.623 -14.655  1.00  0.00     0.111 A 
ATOM      6  C   UNL     1       0.072   6.103 -13.349  1.00  0.00     0.134 A 
ATOM      7  C   UNL     1       0.104   6.970 -12.246  1.00  0.00     0.093 A 
ATOM      8  C   UNL     1       0.298   8.341 -12.423  1.00  0.00     0.123 A 
ATOM      9  C   UNL     1       0.462   8.861 -13.711  1.00  0.00     0.094 A 
ATOM     10  C   UNL     1       0.434   8.014 -14.823  1.00  0.00     0.146 A 
ATOM     11  O   UNL     1       0.597   8.533 -16.034  1.00  0.00    -0.452 OA
ENDROOT
BRANCH   1  12
ATOM     12  C   UNL     1       0.795   8.502 -18.438  1.00  0.00     0.025 A 
ATOM     13  C   UNL     1       0.210   9.762 -18.643  1.00  0.00     0.016 A 
ATOM     14  C   UNL     1       0.407  10.448 -19.844  1.00  0.00     0.051 A 
ATOM     15  C   UNL     1       1.205   9.891 -20.852  1.00  0.00     0.157 A 
ATOM     16  C   UNL     1       1.613   7.957 -19.444  1.00  0.00     0.062 A 
ATOM     17  C   UNL     1       1.813   8.645 -20.650  1.00  0.00     0.158 A 
BRANCH  15  18
ATOM     18  O   UNL     1       1.402  10.570 -22.053  1.00  0.00    -0.504 OA
ATOM     19  H   UNL     1       2.204  11.172 -22.196  1.00  0.00     0.293 HD
ENDBRANCH  15  18
BRANCH  17  20
ATOM     20  O   UNL     1       2.617   8.100 -21.649  1.00  0.00    -0.504 OA
ATOM     21  H   UNL     1       3.605   7.929 -21.500  1.00  0.00     0.293 HD
ENDBRANCH  17  20
ENDBRANCH   1  12
BRANCH   2  22
ATOM     22  O   UNL     1       0.302   5.650 -18.242  1.00  0.00    -0.502 OA
ATOM     23  H   UNL     1       0.954   4.902 -18.442  1.00  0.00     0.293 HD
ENDBRANCH   2  22
BRANCH   6  24
ATOM     24  O   UNL     1      -0.124   4.737 -13.139  1.00  0.00    -0.507 OA
ATOM     25  H   UNL     1      -0.982   4.273 -13.415  1.00  0.00     0.293 HD
ENDBRANCH   6  24
BRANCH   8  26
ATOM     26  O   UNL     1       0.325   9.180 -11.311  1.00  0.00    -0.508 OA
ATOM     27  H   UNL     1      -0.047   8.885 -10.416  1.00  0.00     0.293 HD
ENDBRANCH   8  26
TORSDOF 6
ENDMDL
MODEL 7
REMARK VINA RESULT:    -2.521      2.703      7.380
REMARK INTER + INTRA:          -3.099
REMARK INTER:                  -3.137
REMARK INTRA:                   0.038
REMARK UNBOUND:                -0.063
REMARK SMILES O=c1c(O)c(-c2ccc(O)c(O)c2)oc2cc(O)cc(O)c12
REMARK SMILES IDX 5 1 3 2 2 3 1 4 22 5 20 6 19 7 17 8 16 9 15 10 14 11 6 12
REMARK SMILES IDX 7 13 8 14 9 15 13 16 11 17 10 18 12 20 4 22 21 24 18 26
REMARK H PARENT 10 19 12 21 4 23 21 25 18 27
REMARK Flexibility Score: inf
ROOT
ATOM      1  C   UNL     1       1.036   6.796 -13.667  1.00  0.00     0.180 A 
ATOM      2  C   UNL     1       0.871   8.082 -14.216  1.00  0.00     0.208 A 
ATOM      3  C   UNL     1       0.547   8.203 -15.577  1.00  0.00     0.238 A 
ATOM      4  O   UNL     1       0.406   9.350 -16.082  1.00  0.00    -0.285 OA
ATOM      5  C   UNL     1       0.376   7.041 -16.358  1.00  0.00     0.111 A 
ATOM      6  C   UNL     1       0.046   7.076 -17.735  1.00  0.00     0.134 A 
ATOM      7  C   UNL     1      -0.117   5.874 -18.441  1.00  0.00     0.093 A 
ATOM      8  C   UNL     1       0.043   4.643 -17.800  1.00  0.00     0.123 A 
ATOM      9  C   UNL     1       0.369   4.604 -16.440  1.00  0.00     0.094 A 
ATOM     10  C   UNL     1       0.537   5.789 -15.719  1.00  0.00     0.146 A 
ATOM     11  O   UNL     1       0.852   5.723 -14.431  1.00  0.00    -0.452 OA
ENDROOT
BRANCH   1  12
ATOM     12  C   UNL     1       1.395   6.588 -12.246  1.00  0.00     0.025 A 
ATOM     13  C   UNL     1       0.655   7.236 -11.245  1.00  0.00     0.016 A 
ATOM     14  C   UNL     1       0.962   7.038  -9.896  1.00  0.00     0.051 A 
ATOM     15  C   UNL     1       2.003   6.175  -9.529  1.00  0.00     0.157 A 
ATOM     16  C   UNL     1       2.426   5.706 -11.872  1.00  0.00     0.062 A 
ATOM     17  C   UNL     1       2.733   5.505 -10.518  1.00  0.00     0.158 A 
BRANCH  15  18
ATOM     18  O   UNL     1       2.314   5.977  -8.185  1.00  0.00    -0.504 OA
ATOM     19  H   UNL     1       2.489   6.756  -7.561  1.00  0.00     0.293 HD
ENDBRANCH  15  18
BRANCH  17  20
ATOM     20  O   UNL     1       3.759   4.638 -10.149  1.00  0.00    -0.504 OA
ATOM     21  H   UNL     1       3.719   3.648 -10.363  1.00  0.00     0.293 HD
ENDBRANCH  17  20
ENDBRANCH   1  12
BRANCH   2  22
ATOM     22  O   UNL     1       0.997   9.216 -13.409  1.00  0.00    -0.502 OA
ATOM     23  H   UNL     1       1.533   9.213 -12.550  1.00  0.00     0.293 HD
ENDBRANCH   2  22
BRANCH   6  24
ATOM     24  O   UNL     1      -0.121   8.289 -18.403  1.00  0.00    -0.507 OA
ATOM     25  H   UNL     1      -0.988   8.524 -18.873  1.00  0.00     0.293 HD
ENDBRANCH   6  24
BRANCH   8  26
ATOM     26  O   UNL     1      -0.125   3.465 -18.525  1.00  0.00    -0.508 OA
ATOM     27  H   UNL     1       0.315   3.332 -19.427  1.00  0.00     0.293 HD
ENDBRANCH   8  26
TORSDOF 6
ENDMDL
