MODEL 1
REMARK VINA RESULT:    -5.450      0.000      0.000
REMARK INTER + INTRA:         -13.441
REMARK INTER:                 -11.821
REMARK INTRA:                  -1.619
REMARK UNBOUND:                -1.619
REMARK SMILES CCCCCCCCCCCCCCCCCCCCCC(=O)[O-]
REMARK SMILES IDX 12 1 11 2 10 3 9 4 8 5 7 6 6 7 5 8 4 9 3 10 2 11 1 12 13 13
REMARK SMILES IDX 14 14 15 15 16 16 17 17 18 18 19 19 20 20 21 21 22 22 23 23
REMARK SMILES IDX 24 24
REMARK H PARENT
REMARK Flexibility Score: inf
ROOT
ATOM      1  C   UNL     1      10.722  49.496  22.917  1.00  0.00     0.000 C 
ENDROOT
BRANCH   1   2
ATOM      2  C   UNL     1      10.890  51.023  23.051  1.00  0.00     0.000 C 
BRANCH   2   3
ATOM      3  C   UNL     1      10.298  51.852  21.895  1.00  0.00     0.000 C 
BRANCH   3   4
ATOM      4  C   UNL     1      10.707  53.338  21.880  1.00  0.00    -0.000 C 
BRANCH   4   5
ATOM      5  C   UNL     1      10.656  54.040  23.249  1.00  0.00    -0.000 C 
BRANCH   5   6
ATOM      6  C   UNL     1       9.462  54.997  23.384  1.00  0.00    -0.000 C 
BRANCH   6   7
ATOM      7  C   UNL     1       8.136  54.238  23.246  1.00  0.00    -0.000 C 
BRANCH   7   8
ATOM      8  C   UNL     1       7.326  54.760  22.054  1.00  0.00    -0.000 C 
BRANCH   8   9
ATOM      9  C   UNL     1       7.944  56.046  21.489  1.00  0.00    -0.000 C 
BRANCH   9  10
ATOM     10  C   UNL     1       8.437  55.832  20.050  1.00  0.00    -0.000 C 
BRANCH  10  11
ATOM     11  C   UNL     1       7.300  55.456  19.087  1.00  0.00    -0.003 C 
ATOM     12  C   UNL     1       7.682  54.322  18.136  1.00  0.00     0.004 C 
ENDBRANCH  10  11
ENDBRANCH   9  10
ENDBRANCH   8   9
ENDBRANCH   7   8
ENDBRANCH   6   7
ENDBRANCH   5   6
ENDBRANCH   4   5
ENDBRANCH   3   4
ENDBRANCH   2   3
ENDBRANCH   1   2
BRANCH   1  13
ATOM     13  C   UNL     1      12.003  48.677  23.154  1.00  0.00     0.000 C 
BRANCH  13  14
ATOM     14  C   UNL     1      11.720  47.227  23.570  1.00  0.00     0.000 C 
BRANCH  14  15
ATOM     15  C   UNL     1      10.223  46.911  23.465  1.00  0.00     0.000 C 
BRANCH  15  16
ATOM     16  C   UNL     1       9.904  45.537  24.072  1.00  0.00     0.000 C 
BRANCH  16  17
ATOM     17  C   UNL     1      11.113  44.914  24.791  1.00  0.00     0.000 C 
BRANCH  17  18
ATOM     18  C   UNL     1      10.937  44.885  26.318  1.00  0.00     0.000 C 
BRANCH  18  19
ATOM     19  C   UNL     1      12.269  45.015  27.077  1.00  0.00     0.000 C 
BRANCH  19  20
ATOM     20  C   UNL     1      12.889  46.424  27.071  1.00  0.00     0.006 C 
BRANCH  20  21
ATOM     21  C   UNL     1      13.246  46.928  28.476  1.00  0.00     0.053 C 
BRANCH  21  22
ATOM     22  C   UNL     1      13.183  48.422  28.528  1.00  0.00     0.041 C 
ATOM     23  O   UNL     1      12.484  48.997  29.405  1.00  0.00    -0.550 OA
ATOM     24  O   UNL     1      13.939  49.180  27.643  1.00  0.00    -0.550 OA
ENDBRANCH  21  22
ENDBRANCH  20  21
ENDBRANCH  19  20
ENDBRANCH  18  19
ENDBRANCH  17  18
ENDBRANCH  16  17
ENDBRANCH  15  16
ENDBRANCH  14  15
ENDBRANCH  13  14
ENDBRANCH   1  13
TORSDOF 20
ENDMDL
MODEL 2
REMARK VINA RESULT:    -5.426      8.559     14.806
REMARK INTER + INTRA:         -13.390
REMARK INTER:                 -11.329
REMARK INTRA:                  -2.061
REMARK UNBOUND:                -1.619
REMARK SMILES CCCCCCCCCCCCCCCCCCCCCC(=O)[O-]
REMARK SMILES IDX 12 1 11 2 10 3 9 4 8 5 7 6 6 7 5 8 4 9 3 10 2 11 1 12 13 13
REMARK SMILES IDX 14 14 15 15 16 16 17 17 18 18 19 19 20 20 21 21 22 22 23 23
REMARK SMILES IDX 24 24
REMARK H PARENT
REMARK Flexibility Score: inf
ROOT
ATOM      1  C   UNL     1       3.091  60.311  21.359  1.00  0.00     0.000 C 
ENDROOT
BRANCH   1   2
ATOM      2  C   UNL     1       3.598  59.256  20.354  1.00  0.00     0.000 C 
BRANCH   2   3
ATOM      3  C   UNL     1       4.101  57.941  20.983  1.00  0.00     0.000 C 
BRANCH   3   4
ATOM      4  C   UNL     1       5.542  57.546  20.604  1.00  0.00    -0.000 C 
BRANCH   4   5
ATOM      5  C   UNL     1       6.089  56.307  21.334  1.00  0.00    -0.000 C 
BRANCH   5   6
ATOM      6  C   UNL     1       7.604  56.380  21.581  1.00  0.00    -0.000 C 
BRANCH   6   7
ATOM      7  C   UNL     1       8.382  55.903  20.349  1.00  0.00    -0.000 C 
BRANCH   7   8
ATOM      8  C   UNL     1       8.428  54.371  20.288  1.00  0.00    -0.000 C 
BRANCH   8   9
ATOM      9  C   UNL     1       8.817  53.777  21.648  1.00  0.00    -0.000 C 
BRANCH   9  10
ATOM     10  C   UNL     1      10.333  53.546  21.733  1.00  0.00    -0.000 C 
BRANCH  10  11
ATOM     11  C   UNL     1      10.907  53.895  23.115  1.00  0.00    -0.003 C 
ATOM     12  C   UNL     1       9.980  54.798  23.929  1.00  0.00     0.004 C 
ENDBRANCH  10  11
ENDBRANCH   9  10
ENDBRANCH   8   9
ENDBRANCH   7   8
ENDBRANCH   6   7
ENDBRANCH   5   6
ENDBRANCH   4   5
ENDBRANCH   3   4
ENDBRANCH   2   3
ENDBRANCH   1   2
BRANCH   1  13
ATOM     13  C   UNL     1       2.264  59.750  22.529  1.00  0.00     0.000 C 
BRANCH  13  14
ATOM     14  C   UNL     1       0.921  60.471  22.714  1.00  0.00     0.000 C 
BRANCH  14  15
ATOM     15  C   UNL     1      -0.248  59.550  22.345  1.00  0.00     0.000 C 
BRANCH  15  16
ATOM     16  C   UNL     1      -1.105  60.164  21.227  1.00  0.00     0.000 C 
BRANCH  16  17
ATOM     17  C   UNL     1      -0.644  61.579  20.842  1.00  0.00     0.000 C 
BRANCH  17  18
ATOM     18  C   UNL     1      -0.598  61.788  19.318  1.00  0.00     0.000 C 
BRANCH  18  19
ATOM     19  C   UNL     1       0.821  61.653  18.738  1.00  0.00     0.000 C 
BRANCH  19  20
ATOM     20  C   UNL     1       1.056  60.401  17.874  1.00  0.00     0.006 C 
BRANCH  20  21
ATOM     21  C   UNL     1       2.372  60.455  17.087  1.00  0.00     0.053 C 
BRANCH  21  22
ATOM     22  C   UNL     1       2.111  60.791  15.652  1.00  0.00     0.041 C 
ATOM     23  O   UNL     1       0.941  61.055  15.267  1.00  0.00    -0.550 OA
ATOM     24  O   UNL     1       3.166  60.865  14.753  1.00  0.00    -0.550 OA
ENDBRANCH  21  22
ENDBRANCH  20  21
ENDBRANCH  19  20
ENDBRANCH  18  19
ENDBRANCH  17  18
ENDBRANCH  16  17
ENDBRANCH  15  16
ENDBRANCH  14  15
ENDBRANCH  13  14
ENDBRANCH   1  13
TORSDOF 20
ENDMDL
MODEL 3
REMARK VINA RESULT:    -5.422      4.051     10.378
REMARK INTER + INTRA:         -13.381
REMARK INTER:                 -11.559
REMARK INTRA:                  -1.822
REMARK UNBOUND:                -1.619
REMARK SMILES CCCCCCCCCCCCCCCCCCCCCC(=O)[O-]
REMARK SMILES IDX 12 1 11 2 10 3 9 4 8 5 7 6 6 7 5 8 4 9 3 10 2 11 1 12 13 13
REMARK SMILES IDX 14 14 15 15 16 16 17 17 18 18 19 19 20 20 21 21 22 22 23 23
REMARK SMILES IDX 24 24
REMARK H PARENT
REMARK Flexibility Score: inf
ROOT
ATOM      1  C   UNL     1      10.507  52.157  21.820  1.00  0.00     0.000 C 
ENDROOT
BRANCH   1   2
ATOM      2  C   UNL     1      10.480  51.238  23.058  1.00  0.00     0.000 C 
BRANCH   2   3
ATOM      3  C   UNL     1      11.078  49.833  22.844  1.00  0.00     0.000 C 
BRANCH   3   4
ATOM      4  C   UNL     1      11.129  48.946  24.104  1.00  0.00    -0.000 C 
BRANCH   4   5
ATOM      5  C   UNL     1      10.868  47.450  23.856  1.00  0.00    -0.000 C 
BRANCH   5   6
ATOM      6  C   UNL     1      11.139  46.584  25.097  1.00  0.00    -0.000 C 
BRANCH   6   7
ATOM      7  C   UNL     1      12.631  46.251  25.215  1.00  0.00    -0.000 C 
BRANCH   7   8
ATOM      8  C   UNL     1      12.910  45.419  26.472  1.00  0.00    -0.000 C 
BRANCH   8   9
ATOM      9  C   UNL     1      13.640  46.254  27.533  1.00  0.00    -0.000 C 
BRANCH   9  10
ATOM     10  C   UNL     1      12.640  46.961  28.459  1.00  0.00    -0.000 C 
BRANCH  10  11
ATOM     11  C   UNL     1      12.914  48.468  28.583  1.00  0.00    -0.003 C 
ATOM     12  C   UNL     1      13.852  48.990  27.496  1.00  0.00     0.004 C 
ENDBRANCH  10  11
ENDBRANCH   9  10
ENDBRANCH   8   9
ENDBRANCH   7   8
ENDBRANCH   6   7
ENDBRANCH   5   6
ENDBRANCH   4   5
ENDBRANCH   3   4
ENDBRANCH   2   3
ENDBRANCH   1   2
BRANCH   1  13
ATOM     13  C   UNL     1      10.986  53.595  22.088  1.00  0.00     0.000 C 
BRANCH  13  14
ATOM     14  C   UNL     1      10.969  53.964  23.578  1.00  0.00     0.000 C 
BRANCH  14  15
ATOM     15  C   UNL     1       9.822  54.933  23.887  1.00  0.00     0.000 C 
BRANCH  15  16
ATOM     16  C   UNL     1       8.613  54.189  24.475  1.00  0.00     0.000 C 
BRANCH  16  17
ATOM     17  C   UNL     1       7.558  53.846  23.411  1.00  0.00     0.000 C 
BRANCH  17  18
ATOM     18  C   UNL     1       7.407  54.953  22.353  1.00  0.00     0.000 C 
BRANCH  18  19
ATOM     19  C   UNL     1       7.648  54.448  20.920  1.00  0.00     0.000 C 
BRANCH  19  20
ATOM     20  C   UNL     1       8.383  55.436  19.995  1.00  0.00     0.006 C 
BRANCH  20  21
ATOM     21  C   UNL     1       7.446  56.146  19.010  1.00  0.00     0.053 C 
BRANCH  21  22
ATOM     22  C   UNL     1       7.189  55.280  17.817  1.00  0.00     0.041 C 
ATOM     23  O   UNL     1       7.135  55.787  16.665  1.00  0.00    -0.550 OA
ATOM     24  O   UNL     1       7.063  53.905  17.971  1.00  0.00    -0.550 OA
ENDBRANCH  21  22
ENDBRANCH  20  21
ENDBRANCH  19  20
ENDBRANCH  18  19
ENDBRANCH  17  18
ENDBRANCH  16  17
ENDBRANCH  15  16
ENDBRANCH  14  15
ENDBRANCH  13  14
ENDBRANCH   1  13
TORSDOF 20
ENDMDL
MODEL 4
REMARK VINA RESULT:    -5.269      6.203     10.594
REMARK INTER + INTRA:         -13.049
REMARK INTER:                 -11.208
REMARK INTRA:                  -1.841
REMARK UNBOUND:                -1.619
REMARK SMILES CCCCCCCCCCCCCCCCCCCCCC(=O)[O-]
REMARK SMILES IDX 12 1 11 2 10 3 9 4 8 5 7 6 6 7 5 8 4 9 3 10 2 11 1 12 13 13
REMARK SMILES IDX 14 14 15 15 16 16 17 17 18 18 19 19 20 20 21 21 22 22 23 23
REMARK SMILES IDX 24 24
REMARK H PARENT
REMARK Flexibility Score: inf
ROOT
ATOM      1  C   UNL     1       3.189  58.487  20.925  1.00  0.00     0.000 C 
ENDROOT
BRANCH   1   2
ATOM      2  C   UNL     1       3.102  59.584  22.006  1.00  0.00     0.000 C 
BRANCH   2   3
ATOM      3  C   UNL     1       1.844  59.530  22.895  1.00  0.00     0.000 C 
BRANCH   3   4
ATOM      4  C   UNL     1       0.735  60.532  22.518  1.00  0.00    -0.000 C 
BRANCH   4   5
ATOM      5  C   UNL     1      -0.106  60.141  21.290  1.00  0.00    -0.000 C 
BRANCH   5   6
ATOM      6  C   UNL     1      -0.491  61.348  20.421  1.00  0.00    -0.000 C 
BRANCH   6   7
ATOM      7  C   UNL     1       0.041  61.186  18.992  1.00  0.00    -0.000 C 
BRANCH   7   8
ATOM      8  C   UNL     1       1.574  61.212  18.971  1.00  0.00    -0.000 C 
BRANCH   8   9
ATOM      9  C   UNL     1       2.130  60.144  18.020  1.00  0.00    -0.000 C 
BRANCH   9  10
ATOM     10  C   UNL     1       1.208  59.957  16.805  1.00  0.00    -0.000 C 
BRANCH  10  11
ATOM     11  C   UNL     1       1.990  59.771  15.495  1.00  0.00    -0.003 C 
ATOM     12  C   UNL     1       2.736  61.034  15.067  1.00  0.00     0.004 C 
ENDBRANCH  10  11
ENDBRANCH   9  10
ENDBRANCH   8   9
ENDBRANCH   7   8
ENDBRANCH   6   7
ENDBRANCH   5   6
ENDBRANCH   4   5
ENDBRANCH   3   4
ENDBRANCH   2   3
ENDBRANCH   1   2
BRANCH   1  13
ATOM     13  C   UNL     1       4.617  58.118  20.487  1.00  0.00     0.000 C 
BRANCH  13  14
ATOM     14  C   UNL     1       5.162  56.874  21.204  1.00  0.00     0.000 C 
BRANCH  14  15
ATOM     15  C   UNL     1       6.687  56.948  21.344  1.00  0.00     0.000 C 
BRANCH  15  16
ATOM     16  C   UNL     1       7.382  56.559  20.031  1.00  0.00     0.000 C 
BRANCH  16  17
ATOM     17  C   UNL     1       7.615  55.043  19.914  1.00  0.00     0.000 C 
BRANCH  17  18
ATOM     18  C   UNL     1       8.784  54.559  20.789  1.00  0.00     0.000 C 
BRANCH  18  19
ATOM     19  C   UNL     1       8.347  53.553  21.868  1.00  0.00     0.000 C 
BRANCH  19  20
ATOM     20  C   UNL     1       7.808  54.181  23.167  1.00  0.00     0.006 C 
BRANCH  20  21
ATOM     21  C   UNL     1       8.748  53.985  24.363  1.00  0.00     0.053 C 
BRANCH  21  22
ATOM     22  C   UNL     1       9.954  54.862  24.229  1.00  0.00     0.041 C 
ATOM     23  O   UNL     1      11.099  54.409  24.494  1.00  0.00    -0.550 OA
ATOM     24  O   UNL     1       9.818  56.161  23.759  1.00  0.00    -0.550 OA
ENDBRANCH  21  22
ENDBRANCH  20  21
ENDBRANCH  19  20
ENDBRANCH  18  19
ENDBRANCH  17  18
ENDBRANCH  16  17
ENDBRANCH  15  16
ENDBRANCH  14  15
ENDBRANCH  13  14
ENDBRANCH   1  13
TORSDOF 20
ENDMDL
MODEL 5
REMARK VINA RESULT:    -5.263      3.954     10.168
REMARK INTER + INTRA:         -13.037
REMARK INTER:                 -10.962
REMARK INTRA:                  -2.075
REMARK UNBOUND:                -1.619
REMARK SMILES CCCCCCCCCCCCCCCCCCCCCC(=O)[O-]
REMARK SMILES IDX 12 1 11 2 10 3 9 4 8 5 7 6 6 7 5 8 4 9 3 10 2 11 1 12 13 13
REMARK SMILES IDX 14 14 15 15 16 16 17 17 18 18 19 19 20 20 21 21 22 22 23 23
REMARK SMILES IDX 24 24
REMARK H PARENT
REMARK Flexibility Score: inf
ROOT
ATOM      1  C   UNL     1      10.819  50.808  23.238  1.00  0.00     0.000 C 
ENDROOT
BRANCH   1   2
ATOM      2  C   UNL     1      11.554  49.481  22.962  1.00  0.00     0.000 C 
BRANCH   2   3
ATOM      3  C   UNL     1      10.640  48.264  22.718  1.00  0.00     0.000 C 
BRANCH   3   4
ATOM      4  C   UNL     1       9.868  47.768  23.956  1.00  0.00    -0.000 C 
BRANCH   4   5
ATOM      5  C   UNL     1       9.524  46.268  23.951  1.00  0.00    -0.000 C 
BRANCH   5   6
ATOM      6  C   UNL     1      10.714  45.382  24.348  1.00  0.00    -0.000 C 
BRANCH   6   7
ATOM      7  C   UNL     1      11.244  45.767  25.735  1.00  0.00    -0.000 C 
BRANCH   7   8
ATOM      8  C   UNL     1      12.763  45.974  25.706  1.00  0.00    -0.000 C 
BRANCH   8   9
ATOM      9  C   UNL     1      13.113  47.434  25.393  1.00  0.00    -0.000 C 
BRANCH   9  10
ATOM     10  C   UNL     1      12.516  48.380  26.445  1.00  0.00    -0.000 C 
BRANCH  10  11
ATOM     11  C   UNL     1      13.376  48.470  27.714  1.00  0.00    -0.003 C 
ATOM     12  C   UNL     1      12.546  48.432  28.996  1.00  0.00     0.004 C 
ENDBRANCH  10  11
ENDBRANCH   9  10
ENDBRANCH   8   9
ENDBRANCH   7   8
ENDBRANCH   6   7
ENDBRANCH   5   6
ENDBRANCH   4   5
ENDBRANCH   3   4
ENDBRANCH   2   3
ENDBRANCH   1   2
BRANCH   1  13
ATOM     13  C   UNL     1      10.253  51.509  21.990  1.00  0.00     0.000 C 
BRANCH  13  14
ATOM     14  C   UNL     1      10.640  52.993  21.908  1.00  0.00     0.000 C 
BRANCH  14  15
ATOM     15  C   UNL     1      10.606  53.643  23.296  1.00  0.00     0.000 C 
BRANCH  15  16
ATOM     16  C   UNL     1       9.439  54.635  23.414  1.00  0.00     0.000 C 
BRANCH  16  17
ATOM     17  C   UNL     1       8.077  53.978  23.139  1.00  0.00     0.000 C 
BRANCH  17  18
ATOM     18  C   UNL     1       7.233  54.776  22.131  1.00  0.00     0.000 C 
BRANCH  18  19
ATOM     19  C   UNL     1       7.972  56.003  21.569  1.00  0.00     0.000 C 
BRANCH  19  20
ATOM     20  C   UNL     1       8.555  55.823  20.155  1.00  0.00     0.006 C 
BRANCH  20  21
ATOM     21  C   UNL     1       7.602  56.296  19.050  1.00  0.00     0.053 C 
BRANCH  21  22
ATOM     22  C   UNL     1       7.213  55.151  18.169  1.00  0.00     0.041 C 
ATOM     23  O   UNL     1       6.891  54.043  18.675  1.00  0.00    -0.550 OA
ATOM     24  O   UNL     1       7.154  55.323  16.792  1.00  0.00    -0.550 OA
ENDBRANCH  21  22
ENDBRANCH  20  21
ENDBRANCH  19  20
ENDBRANCH  18  19
ENDBRANCH  17  18
ENDBRANCH  16  17
ENDBRANCH  15  16
ENDBRANCH  14  15
ENDBRANCH  13  14
ENDBRANCH   1  13
TORSDOF 20
ENDMDL
MODEL 6
REMARK VINA RESULT:    -5.202      6.462     10.821
REMARK INTER + INTRA:         -12.904
REMARK INTER:                 -10.835
REMARK INTRA:                  -2.069
REMARK UNBOUND:                -1.619
REMARK SMILES CCCCCCCCCCCCCCCCCCCCCC(=O)[O-]
REMARK SMILES IDX 12 1 11 2 10 3 9 4 8 5 7 6 6 7 5 8 4 9 3 10 2 11 1 12 13 13
REMARK SMILES IDX 14 14 15 15 16 16 17 17 18 18 19 19 20 20 21 21 22 22 23 23
REMARK SMILES IDX 24 24
REMARK H PARENT
REMARK Flexibility Score: inf
ROOT
ATOM      1  C   UNL     1       3.809  58.701  21.167  1.00  0.00     0.000 C 
ENDROOT
BRANCH   1   2
ATOM      2  C   UNL     1       2.777  59.270  20.173  1.00  0.00     0.000 C 
BRANCH   2   3
ATOM      3  C   UNL     1       2.964  60.757  19.813  1.00  0.00     0.000 C 
BRANCH   3   4
ATOM      4  C   UNL     1       1.697  61.469  19.299  1.00  0.00    -0.000 C 
BRANCH   4   5
ATOM      5  C   UNL     1       0.457  60.568  19.158  1.00  0.00    -0.000 C 
BRANCH   5   6
ATOM      6  C   UNL     1      -0.844  61.276  19.567  1.00  0.00    -0.000 C 
BRANCH   6   7
ATOM      7  C   UNL     1      -0.763  61.776  21.014  1.00  0.00    -0.000 C 
BRANCH   7   8
ATOM      8  C   UNL     1      -0.701  60.602  21.999  1.00  0.00    -0.000 C 
BRANCH   8   9
ATOM      9  C   UNL     1       0.495  60.743  22.949  1.00  0.00    -0.000 C 
BRANCH   9  10
ATOM     10  C   UNL     1       1.020  59.366  23.381  1.00  0.00    -0.000 C 
BRANCH  10  11
ATOM     11  C   UNL     1      -0.104  58.425  23.843  1.00  0.00    -0.003 C 
ATOM     12  C   UNL     1      -0.414  58.562  25.333  1.00  0.00     0.004 C 
ENDBRANCH  10  11
ENDBRANCH   9  10
ENDBRANCH   8   9
ENDBRANCH   7   8
ENDBRANCH   6   7
ENDBRANCH   5   6
ENDBRANCH   4   5
ENDBRANCH   3   4
ENDBRANCH   2   3
ENDBRANCH   1   2
BRANCH   1  13
ATOM     13  C   UNL     1       4.883  57.793  20.542  1.00  0.00     0.000 C 
BRANCH  13  14
ATOM     14  C   UNL     1       5.403  56.723  21.513  1.00  0.00     0.000 C 
BRANCH  14  15
ATOM     15  C   UNL     1       6.930  56.610  21.431  1.00  0.00     0.000 C 
BRANCH  15  16
ATOM     16  C   UNL     1       7.406  56.580  19.971  1.00  0.00     0.000 C 
BRANCH  16  17
ATOM     17  C   UNL     1       7.962  55.207  19.559  1.00  0.00     0.000 C 
BRANCH  17  18
ATOM     18  C   UNL     1       8.253  54.304  20.770  1.00  0.00     0.000 C 
BRANCH  18  19
ATOM     19  C   UNL     1       9.726  53.867  20.852  1.00  0.00     0.000 C 
BRANCH  19  20
ATOM     20  C   UNL     1      10.291  53.739  22.279  1.00  0.00     0.006 C 
BRANCH  20  21
ATOM     21  C   UNL     1       9.895  54.910  23.187  1.00  0.00     0.053 C 
BRANCH  21  22
ATOM     22  C   UNL     1       9.163  54.412  24.394  1.00  0.00     0.041 C 
ATOM     23  O   UNL     1       8.215  53.593  24.267  1.00  0.00    -0.550 OA
ATOM     24  O   UNL     1       9.565  54.810  25.662  1.00  0.00    -0.550 OA
ENDBRANCH  21  22
ENDBRANCH  20  21
ENDBRANCH  19  20
ENDBRANCH  18  19
ENDBRANCH  17  18
ENDBRANCH  16  17
ENDBRANCH  15  16
ENDBRANCH  14  15
ENDBRANCH  13  14
ENDBRANCH   1  13
TORSDOF 20
ENDMDL
MODEL 7
REMARK VINA RESULT:    -5.194      6.888     11.355
REMARK INTER + INTRA:         -12.886
REMARK INTER:                 -10.786
REMARK INTRA:                  -2.100
REMARK UNBOUND:                -1.619
REMARK SMILES CCCCCCCCCCCCCCCCCCCCCC(=O)[O-]
REMARK SMILES IDX 12 1 11 2 10 3 9 4 8 5 7 6 6 7 5 8 4 9 3 10 2 11 1 12 13 13
REMARK SMILES IDX 14 14 15 15 16 16 17 17 18 18 19 19 20 20 21 21 22 22 23 23
REMARK SMILES IDX 24 24
REMARK H PARENT
REMARK Flexibility Score: inf
ROOT
ATOM      1  C   UNL     1       3.165  58.819  20.818  1.00  0.00     0.000 C 
ENDROOT
BRANCH   1   2
ATOM      2  C   UNL     1       2.549  59.577  19.624  1.00  0.00     0.000 C 
BRANCH   2   3
ATOM      3  C   UNL     1       1.362  60.496  19.972  1.00  0.00     0.000 C 
BRANCH   3   4
ATOM      4  C   UNL     1       1.386  61.880  19.294  1.00  0.00    -0.000 C 
BRANCH   4   5
ATOM      5  C   UNL     1       0.041  62.339  18.705  1.00  0.00    -0.000 C 
BRANCH   5   6
ATOM      6  C   UNL     1      -0.988  61.203  18.609  1.00  0.00    -0.000 C 
BRANCH   6   7
ATOM      7  C   UNL     1      -1.786  61.297  17.302  1.00  0.00    -0.000 C 
BRANCH   7   8
ATOM      8  C   UNL     1      -1.146  62.303  16.338  1.00  0.00    -0.000 C 
BRANCH   8   9
ATOM      9  C   UNL     1      -0.403  61.583  15.205  1.00  0.00    -0.000 C 
BRANCH   9  10
ATOM     10  C   UNL     1       1.101  61.889  15.251  1.00  0.00    -0.000 C 
BRANCH  10  11
ATOM     11  C   UNL     1       1.935  60.681  15.705  1.00  0.00    -0.003 C 
ATOM     12  C   UNL     1       1.090  59.429  15.932  1.00  0.00     0.004 C 
ENDBRANCH  10  11
ENDBRANCH   9  10
ENDBRANCH   8   9
ENDBRANCH   7   8
ENDBRANCH   6   7
ENDBRANCH   5   6
ENDBRANCH   4   5
ENDBRANCH   3   4
ENDBRANCH   2   3
ENDBRANCH   1   2
BRANCH   1  13
ATOM     13  C   UNL     1       4.479  58.080  20.511  1.00  0.00     0.000 C 
BRANCH  13  14
ATOM     14  C   UNL     1       4.958  57.199  21.675  1.00  0.00     0.000 C 
BRANCH  14  15
ATOM     15  C   UNL     1       6.035  56.215  21.206  1.00  0.00     0.000 C 
BRANCH  15  16
ATOM     16  C   UNL     1       6.996  56.879  20.208  1.00  0.00     0.000 C 
BRANCH  16  17
ATOM     17  C   UNL     1       7.996  55.882  19.599  1.00  0.00     0.000 C 
BRANCH  17  18
ATOM     18  C   UNL     1       7.913  54.493  20.254  1.00  0.00     0.000 C 
BRANCH  18  19
ATOM     19  C   UNL     1       9.250  54.040  20.868  1.00  0.00     0.000 C 
BRANCH  19  20
ATOM     20  C   UNL     1       9.162  53.530  22.319  1.00  0.00     0.006 C 
BRANCH  20  21
ATOM     21  C   UNL     1       8.987  54.661  23.341  1.00  0.00     0.053 C 
BRANCH  21  22
ATOM     22  C   UNL     1      10.029  54.564  24.410  1.00  0.00     0.041 C 
ATOM     23  O   UNL     1      11.232  54.346  24.105  1.00  0.00    -0.550 OA
ATOM     24  O   UNL     1       9.682  54.770  25.739  1.00  0.00    -0.550 OA
ENDBRANCH  21  22
ENDBRANCH  20  21
ENDBRANCH  19  20
ENDBRANCH  18  19
ENDBRANCH  17  18
ENDBRANCH  16  17
ENDBRANCH  15  16
ENDBRANCH  14  15
ENDBRANCH  13  14
ENDBRANCH   1  13
TORSDOF 20
ENDMDL
MODEL 8
REMARK VINA RESULT:    -5.174      7.021     12.726
REMARK INTER + INTRA:         -12.844
REMARK INTER:                 -10.768
REMARK INTRA:                  -2.076
REMARK UNBOUND:                -1.619
REMARK SMILES CCCCCCCCCCCCCCCCCCCCCC(=O)[O-]
REMARK SMILES IDX 12 1 11 2 10 3 9 4 8 5 7 6 6 7 5 8 4 9 3 10 2 11 1 12 13 13
REMARK SMILES IDX 14 14 15 15 16 16 17 17 18 18 19 19 20 20 21 21 22 22 23 23
REMARK SMILES IDX 24 24
REMARK H PARENT
REMARK Flexibility Score: inf
ROOT
ATOM      1  C   UNL     1       3.837  58.104  21.233  1.00  0.00     0.000 C 
ENDROOT
BRANCH   1   2
ATOM      2  C   UNL     1       5.250  57.540  20.980  1.00  0.00     0.000 C 
BRANCH   2   3
ATOM      3  C   UNL     1       5.414  56.033  21.258  1.00  0.00     0.000 C 
BRANCH   3   4
ATOM      4  C   UNL     1       6.738  55.634  21.938  1.00  0.00    -0.000 C 
BRANCH   4   5
ATOM      5  C   UNL     1       8.001  56.258  21.319  1.00  0.00    -0.000 C 
BRANCH   5   6
ATOM      6  C   UNL     1       8.692  55.329  20.309  1.00  0.00    -0.000 C 
BRANCH   6   7
ATOM      7  C   UNL     1       9.041  53.983  20.955  1.00  0.00    -0.000 C 
BRANCH   7   8
ATOM      8  C   UNL     1      10.459  54.004  21.538  1.00  0.00    -0.000 C 
BRANCH   8   9
ATOM      9  C   UNL     1      10.502  53.312  22.906  1.00  0.00    -0.000 C 
BRANCH   9  10
ATOM     10  C   UNL     1      10.843  54.314  24.019  1.00  0.00    -0.000 C 
BRANCH  10  11
ATOM     11  C   UNL     1       9.592  54.871  24.715  1.00  0.00    -0.003 C 
ATOM     12  C   UNL     1       8.407  53.908  24.663  1.00  0.00     0.004 C 
ENDBRANCH  10  11
ENDBRANCH   9  10
ENDBRANCH   8   9
ENDBRANCH   7   8
ENDBRANCH   6   7
ENDBRANCH   5   6
ENDBRANCH   4   5
ENDBRANCH   3   4
ENDBRANCH   2   3
ENDBRANCH   1   2
BRANCH   1  13
ATOM     13  C   UNL     1       3.410  59.237  20.283  1.00  0.00     0.000 C 
BRANCH  13  14
ATOM     14  C   UNL     1       2.189  60.018  20.791  1.00  0.00     0.000 C 
BRANCH  14  15
ATOM     15  C   UNL     1       2.281  60.251  22.304  1.00  0.00     0.000 C 
BRANCH  15  16
ATOM     16  C   UNL     1       0.887  60.253  22.949  1.00  0.00     0.000 C 
BRANCH  16  17
ATOM     17  C   UNL     1      -0.238  60.041  21.923  1.00  0.00     0.000 C 
BRANCH  17  18
ATOM     18  C   UNL     1      -1.178  58.887  22.312  1.00  0.00     0.000 C 
BRANCH  18  19
ATOM     19  C   UNL     1      -0.560  57.501  22.061  1.00  0.00     0.000 C 
BRANCH  19  20
ATOM     20  C   UNL     1      -0.789  56.471  23.183  1.00  0.00     0.006 C 
BRANCH  20  21
ATOM     21  C   UNL     1      -1.340  57.101  24.470  1.00  0.00     0.053 C 
BRANCH  21  22
ATOM     22  C   UNL     1      -0.303  57.079  25.548  1.00  0.00     0.041 C 
ATOM     23  O   UNL     1       0.521  58.026  25.654  1.00  0.00    -0.550 OA
ATOM     24  O   UNL     1      -0.282  56.040  26.470  1.00  0.00    -0.550 OA
ENDBRANCH  21  22
ENDBRANCH  20  21
ENDBRANCH  19  20
ENDBRANCH  18  19
ENDBRANCH  17  18
ENDBRANCH  16  17
ENDBRANCH  15  16
ENDBRANCH  14  15
ENDBRANCH  13  14
ENDBRANCH   1  13
TORSDOF 20
ENDMDL
MODEL 9
REMARK VINA RESULT:    -5.167      0.996      1.875
REMARK INTER + INTRA:         -12.827
REMARK INTER:                 -11.110
REMARK INTRA:                  -1.717
REMARK UNBOUND:                -1.619
REMARK SMILES CCCCCCCCCCCCCCCCCCCCCC(=O)[O-]
REMARK SMILES IDX 12 1 11 2 10 3 9 4 8 5 7 6 6 7 5 8 4 9 3 10 2 11 1 12 13 13
REMARK SMILES IDX 14 14 15 15 16 16 17 17 18 18 19 19 20 20 21 21 22 22 23 23
REMARK SMILES IDX 24 24
REMARK H PARENT
REMARK Flexibility Score: inf
ROOT
ATOM      1  C   UNL     1      10.964  48.520  23.890  1.00  0.00     0.000 C 
ENDROOT
BRANCH   1   2
ATOM      2  C   UNL     1      11.047  49.549  22.744  1.00  0.00     0.000 C 
BRANCH   2   3
ATOM      3  C   UNL     1      10.613  50.981  23.116  1.00  0.00     0.000 C 
BRANCH   3   4
ATOM      4  C   UNL     1      10.381  51.924  21.919  1.00  0.00    -0.000 C 
BRANCH   4   5
ATOM      5  C   UNL     1      10.926  53.352  22.100  1.00  0.00    -0.000 C 
BRANCH   5   6
ATOM      6  C   UNL     1      10.536  53.972  23.451  1.00  0.00    -0.000 C 
BRANCH   6   7
ATOM      7  C   UNL     1       9.409  54.997  23.276  1.00  0.00    -0.000 C 
BRANCH   7   8
ATOM      8  C   UNL     1       8.046  54.302  23.173  1.00  0.00    -0.000 C 
BRANCH   8   9
ATOM      9  C   UNL     1       7.234  54.855  21.995  1.00  0.00    -0.000 C 
BRANCH   9  10
ATOM     10  C   UNL     1       7.747  54.291  20.661  1.00  0.00    -0.000 C 
BRANCH  10  11
ATOM     11  C   UNL     1       7.422  55.205  19.470  1.00  0.00    -0.003 C 
ATOM     12  C   UNL     1       7.942  56.630  19.658  1.00  0.00     0.004 C 
ENDBRANCH  10  11
ENDBRANCH   9  10
ENDBRANCH   8   9
ENDBRANCH   7   8
ENDBRANCH   6   7
ENDBRANCH   5   6
ENDBRANCH   4   5
ENDBRANCH   3   4
ENDBRANCH   2   3
ENDBRANCH   1   2
BRANCH   1  13
ATOM     13  C   UNL     1       9.875  47.446  23.721  1.00  0.00     0.000 C 
BRANCH  13  14
ATOM     14  C   UNL     1      10.420  46.015  23.845  1.00  0.00     0.000 C 
BRANCH  14  15
ATOM     15  C   UNL     1      10.505  45.590  25.316  1.00  0.00     0.000 C 
BRANCH  15  16
ATOM     16  C   UNL     1      11.302  44.285  25.469  1.00  0.00     0.000 C 
BRANCH  16  17
ATOM     17  C   UNL     1      12.374  44.375  26.568  1.00  0.00     0.000 C 
BRANCH  17  18
ATOM     18  C   UNL     1      11.809  44.905  27.897  1.00  0.00     0.000 C 
BRANCH  18  19
ATOM     19  C   UNL     1      12.558  46.146  28.414  1.00  0.00     0.000 C 
BRANCH  19  20
ATOM     20  C   UNL     1      13.628  46.707  27.460  1.00  0.00     0.006 C 
BRANCH  20  21
ATOM     21  C   UNL     1      13.342  48.149  27.021  1.00  0.00     0.053 C 
BRANCH  21  22
ATOM     22  C   UNL     1      14.324  49.090  27.646  1.00  0.00     0.041 C 
ATOM     23  O   UNL     1      15.526  49.093  27.270  1.00  0.00    -0.550 OA
ATOM     24  O   UNL     1      13.899  50.001  28.604  1.00  0.00    -0.550 OA
ENDBRANCH  21  22
ENDBRANCH  20  21
ENDBRANCH  19  20
ENDBRANCH  18  19
ENDBRANCH  17  18
ENDBRANCH  16  17
ENDBRANCH  15  16
ENDBRANCH  14  15
ENDBRANCH  13  14
ENDBRANCH   1  13
TORSDOF 20
ENDMDL
