MODEL 1
REMARK VINA RESULT:    -6.543      0.000      0.000
REMARK INTER + INTRA:          -7.329
REMARK INTER:                  -7.882
REMARK INTRA:                   0.553
REMARK UNBOUND:                 0.553
REMARK SMILES O=c1c(O)c(-c2ccc(O)c(O)c2)oc2cc(O)cc(O)c12
REMARK SMILES IDX 5 1 3 2 2 3 1 4 22 5 20 6 19 7 17 8 16 9 15 10 14 11 6 12
REMARK SMILES IDX 7 13 8 14 9 15 13 16 11 17 10 18 12 20 4 22 21 24 18 26
REMARK H PARENT 10 19 12 21 4 23 21 25 18 27
REMARK Flexibility Score: inf
ROOT
ATOM      1  C   UNL     1       8.587  -2.921  19.241  1.00  0.00     0.180 A 
ATOM      2  C   UNL     1       7.280  -2.434  19.069  1.00  0.00     0.208 A 
ATOM      3  C   UNL     1       7.088  -1.059  18.860  1.00  0.00     0.238 A 
ATOM      4  O   UNL     1       5.920  -0.636  18.651  1.00  0.00    -0.285 OA
ATOM      5  C   UNL     1       8.203  -0.187  18.841  1.00  0.00     0.111 A 
ATOM      6  C   UNL     1       8.121   1.228  18.677  1.00  0.00     0.134 A 
ATOM      7  C   UNL     1       9.298   1.977  18.544  1.00  0.00     0.093 A 
ATOM      8  C   UNL     1      10.553   1.369  18.635  1.00  0.00     0.123 A 
ATOM      9  C   UNL     1      10.642  -0.004  18.854  1.00  0.00     0.094 A 
ATOM     10  C   UNL     1       9.487  -0.781  18.955  1.00  0.00     0.146 A 
ATOM     11  O   UNL     1       9.617  -2.088  19.154  1.00  0.00    -0.452 OA
ENDROOT
BRANCH   1  12
ATOM     12  C   UNL     1       8.867  -4.354  19.492  1.00  0.00     0.025 A 
ATOM     13  C   UNL     1      10.179  -4.824  19.658  1.00  0.00     0.016 A 
ATOM     14  C   UNL     1      10.420  -6.183  19.869  1.00  0.00     0.051 A 
ATOM     15  C   UNL     1       9.363  -7.099  19.906  1.00  0.00     0.157 A 
ATOM     16  C   UNL     1       7.807  -5.274  19.506  1.00  0.00     0.062 A 
ATOM     17  C   UNL     1       8.039  -6.639  19.718  1.00  0.00     0.158 A 
BRANCH  15  18
ATOM     18  O   UNL     1       9.671  -8.443  20.125  1.00  0.00    -0.504 OA
ATOM     19  H   UNL     1      10.135  -9.034  19.450  1.00  0.00     0.293 HD
ENDBRANCH  15  18
BRANCH  17  20
ATOM     20  O   UNL     1       6.934  -7.493  19.730  1.00  0.00    -0.504 OA
ATOM     21  H   UNL     1       6.687  -8.084  20.510  1.00  0.00     0.293 HD
ENDBRANCH  17  20
ENDBRANCH   1  12
BRANCH   2  22
ATOM     22  O   UNL     1       6.196  -3.315  19.069  1.00  0.00    -0.502 OA
ATOM     23  H   UNL     1       5.977  -3.910  18.279  1.00  0.00     0.293 HD
ENDBRANCH   2  22
BRANCH   6  24
ATOM     24  O   UNL     1       6.922   1.945  18.666  1.00  0.00    -0.507 OA
ATOM     25  H   UNL     1       6.042   1.589  18.323  1.00  0.00     0.293 HD
ENDBRANCH   6  24
BRANCH   8  26
ATOM     26  O   UNL     1      11.718   2.124  18.517  1.00  0.00    -0.508 OA
ATOM     27  H   UNL     1      12.434   1.890  17.840  1.00  0.00     0.293 HD
ENDBRANCH   8  26
TORSDOF 6
ENDMDL
MODEL 2
REMARK VINA RESULT:    -6.531      1.614      7.198
REMARK INTER + INTRA:          -7.314
REMARK INTER:                  -7.230
REMARK INTRA:                  -0.084
REMARK UNBOUND:                 0.553
REMARK SMILES O=c1c(O)c(-c2ccc(O)c(O)c2)oc2cc(O)cc(O)c12
REMARK SMILES IDX 5 1 3 2 2 3 1 4 22 5 20 6 19 7 17 8 16 9 15 10 14 11 6 12
REMARK SMILES IDX 7 13 8 14 9 15 13 16 11 17 10 18 12 20 4 22 21 24 18 26
REMARK H PARENT 10 19 12 21 4 23 21 25 18 27
REMARK Flexibility Score: inf
ROOT
ATOM      1  C   UNL     1       9.515  -1.735  19.368  1.00  0.00     0.180 A 
ATOM      2  C   UNL     1      10.885  -2.046  19.397  1.00  0.00     0.208 A 
ATOM      3  C   UNL     1      11.276  -3.386  19.550  1.00  0.00     0.238 A 
ATOM      4  O   UNL     1      12.504  -3.665  19.520  1.00  0.00    -0.285 OA
ATOM      5  C   UNL     1      10.292  -4.395  19.688  1.00  0.00     0.111 A 
ATOM      6  C   UNL     1      10.576  -5.779  19.888  1.00  0.00     0.134 A 
ATOM      7  C   UNL     1       9.526  -6.706  19.881  1.00  0.00     0.093 A 
ATOM      8  C   UNL     1       8.199  -6.291  19.747  1.00  0.00     0.123 A 
ATOM      9  C   UNL     1       7.909  -4.936  19.610  1.00  0.00     0.094 A 
ATOM     10  C   UNL     1       8.936  -3.991  19.578  1.00  0.00     0.146 A 
ATOM     11  O   UNL     1       8.617  -2.710  19.435  1.00  0.00    -0.452 OA
ENDROOT
BRANCH   1  12
ATOM     12  C   UNL     1       9.026  -0.342  19.236  1.00  0.00     0.025 A 
ATOM     13  C   UNL     1       9.435   0.664  20.125  1.00  0.00     0.016 A 
ATOM     14  C   UNL     1       8.943   1.963  19.994  1.00  0.00     0.051 A 
ATOM     15  C   UNL     1       8.024   2.282  18.988  1.00  0.00     0.157 A 
ATOM     16  C   UNL     1       8.088  -0.031  18.239  1.00  0.00     0.062 A 
ATOM     17  C   UNL     1       7.588   1.270  18.100  1.00  0.00     0.158 A 
BRANCH  15  18
ATOM     18  O   UNL     1       7.573   3.601  18.909  1.00  0.00    -0.504 OA
ATOM     19  H   UNL     1       7.866   4.257  18.199  1.00  0.00     0.293 HD
ENDBRANCH  15  18
BRANCH  17  20
ATOM     20  O   UNL     1       6.667   1.509  17.078  1.00  0.00    -0.504 OA
ATOM     21  H   UNL     1       5.899   2.159  17.151  1.00  0.00     0.293 HD
ENDBRANCH  17  20
ENDBRANCH   1  12
BRANCH   2  22
ATOM     22  O   UNL     1      11.839  -1.037  19.237  1.00  0.00    -0.502 OA
ATOM     23  H   UNL     1      12.528  -0.821  19.947  1.00  0.00     0.293 HD
ENDBRANCH   2  22
BRANCH   6  24
ATOM     24  O   UNL     1      11.855  -6.288  20.124  1.00  0.00    -0.507 OA
ATOM     25  H   UNL     1      12.128  -6.799  20.951  1.00  0.00     0.293 HD
ENDBRANCH   6  24
BRANCH   8  26
ATOM     26  O   UNL     1       7.159  -7.219  19.756  1.00  0.00    -0.508 OA
ATOM     27  H   UNL     1       6.941  -7.778  18.941  1.00  0.00     0.293 HD
ENDBRANCH   8  26
TORSDOF 6
ENDMDL
MODEL 3
REMARK VINA RESULT:    -6.425      1.251      3.071
REMARK INTER + INTRA:          -7.186
REMARK INTER:                  -7.612
REMARK INTRA:                   0.426
REMARK UNBOUND:                 0.553
REMARK SMILES O=c1c(O)c(-c2ccc(O)c(O)c2)oc2cc(O)cc(O)c12
REMARK SMILES IDX 5 1 3 2 2 3 1 4 22 5 20 6 19 7 17 8 16 9 15 10 14 11 6 12
REMARK SMILES IDX 7 13 8 14 9 15 13 16 11 17 10 18 12 20 4 22 21 24 18 26
REMARK H PARENT 10 19 12 21 4 23 21 25 18 27
REMARK Flexibility Score: inf
ROOT
ATOM      1  C   UNL     1      10.278  -2.942  19.335  1.00  0.00     0.180 A 
ATOM      2  C   UNL     1      11.548  -2.358  19.188  1.00  0.00     0.208 A 
ATOM      3  C   UNL     1      11.638  -0.976  18.952  1.00  0.00     0.238 A 
ATOM      4  O   UNL     1      12.779  -0.449  18.875  1.00  0.00    -0.285 OA
ATOM      5  C   UNL     1      10.458  -0.201  18.851  1.00  0.00     0.111 A 
ATOM      6  C   UNL     1      10.430   1.199  18.574  1.00  0.00     0.134 A 
ATOM      7  C   UNL     1       9.212   1.889  18.626  1.00  0.00     0.093 A 
ATOM      8  C   UNL     1       8.014   1.217  18.880  1.00  0.00     0.123 A 
ATOM      9  C   UNL     1       8.025  -0.159  19.093  1.00  0.00     0.094 A 
ATOM     10  C   UNL     1       9.227  -0.869  19.082  1.00  0.00     0.146 A 
ATOM     11  O   UNL     1       9.193  -2.178  19.300  1.00  0.00    -0.452 OA
ENDROOT
BRANCH   1  12
ATOM     12  C   UNL     1      10.102  -4.396  19.561  1.00  0.00     0.025 A 
ATOM     13  C   UNL     1      11.178  -5.213  19.941  1.00  0.00     0.016 A 
ATOM     14  C   UNL     1      10.993  -6.584  20.125  1.00  0.00     0.051 A 
ATOM     15  C   UNL     1       9.739  -7.169  19.920  1.00  0.00     0.157 A 
ATOM     16  C   UNL     1       8.848  -4.984  19.333  1.00  0.00     0.062 A 
ATOM     17  C   UNL     1       8.652  -6.359  19.515  1.00  0.00     0.158 A 
BRANCH  15  18
ATOM     18  O   UNL     1       9.619  -8.546  20.124  1.00  0.00    -0.504 OA
ATOM     19  H   UNL     1       9.039  -9.152  19.562  1.00  0.00     0.293 HD
ENDBRANCH  15  18
BRANCH  17  20
ATOM     20  O   UNL     1       7.374  -6.872  19.282  1.00  0.00    -0.504 OA
ATOM     21  H   UNL     1       6.866  -7.442  19.941  1.00  0.00     0.293 HD
ENDBRANCH  17  20
ENDBRANCH   1  12
BRANCH   2  22
ATOM     22  O   UNL     1      12.700  -3.138  19.313  1.00  0.00    -0.502 OA
ATOM     23  H   UNL     1      13.029  -3.747  18.574  1.00  0.00     0.293 HD
ENDBRANCH   2  22
BRANCH   6  24
ATOM     24  O   UNL     1      11.556   1.947  18.220  1.00  0.00    -0.507 OA
ATOM     25  H   UNL     1      12.057   2.563  18.843  1.00  0.00     0.293 HD
ENDBRANCH   6  24
BRANCH   8  26
ATOM     26  O   UNL     1       6.805   1.909  18.914  1.00  0.00    -0.508 OA
ATOM     27  H   UNL     1       6.624   2.626  19.606  1.00  0.00     0.293 HD
ENDBRANCH   8  26
TORSDOF 6
ENDMDL
MODEL 4
REMARK VINA RESULT:    -6.167      3.366      5.100
REMARK INTER + INTRA:          -6.875
REMARK INTER:                  -7.333
REMARK INTRA:                   0.457
REMARK UNBOUND:                 0.553
REMARK SMILES O=c1c(O)c(-c2ccc(O)c(O)c2)oc2cc(O)cc(O)c12
REMARK SMILES IDX 5 1 3 2 2 3 1 4 22 5 20 6 19 7 17 8 16 9 15 10 14 11 6 12
REMARK SMILES IDX 7 13 8 14 9 15 13 16 11 17 10 18 12 20 4 22 21 24 18 26
REMARK H PARENT 10 19 12 21 4 23 21 25 18 27
REMARK Flexibility Score: inf
ROOT
ATOM      1  C   UNL     1      11.018  -4.297  19.522  1.00  0.00     0.180 A 
ATOM      2  C   UNL     1      10.927  -2.972  19.062  1.00  0.00     0.208 A 
ATOM      3  C   UNL     1      12.102  -2.211  18.942  1.00  0.00     0.238 A 
ATOM      4  O   UNL     1      12.021  -1.043  18.477  1.00  0.00    -0.285 OA
ATOM      5  C   UNL     1      13.348  -2.780  19.299  1.00  0.00     0.111 A 
ATOM      6  C   UNL     1      14.595  -2.087  19.255  1.00  0.00     0.134 A 
ATOM      7  C   UNL     1      15.783  -2.787  19.505  1.00  0.00     0.093 A 
ATOM      8  C   UNL     1      15.760  -4.138  19.862  1.00  0.00     0.123 A 
ATOM      9  C   UNL     1      14.543  -4.807  19.965  1.00  0.00     0.094 A 
ATOM     10  C   UNL     1      13.346  -4.144  19.686  1.00  0.00     0.146 A 
ATOM     11  O   UNL     1      12.208  -4.822  19.787  1.00  0.00    -0.452 OA
ENDROOT
BRANCH   1  12
ATOM     12  C   UNL     1       9.821  -5.152  19.699  1.00  0.00     0.025 A 
ATOM     13  C   UNL     1       9.925  -6.551  19.754  1.00  0.00     0.016 A 
ATOM     14  C   UNL     1       8.781  -7.338  19.897  1.00  0.00     0.051 A 
ATOM     15  C   UNL     1       7.514  -6.750  19.975  1.00  0.00     0.157 A 
ATOM     16  C   UNL     1       8.550  -4.561  19.754  1.00  0.00     0.062 A 
ATOM     17  C   UNL     1       7.397  -5.342  19.899  1.00  0.00     0.158 A 
BRANCH  15  18
ATOM     18  O   UNL     1       6.410  -7.592  20.122  1.00  0.00    -0.504 OA
ATOM     19  H   UNL     1       6.464  -8.539  20.470  1.00  0.00     0.293 HD
ENDBRANCH  15  18
BRANCH  17  20
ATOM     20  O   UNL     1       6.166  -4.683  19.959  1.00  0.00    -0.504 OA
ATOM     21  H   UNL     1       5.310  -5.116  20.271  1.00  0.00     0.293 HD
ENDBRANCH  17  20
ENDBRANCH   1  12
BRANCH   2  22
ATOM     22  O   UNL     1       9.690  -2.438  18.695  1.00  0.00    -0.502 OA
ATOM     23  H   UNL     1       9.542  -1.444  18.565  1.00  0.00     0.293 HD
ENDBRANCH   2  22
BRANCH   6  24
ATOM     24  O   UNL     1      14.721  -0.719  18.999  1.00  0.00    -0.507 OA
ATOM     25  H   UNL     1      15.231  -0.070  19.580  1.00  0.00     0.293 HD
ENDBRANCH   6  24
BRANCH   8  26
ATOM     26  O   UNL     1      16.945  -4.823  20.125  1.00  0.00    -0.508 OA
ATOM     27  H   UNL     1      17.304  -5.525  19.488  1.00  0.00     0.293 HD
ENDBRANCH   8  26
TORSDOF 6
ENDMDL
MODEL 5
REMARK VINA RESULT:    -5.994      2.614      4.632
REMARK INTER + INTRA:          -6.667
REMARK INTER:                  -7.110
REMARK INTRA:                   0.443
REMARK UNBOUND:                 0.553
REMARK SMILES O=c1c(O)c(-c2ccc(O)c(O)c2)oc2cc(O)cc(O)c12
REMARK SMILES IDX 5 1 3 2 2 3 1 4 22 5 20 6 19 7 17 8 16 9 15 10 14 11 6 12
REMARK SMILES IDX 7 13 8 14 9 15 13 16 11 17 10 18 12 20 4 22 21 24 18 26
REMARK H PARENT 10 19 12 21 4 23 21 25 18 27
REMARK Flexibility Score: inf
ROOT
ATOM      1  C   UNL     1      10.908  -4.425  19.832  1.00  0.00     0.180 A 
ATOM      2  C   UNL     1      12.212  -4.943  19.901  1.00  0.00     0.208 A 
ATOM      3  C   UNL     1      13.301  -4.063  19.779  1.00  0.00     0.238 A 
ATOM      4  O   UNL     1      14.467  -4.525  19.896  1.00  0.00    -0.285 OA
ATOM      5  C   UNL     1      13.070  -2.682  19.575  1.00  0.00     0.111 A 
ATOM      6  C   UNL     1      14.098  -1.707  19.399  1.00  0.00     0.134 A 
ATOM      7  C   UNL     1      13.758  -0.350  19.334  1.00  0.00     0.093 A 
ATOM      8  C   UNL     1      12.423   0.061  19.375  1.00  0.00     0.123 A 
ATOM      9  C   UNL     1      11.411  -0.888  19.487  1.00  0.00     0.094 A 
ATOM     10  C   UNL     1      11.720  -2.245  19.589  1.00  0.00     0.146 A 
ATOM     11  O   UNL     1      10.724  -3.116  19.705  1.00  0.00    -0.452 OA
ENDROOT
BRANCH   1  12
ATOM     12  C   UNL     1       9.710  -5.292  19.927  1.00  0.00     0.025 A 
ATOM     13  C   UNL     1       9.817  -6.692  19.897  1.00  0.00     0.016 A 
ATOM     14  C   UNL     1       8.672  -7.488  19.964  1.00  0.00     0.051 A 
ATOM     15  C   UNL     1       7.402  -6.908  20.046  1.00  0.00     0.157 A 
ATOM     16  C   UNL     1       8.436  -4.708  19.987  1.00  0.00     0.062 A 
ATOM     17  C   UNL     1       7.282  -5.498  20.054  1.00  0.00     0.158 A 
BRANCH  15  18
ATOM     18  O   UNL     1       6.298  -7.760  20.114  1.00  0.00    -0.504 OA
ATOM     19  H   UNL     1       6.362  -8.767  20.149  1.00  0.00     0.293 HD
ENDBRANCH  15  18
BRANCH  17  20
ATOM     20  O   UNL     1       6.048  -4.847  20.125  1.00  0.00    -0.504 OA
ATOM     21  H   UNL     1       5.289  -5.140  20.721  1.00  0.00     0.293 HD
ENDBRANCH  17  20
ENDBRANCH   1  12
BRANCH   2  22
ATOM     22  O   UNL     1      12.417  -6.306  20.124  1.00  0.00    -0.502 OA
ATOM     23  H   UNL     1      11.652  -6.960  20.242  1.00  0.00     0.293 HD
ENDBRANCH   2  22
BRANCH   6  24
ATOM     24  O   UNL     1      15.452  -2.018  19.254  1.00  0.00    -0.507 OA
ATOM     25  H   UNL     1      16.212  -1.459  19.613  1.00  0.00     0.293 HD
ENDBRANCH   6  24
BRANCH   8  26
ATOM     26  O   UNL     1      12.094   1.413  19.294  1.00  0.00    -0.508 OA
ATOM     27  H   UNL     1      12.119   1.913  18.414  1.00  0.00     0.293 HD
ENDBRANCH   8  26
TORSDOF 6
ENDMDL
MODEL 6
REMARK VINA RESULT:    -5.940      5.464      8.508
REMARK INTER + INTRA:          -6.602
REMARK INTER:                  -6.575
REMARK INTRA:                  -0.027
REMARK UNBOUND:                 0.553
REMARK SMILES O=c1c(O)c(-c2ccc(O)c(O)c2)oc2cc(O)cc(O)c12
REMARK SMILES IDX 5 1 3 2 2 3 1 4 22 5 20 6 19 7 17 8 16 9 15 10 14 11 6 12
REMARK SMILES IDX 7 13 8 14 9 15 13 16 11 17 10 18 12 20 4 22 21 24 18 26
REMARK H PARENT 10 19 12 21 4 23 21 25 18 27
REMARK Flexibility Score: inf
ROOT
ATOM      1  C   UNL     1      14.220  -2.362  19.400  1.00  0.00     0.180 A 
ATOM      2  C   UNL     1      13.833  -3.693  19.631  1.00  0.00     0.208 A 
ATOM      3  C   UNL     1      14.825  -4.660  19.864  1.00  0.00     0.238 A 
ATOM      4  O   UNL     1      14.471  -5.839  20.125  1.00  0.00    -0.285 OA
ATOM      5  C   UNL     1      16.190  -4.285  19.847  1.00  0.00     0.111 A 
ATOM      6  C   UNL     1      17.279  -5.189  20.031  1.00  0.00     0.134 A 
ATOM      7  C   UNL     1      18.584  -4.688  20.125  1.00  0.00     0.093 A 
ATOM      8  C   UNL     1      18.843  -3.323  19.975  1.00  0.00     0.123 A 
ATOM      9  C   UNL     1      17.792  -2.441  19.737  1.00  0.00     0.094 A 
ATOM     10  C   UNL     1      16.478  -2.907  19.673  1.00  0.00     0.146 A 
ATOM     11  O   UNL     1      15.504  -2.031  19.454  1.00  0.00    -0.452 OA
ENDROOT
BRANCH   1  12
ATOM     12  C   UNL     1      13.233  -1.292  19.121  1.00  0.00     0.025 A 
ATOM     13  C   UNL     1      13.179  -0.127  19.902  1.00  0.00     0.016 A 
ATOM     14  C   UNL     1      12.225   0.856  19.635  1.00  0.00     0.051 A 
ATOM     15  C   UNL     1      11.301   0.693  18.598  1.00  0.00     0.157 A 
ATOM     16  C   UNL     1      12.293  -1.469  18.094  1.00  0.00     0.062 A 
ATOM     17  C   UNL     1      11.333  -0.488  17.819  1.00  0.00     0.158 A 
BRANCH  15  18
ATOM     18  O   UNL     1      10.375   1.716  18.380  1.00  0.00    -0.504 OA
ATOM     19  H   UNL     1      10.097   2.041  17.465  1.00  0.00     0.293 HD
ENDBRANCH  15  18
BRANCH  17  20
ATOM     20  O   UNL     1      10.437  -0.727  16.773  1.00  0.00    -0.504 OA
ATOM     21  H   UNL     1       9.914  -0.004  16.303  1.00  0.00     0.293 HD
ENDBRANCH  17  20
ENDBRANCH   1  12
BRANCH   2  22
ATOM     22  O   UNL     1      12.479  -4.037  19.665  1.00  0.00    -0.502 OA
ATOM     23  H   UNL     1      11.742  -3.343  19.703  1.00  0.00     0.293 HD
ENDBRANCH   2  22
BRANCH   6  24
ATOM     24  O   UNL     1      17.139  -6.578  20.100  1.00  0.00    -0.507 OA
ATOM     25  H   UNL     1      16.307  -7.085  19.839  1.00  0.00     0.293 HD
ENDBRANCH   6  24
BRANCH   8  26
ATOM     26  O   UNL     1      20.146  -2.834  20.054  1.00  0.00    -0.508 OA
ATOM     27  H   UNL     1      20.947  -3.455  20.036  1.00  0.00     0.293 HD
ENDBRANCH   8  26
TORSDOF 6
ENDMDL
MODEL 7
REMARK VINA RESULT:    -5.743      3.799      6.699
REMARK INTER + INTRA:          -6.365
REMARK INTER:                  -6.860
REMARK INTRA:                   0.494
REMARK UNBOUND:                 0.553
REMARK SMILES O=c1c(O)c(-c2ccc(O)c(O)c2)oc2cc(O)cc(O)c12
REMARK SMILES IDX 5 1 3 2 2 3 1 4 22 5 20 6 19 7 17 8 16 9 15 10 14 11 6 12
REMARK SMILES IDX 7 13 8 14 9 15 13 16 11 17 10 18 12 20 4 22 21 24 18 26
REMARK H PARENT 10 19 12 21 4 23 21 25 18 27
REMARK Flexibility Score: inf
ROOT
ATOM      1  C   UNL     1      12.423  -3.499  19.379  1.00  0.00     0.180 A 
ATOM      2  C   UNL     1      11.654  -2.357  19.100  1.00  0.00     0.208 A 
ATOM      3  C   UNL     1      10.258  -2.481  19.011  1.00  0.00     0.238 A 
ATOM      4  O   UNL     1       9.570  -1.444  18.816  1.00  0.00    -0.285 OA
ATOM      5  C   UNL     1       9.652  -3.748  19.187  1.00  0.00     0.111 A 
ATOM      6  C   UNL     1       8.250  -3.995  19.079  1.00  0.00     0.134 A 
ATOM      7  C   UNL     1       7.747  -5.262  19.401  1.00  0.00     0.093 A 
ATOM      8  C   UNL     1       8.602  -6.307  19.763  1.00  0.00     0.123 A 
ATOM      9  C   UNL     1       9.976  -6.089  19.813  1.00  0.00     0.094 A 
ATOM     10  C   UNL     1      10.505  -4.828  19.532  1.00  0.00     0.146 A 
ATOM     11  O   UNL     1      11.820  -4.660  19.602  1.00  0.00    -0.452 OA
ENDROOT
BRANCH   1  12
ATOM     12  C   UNL     1      13.902  -3.453  19.463  1.00  0.00     0.025 A 
ATOM     13  C   UNL     1      14.635  -4.504  20.035  1.00  0.00     0.016 A 
ATOM     14  C   UNL     1      16.026  -4.427  20.124  1.00  0.00     0.051 A 
ATOM     15  C   UNL     1      16.711  -3.299  19.660  1.00  0.00     0.157 A 
ATOM     16  C   UNL     1      14.584  -2.310  19.017  1.00  0.00     0.062 A 
ATOM     17  C   UNL     1      15.979  -2.224  19.102  1.00  0.00     0.158 A 
BRANCH  15  18
ATOM     18  O   UNL     1      18.102  -3.286  19.775  1.00  0.00    -0.504 OA
ATOM     19  H   UNL     1      18.676  -4.116  19.785  1.00  0.00     0.293 HD
ENDBRANCH  15  18
BRANCH  17  20
ATOM     20  O   UNL     1      16.591  -1.062  18.626  1.00  0.00    -0.504 OA
ATOM     21  H   UNL     1      16.160  -0.149  18.645  1.00  0.00     0.293 HD
ENDBRANCH  17  20
ENDBRANCH   1  12
BRANCH   2  22
ATOM     22  O   UNL     1      12.272  -1.112  18.952  1.00  0.00    -0.502 OA
ATOM     23  H   UNL     1      12.787  -0.855  18.119  1.00  0.00     0.293 HD
ENDBRANCH   2  22
BRANCH   6  24
ATOM     24  O   UNL     1       7.321  -3.049  18.638  1.00  0.00    -0.507 OA
ATOM     25  H   UNL     1       7.429  -2.479  17.812  1.00  0.00     0.293 HD
ENDBRANCH   6  24
BRANCH   8  26
ATOM     26  O   UNL     1       8.094  -7.568  20.066  1.00  0.00    -0.508 OA
ATOM     27  H   UNL     1       8.704  -8.350  20.270  1.00  0.00     0.293 HD
ENDBRANCH   8  26
TORSDOF 6
ENDMDL
MODEL 8
REMARK VINA RESULT:    -4.490      2.824      4.263
REMARK INTER + INTRA:          -4.856
REMARK INTER:                  -4.780
REMARK INTRA:                  -0.075
REMARK UNBOUND:                 0.553
REMARK SMILES O=c1c(O)c(-c2ccc(O)c(O)c2)oc2cc(O)cc(O)c12
REMARK SMILES IDX 5 1 3 2 2 3 1 4 22 5 20 6 19 7 17 8 16 9 15 10 14 11 6 12
REMARK SMILES IDX 7 13 8 14 9 15 13 16 11 17 10 18 12 20 4 22 21 24 18 26
REMARK H PARENT 10 19 12 21 4 23 21 25 18 27
REMARK Flexibility Score: inf
ROOT
ATOM      1  C   UNL     1      10.616  -1.511  19.050  1.00  0.00     0.180 A 
ATOM      2  C   UNL     1       9.515  -2.085  18.392  1.00  0.00     0.208 A 
ATOM      3  C   UNL     1       8.343  -1.326  18.239  1.00  0.00     0.238 A 
ATOM      4  O   UNL     1       7.379  -1.825  17.601  1.00  0.00    -0.285 OA
ATOM      5  C   UNL     1       8.282  -0.012  18.761  1.00  0.00     0.111 A 
ATOM      6  C   UNL     1       7.132   0.831  18.698  1.00  0.00     0.134 A 
ATOM      7  C   UNL     1       7.226   2.160  19.130  1.00  0.00     0.093 A 
ATOM      8  C   UNL     1       8.410   2.656  19.683  1.00  0.00     0.123 A 
ATOM      9  C   UNL     1       9.520   1.822  19.802  1.00  0.00     0.094 A 
ATOM     10  C   UNL     1       9.467   0.503  19.347  1.00  0.00     0.146 A 
ATOM     11  O   UNL     1      10.551  -0.254  19.470  1.00  0.00    -0.452 OA
ENDROOT
BRANCH   1  12
ATOM     12  C   UNL     1      11.877  -2.257  19.272  1.00  0.00     0.025 A 
ATOM     13  C   UNL     1      11.884  -3.510  19.906  1.00  0.00     0.016 A 
ATOM     14  C   UNL     1      13.087  -4.183  20.125  1.00  0.00     0.051 A 
ATOM     15  C   UNL     1      14.304  -3.618  19.731  1.00  0.00     0.157 A 
ATOM     16  C   UNL     1      13.099  -1.678  18.895  1.00  0.00     0.062 A 
ATOM     17  C   UNL     1      14.311  -2.346  19.110  1.00  0.00     0.158 A 
BRANCH  15  18
ATOM     18  O   UNL     1      15.472  -4.344  19.975  1.00  0.00    -0.504 OA
ATOM     19  H   UNL     1      15.620  -5.295  19.669  1.00  0.00     0.293 HD
ENDBRANCH  15  18
BRANCH  17  20
ATOM     20  O   UNL     1      15.486  -1.713  18.698  1.00  0.00    -0.504 OA
ATOM     21  H   UNL     1      16.391  -2.160  18.681  1.00  0.00     0.293 HD
ENDBRANCH  17  20
ENDBRANCH   1  12
BRANCH   2  22
ATOM     22  O   UNL     1       9.604  -3.376  17.866  1.00  0.00    -0.502 OA
ATOM     23  H   UNL     1       9.383  -3.588  16.901  1.00  0.00     0.293 HD
ENDBRANCH   2  22
BRANCH   6  24
ATOM     24  O   UNL     1       5.878   0.409  18.250  1.00  0.00    -0.507 OA
ATOM     25  H   UNL     1       5.587   0.396  17.284  1.00  0.00     0.293 HD
ENDBRANCH   6  24
BRANCH   8  26
ATOM     26  O   UNL     1       8.490   3.975  20.125  1.00  0.00    -0.508 OA
ATOM     27  H   UNL     1       8.180   4.747  19.548  1.00  0.00     0.293 HD
ENDBRANCH   8  26
TORSDOF 6
ENDMDL
