MODEL 1
REMARK VINA RESULT:    -4.420      0.000      0.000
REMARK INTER + INTRA:         -10.026
REMARK INTER:                  -8.037
REMARK INTRA:                  -1.989
REMARK UNBOUND:                -1.989
REMARK SMILES CCCCCCCCCCCCCCCC(=O)[O-]
REMARK SMILES IDX 9 1 10 2 11 3 12 4 13 5 14 6 15 7 16 8 17 9 18 10 8 11 7 12
REMARK SMILES IDX 6 13 5 14 4 15 3 16 2 17 1 18
REMARK H PARENT
REMARK Flexibility Score: inf
ROOT
ATOM      1  C   UNL     1      53.377  24.238  50.337  1.00  0.00     0.000 C 
ENDROOT
BRANCH   1   2
ATOM      2  C   UNL     1      54.063  24.933  51.525  1.00  0.00     0.000 C 
BRANCH   2   3
ATOM      3  C   UNL     1      55.586  25.062  51.341  1.00  0.00     0.000 C 
BRANCH   3   4
ATOM      4  C   UNL     1      56.399  23.794  51.670  1.00  0.00     0.000 C 
BRANCH   4   5
ATOM      5  C   UNL     1      56.223  23.252  53.102  1.00  0.00     0.000 C 
BRANCH   5   6
ATOM      6  C   UNL     1      55.799  21.772  53.196  1.00  0.00     0.006 C 
BRANCH   6   7
ATOM      7  C   UNL     1      54.433  21.471  52.553  1.00  0.00     0.053 C 
BRANCH   7   8
ATOM      8  C   UNL     1      53.347  21.277  53.568  1.00  0.00     0.041 C 
ATOM      9  O   UNL     1      52.346  20.563  53.296  1.00  0.00    -0.550 OA
ATOM     10  O   UNL     1      53.459  21.852  54.827  1.00  0.00    -0.550 OA
ENDBRANCH   7   8
ENDBRANCH   6   7
ENDBRANCH   5   6
ENDBRANCH   4   5
ENDBRANCH   3   4
ENDBRANCH   2   3
ENDBRANCH   1   2
BRANCH   1  11
ATOM     11  C   UNL     1      53.372  25.104  49.067  1.00  0.00     0.000 C 
BRANCH  11  12
ATOM     12  C   UNL     1      53.854  24.339  47.822  1.00  0.00    -0.000 C 
BRANCH  12  13
ATOM     13  C   UNL     1      55.153  24.932  47.235  1.00  0.00    -0.000 C 
BRANCH  13  14
ATOM     14  C   UNL     1      56.435  24.397  47.901  1.00  0.00    -0.000 C 
BRANCH  14  15
ATOM     15  C   UNL     1      57.194  23.331  47.090  1.00  0.00    -0.000 C 
BRANCH  15  16
ATOM     16  C   UNL     1      56.936  21.877  47.528  1.00  0.00    -0.000 C 
BRANCH  16  17
ATOM     17  C   UNL     1      56.089  21.779  48.804  1.00  0.00    -0.003 C 
ATOM     18  C   UNL     1      55.924  20.328  49.245  1.00  0.00     0.004 C 
ENDBRANCH  16  17
ENDBRANCH  15  16
ENDBRANCH  14  15
ENDBRANCH  13  14
ENDBRANCH  12  13
ENDBRANCH  11  12
ENDBRANCH   1  11
TORSDOF 14
ENDMDL
MODEL 2
REMARK VINA RESULT:    -4.397      1.674      2.304
REMARK INTER + INTRA:          -9.984
REMARK INTER:                  -8.724
REMARK INTRA:                  -1.260
REMARK UNBOUND:                -1.989
REMARK SMILES CCCCCCCCCCCCCCCC(=O)[O-]
REMARK SMILES IDX 9 1 10 2 11 3 12 4 13 5 14 6 15 7 16 8 17 9 18 10 8 11 7 12
REMARK SMILES IDX 6 13 5 14 4 15 3 16 2 17 1 18
REMARK H PARENT
REMARK Flexibility Score: inf
ROOT
ATOM      1  C   UNL     1      53.612  24.098  48.231  1.00  0.00     0.000 C 
ENDROOT
BRANCH   1   2
ATOM      2  C   UNL     1      53.125  25.049  49.337  1.00  0.00     0.000 C 
BRANCH   2   3
ATOM      3  C   UNL     1      53.748  24.735  50.710  1.00  0.00     0.000 C 
BRANCH   3   4
ATOM      4  C   UNL     1      53.793  23.240  51.086  1.00  0.00     0.000 C 
BRANCH   4   5
ATOM      5  C   UNL     1      53.250  22.897  52.486  1.00  0.00     0.000 C 
BRANCH   5   6
ATOM      6  C   UNL     1      53.656  21.510  53.026  1.00  0.00     0.006 C 
BRANCH   6   7
ATOM      7  C   UNL     1      54.422  21.559  54.361  1.00  0.00     0.053 C 
BRANCH   7   8
ATOM      8  C   UNL     1      55.884  21.269  54.199  1.00  0.00     0.041 C 
ATOM      9  O   UNL     1      56.429  21.372  53.068  1.00  0.00    -0.550 OA
ATOM     10  O   UNL     1      56.652  20.923  55.303  1.00  0.00    -0.550 OA
ENDBRANCH   7   8
ENDBRANCH   6   7
ENDBRANCH   5   6
ENDBRANCH   4   5
ENDBRANCH   3   4
ENDBRANCH   2   3
ENDBRANCH   1   2
BRANCH   1  11
ATOM     11  C   UNL     1      53.817  24.812  46.885  1.00  0.00     0.000 C 
BRANCH  11  12
ATOM     12  C   UNL     1      55.295  25.125  46.595  1.00  0.00    -0.000 C 
BRANCH  12  13
ATOM     13  C   UNL     1      56.232  24.625  47.715  1.00  0.00    -0.000 C 
BRANCH  13  14
ATOM     14  C   UNL     1      57.190  23.505  47.267  1.00  0.00    -0.000 C 
BRANCH  14  15
ATOM     15  C   UNL     1      56.746  22.079  47.642  1.00  0.00    -0.000 C 
BRANCH  15  16
ATOM     16  C   UNL     1      56.074  21.951  49.023  1.00  0.00    -0.000 C 
BRANCH  16  17
ATOM     17  C   UNL     1      55.898  20.494  49.470  1.00  0.00    -0.003 C 
ATOM     18  C   UNL     1      56.364  19.526  48.386  1.00  0.00     0.004 C 
ENDBRANCH  16  17
ENDBRANCH  15  16
ENDBRANCH  14  15
ENDBRANCH  13  14
ENDBRANCH  12  13
ENDBRANCH  11  12
ENDBRANCH   1  11
TORSDOF 14
ENDMDL
MODEL 3
REMARK VINA RESULT:    -4.359      1.818      2.255
REMARK INTER + INTRA:          -9.916
REMARK INTER:                  -8.299
REMARK INTRA:                  -1.617
REMARK UNBOUND:                -1.989
REMARK SMILES CCCCCCCCCCCCCCCC(=O)[O-]
REMARK SMILES IDX 9 1 10 2 11 3 12 4 13 5 14 6 15 7 16 8 17 9 18 10 8 11 7 12
REMARK SMILES IDX 6 13 5 14 4 15 3 16 2 17 1 18
REMARK H PARENT
REMARK Flexibility Score: inf
ROOT
ATOM      1  C   UNL     1      53.540  24.518  50.107  1.00  0.00     0.000 C 
ENDROOT
BRANCH   1   2
ATOM      2  C   UNL     1      54.842  24.944  50.805  1.00  0.00     0.000 C 
BRANCH   2   3
ATOM      3  C   UNL     1      55.296  23.942  51.883  1.00  0.00     0.000 C 
BRANCH   3   4
ATOM      4  C   UNL     1      54.163  23.328  52.730  1.00  0.00     0.000 C 
BRANCH   4   5
ATOM      5  C   UNL     1      54.202  21.794  52.870  1.00  0.00     0.000 C 
BRANCH   5   6
ATOM      6  C   UNL     1      54.427  21.271  54.303  1.00  0.00     0.006 C 
BRANCH   6   7
ATOM      7  C   UNL     1      55.878  20.846  54.593  1.00  0.00     0.053 C 
BRANCH   7   8
ATOM      8  C   UNL     1      56.657  21.905  55.313  1.00  0.00     0.041 C 
ATOM      9  O   UNL     1      57.137  22.881  54.678  1.00  0.00    -0.550 OA
ATOM     10  O   UNL     1      56.821  21.834  56.690  1.00  0.00    -0.550 OA
ENDBRANCH   7   8
ENDBRANCH   6   7
ENDBRANCH   5   6
ENDBRANCH   4   5
ENDBRANCH   3   4
ENDBRANCH   2   3
ENDBRANCH   1   2
BRANCH   1  11
ATOM     11  C   UNL     1      53.397  25.124  48.702  1.00  0.00     0.000 C 
BRANCH  11  12
ATOM     12  C   UNL     1      54.040  24.253  47.609  1.00  0.00    -0.000 C 
BRANCH  12  13
ATOM     13  C   UNL     1      55.350  24.863  47.067  1.00  0.00    -0.000 C 
BRANCH  13  14
ATOM     14  C   UNL     1      56.581  23.957  47.261  1.00  0.00    -0.000 C 
BRANCH  14  15
ATOM     15  C   UNL     1      56.382  22.789  48.245  1.00  0.00    -0.000 C 
BRANCH  15  16
ATOM     16  C   UNL     1      56.788  21.406  47.702  1.00  0.00    -0.000 C 
BRANCH  16  17
ATOM     17  C   UNL     1      56.402  20.257  48.644  1.00  0.00    -0.003 C 
ATOM     18  C   UNL     1      55.635  20.774  49.858  1.00  0.00     0.004 C 
ENDBRANCH  16  17
ENDBRANCH  15  16
ENDBRANCH  14  15
ENDBRANCH  13  14
ENDBRANCH  12  13
ENDBRANCH  11  12
ENDBRANCH   1  11
TORSDOF 14
ENDMDL
MODEL 4
REMARK VINA RESULT:    -4.339      1.712      2.460
REMARK INTER + INTRA:          -9.879
REMARK INTER:                  -8.261
REMARK INTRA:                  -1.618
REMARK UNBOUND:                -1.989
REMARK SMILES CCCCCCCCCCCCCCCC(=O)[O-]
REMARK SMILES IDX 9 1 10 2 11 3 12 4 13 5 14 6 15 7 16 8 17 9 18 10 8 11 7 12
REMARK SMILES IDX 6 13 5 14 4 15 3 16 2 17 1 18
REMARK H PARENT
REMARK Flexibility Score: inf
ROOT
ATOM      1  C   UNL     1      53.721  24.445  51.421  1.00  0.00     0.000 C 
ENDROOT
BRANCH   1   2
ATOM      2  C   UNL     1      55.086  23.758  51.583  1.00  0.00     0.000 C 
BRANCH   2   3
ATOM      3  C   UNL     1      55.313  23.211  53.004  1.00  0.00     0.000 C 
BRANCH   3   4
ATOM      4  C   UNL     1      54.946  21.726  53.205  1.00  0.00     0.000 C 
BRANCH   4   5
ATOM      5  C   UNL     1      53.482  21.362  52.892  1.00  0.00     0.000 C 
BRANCH   5   6
ATOM      6  C   UNL     1      52.491  21.567  54.055  1.00  0.00     0.006 C 
BRANCH   6   7
ATOM      7  C   UNL     1      51.487  22.711  53.826  1.00  0.00     0.053 C 
BRANCH   7   8
ATOM      8  C   UNL     1      50.080  22.220  53.663  1.00  0.00     0.041 C 
ATOM      9  O   UNL     1      49.500  21.629  54.612  1.00  0.00    -0.550 OA
ATOM     10  O   UNL     1      49.395  22.450  52.476  1.00  0.00    -0.550 OA
ENDBRANCH   7   8
ENDBRANCH   6   7
ENDBRANCH   5   6
ENDBRANCH   4   5
ENDBRANCH   3   4
ENDBRANCH   2   3
ENDBRANCH   1   2
BRANCH   1  11
ATOM     11  C   UNL     1      53.399  24.784  49.957  1.00  0.00     0.000 C 
BRANCH  11  12
ATOM     12  C   UNL     1      53.727  23.632  48.992  1.00  0.00    -0.000 C 
BRANCH  12  13
ATOM     13  C   UNL     1      54.241  24.137  47.627  1.00  0.00    -0.000 C 
BRANCH  13  14
ATOM     14  C   UNL     1      55.758  23.952  47.429  1.00  0.00    -0.000 C 
BRANCH  14  15
ATOM     15  C   UNL     1      56.407  22.888  48.333  1.00  0.00    -0.000 C 
BRANCH  15  16
ATOM     16  C   UNL     1      56.779  21.573  47.623  1.00  0.00    -0.000 C 
BRANCH  16  17
ATOM     17  C   UNL     1      56.638  20.342  48.530  1.00  0.00    -0.003 C 
ATOM     18  C   UNL     1      55.646  20.603  49.660  1.00  0.00     0.004 C 
ENDBRANCH  16  17
ENDBRANCH  15  16
ENDBRANCH  14  15
ENDBRANCH  13  14
ENDBRANCH  12  13
ENDBRANCH  11  12
ENDBRANCH   1  11
TORSDOF 14
ENDMDL
MODEL 5
REMARK VINA RESULT:    -4.299      1.923      4.014
REMARK INTER + INTRA:          -9.806
REMARK INTER:                  -8.306
REMARK INTRA:                  -1.500
REMARK UNBOUND:                -1.989
REMARK SMILES CCCCCCCCCCCCCCCC(=O)[O-]
REMARK SMILES IDX 9 1 10 2 11 3 12 4 13 5 14 6 15 7 16 8 17 9 18 10 8 11 7 12
REMARK SMILES IDX 6 13 5 14 4 15 3 16 2 17 1 18
REMARK H PARENT
REMARK Flexibility Score: inf
ROOT
ATOM      1  C   UNL     1      56.995  21.631  47.603  1.00  0.00     0.000 C 
ENDROOT
BRANCH   1   2
ATOM      2  C   UNL     1      55.717  21.501  48.449  1.00  0.00     0.000 C 
BRANCH   2   3
ATOM      3  C   UNL     1      55.961  20.789  49.792  1.00  0.00     0.000 C 
BRANCH   3   4
ATOM      4  C   UNL     1      55.186  21.367  50.994  1.00  0.00     0.000 C 
BRANCH   4   5
ATOM      5  C   UNL     1      56.052  21.769  52.204  1.00  0.00     0.000 C 
BRANCH   5   6
ATOM      6  C   UNL     1      55.451  21.429  53.583  1.00  0.00     0.006 C 
BRANCH   6   7
ATOM      7  C   UNL     1      56.460  20.814  54.570  1.00  0.00     0.053 C 
BRANCH   7   8
ATOM      8  C   UNL     1      56.875  21.773  55.644  1.00  0.00     0.041 C 
ATOM      9  O   UNL     1      57.138  21.353  56.802  1.00  0.00    -0.550 OA
ATOM     10  O   UNL     1      57.008  23.125  55.357  1.00  0.00    -0.550 OA
ENDBRANCH   7   8
ENDBRANCH   6   7
ENDBRANCH   5   6
ENDBRANCH   4   5
ENDBRANCH   3   4
ENDBRANCH   2   3
ENDBRANCH   1   2
BRANCH   1  11
ATOM     11  C   UNL     1      57.196  23.050  47.049  1.00  0.00     0.000 C 
BRANCH  11  12
ATOM     12  C   UNL     1      56.376  24.108  47.807  1.00  0.00    -0.000 C 
BRANCH  12  13
ATOM     13  C   UNL     1      55.384  24.851  46.888  1.00  0.00    -0.000 C 
BRANCH  13  14
ATOM     14  C   UNL     1      53.935  24.854  47.414  1.00  0.00    -0.000 C 
BRANCH  14  15
ATOM     15  C   UNL     1      53.701  24.009  48.680  1.00  0.00    -0.000 C 
BRANCH  15  16
ATOM     16  C   UNL     1      53.322  24.816  49.937  1.00  0.00    -0.000 C 
BRANCH  16  17
ATOM     17  C   UNL     1      54.514  25.060  50.873  1.00  0.00    -0.003 C 
ATOM     18  C   UNL     1      54.097  24.944  52.336  1.00  0.00     0.004 C 
ENDBRANCH  16  17
ENDBRANCH  15  16
ENDBRANCH  14  15
ENDBRANCH  13  14
ENDBRANCH  12  13
ENDBRANCH  11  12
ENDBRANCH   1  11
TORSDOF 14
ENDMDL
MODEL 6
REMARK VINA RESULT:    -4.227      1.959      4.804
REMARK INTER + INTRA:          -9.676
REMARK INTER:                  -7.697
REMARK INTRA:                  -1.979
REMARK UNBOUND:                -1.989
REMARK SMILES CCCCCCCCCCCCCCCC(=O)[O-]
REMARK SMILES IDX 9 1 10 2 11 3 12 4 13 5 14 6 15 7 16 8 17 9 18 10 8 11 7 12
REMARK SMILES IDX 6 13 5 14 4 15 3 16 2 17 1 18
REMARK H PARENT
REMARK Flexibility Score: inf
ROOT
ATOM      1  C   UNL     1      53.739  23.762  48.575  1.00  0.00     0.000 C 
ENDROOT
BRANCH   1   2
ATOM      2  C   UNL     1      55.124  23.514  47.954  1.00  0.00     0.000 C 
BRANCH   2   3
ATOM      3  C   UNL     1      56.074  22.757  48.899  1.00  0.00     0.000 C 
BRANCH   3   4
ATOM      4  C   UNL     1      55.645  21.318  49.250  1.00  0.00     0.000 C 
BRANCH   4   5
ATOM      5  C   UNL     1      55.431  21.042  50.751  1.00  0.00     0.000 C 
BRANCH   5   6
ATOM      6  C   UNL     1      56.082  22.063  51.706  1.00  0.00     0.006 C 
BRANCH   6   7
ATOM      7  C   UNL     1      56.846  21.423  52.879  1.00  0.00     0.053 C 
BRANCH   7   8
ATOM      8  C   UNL     1      56.132  21.581  54.188  1.00  0.00     0.041 C 
ATOM      9  O   UNL     1      55.622  20.579  54.756  1.00  0.00    -0.550 OA
ATOM     10  O   UNL     1      56.063  22.826  54.798  1.00  0.00    -0.550 OA
ENDBRANCH   7   8
ENDBRANCH   6   7
ENDBRANCH   5   6
ENDBRANCH   4   5
ENDBRANCH   3   4
ENDBRANCH   2   3
ENDBRANCH   1   2
BRANCH   1  11
ATOM     11  C   UNL     1      53.686  25.054  49.406  1.00  0.00     0.000 C 
BRANCH  11  12
ATOM     12  C   UNL     1      53.721  24.790  50.921  1.00  0.00    -0.000 C 
BRANCH  12  13
ATOM     13  C   UNL     1      52.776  23.645  51.340  1.00  0.00    -0.000 C 
BRANCH  13  14
ATOM     14  C   UNL     1      52.857  23.291  52.838  1.00  0.00    -0.000 C 
BRANCH  14  15
ATOM     15  C   UNL     1      52.629  21.804  53.168  1.00  0.00    -0.000 C 
BRANCH  15  16
ATOM     16  C   UNL     1      51.312  21.499  53.907  1.00  0.00    -0.000 C 
BRANCH  16  17
ATOM     17  C   UNL     1      50.260  22.602  53.732  1.00  0.00    -0.003 C 
ATOM     18  C   UNL     1      49.254  22.237  52.645  1.00  0.00     0.004 C 
ENDBRANCH  16  17
ENDBRANCH  15  16
ENDBRANCH  14  15
ENDBRANCH  13  14
ENDBRANCH  12  13
ENDBRANCH  11  12
ENDBRANCH   1  11
TORSDOF 14
ENDMDL
MODEL 7
REMARK VINA RESULT:    -4.181      2.211      4.339
REMARK INTER + INTRA:          -9.592
REMARK INTER:                  -7.618
REMARK INTRA:                  -1.974
REMARK UNBOUND:                -1.989
REMARK SMILES CCCCCCCCCCCCCCCC(=O)[O-]
REMARK SMILES IDX 9 1 10 2 11 3 12 4 13 5 14 6 15 7 16 8 17 9 18 10 8 11 7 12
REMARK SMILES IDX 6 13 5 14 4 15 3 16 2 17 1 18
REMARK H PARENT
REMARK Flexibility Score: inf
ROOT
ATOM      1  C   UNL     1      56.070  22.639  49.139  1.00  0.00     0.000 C 
ENDROOT
BRANCH   1   2
ATOM      2  C   UNL     1      55.610  21.208  49.462  1.00  0.00     0.000 C 
BRANCH   2   3
ATOM      3  C   UNL     1      55.181  21.036  50.931  1.00  0.00     0.000 C 
BRANCH   3   4
ATOM      4  C   UNL     1      55.944  21.911  51.946  1.00  0.00     0.000 C 
BRANCH   4   5
ATOM      5  C   UNL     1      56.866  21.144  52.913  1.00  0.00     0.000 C 
BRANCH   5   6
ATOM      6  C   UNL     1      56.357  21.043  54.365  1.00  0.00     0.006 C 
BRANCH   6   7
ATOM      7  C   UNL     1      55.933  22.392  54.974  1.00  0.00     0.053 C 
BRANCH   7   8
ATOM      8  C   UNL     1      56.766  22.780  56.157  1.00  0.00     0.041 C 
ATOM      9  O   UNL     1      56.515  22.300  57.294  1.00  0.00    -0.550 OA
ATOM     10  O   UNL     1      57.844  23.642  55.998  1.00  0.00    -0.550 OA
ENDBRANCH   7   8
ENDBRANCH   6   7
ENDBRANCH   5   6
ENDBRANCH   4   5
ENDBRANCH   3   4
ENDBRANCH   2   3
ENDBRANCH   1   2
BRANCH   1  11
ATOM     11  C   UNL     1      55.171  23.329  48.101  1.00  0.00     0.000 C 
BRANCH  11  12
ATOM     12  C   UNL     1      53.763  23.634  48.641  1.00  0.00    -0.000 C 
BRANCH  12  13
ATOM     13  C   UNL     1      53.712  24.957  49.434  1.00  0.00    -0.000 C 
BRANCH  13  14
ATOM     14  C   UNL     1      53.632  24.761  50.960  1.00  0.00    -0.000 C 
BRANCH  14  15
ATOM     15  C   UNL     1      52.647  23.673  51.426  1.00  0.00    -0.000 C 
BRANCH  15  16
ATOM     16  C   UNL     1      52.888  23.148  52.854  1.00  0.00    -0.000 C 
BRANCH  16  17
ATOM     17  C   UNL     1      51.912  22.033  53.254  1.00  0.00    -0.003 C 
ATOM     18  C   UNL     1      52.632  20.913  54.000  1.00  0.00     0.004 C 
ENDBRANCH  16  17
ENDBRANCH  15  16
ENDBRANCH  14  15
ENDBRANCH  13  14
ENDBRANCH  12  13
ENDBRANCH  11  12
ENDBRANCH   1  11
TORSDOF 14
ENDMDL
MODEL 8
REMARK VINA RESULT:    -4.174      1.834      3.681
REMARK INTER + INTRA:          -9.579
REMARK INTER:                  -7.654
REMARK INTRA:                  -1.926
REMARK UNBOUND:                -1.989
REMARK SMILES CCCCCCCCCCCCCCCC(=O)[O-]
REMARK SMILES IDX 9 1 10 2 11 3 12 4 13 5 14 6 15 7 16 8 17 9 18 10 8 11 7 12
REMARK SMILES IDX 6 13 5 14 4 15 3 16 2 17 1 18
REMARK H PARENT
REMARK Flexibility Score: inf
ROOT
ATOM      1  C   UNL     1      55.723  21.810  52.006  1.00  0.00     0.000 C 
ENDROOT
BRANCH   1   2
ATOM      2  C   UNL     1      56.553  21.385  53.229  1.00  0.00     0.000 C 
BRANCH   2   3
ATOM      3  C   UNL     1      55.681  20.950  54.420  1.00  0.00     0.000 C 
BRANCH   3   4
ATOM      4  C   UNL     1      54.391  21.770  54.625  1.00  0.00     0.000 C 
BRANCH   4   5
ATOM      5  C   UNL     1      53.077  20.982  54.461  1.00  0.00     0.000 C 
BRANCH   5   6
ATOM      6  C   UNL     1      52.229  21.367  53.232  1.00  0.00     0.006 C 
BRANCH   6   7
ATOM      7  C   UNL     1      51.329  22.596  53.453  1.00  0.00     0.053 C 
BRANCH   7   8
ATOM      8  C   UNL     1      49.871  22.275  53.324  1.00  0.00     0.041 C 
ATOM      9  O   UNL     1      49.282  22.434  52.223  1.00  0.00    -0.550 OA
ATOM     10  O   UNL     1      49.172  21.765  54.411  1.00  0.00    -0.550 OA
ENDBRANCH   7   8
ENDBRANCH   6   7
ENDBRANCH   5   6
ENDBRANCH   4   5
ENDBRANCH   3   4
ENDBRANCH   2   3
ENDBRANCH   1   2
BRANCH   1  11
ATOM     11  C   UNL     1      55.943  23.283  51.625  1.00  0.00     0.000 C 
BRANCH  11  12
ATOM     12  C   UNL     1      54.652  24.116  51.698  1.00  0.00    -0.000 C 
BRANCH  12  13
ATOM     13  C   UNL     1      53.599  23.661  50.666  1.00  0.00    -0.000 C 
BRANCH  13  14
ATOM     14  C   UNL     1      53.731  24.360  49.298  1.00  0.00    -0.000 C 
BRANCH  14  15
ATOM     15  C   UNL     1      54.329  23.489  48.177  1.00  0.00    -0.000 C 
BRANCH  15  16
ATOM     16  C   UNL     1      55.720  23.931  47.686  1.00  0.00    -0.000 C 
BRANCH  16  17
ATOM     17  C   UNL     1      56.736  22.781  47.652  1.00  0.00    -0.003 C 
ATOM     18  C   UNL     1      56.201  21.552  48.381  1.00  0.00     0.004 C 
ENDBRANCH  16  17
ENDBRANCH  15  16
ENDBRANCH  14  15
ENDBRANCH  13  14
ENDBRANCH  12  13
ENDBRANCH  11  12
ENDBRANCH   1  11
TORSDOF 14
ENDMDL
MODEL 9
REMARK VINA RESULT:    -4.107      1.427      2.803
REMARK INTER + INTRA:          -9.458
REMARK INTER:                  -7.224
REMARK INTRA:                  -2.233
REMARK UNBOUND:                -1.989
REMARK SMILES CCCCCCCCCCCCCCCC(=O)[O-]
REMARK SMILES IDX 9 1 10 2 11 3 12 4 13 5 14 6 15 7 16 8 17 9 18 10 8 11 7 12
REMARK SMILES IDX 6 13 5 14 4 15 3 16 2 17 1 18
REMARK H PARENT
REMARK Flexibility Score: inf
ROOT
ATOM      1  C   UNL     1      55.854  24.283  51.501  1.00  0.00     0.000 C 
ENDROOT
BRANCH   1   2
ATOM      2  C   UNL     1      56.199  23.393  52.707  1.00  0.00     0.000 C 
BRANCH   2   3
ATOM      3  C   UNL     1      56.023  21.893  52.412  1.00  0.00     0.000 C 
BRANCH   3   4
ATOM      4  C   UNL     1      54.569  21.380  52.457  1.00  0.00     0.000 C 
BRANCH   4   5
ATOM      5  C   UNL     1      53.937  21.313  53.860  1.00  0.00     0.000 C 
BRANCH   5   6
ATOM      6  C   UNL     1      52.468  21.775  53.942  1.00  0.00     0.006 C 
BRANCH   6   7
ATOM      7  C   UNL     1      52.300  23.278  54.229  1.00  0.00     0.053 C 
BRANCH   7   8
ATOM      8  C   UNL     1      53.143  23.745  55.376  1.00  0.00     0.041 C 
ATOM      9  O   UNL     1      54.012  24.640  55.201  1.00  0.00    -0.550 OA
ATOM     10  O   UNL     1      52.945  23.219  56.646  1.00  0.00    -0.550 OA
ENDBRANCH   7   8
ENDBRANCH   6   7
ENDBRANCH   5   6
ENDBRANCH   4   5
ENDBRANCH   3   4
ENDBRANCH   2   3
ENDBRANCH   1   2
BRANCH   1  11
ATOM     11  C   UNL     1      54.479  24.956  51.638  1.00  0.00     0.000 C 
BRANCH  11  12
ATOM     12  C   UNL     1      53.431  24.372  50.675  1.00  0.00    -0.000 C 
BRANCH  12  13
ATOM     13  C   UNL     1      53.676  24.797  49.212  1.00  0.00    -0.000 C 
BRANCH  13  14
ATOM     14  C   UNL     1      53.999  23.620  48.271  1.00  0.00    -0.000 C 
BRANCH  14  15
ATOM     15  C   UNL     1      55.399  23.664  47.630  1.00  0.00    -0.000 C 
BRANCH  15  16
ATOM     16  C   UNL     1      56.398  22.631  48.186  1.00  0.00    -0.000 C 
BRANCH  16  17
ATOM     17  C   UNL     1      55.715  21.486  48.945  1.00  0.00    -0.003 C 
ATOM     18  C   UNL     1      56.412  20.156  48.678  1.00  0.00     0.004 C 
ENDBRANCH  16  17
ENDBRANCH  15  16
ENDBRANCH  14  15
ENDBRANCH  13  14
ENDBRANCH  12  13
ENDBRANCH  11  12
ENDBRANCH   1  11
TORSDOF 14
ENDMDL
