MODEL 1
REMARK VINA RESULT:    -6.538      0.000      0.000
REMARK INTER + INTRA:         -11.241
REMARK INTER:                  -9.405
REMARK INTRA:                  -1.836
REMARK UNBOUND:                -1.836
REMARK SMILES O=c1c(O[C@@H]2O[C@@H](CO)[C@H](O)[C@@H](O)[C@@H]2O)c(-c2ccc(O)cc2)oc2cc(O)cc(O)c12
REMARK SMILES IDX 4 1 3 2 16 3 24 4 2 5 25 6 1 7 32 8 26 9 30 10 27 11 29 12
REMARK SMILES IDX 17 13 18 14 19 15 20 16 23 17 22 18 21 19 31 21 28 23 5 25
REMARK SMILES IDX 14 26 6 27 12 28 7 29 10 30 15 31 13 33 8 35 9 36 11 38
REMARK H PARENT 21 20 31 22 28 24 15 32 13 34 9 37 11 39
REMARK Flexibility Score: inf
ROOT
ATOM      1  O   UNL     1     -36.439   6.148  79.308  1.00  0.00    -0.454 OA
ENDROOT
BRANCH   1   2
ATOM      2  C   UNL     1     -37.585   5.514  79.807  1.00  0.00     0.214 A 
ATOM      3  C   UNL     1     -38.879   5.892  79.402  1.00  0.00     0.180 A 
ATOM      4  O   UNL     1     -39.936   5.343  79.991  1.00  0.00    -0.452 OA
ATOM      5  C   UNL     1     -37.439   4.490  80.748  1.00  0.00     0.239 A 
ATOM      6  C   UNL     1     -39.847   4.392  80.912  1.00  0.00     0.146 A 
ATOM      7  O   UNL     1     -36.276   4.173  81.112  1.00  0.00    -0.285 OA
ATOM      8  C   UNL     1     -38.585   3.873  81.305  1.00  0.00     0.111 A 
ATOM      9  C   UNL     1     -41.024   3.907  81.487  1.00  0.00     0.094 A 
ATOM     10  C   UNL     1     -38.553   2.810  82.255  1.00  0.00     0.134 A 
ATOM     11  C   UNL     1     -40.977   2.910  82.459  1.00  0.00     0.123 A 
ATOM     12  C   UNL     1     -39.747   2.369  82.840  1.00  0.00     0.093 A 
BRANCH   3  13
ATOM     13  C   UNL     1     -39.114   6.879  78.328  1.00  0.00     0.021 A 
ATOM     14  C   UNL     1     -39.760   8.099  78.595  1.00  0.00     0.016 A 
ATOM     15  C   UNL     1     -39.966   9.028  77.571  1.00  0.00     0.047 A 
ATOM     16  C   UNL     1     -39.514   8.758  76.275  1.00  0.00     0.115 A 
ATOM     17  C   UNL     1     -38.641   6.624  77.031  1.00  0.00     0.016 A 
ATOM     18  C   UNL     1     -38.848   7.555  76.008  1.00  0.00     0.047 A 
BRANCH  16  19
ATOM     19  O   UNL     1     -39.728   9.691  75.263  1.00  0.00    -0.508 OA
ATOM     20  H   UNL     1     -39.423  10.652  75.356  1.00  0.00     0.293 HD
ENDBRANCH  16  19
ENDBRANCH   3  13
BRANCH  10  21
ATOM     21  O   UNL     1     -37.386   2.142  82.639  1.00  0.00    -0.507 OA
ATOM     22  H   UNL     1     -36.671   1.823  82.004  1.00  0.00     0.293 HD
ENDBRANCH  10  21
BRANCH  11  23
ATOM     23  O   UNL     1     -42.162   2.456  83.034  1.00  0.00    -0.508 OA
ATOM     24  H   UNL     1     -42.988   2.279  82.475  1.00  0.00     0.293 HD
ENDBRANCH  11  23
ENDBRANCH   1   2
BRANCH   1  25
ATOM     25  C   UNL     1     -35.730   7.166  80.028  1.00  0.00     0.339 C 
ATOM     26  C   UNL     1     -34.215   6.909  79.991  1.00  0.00     0.214 C 
ATOM     27  O   UNL     1     -36.038   8.453  79.519  1.00  0.00    -0.332 OA
ATOM     28  C   UNL     1     -33.688   7.070  78.554  1.00  0.00     0.180 C 
ATOM     29  C   UNL     1     -35.678   8.577  78.152  1.00  0.00     0.179 C 
ATOM     30  C   UNL     1     -34.148   8.419  77.974  1.00  0.00     0.177 C 
BRANCH  26  31
ATOM     31  O   UNL     1     -33.949   5.615  80.467  1.00  0.00    -0.384 OA
ATOM     32  H   UNL     1     -33.107   5.667  80.991  1.00  0.00     0.211 HD
ENDBRANCH  26  31
BRANCH  28  33
ATOM     33  O   UNL     1     -32.284   7.020  78.550  1.00  0.00    -0.387 OA
ATOM     34  H   UNL     1     -32.009   6.716  77.645  1.00  0.00     0.211 HD
ENDBRANCH  28  33
BRANCH  29  35
ATOM     35  C   UNL     1     -36.160   9.955  77.667  1.00  0.00     0.191 C 
BRANCH  35  36
ATOM     36  O   UNL     1     -36.227  10.009  76.267  1.00  0.00    -0.394 OA
ATOM     37  H   UNL     1     -36.467  10.942  76.029  1.00  0.00     0.210 HD
ENDBRANCH  35  36
ENDBRANCH  29  35
BRANCH  30  38
ATOM     38  O   UNL     1     -33.818   8.477  76.609  1.00  0.00    -0.387 OA
ATOM     39  H   UNL     1     -34.010   7.582  76.227  1.00  0.00     0.211 HD
ENDBRANCH  30  38
ENDBRANCH   1  25
TORSDOF 11
ENDMDL
MODEL 2
REMARK VINA RESULT:    -5.863      2.788      4.994
REMARK INTER + INTRA:         -10.270
REMARK INTER:                 -10.186
REMARK INTRA:                  -0.084
REMARK UNBOUND:                -1.836
REMARK SMILES O=c1c(O[C@@H]2O[C@@H](CO)[C@H](O)[C@@H](O)[C@@H]2O)c(-c2ccc(O)cc2)oc2cc(O)cc(O)c12
REMARK SMILES IDX 4 1 3 2 16 3 24 4 2 5 25 6 1 7 32 8 26 9 30 10 27 11 29 12
REMARK SMILES IDX 17 13 18 14 19 15 20 16 23 17 22 18 21 19 31 21 28 23 5 25
REMARK SMILES IDX 14 26 6 27 12 28 7 29 10 30 15 31 13 33 8 35 9 36 11 38
REMARK H PARENT 21 20 31 22 28 24 15 32 13 34 9 37 11 39
REMARK Flexibility Score: inf
ROOT
ATOM      1  O   UNL     1     -37.930   5.968  81.475  1.00  0.00    -0.454 OA
ENDROOT
BRANCH   1   2
ATOM      2  C   UNL     1     -38.567   5.218  80.478  1.00  0.00     0.214 A 
ATOM      3  C   UNL     1     -37.968   4.984  79.226  1.00  0.00     0.180 A 
ATOM      4  O   UNL     1     -38.659   4.369  78.273  1.00  0.00    -0.452 OA
ATOM      5  C   UNL     1     -39.843   4.702  80.728  1.00  0.00     0.239 A 
ATOM      6  C   UNL     1     -39.885   3.892  78.452  1.00  0.00     0.146 A 
ATOM      7  O   UNL     1     -40.373   4.932  81.846  1.00  0.00    -0.285 OA
ATOM      8  C   UNL     1     -40.527   3.987  79.715  1.00  0.00     0.111 A 
ATOM      9  C   UNL     1     -40.531   3.289  77.370  1.00  0.00     0.094 A 
ATOM     10  C   UNL     1     -41.820   3.404  79.866  1.00  0.00     0.134 A 
ATOM     11  C   UNL     1     -41.818   2.776  77.513  1.00  0.00     0.123 A 
ATOM     12  C   UNL     1     -42.456   2.837  78.755  1.00  0.00     0.093 A 
BRANCH   3  13
ATOM     13  C   UNL     1     -36.579   5.391  78.927  1.00  0.00     0.021 A 
ATOM     14  C   UNL     1     -36.301   6.633  78.329  1.00  0.00     0.016 A 
ATOM     15  C   UNL     1     -34.982   7.009  78.061  1.00  0.00     0.047 A 
ATOM     16  C   UNL     1     -33.925   6.159  78.405  1.00  0.00     0.115 A 
ATOM     17  C   UNL     1     -35.513   4.553  79.291  1.00  0.00     0.016 A 
ATOM     18  C   UNL     1     -34.194   4.931  79.023  1.00  0.00     0.047 A 
BRANCH  16  19
ATOM     19  O   UNL     1     -32.615   6.545  78.130  1.00  0.00    -0.508 OA
ATOM     20  H   UNL     1     -32.068   7.074  78.799  1.00  0.00     0.293 HD
ENDBRANCH  16  19
ENDBRANCH   3  13
BRANCH  10  21
ATOM     21  O   UNL     1     -42.507   3.334  81.081  1.00  0.00    -0.507 OA
ATOM     22  H   UNL     1     -42.356   2.630  81.787  1.00  0.00     0.293 HD
ENDBRANCH  10  21
BRANCH  11  23
ATOM     23  O   UNL     1     -42.452   2.197  76.416  1.00  0.00    -0.508 OA
ATOM     24  H   UNL     1     -41.998   1.485  75.857  1.00  0.00     0.293 HD
ENDBRANCH  11  23
ENDBRANCH   1   2
BRANCH   1  25
ATOM     25  C   UNL     1     -37.868   5.556  82.848  1.00  0.00     0.339 C 
ATOM     26  C   UNL     1     -37.055   4.260  82.995  1.00  0.00     0.214 C 
ATOM     27  O   UNL     1     -37.331   6.586  83.662  1.00  0.00    -0.332 OA
ATOM     28  C   UNL     1     -35.579   4.521  82.645  1.00  0.00     0.180 C 
ATOM     29  C   UNL     1     -36.013   6.933  83.267  1.00  0.00     0.179 C 
ATOM     30  C   UNL     1     -35.056   5.728  83.443  1.00  0.00     0.177 C 
BRANCH  26  31
ATOM     31  O   UNL     1     -37.591   3.274  82.151  1.00  0.00    -0.384 OA
ATOM     32  H   UNL     1     -37.006   3.228  81.350  1.00  0.00     0.211 HD
ENDBRANCH  26  31
BRANCH  28  33
ATOM     33  O   UNL     1     -34.806   3.390  82.957  1.00  0.00    -0.387 OA
ATOM     34  H   UNL     1     -35.167   3.018  83.803  1.00  0.00     0.211 HD
ENDBRANCH  28  33
BRANCH  29  35
ATOM     35  C   UNL     1     -35.570   8.130  84.125  1.00  0.00     0.191 C 
BRANCH  35  36
ATOM     36  O   UNL     1     -34.358   8.666  83.668  1.00  0.00    -0.394 OA
ATOM     37  H   UNL     1     -33.705   8.566  84.408  1.00  0.00     0.210 HD
ENDBRANCH  35  36
ENDBRANCH  29  35
BRANCH  30  38
ATOM     38  O   UNL     1     -33.772   6.068  82.985  1.00  0.00    -0.387 OA
ATOM     39  H   UNL     1     -33.124   5.714  83.649  1.00  0.00     0.211 HD
ENDBRANCH  30  38
ENDBRANCH   1  25
TORSDOF 11
ENDMDL
MODEL 3
REMARK VINA RESULT:    -5.793      1.639      4.662
REMARK INTER + INTRA:         -10.168
REMARK INTER:                  -8.850
REMARK INTRA:                  -1.318
REMARK UNBOUND:                -1.836
REMARK SMILES O=c1c(O[C@@H]2O[C@@H](CO)[C@H](O)[C@@H](O)[C@@H]2O)c(-c2ccc(O)cc2)oc2cc(O)cc(O)c12
REMARK SMILES IDX 4 1 3 2 16 3 24 4 2 5 25 6 1 7 32 8 26 9 30 10 27 11 29 12
REMARK SMILES IDX 17 13 18 14 19 15 20 16 23 17 22 18 21 19 31 21 28 23 5 25
REMARK SMILES IDX 14 26 6 27 12 28 7 29 10 30 15 31 13 33 8 35 9 36 11 38
REMARK H PARENT 21 20 31 22 28 24 15 32 13 34 9 37 11 39
REMARK Flexibility Score: inf
ROOT
ATOM      1  O   UNL     1     -38.561   6.448  78.651  1.00  0.00    -0.454 OA
ENDROOT
BRANCH   1   2
ATOM      2  C   UNL     1     -38.553   5.493  79.675  1.00  0.00     0.214 A 
ATOM      3  C   UNL     1     -37.353   4.997  80.220  1.00  0.00     0.180 A 
ATOM      4  O   UNL     1     -37.395   4.007  81.104  1.00  0.00    -0.452 OA
ATOM      5  C   UNL     1     -39.772   5.003  80.157  1.00  0.00     0.239 A 
ATOM      6  C   UNL     1     -38.526   3.487  81.566  1.00  0.00     0.146 A 
ATOM      7  O   UNL     1     -40.836   5.444  79.649  1.00  0.00    -0.285 OA
ATOM      8  C   UNL     1     -39.785   3.997  81.154  1.00  0.00     0.111 A 
ATOM      9  C   UNL     1     -38.452   2.427  82.473  1.00  0.00     0.094 A 
ATOM     10  C   UNL     1     -40.966   3.441  81.728  1.00  0.00     0.134 A 
ATOM     11  C   UNL     1     -39.614   1.851  82.982  1.00  0.00     0.123 A 
ATOM     12  C   UNL     1     -40.861   2.356  82.608  1.00  0.00     0.093 A 
BRANCH   3  13
ATOM     13  C   UNL     1     -36.033   5.547  79.851  1.00  0.00     0.021 A 
ATOM     14  C   UNL     1     -35.505   6.669  80.514  1.00  0.00     0.016 A 
ATOM     15  C   UNL     1     -34.249   7.172  80.161  1.00  0.00     0.047 A 
ATOM     16  C   UNL     1     -33.500   6.551  79.157  1.00  0.00     0.115 A 
ATOM     17  C   UNL     1     -35.265   4.914  78.860  1.00  0.00     0.016 A 
ATOM     18  C   UNL     1     -34.010   5.418  78.509  1.00  0.00     0.047 A 
BRANCH  16  19
ATOM     19  O   UNL     1     -32.251   7.064  78.813  1.00  0.00    -0.508 OA
ATOM     20  H   UNL     1     -31.577   7.334  79.519  1.00  0.00     0.293 HD
ENDBRANCH  16  19
ENDBRANCH   3  13
BRANCH  10  21
ATOM     21  O   UNL     1     -42.254   3.928  81.488  1.00  0.00    -0.507 OA
ATOM     22  H   UNL     1     -42.670   4.029  80.576  1.00  0.00     0.293 HD
ENDBRANCH  10  21
BRANCH  11  23
ATOM     23  O   UNL     1     -39.517   0.781  83.870  1.00  0.00    -0.508 OA
ATOM     24  H   UNL     1     -38.677   0.220  83.933  1.00  0.00     0.293 HD
ENDBRANCH  11  23
ENDBRANCH   1   2
BRANCH   1  25
ATOM     25  C   UNL     1     -38.296   7.840  78.875  1.00  0.00     0.339 C 
ATOM     26  C   UNL     1     -37.607   8.470  77.654  1.00  0.00     0.214 C 
ATOM     27  O   UNL     1     -39.488   8.537  79.198  1.00  0.00    -0.332 OA
ATOM     28  C   UNL     1     -38.572   8.490  76.455  1.00  0.00     0.180 C 
ATOM     29  C   UNL     1     -40.445   8.454  78.153  1.00  0.00     0.179 C 
ATOM     30  C   UNL     1     -39.908   9.131  76.868  1.00  0.00     0.177 C 
BRANCH  26  31
ATOM     31  O   UNL     1     -36.451   7.736  77.340  1.00  0.00    -0.384 OA
ATOM     32  H   UNL     1     -36.234   7.183  78.135  1.00  0.00     0.211 HD
ENDBRANCH  26  31
BRANCH  28  33
ATOM     33  O   UNL     1     -38.011   9.229  75.401  1.00  0.00    -0.387 OA
ATOM     34  H   UNL     1     -37.089   8.885  75.266  1.00  0.00     0.211 HD
ENDBRANCH  28  33
BRANCH  29  35
ATOM     35  C   UNL     1     -41.734   9.131  78.648  1.00  0.00     0.191 C 
BRANCH  35  36
ATOM     36  O   UNL     1     -42.778   8.980  77.724  1.00  0.00    -0.394 OA
ATOM     37  H   UNL     1     -43.624   9.069  78.233  1.00  0.00     0.210 HD
ENDBRANCH  35  36
ENDBRANCH  29  35
BRANCH  30  38
ATOM     38  O   UNL     1     -40.839   8.981  75.826  1.00  0.00    -0.387 OA
ATOM     39  H   UNL     1     -40.784   9.800  75.268  1.00  0.00     0.211 HD
ENDBRANCH  30  38
ENDBRANCH   1  25
TORSDOF 11
ENDMDL
MODEL 4
REMARK VINA RESULT:    -5.720      2.647      4.448
REMARK INTER + INTRA:         -10.064
REMARK INTER:                  -9.185
REMARK INTRA:                  -0.879
REMARK UNBOUND:                -1.836
REMARK SMILES O=c1c(O[C@@H]2O[C@@H](CO)[C@H](O)[C@@H](O)[C@@H]2O)c(-c2ccc(O)cc2)oc2cc(O)cc(O)c12
REMARK SMILES IDX 4 1 3 2 16 3 24 4 2 5 25 6 1 7 32 8 26 9 30 10 27 11 29 12
REMARK SMILES IDX 17 13 18 14 19 15 20 16 23 17 22 18 21 19 31 21 28 23 5 25
REMARK SMILES IDX 14 26 6 27 12 28 7 29 10 30 15 31 13 33 8 35 9 36 11 38
REMARK H PARENT 21 20 31 22 28 24 15 32 13 34 9 37 11 39
REMARK Flexibility Score: inf
ROOT
ATOM      1  O   UNL     1     -37.962   5.948  81.518  1.00  0.00    -0.454 OA
ENDROOT
BRANCH   1   2
ATOM      2  C   UNL     1     -38.606   5.203  80.521  1.00  0.00     0.214 A 
ATOM      3  C   UNL     1     -38.019   4.984  79.260  1.00  0.00     0.180 A 
ATOM      4  O   UNL     1     -38.717   4.372  78.310  1.00  0.00    -0.452 OA
ATOM      5  C   UNL     1     -39.876   4.676  80.781  1.00  0.00     0.239 A 
ATOM      6  C   UNL     1     -39.938   3.886  78.498  1.00  0.00     0.146 A 
ATOM      7  O   UNL     1     -40.395   4.894  81.907  1.00  0.00    -0.285 OA
ATOM      8  C   UNL     1     -40.567   3.966  79.769  1.00  0.00     0.111 A 
ATOM      9  C   UNL     1     -40.593   3.288  77.419  1.00  0.00     0.094 A 
ATOM     10  C   UNL     1     -41.854   3.373  79.930  1.00  0.00     0.134 A 
ATOM     11  C   UNL     1     -41.875   2.766  77.572  1.00  0.00     0.123 A 
ATOM     12  C   UNL     1     -42.499   2.812  78.821  1.00  0.00     0.093 A 
BRANCH   3  13
ATOM     13  C   UNL     1     -36.637   5.402  78.950  1.00  0.00     0.021 A 
ATOM     14  C   UNL     1     -36.385   6.512  78.124  1.00  0.00     0.016 A 
ATOM     15  C   UNL     1     -35.071   6.903  77.847  1.00  0.00     0.047 A 
ATOM     16  C   UNL     1     -33.997   6.202  78.405  1.00  0.00     0.115 A 
ATOM     17  C   UNL     1     -35.555   4.718  79.526  1.00  0.00     0.016 A 
ATOM     18  C   UNL     1     -34.242   5.110  79.248  1.00  0.00     0.047 A 
BRANCH  16  19
ATOM     19  O   UNL     1     -32.693   6.600  78.118  1.00  0.00    -0.508 OA
ATOM     20  H   UNL     1     -32.279   6.441  77.208  1.00  0.00     0.293 HD
ENDBRANCH  16  19
ENDBRANCH   3  13
BRANCH  10  21
ATOM     21  O   UNL     1     -42.527   3.288  81.153  1.00  0.00    -0.507 OA
ATOM     22  H   UNL     1     -42.124   3.518  82.048  1.00  0.00     0.293 HD
ENDBRANCH  10  21
BRANCH  11  23
ATOM     23  O   UNL     1     -42.518   2.192  76.477  1.00  0.00    -0.508 OA
ATOM     24  H   UNL     1     -42.381   2.546  75.537  1.00  0.00     0.293 HD
ENDBRANCH  11  23
ENDBRANCH   1   2
BRANCH   1  25
ATOM     25  C   UNL     1     -38.587   7.042  82.206  1.00  0.00     0.339 C 
ATOM     26  C   UNL     1     -37.636   7.647  83.250  1.00  0.00     0.214 C 
ATOM     27  O   UNL     1     -39.028   8.030  81.289  1.00  0.00    -0.332 OA
ATOM     28  C   UNL     1     -36.440   8.316  82.549  1.00  0.00     0.180 C 
ATOM     29  C   UNL     1     -37.950   8.567  80.537  1.00  0.00     0.179 C 
ATOM     30  C   UNL     1     -36.942   9.287  81.466  1.00  0.00     0.177 C 
BRANCH  26  31
ATOM     31  O   UNL     1     -37.192   6.636  84.118  1.00  0.00    -0.384 OA
ATOM     32  H   UNL     1     -36.801   7.087  84.911  1.00  0.00     0.211 HD
ENDBRANCH  26  31
BRANCH  28  33
ATOM     33  O   UNL     1     -35.672   9.027  83.487  1.00  0.00    -0.387 OA
ATOM     34  H   UNL     1     -36.092   8.881  84.374  1.00  0.00     0.211 HD
ENDBRANCH  28  33
BRANCH  29  35
ATOM     35  C   UNL     1     -38.543   9.532  79.497  1.00  0.00     0.191 C 
BRANCH  35  36
ATOM     36  O   UNL     1     -37.627   9.806  78.472  1.00  0.00    -0.394 OA
ATOM     37  H   UNL     1     -37.561  10.794  78.404  1.00  0.00     0.210 HD
ENDBRANCH  35  36
ENDBRANCH  29  35
BRANCH  30  38
ATOM     38  O   UNL     1     -35.850   9.753  80.715  1.00  0.00    -0.387 OA
ATOM     39  H   UNL     1     -35.348  10.384  81.294  1.00  0.00     0.211 HD
ENDBRANCH  30  38
ENDBRANCH   1  25
TORSDOF 11
ENDMDL
MODEL 5
REMARK VINA RESULT:    -5.687      1.091      2.599
REMARK INTER + INTRA:         -10.016
REMARK INTER:                  -9.274
REMARK INTRA:                  -0.742
REMARK UNBOUND:                -1.836
REMARK SMILES O=c1c(O[C@@H]2O[C@@H](CO)[C@H](O)[C@@H](O)[C@@H]2O)c(-c2ccc(O)cc2)oc2cc(O)cc(O)c12
REMARK SMILES IDX 4 1 3 2 16 3 24 4 2 5 25 6 1 7 32 8 26 9 30 10 27 11 29 12
REMARK SMILES IDX 17 13 18 14 19 15 20 16 23 17 22 18 21 19 31 21 28 23 5 25
REMARK SMILES IDX 14 26 6 27 12 28 7 29 10 30 15 31 13 33 8 35 9 36 11 38
REMARK H PARENT 21 20 31 22 28 24 15 32 13 34 9 37 11 39
REMARK Flexibility Score: inf
ROOT
ATOM      1  O   UNL     1     -36.877   7.369  79.265  1.00  0.00    -0.454 OA
ENDROOT
BRANCH   1   2
ATOM      2  C   UNL     1     -37.874   6.490  79.707  1.00  0.00     0.214 A 
ATOM      3  C   UNL     1     -39.199   6.573  79.238  1.00  0.00     0.180 A 
ATOM      4  O   UNL     1     -40.133   5.796  79.774  1.00  0.00    -0.452 OA
ATOM      5  C   UNL     1     -37.548   5.514  80.654  1.00  0.00     0.239 A 
ATOM      6  C   UNL     1     -39.879   4.879  80.699  1.00  0.00     0.146 A 
ATOM      7  O   UNL     1     -36.363   5.461  81.076  1.00  0.00    -0.285 OA
ATOM      8  C   UNL     1     -38.553   4.650  81.154  1.00  0.00     0.111 A 
ATOM      9  C   UNL     1     -40.944   4.136  81.214  1.00  0.00     0.094 A 
ATOM     10  C   UNL     1     -38.330   3.612  82.105  1.00  0.00     0.134 A 
ATOM     11  C   UNL     1     -40.722   3.165  82.188  1.00  0.00     0.123 A 
ATOM     12  C   UNL     1     -39.422   2.908  82.629  1.00  0.00     0.093 A 
BRANCH   3  13
ATOM     13  C   UNL     1     -39.596   7.494  78.154  1.00  0.00     0.021 A 
ATOM     14  C   UNL     1     -39.090   7.340  76.851  1.00  0.00     0.016 A 
ATOM     15  C   UNL     1     -39.482   8.213  75.832  1.00  0.00     0.047 A 
ATOM     16  C   UNL     1     -40.398   9.237  76.098  1.00  0.00     0.115 A 
ATOM     17  C   UNL     1     -40.533   8.509  78.408  1.00  0.00     0.016 A 
ATOM     18  C   UNL     1     -40.925   9.381  77.388  1.00  0.00     0.047 A 
BRANCH  16  19
ATOM     19  O   UNL     1     -40.778  10.102  75.074  1.00  0.00    -0.508 OA
ATOM     20  H   UNL     1     -40.093  10.560  74.486  1.00  0.00     0.293 HD
ENDBRANCH  16  19
ENDBRANCH   3  13
BRANCH  10  21
ATOM     21  O   UNL     1     -37.063   3.217  82.546  1.00  0.00    -0.507 OA
ATOM     22  H   UNL     1     -36.811   2.275  82.802  1.00  0.00     0.293 HD
ENDBRANCH  10  21
BRANCH  11  23
ATOM     23  O   UNL     1     -41.802   2.450  82.703  1.00  0.00    -0.508 OA
ATOM     24  H   UNL     1     -41.919   1.461  82.518  1.00  0.00     0.293 HD
ENDBRANCH  11  23
ENDBRANCH   1   2
BRANCH   1  25
ATOM     25  C   UNL     1     -36.187   7.210  78.017  1.00  0.00     0.339 C 
ATOM     26  C   UNL     1     -35.485   8.515  77.609  1.00  0.00     0.214 C 
ATOM     27  O   UNL     1     -35.263   6.137  78.083  1.00  0.00    -0.332 OA
ATOM     28  C   UNL     1     -34.347   8.832  78.595  1.00  0.00     0.180 C 
ATOM     29  C   UNL     1     -34.278   6.353  79.083  1.00  0.00     0.179 C 
ATOM     30  C   UNL     1     -33.431   7.606  78.753  1.00  0.00     0.177 C 
BRANCH  26  31
ATOM     31  O   UNL     1     -36.421   9.562  77.588  1.00  0.00    -0.384 OA
ATOM     32  H   UNL     1     -36.302  10.040  76.726  1.00  0.00     0.211 HD
ENDBRANCH  26  31
BRANCH  28  33
ATOM     33  O   UNL     1     -33.590   9.917  78.121  1.00  0.00    -0.387 OA
ATOM     34  H   UNL     1     -34.211  10.687  78.037  1.00  0.00     0.211 HD
ENDBRANCH  28  33
BRANCH  29  35
ATOM     35  C   UNL     1     -33.405   5.089  79.157  1.00  0.00     0.191 C 
BRANCH  35  36
ATOM     36  O   UNL     1     -33.626   4.384  80.349  1.00  0.00    -0.394 OA
ATOM     37  H   UNL     1     -32.940   4.696  80.995  1.00  0.00     0.210 HD
ENDBRANCH  35  36
ENDBRANCH  29  35
BRANCH  30  38
ATOM     38  O   UNL     1     -32.508   7.843  79.785  1.00  0.00    -0.387 OA
ATOM     39  H   UNL     1     -32.053   8.700  79.576  1.00  0.00     0.211 HD
ENDBRANCH  30  38
ENDBRANCH   1  25
TORSDOF 11
ENDMDL
MODEL 6
REMARK VINA RESULT:    -5.545      2.185      6.298
REMARK INTER + INTRA:          -9.812
REMARK INTER:                  -7.919
REMARK INTRA:                  -1.892
REMARK UNBOUND:                -1.836
REMARK SMILES O=c1c(O[C@@H]2O[C@@H](CO)[C@H](O)[C@@H](O)[C@@H]2O)c(-c2ccc(O)cc2)oc2cc(O)cc(O)c12
REMARK SMILES IDX 4 1 3 2 16 3 24 4 2 5 25 6 1 7 32 8 26 9 30 10 27 11 29 12
REMARK SMILES IDX 17 13 18 14 19 15 20 16 23 17 22 18 21 19 31 21 28 23 5 25
REMARK SMILES IDX 14 26 6 27 12 28 7 29 10 30 15 31 13 33 8 35 9 36 11 38
REMARK H PARENT 21 20 31 22 28 24 15 32 13 34 9 37 11 39
REMARK Flexibility Score: inf
ROOT
ATOM      1  O   UNL     1     -37.263   5.676  80.854  1.00  0.00    -0.454 OA
ENDROOT
BRANCH   1   2
ATOM      2  C   UNL     1     -36.183   6.568  80.821  1.00  0.00     0.214 A 
ATOM      3  C   UNL     1     -35.976   7.446  79.741  1.00  0.00     0.180 A 
ATOM      4  O   UNL     1     -34.874   8.187  79.700  1.00  0.00    -0.452 OA
ATOM      5  C   UNL     1     -35.273   6.572  81.884  1.00  0.00     0.239 A 
ATOM      6  C   UNL     1     -33.966   8.200  80.667  1.00  0.00     0.146 A 
ATOM      7  O   UNL     1     -35.462   5.770  82.836  1.00  0.00    -0.285 OA
ATOM      8  C   UNL     1     -34.145   7.427  81.845  1.00  0.00     0.111 A 
ATOM      9  C   UNL     1     -32.829   8.995  80.506  1.00  0.00     0.094 A 
ATOM     10  C   UNL     1     -33.166   7.525  82.878  1.00  0.00     0.134 A 
ATOM     11  C   UNL     1     -31.851   9.037  81.496  1.00  0.00     0.123 A 
ATOM     12  C   UNL     1     -32.021   8.304  82.673  1.00  0.00     0.093 A 
BRANCH   3  13
ATOM     13  C   UNL     1     -36.952   7.587  78.640  1.00  0.00     0.021 A 
ATOM     14  C   UNL     1     -38.105   8.378  78.792  1.00  0.00     0.016 A 
ATOM     15  C   UNL     1     -39.014   8.510  77.739  1.00  0.00     0.047 A 
ATOM     16  C   UNL     1     -38.775   7.870  76.519  1.00  0.00     0.115 A 
ATOM     17  C   UNL     1     -36.706   6.966  77.405  1.00  0.00     0.016 A 
ATOM     18  C   UNL     1     -37.616   7.100  76.353  1.00  0.00     0.047 A 
BRANCH  16  19
ATOM     19  O   UNL     1     -39.691   8.008  75.478  1.00  0.00    -0.508 OA
ATOM     20  H   UNL     1     -39.699   7.370  74.691  1.00  0.00     0.293 HD
ENDBRANCH  16  19
ENDBRANCH   3  13
BRANCH  10  21
ATOM     21  O   UNL     1     -33.283   6.903  84.125  1.00  0.00    -0.507 OA
ATOM     22  H   UNL     1     -33.570   5.947  84.266  1.00  0.00     0.293 HD
ENDBRANCH  10  21
BRANCH  11  23
ATOM     23  O   UNL     1     -30.715   9.822  81.306  1.00  0.00    -0.508 OA
ATOM     24  H   UNL     1     -29.958   9.831  81.979  1.00  0.00     0.293 HD
ENDBRANCH  11  23
ENDBRANCH   1   2
BRANCH   1  25
ATOM     25  C   UNL     1     -37.191   4.337  80.344  1.00  0.00     0.339 C 
ATOM     26  C   UNL     1     -37.786   3.336  81.346  1.00  0.00     0.214 C 
ATOM     27  O   UNL     1     -37.839   4.240  79.086  1.00  0.00    -0.332 OA
ATOM     28  C   UNL     1     -39.300   3.570  81.491  1.00  0.00     0.180 C 
ATOM     29  C   UNL     1     -39.213   4.583  79.176  1.00  0.00     0.179 C 
ATOM     30  C   UNL     1     -39.962   3.594  80.102  1.00  0.00     0.177 C 
BRANCH  26  31
ATOM     31  O   UNL     1     -37.147   3.483  82.588  1.00  0.00    -0.384 OA
ATOM     32  H   UNL     1     -36.358   4.068  82.441  1.00  0.00     0.211 HD
ENDBRANCH  26  31
BRANCH  28  33
ATOM     33  O   UNL     1     -39.873   2.543  82.259  1.00  0.00    -0.387 OA
ATOM     34  H   UNL     1     -40.396   1.975  81.636  1.00  0.00     0.211 HD
ENDBRANCH  28  33
BRANCH  29  35
ATOM     35  C   UNL     1     -39.792   4.564  77.751  1.00  0.00     0.191 C 
BRANCH  35  36
ATOM     36  O   UNL     1     -40.231   3.281  77.394  1.00  0.00    -0.394 OA
ATOM     37  H   UNL     1     -41.140   3.387  77.010  1.00  0.00     0.210 HD
ENDBRANCH  35  36
ENDBRANCH  29  35
BRANCH  30  38
ATOM     38  O   UNL     1     -41.305   3.987  80.233  1.00  0.00    -0.387 OA
ATOM     39  H   UNL     1     -41.571   4.402  79.372  1.00  0.00     0.211 HD
ENDBRANCH  30  38
ENDBRANCH   1  25
TORSDOF 11
ENDMDL
MODEL 7
REMARK VINA RESULT:    -5.353      2.550      6.898
REMARK INTER + INTRA:          -9.536
REMARK INTER:                  -9.116
REMARK INTRA:                  -0.420
REMARK UNBOUND:                -1.836
REMARK SMILES O=c1c(O[C@@H]2O[C@@H](CO)[C@H](O)[C@@H](O)[C@@H]2O)c(-c2ccc(O)cc2)oc2cc(O)cc(O)c12
REMARK SMILES IDX 4 1 3 2 16 3 24 4 2 5 25 6 1 7 32 8 26 9 30 10 27 11 29 12
REMARK SMILES IDX 17 13 18 14 19 15 20 16 23 17 22 18 21 19 31 21 28 23 5 25
REMARK SMILES IDX 14 26 6 27 12 28 7 29 10 30 15 31 13 33 8 35 9 36 11 38
REMARK H PARENT 21 20 31 22 28 24 15 32 13 34 9 37 11 39
REMARK Flexibility Score: inf
ROOT
ATOM      1  O   UNL     1     -37.123   3.869  79.283  1.00  0.00    -0.454 OA
ENDROOT
BRANCH   1   2
ATOM      2  C   UNL     1     -36.379   4.801  80.019  1.00  0.00     0.214 A 
ATOM      3  C   UNL     1     -36.734   5.169  81.330  1.00  0.00     0.180 A 
ATOM      4  O   UNL     1     -36.069   6.142  81.942  1.00  0.00    -0.452 OA
ATOM      5  C   UNL     1     -35.262   5.399  79.425  1.00  0.00     0.239 A 
ATOM      6  C   UNL     1     -35.024   6.761  81.406  1.00  0.00     0.146 A 
ATOM      7  O   UNL     1     -34.965   5.073  78.245  1.00  0.00    -0.285 OA
ATOM      8  C   UNL     1     -34.528   6.383  80.130  1.00  0.00     0.111 A 
ATOM      9  C   UNL     1     -34.417   7.792  82.126  1.00  0.00     0.094 A 
ATOM     10  C   UNL     1     -33.366   7.042  79.630  1.00  0.00     0.134 A 
ATOM     11  C   UNL     1     -33.319   8.470  81.601  1.00  0.00     0.123 A 
ATOM     12  C   UNL     1     -32.801   8.095  80.359  1.00  0.00     0.093 A 
BRANCH   3  13
ATOM     13  C   UNL     1     -37.825   4.499  82.069  1.00  0.00     0.021 A 
ATOM     14  C   UNL     1     -38.740   5.240  82.837  1.00  0.00     0.016 A 
ATOM     15  C   UNL     1     -39.773   4.594  83.522  1.00  0.00     0.047 A 
ATOM     16  C   UNL     1     -39.915   3.206  83.434  1.00  0.00     0.115 A 
ATOM     17  C   UNL     1     -37.987   3.108  81.965  1.00  0.00     0.016 A 
ATOM     18  C   UNL     1     -39.020   2.464  82.651  1.00  0.00     0.047 A 
BRANCH  16  19
ATOM     19  O   UNL     1     -40.947   2.574  84.125  1.00  0.00    -0.508 OA
ATOM     20  H   UNL     1     -40.944   1.573  84.281  1.00  0.00     0.293 HD
ENDBRANCH  16  19
ENDBRANCH   3  13
BRANCH  10  21
ATOM     21  O   UNL     1     -32.718   6.687  78.443  1.00  0.00    -0.507 OA
ATOM     22  H   UNL     1     -33.015   6.965  77.520  1.00  0.00     0.293 HD
ENDBRANCH  10  21
BRANCH  11  23
ATOM     23  O   UNL     1     -32.742   9.509  82.328  1.00  0.00    -0.508 OA
ATOM     24  H   UNL     1     -31.760   9.500  82.577  1.00  0.00     0.293 HD
ENDBRANCH  11  23
ENDBRANCH   1   2
BRANCH   1  25
ATOM     25  C   UNL     1     -37.895   4.220  78.126  1.00  0.00     0.339 C 
ATOM     26  C   UNL     1     -38.958   3.149  77.832  1.00  0.00     0.214 C 
ATOM     27  O   UNL     1     -38.492   5.496  78.284  1.00  0.00    -0.332 OA
ATOM     28  C   UNL     1     -40.009   3.127  78.956  1.00  0.00     0.180 C 
ATOM     29  C   UNL     1     -39.368   5.532  79.401  1.00  0.00     0.179 C 
ATOM     30  C   UNL     1     -40.546   4.548  79.201  1.00  0.00     0.177 C 
BRANCH  26  31
ATOM     31  O   UNL     1     -38.337   1.895  77.717  1.00  0.00    -0.384 OA
ATOM     32  H   UNL     1     -37.358   2.057  77.696  1.00  0.00     0.211 HD
ENDBRANCH  26  31
BRANCH  28  33
ATOM     33  O   UNL     1     -41.075   2.285  78.599  1.00  0.00    -0.387 OA
ATOM     34  H   UNL     1     -41.134   1.582  79.297  1.00  0.00     0.211 HD
ENDBRANCH  28  33
BRANCH  29  35
ATOM     35  C   UNL     1     -39.865   6.979  79.557  1.00  0.00     0.191 C 
BRANCH  35  36
ATOM     36  O   UNL     1     -41.115   7.158  78.947  1.00  0.00    -0.394 OA
ATOM     37  H   UNL     1     -41.698   6.422  79.270  1.00  0.00     0.210 HD
ENDBRANCH  35  36
ENDBRANCH  29  35
BRANCH  30  38
ATOM     38  O   UNL     1     -41.365   4.546  80.343  1.00  0.00    -0.387 OA
ATOM     39  H   UNL     1     -41.439   3.603  80.645  1.00  0.00     0.211 HD
ENDBRANCH  30  38
ENDBRANCH   1  25
TORSDOF 11
ENDMDL
MODEL 8
REMARK VINA RESULT:    -5.340      1.331      2.162
REMARK INTER + INTRA:          -9.517
REMARK INTER:                  -8.767
REMARK INTRA:                  -0.749
REMARK UNBOUND:                -1.836
REMARK SMILES O=c1c(O[C@@H]2O[C@@H](CO)[C@H](O)[C@@H](O)[C@@H]2O)c(-c2ccc(O)cc2)oc2cc(O)cc(O)c12
REMARK SMILES IDX 4 1 3 2 16 3 24 4 2 5 25 6 1 7 32 8 26 9 30 10 27 11 29 12
REMARK SMILES IDX 17 13 18 14 19 15 20 16 23 17 22 18 21 19 31 21 28 23 5 25
REMARK SMILES IDX 14 26 6 27 12 28 7 29 10 30 15 31 13 33 8 35 9 36 11 38
REMARK H PARENT 21 20 31 22 28 24 15 32 13 34 9 37 11 39
REMARK Flexibility Score: inf
ROOT
ATOM      1  O   UNL     1     -35.931   6.606  80.355  1.00  0.00    -0.454 OA
ENDROOT
BRANCH   1   2
ATOM      2  C   UNL     1     -37.077   5.844  80.618  1.00  0.00     0.214 A 
ATOM      3  C   UNL     1     -38.276   6.032  79.905  1.00  0.00     0.180 A 
ATOM      4  O   UNL     1     -39.367   5.368  80.270  1.00  0.00    -0.452 OA
ATOM      5  C   UNL     1     -37.032   4.879  81.631  1.00  0.00     0.239 A 
ATOM      6  C   UNL     1     -39.382   4.469  81.246  1.00  0.00     0.146 A 
ATOM      7  O   UNL     1     -35.958   4.733  82.270  1.00  0.00    -0.285 OA
ATOM      8  C   UNL     1     -38.194   4.135  81.949  1.00  0.00     0.111 A 
ATOM      9  C   UNL     1     -40.593   3.852  81.567  1.00  0.00     0.094 A 
ATOM     10  C   UNL     1     -38.257   3.119  82.947  1.00  0.00     0.134 A 
ATOM     11  C   UNL     1     -40.655   2.903  82.585  1.00  0.00     0.123 A 
ATOM     12  C   UNL     1     -39.492   2.543  83.270  1.00  0.00     0.093 A 
BRANCH   3  13
ATOM     13  C   UNL     1     -38.370   6.943  78.745  1.00  0.00     0.021 A 
ATOM     14  C   UNL     1     -38.149   8.324  78.890  1.00  0.00     0.016 A 
ATOM     15  C   UNL     1     -38.231   9.173  77.782  1.00  0.00     0.047 A 
ATOM     16  C   UNL     1     -38.516   8.650  76.516  1.00  0.00     0.115 A 
ATOM     17  C   UNL     1     -38.633   6.422  77.468  1.00  0.00     0.016 A 
ATOM     18  C   UNL     1     -38.714   7.272  76.362  1.00  0.00     0.047 A 
BRANCH  16  19
ATOM     19  O   UNL     1     -38.598   9.507  75.421  1.00  0.00    -0.508 OA
ATOM     20  H   UNL     1     -38.380   9.190  74.484  1.00  0.00     0.293 HD
ENDBRANCH  16  19
ENDBRANCH   3  13
BRANCH  10  21
ATOM     21  O   UNL     1     -37.141   2.624  83.629  1.00  0.00    -0.507 OA
ATOM     22  H   UNL     1     -37.148   2.294  84.582  1.00  0.00     0.293 HD
ENDBRANCH  10  21
BRANCH  11  23
ATOM     23  O   UNL     1     -41.878   2.315  82.902  1.00  0.00    -0.508 OA
ATOM     24  H   UNL     1     -42.392   1.763  82.225  1.00  0.00     0.293 HD
ENDBRANCH  11  23
ENDBRANCH   1   2
BRANCH   1  25
ATOM     25  C   UNL     1     -34.667   6.027  80.004  1.00  0.00     0.339 C 
ATOM     26  C   UNL     1     -34.390   6.185  78.500  1.00  0.00     0.214 C 
ATOM     27  O   UNL     1     -33.620   6.594  80.774  1.00  0.00    -0.332 OA
ATOM     28  C   UNL     1     -34.198   7.672  78.153  1.00  0.00     0.180 C 
ATOM     29  C   UNL     1     -33.513   7.994  80.565  1.00  0.00     0.179 C 
ATOM     30  C   UNL     1     -33.152   8.300  79.091  1.00  0.00     0.177 C 
BRANCH  26  31
ATOM     31  O   UNL     1     -35.461   5.646  77.769  1.00  0.00    -0.384 OA
ATOM     32  H   UNL     1     -36.295   5.920  78.232  1.00  0.00     0.211 HD
ENDBRANCH  26  31
BRANCH  28  33
ATOM     33  O   UNL     1     -33.763   7.801  76.823  1.00  0.00    -0.387 OA
ATOM     34  H   UNL     1     -34.576   7.808  76.253  1.00  0.00     0.211 HD
ENDBRANCH  28  33
BRANCH  29  35
ATOM     35  C   UNL     1     -32.439   8.529  81.528  1.00  0.00     0.191 C 
BRANCH  35  36
ATOM     36  O   UNL     1     -31.262   8.865  80.844  1.00  0.00    -0.394 OA
ATOM     37  H   UNL     1     -30.536   8.320  81.242  1.00  0.00     0.210 HD
ENDBRANCH  35  36
ENDBRANCH  29  35
BRANCH  30  38
ATOM     38  O   UNL     1     -33.118   9.690  78.886  1.00  0.00    -0.387 OA
ATOM     39  H   UNL     1     -32.813   9.838  77.954  1.00  0.00     0.211 HD
ENDBRANCH  30  38
ENDBRANCH   1  25
TORSDOF 11
ENDMDL
MODEL 9
REMARK VINA RESULT:    -5.333      2.630      6.861
REMARK INTER + INTRA:          -9.506
REMARK INTER:                  -7.573
REMARK INTRA:                  -1.934
REMARK UNBOUND:                -1.836
REMARK SMILES O=c1c(O[C@@H]2O[C@@H](CO)[C@H](O)[C@@H](O)[C@@H]2O)c(-c2ccc(O)cc2)oc2cc(O)cc(O)c12
REMARK SMILES IDX 4 1 3 2 16 3 24 4 2 5 25 6 1 7 32 8 26 9 30 10 27 11 29 12
REMARK SMILES IDX 17 13 18 14 19 15 20 16 23 17 22 18 21 19 31 21 28 23 5 25
REMARK SMILES IDX 14 26 6 27 12 28 7 29 10 30 15 31 13 33 8 35 9 36 11 38
REMARK H PARENT 21 20 31 22 28 24 15 32 13 34 9 37 11 39
REMARK Flexibility Score: inf
ROOT
ATOM      1  O   UNL     1     -35.631   6.182  80.801  1.00  0.00    -0.454 OA
ENDROOT
BRANCH   1   2
ATOM      2  C   UNL     1     -36.012   6.973  79.710  1.00  0.00     0.214 A 
ATOM      3  C   UNL     1     -35.373   8.193  79.416  1.00  0.00     0.180 A 
ATOM      4  O   UNL     1     -35.847   8.964  78.443  1.00  0.00    -0.452 OA
ATOM      5  C   UNL     1     -37.071   6.549  78.900  1.00  0.00     0.239 A 
ATOM      6  C   UNL     1     -36.869   8.619  77.671  1.00  0.00     0.146 A 
ATOM      7  O   UNL     1     -37.643   5.464  79.184  1.00  0.00    -0.285 OA
ATOM      8  C   UNL     1     -37.507   7.360  77.824  1.00  0.00     0.111 A 
ATOM      9  C   UNL     1     -37.304   9.521  76.697  1.00  0.00     0.094 A 
ATOM     10  C   UNL     1     -38.562   7.017  76.927  1.00  0.00     0.134 A 
ATOM     11  C   UNL     1     -38.375   9.200  75.865  1.00  0.00     0.123 A 
ATOM     12  C   UNL     1     -38.999   7.956  75.984  1.00  0.00     0.093 A 
BRANCH   3  13
ATOM     13  C   UNL     1     -34.174   8.652  80.147  1.00  0.00     0.021 A 
ATOM     14  C   UNL     1     -34.277   9.587  81.193  1.00  0.00     0.016 A 
ATOM     15  C   UNL     1     -33.136  10.004  81.883  1.00  0.00     0.047 A 
ATOM     16  C   UNL     1     -31.882   9.480  81.550  1.00  0.00     0.115 A 
ATOM     17  C   UNL     1     -32.916   8.112  79.834  1.00  0.00     0.016 A 
ATOM     18  C   UNL     1     -31.776   8.531  80.525  1.00  0.00     0.047 A 
BRANCH  16  19
ATOM     19  O   UNL     1     -30.752   9.907  82.243  1.00  0.00    -0.508 OA
ATOM     20  H   UNL     1     -30.027  10.450  81.791  1.00  0.00     0.293 HD
ENDBRANCH  16  19
ENDBRANCH   3  13
BRANCH  10  21
ATOM     21  O   UNL     1     -39.193   5.770  76.905  1.00  0.00    -0.507 OA
ATOM     22  H   UNL     1     -39.490   5.260  77.722  1.00  0.00     0.293 HD
ENDBRANCH  10  21
BRANCH  11  23
ATOM     23  O   UNL     1     -38.805  10.123  74.914  1.00  0.00    -0.508 OA
ATOM     24  H   UNL     1     -38.865   9.882  73.931  1.00  0.00     0.293 HD
ENDBRANCH  11  23
ENDBRANCH   1   2
BRANCH   1  25
ATOM     25  C   UNL     1     -36.254   6.272  82.090  1.00  0.00     0.339 C 
ATOM     26  C   UNL     1     -36.640   4.878  82.610  1.00  0.00     0.214 C 
ATOM     27  O   UNL     1     -35.411   6.941  83.014  1.00  0.00    -0.332 OA
ATOM     28  C   UNL     1     -35.373   4.051  82.894  1.00  0.00     0.180 C 
ATOM     29  C   UNL     1     -34.178   6.259  83.189  1.00  0.00     0.179 C 
ATOM     30  C   UNL     1     -34.413   4.852  83.791  1.00  0.00     0.177 C 
BRANCH  26  31
ATOM     31  O   UNL     1     -37.444   4.231  81.657  1.00  0.00    -0.384 OA
ATOM     32  H   UNL     1     -36.946   3.426  81.356  1.00  0.00     0.211 HD
ENDBRANCH  26  31
BRANCH  28  33
ATOM     33  O   UNL     1     -35.718   2.853  83.541  1.00  0.00    -0.387 OA
ATOM     34  H   UNL     1     -35.026   2.688  84.232  1.00  0.00     0.211 HD
ENDBRANCH  28  33
BRANCH  29  35
ATOM     35  C   UNL     1     -33.295   7.121  84.107  1.00  0.00     0.191 C 
BRANCH  35  36
ATOM     36  O   UNL     1     -31.958   6.700  84.073  1.00  0.00    -0.394 OA
ATOM     37  H   UNL     1     -31.410   7.468  84.380  1.00  0.00     0.210 HD
ENDBRANCH  35  36
ENDBRANCH  29  35
BRANCH  30  38
ATOM     38  O   UNL     1     -33.191   4.167  83.894  1.00  0.00    -0.387 OA
ATOM     39  H   UNL     1     -32.657   4.404  83.092  1.00  0.00     0.211 HD
ENDBRANCH  30  38
ENDBRANCH   1  25
TORSDOF 11
ENDMDL
