MODEL 1
REMARK VINA RESULT:    -5.434      0.000      0.000
REMARK INTER + INTRA:          -6.650
REMARK INTER:                  -6.387
REMARK INTRA:                  -0.263
REMARK UNBOUND:                -0.263
REMARK SMILES O=c1cc(-c2ccc(O)c(O)c2)oc2cc(O)cc(O)c12
REMARK SMILES IDX 4 1 3 2 2 3 1 4 21 5 19 6 18 7 16 8 15 9 14 10 13 11 5 12
REMARK SMILES IDX 6 13 7 14 8 15 12 16 10 17 9 18 11 20 20 22 17 24
REMARK H PARENT 9 19 11 21 20 23 17 25
REMARK Flexibility Score: inf
ROOT
ATOM      1  C   UNL     1      58.747  -4.482  -8.004  1.00  0.00     0.138 A 
ATOM      2  C   UNL     1      59.046  -4.728  -6.657  1.00  0.00     0.100 A 
ATOM      3  C   UNL     1      60.333  -4.476  -6.177  1.00  0.00     0.197 A 
ATOM      4  O   UNL     1      60.587  -4.766  -4.979  1.00  0.00    -0.289 OA
ATOM      5  C   UNL     1      61.314  -3.944  -7.046  1.00  0.00     0.107 A 
ATOM      6  C   UNL     1      62.646  -3.610  -6.659  1.00  0.00     0.134 A 
ATOM      7  C   UNL     1      63.566  -3.199  -7.632  1.00  0.00     0.093 A 
ATOM      8  C   UNL     1      63.187  -3.054  -8.966  1.00  0.00     0.123 A 
ATOM      9  C   UNL     1      61.872  -3.328  -9.347  1.00  0.00     0.094 A 
ATOM     10  C   UNL     1      60.940  -3.772  -8.405  1.00  0.00     0.146 A 
ATOM     11  O   UNL     1      59.703  -4.034  -8.812  1.00  0.00    -0.456 OA
ENDROOT
BRANCH   1  12
ATOM     12  C   UNL     1      57.395  -4.732  -8.565  1.00  0.00     0.021 A 
ATOM     13  C   UNL     1      57.095  -5.907  -9.274  1.00  0.00     0.016 A 
ATOM     14  C   UNL     1      55.812  -6.119  -9.782  1.00  0.00     0.051 A 
ATOM     15  C   UNL     1      54.801  -5.173  -9.589  1.00  0.00     0.157 A 
ATOM     16  C   UNL     1      56.375  -3.787  -8.358  1.00  0.00     0.062 A 
ATOM     17  C   UNL     1      55.086  -3.992  -8.865  1.00  0.00     0.158 A 
BRANCH  15  18
ATOM     18  O   UNL     1      53.540  -5.445 -10.125  1.00  0.00    -0.504 OA
ATOM     19  H   UNL     1      53.243  -5.155 -11.046  1.00  0.00     0.293 HD
ENDBRANCH  15  18
BRANCH  17  20
ATOM     20  O   UNL     1      54.127  -3.004  -8.626  1.00  0.00    -0.504 OA
ATOM     21  H   UNL     1      54.158  -2.364  -7.846  1.00  0.00     0.293 HD
ENDBRANCH  17  20
ENDBRANCH   1  12
BRANCH   6  22
ATOM     22  O   UNL     1      63.106  -3.638  -5.338  1.00  0.00    -0.507 OA
ATOM     23  H   UNL     1      62.831  -4.317  -4.646  1.00  0.00     0.293 HD
ENDBRANCH   6  22
BRANCH   8  24
ATOM     24  O   UNL     1      64.125  -2.630  -9.905  1.00  0.00    -0.508 OA
ATOM     25  H   UNL     1      64.440  -3.239 -10.652  1.00  0.00     0.293 HD
ENDBRANCH   8  24
TORSDOF 5
ENDMDL
MODEL 2
REMARK VINA RESULT:    -5.372      1.748      7.034
REMARK INTER + INTRA:          -6.576
REMARK INTER:                  -6.313
REMARK INTRA:                  -0.263
REMARK UNBOUND:                -0.263
REMARK SMILES O=c1cc(-c2ccc(O)c(O)c2)oc2cc(O)cc(O)c12
REMARK SMILES IDX 4 1 3 2 2 3 1 4 21 5 19 6 18 7 16 8 15 9 14 10 13 11 5 12
REMARK SMILES IDX 6 13 7 14 8 15 12 16 10 17 9 18 11 20 20 22 17 24
REMARK H PARENT 9 19 11 21 20 23 17 25
REMARK Flexibility Score: inf
ROOT
ATOM      1  C   UNL     1      59.268  -4.678  -7.456  1.00  0.00     0.138 A 
ATOM      2  C   UNL     1      59.165  -6.037  -7.781  1.00  0.00     0.100 A 
ATOM      3  C   UNL     1      58.037  -6.502  -8.461  1.00  0.00     0.197 A 
ATOM      4  O   UNL     1      57.945  -7.737  -8.683  1.00  0.00    -0.289 OA
ATOM      5  C   UNL     1      57.024  -5.592  -8.845  1.00  0.00     0.107 A 
ATOM      6  C   UNL     1      55.851  -5.944  -9.576  1.00  0.00     0.134 A 
ATOM      7  C   UNL     1      54.860  -4.980  -9.799  1.00  0.00     0.093 A 
ATOM      8  C   UNL     1      55.027  -3.663  -9.370  1.00  0.00     0.123 A 
ATOM      9  C   UNL     1      56.195  -3.295  -8.700  1.00  0.00     0.094 A 
ATOM     10  C   UNL     1      57.186  -4.243  -8.433  1.00  0.00     0.146 A 
ATOM     11  O   UNL     1      58.276  -3.854  -7.781  1.00  0.00    -0.456 OA
ENDROOT
BRANCH   1  12
ATOM     12  C   UNL     1      60.445  -4.131  -6.735  1.00  0.00     0.021 A 
ATOM     13  C   UNL     1      61.377  -3.293  -7.371  1.00  0.00     0.016 A 
ATOM     14  C   UNL     1      62.469  -2.786  -6.665  1.00  0.00     0.051 A 
ATOM     15  C   UNL     1      62.653  -3.094  -5.314  1.00  0.00     0.157 A 
ATOM     16  C   UNL     1      60.622  -4.429  -5.373  1.00  0.00     0.062 A 
ATOM     17  C   UNL     1      61.716  -3.924  -4.658  1.00  0.00     0.158 A 
BRANCH  15  18
ATOM     18  O   UNL     1      63.768  -2.555  -4.667  1.00  0.00    -0.504 OA
ATOM     19  H   UNL     1      64.612  -2.267  -5.142  1.00  0.00     0.293 HD
ENDBRANCH  15  18
BRANCH  17  20
ATOM     20  O   UNL     1      61.828  -4.271  -3.309  1.00  0.00    -0.504 OA
ATOM     21  H   UNL     1      61.358  -5.058  -2.887  1.00  0.00     0.293 HD
ENDBRANCH  17  20
ENDBRANCH   1  12
BRANCH   6  22
ATOM     22  O   UNL     1      55.623  -7.211 -10.124  1.00  0.00    -0.507 OA
ATOM     23  H   UNL     1      54.729  -7.675 -10.151  1.00  0.00     0.293 HD
ENDBRANCH   6  22
BRANCH   8  24
ATOM     24  O   UNL     1      54.026  -2.727  -9.622  1.00  0.00    -0.508 OA
ATOM     25  H   UNL     1      53.045  -2.963  -9.531  1.00  0.00     0.293 HD
ENDBRANCH   8  24
TORSDOF 5
ENDMDL
MODEL 3
REMARK VINA RESULT:    -5.242     11.448     15.093
REMARK INTER + INTRA:          -6.424
REMARK INTER:                  -6.130
REMARK INTRA:                  -0.294
REMARK UNBOUND:                -0.263
REMARK SMILES O=c1cc(-c2ccc(O)c(O)c2)oc2cc(O)cc(O)c12
REMARK SMILES IDX 4 1 3 2 2 3 1 4 21 5 19 6 18 7 16 8 15 9 14 10 13 11 5 12
REMARK SMILES IDX 6 13 7 14 8 15 12 16 10 17 9 18 11 20 20 22 17 24
REMARK H PARENT 9 19 11 21 20 23 17 25
REMARK Flexibility Score: inf
ROOT
ATOM      1  C   UNL     1      46.283  -8.295  -2.165  1.00  0.00     0.138 A 
ATOM      2  C   UNL     1      45.506  -9.187  -2.917  1.00  0.00     0.100 A 
ATOM      3  C   UNL     1      45.777  -9.365  -4.275  1.00  0.00     0.197 A 
ATOM      4  O   UNL     1      45.023 -10.125  -4.936  1.00  0.00    -0.289 OA
ATOM      5  C   UNL     1      46.854  -8.668  -4.873  1.00  0.00     0.107 A 
ATOM      6  C   UNL     1      47.248  -8.801  -6.238  1.00  0.00     0.134 A 
ATOM      7  C   UNL     1      48.255  -7.974  -6.749  1.00  0.00     0.093 A 
ATOM      8  C   UNL     1      48.923  -7.061  -5.932  1.00  0.00     0.123 A 
ATOM      9  C   UNL     1      48.581  -6.960  -4.582  1.00  0.00     0.094 A 
ATOM     10  C   UNL     1      47.557  -7.748  -4.051  1.00  0.00     0.146 A 
ATOM     11  O   UNL     1      47.253  -7.612  -2.765  1.00  0.00    -0.456 OA
ENDROOT
BRANCH   1  12
ATOM     12  C   UNL     1      46.038  -8.069  -0.718  1.00  0.00     0.021 A 
ATOM     13  C   UNL     1      45.840  -9.137   0.173  1.00  0.00     0.016 A 
ATOM     14  C   UNL     1      45.622  -8.896   1.530  1.00  0.00     0.051 A 
ATOM     15  C   UNL     1      45.605  -7.590   2.030  1.00  0.00     0.157 A 
ATOM     16  C   UNL     1      46.035  -6.757  -0.213  1.00  0.00     0.062 A 
ATOM     17  C   UNL     1      45.816  -6.506   1.147  1.00  0.00     0.158 A 
BRANCH  15  18
ATOM     18  O   UNL     1      45.379  -7.417   3.398  1.00  0.00    -0.504 OA
ATOM     19  H   UNL     1      46.091  -7.138   4.057  1.00  0.00     0.293 HD
ENDBRANCH  15  18
BRANCH  17  20
ATOM     20  O   UNL     1      45.818  -5.175   1.573  1.00  0.00    -0.504 OA
ATOM     21  H   UNL     1      46.280  -4.851   2.410  1.00  0.00     0.293 HD
ENDBRANCH  17  20
ENDBRANCH   1  12
BRANCH   6  22
ATOM     22  O   UNL     1      46.705  -9.741  -7.120  1.00  0.00    -0.507 OA
ATOM     23  H   UNL     1      46.094  -9.523  -7.891  1.00  0.00     0.293 HD
ENDBRANCH   6  22
BRANCH   8  24
ATOM     24  O   UNL     1      49.930  -6.264  -6.472  1.00  0.00    -0.508 OA
ATOM     25  H   UNL     1      50.492  -5.654  -5.890  1.00  0.00     0.293 HD
ENDBRANCH   8  24
TORSDOF 5
ENDMDL
MODEL 4
REMARK VINA RESULT:    -5.228      9.659     13.283
REMARK INTER + INTRA:          -6.408
REMARK INTER:                  -6.145
REMARK INTRA:                  -0.263
REMARK UNBOUND:                -0.263
REMARK SMILES O=c1cc(-c2ccc(O)c(O)c2)oc2cc(O)cc(O)c12
REMARK SMILES IDX 4 1 3 2 2 3 1 4 21 5 19 6 18 7 16 8 15 9 14 10 13 11 5 12
REMARK SMILES IDX 6 13 7 14 8 15 12 16 10 17 9 18 11 20 20 22 17 24
REMARK H PARENT 9 19 11 21 20 23 17 25
REMARK Flexibility Score: inf
ROOT
ATOM      1  C   UNL     1      47.605  -8.193  -4.482  1.00  0.00     0.138 A 
ATOM      2  C   UNL     1      46.841  -8.980  -5.355  1.00  0.00     0.100 A 
ATOM      3  C   UNL     1      47.119  -8.965  -6.723  1.00  0.00     0.197 A 
ATOM      4  O   UNL     1      46.376  -9.633  -7.487  1.00  0.00    -0.289 OA
ATOM      5  C   UNL     1      48.190  -8.181  -7.213  1.00  0.00     0.107 A 
ATOM      6  C   UNL     1      48.592  -8.120  -8.581  1.00  0.00     0.134 A 
ATOM      7  C   UNL     1      49.592  -7.220  -8.967  1.00  0.00     0.093 A 
ATOM      8  C   UNL     1      50.247  -6.423  -8.028  1.00  0.00     0.123 A 
ATOM      9  C   UNL     1      49.899  -6.514  -6.679  1.00  0.00     0.094 A 
ATOM     10  C   UNL     1      48.881  -7.378  -6.268  1.00  0.00     0.146 A 
ATOM     11  O   UNL     1      48.571  -7.424  -4.977  1.00  0.00    -0.456 OA
ENDROOT
BRANCH   1  12
ATOM     12  C   UNL     1      47.353  -8.173  -3.019  1.00  0.00     0.021 A 
ATOM     13  C   UNL     1      48.097  -8.966  -2.130  1.00  0.00     0.016 A 
ATOM     14  C   UNL     1      47.844  -8.919  -0.758  1.00  0.00     0.051 A 
ATOM     15  C   UNL     1      46.853  -8.078  -0.242  1.00  0.00     0.157 A 
ATOM     16  C   UNL     1      46.366  -7.317  -2.500  1.00  0.00     0.062 A 
ATOM     17  C   UNL     1      46.106  -7.264  -1.124  1.00  0.00     0.158 A 
BRANCH  15  18
ATOM     18  O   UNL     1      46.649  -8.081   1.140  1.00  0.00    -0.504 OA
ATOM     19  H   UNL     1      45.858  -7.647   1.595  1.00  0.00     0.293 HD
ENDBRANCH  15  18
BRANCH  17  20
ATOM     20  O   UNL     1      45.104  -6.395  -0.684  1.00  0.00    -0.504 OA
ATOM     21  H   UNL     1      45.266  -5.616  -0.062  1.00  0.00     0.293 HD
ENDBRANCH  17  20
ENDBRANCH   1  12
BRANCH   6  22
ATOM     22  O   UNL     1      48.062  -8.933  -9.588  1.00  0.00    -0.507 OA
ATOM     23  H   UNL     1      47.751  -8.607 -10.489  1.00  0.00     0.293 HD
ENDBRANCH   6  22
BRANCH   8  24
ATOM     24  O   UNL     1      51.248  -5.549  -8.446  1.00  0.00    -0.508 OA
ATOM     25  H   UNL     1      51.148  -4.993  -9.287  1.00  0.00     0.293 HD
ENDBRANCH   8  24
TORSDOF 5
ENDMDL
MODEL 5
REMARK VINA RESULT:    -5.212     11.118     14.649
REMARK INTER + INTRA:          -6.388
REMARK INTER:                  -6.126
REMARK INTRA:                  -0.263
REMARK UNBOUND:                -0.263
REMARK SMILES O=c1cc(-c2ccc(O)c(O)c2)oc2cc(O)cc(O)c12
REMARK SMILES IDX 4 1 3 2 2 3 1 4 21 5 19 6 18 7 16 8 15 9 14 10 13 11 5 12
REMARK SMILES IDX 6 13 7 14 8 15 12 16 10 17 9 18 11 20 20 22 17 24
REMARK H PARENT 9 19 11 21 20 23 17 25
REMARK Flexibility Score: inf
ROOT
ATOM      1  C   UNL     1      47.620  -8.267  -2.884  1.00  0.00     0.138 A 
ATOM      2  C   UNL     1      48.391  -9.162  -2.129  1.00  0.00     0.100 A 
ATOM      3  C   UNL     1      48.166  -9.281  -0.756  1.00  0.00     0.197 A 
ATOM      4  O   UNL     1      48.915 -10.046  -0.096  1.00  0.00    -0.289 OA
ATOM      5  C   UNL     1      47.139  -8.523  -0.145  1.00  0.00     0.107 A 
ATOM      6  C   UNL     1      46.793  -8.592   1.238  1.00  0.00     0.134 A 
ATOM      7  C   UNL     1      45.837  -7.709   1.755  1.00  0.00     0.093 A 
ATOM      8  C   UNL     1      45.173  -6.801   0.930  1.00  0.00     0.123 A 
ATOM      9  C   UNL     1      45.467  -6.761  -0.434  1.00  0.00     0.094 A 
ATOM     10  C   UNL     1      46.440  -7.606  -0.973  1.00  0.00     0.146 A 
ATOM     11  O   UNL     1      46.699  -7.526  -2.274  1.00  0.00    -0.456 OA
ENDROOT
BRANCH   1  12
ATOM     12  C   UNL     1      47.818  -8.102  -4.346  1.00  0.00     0.021 A 
ATOM     13  C   UNL     1      47.050  -8.818  -5.281  1.00  0.00     0.016 A 
ATOM     14  C   UNL     1      47.252  -8.635  -6.649  1.00  0.00     0.051 A 
ATOM     15  C   UNL     1      48.212  -7.733  -7.117  1.00  0.00     0.157 A 
ATOM     16  C   UNL     1      48.774  -7.185  -4.815  1.00  0.00     0.062 A 
ATOM     17  C   UNL     1      48.982  -6.996  -6.188  1.00  0.00     0.158 A 
BRANCH  15  18
ATOM     18  O   UNL     1      48.365  -7.599  -8.499  1.00  0.00    -0.504 OA
ATOM     19  H   UNL     1      49.196  -7.236  -8.943  1.00  0.00     0.293 HD
ENDBRANCH  15  18
BRANCH  17  20
ATOM     20  O   UNL     1      49.956  -6.073  -6.578  1.00  0.00    -0.504 OA
ATOM     21  H   UNL     1      49.768  -5.260  -7.145  1.00  0.00     0.293 HD
ENDBRANCH  17  20
ENDBRANCH   1  12
BRANCH   6  22
ATOM     22  O   UNL     1      47.333  -9.521   2.133  1.00  0.00    -0.507 OA
ATOM     23  H   UNL     1      48.294  -9.823   2.140  1.00  0.00     0.293 HD
ENDBRANCH   6  22
BRANCH   8  24
ATOM     24  O   UNL     1      44.218  -5.947   1.477  1.00  0.00    -0.508 OA
ATOM     25  H   UNL     1      44.306  -4.940   1.407  1.00  0.00     0.293 HD
ENDBRANCH   8  24
TORSDOF 5
ENDMDL
MODEL 6
REMARK VINA RESULT:    -5.171     11.514     15.039
REMARK INTER + INTRA:          -6.340
REMARK INTER:                  -6.074
REMARK INTRA:                  -0.266
REMARK UNBOUND:                -0.263
REMARK SMILES O=c1cc(-c2ccc(O)c(O)c2)oc2cc(O)cc(O)c12
REMARK SMILES IDX 4 1 3 2 2 3 1 4 21 5 19 6 18 7 16 8 15 9 14 10 13 11 5 12
REMARK SMILES IDX 6 13 7 14 8 15 12 16 10 17 9 18 11 20 20 22 17 24
REMARK H PARENT 9 19 11 21 20 23 17 25
REMARK Flexibility Score: inf
ROOT
ATOM      1  C   UNL     1      46.855  -7.942  -2.696  1.00  0.00     0.138 A 
ATOM      2  C   UNL     1      45.631  -7.321  -2.410  1.00  0.00     0.100 A 
ATOM      3  C   UNL     1      45.170  -7.277  -1.093  1.00  0.00     0.197 A 
ATOM      4  O   UNL     1      44.040  -6.768  -0.876  1.00  0.00    -0.289 OA
ATOM      5  C   UNL     1      45.956  -7.831  -0.054  1.00  0.00     0.107 A 
ATOM      6  C   UNL     1      45.606  -7.808   1.329  1.00  0.00     0.134 A 
ATOM      7  C   UNL     1      46.406  -8.490   2.254  1.00  0.00     0.093 A 
ATOM      8  C   UNL     1      47.573  -9.143   1.856  1.00  0.00     0.123 A 
ATOM      9  C   UNL     1      47.952  -9.126   0.513  1.00  0.00     0.094 A 
ATOM     10  C   UNL     1      47.157  -8.483  -0.439  1.00  0.00     0.146 A 
ATOM     11  O   UNL     1      47.547  -8.502  -1.709  1.00  0.00    -0.456 OA
ENDROOT
BRANCH   1  12
ATOM     12  C   UNL     1      47.392  -8.015  -4.078  1.00  0.00     0.021 A 
ATOM     13  C   UNL     1      46.925  -8.964  -5.003  1.00  0.00     0.016 A 
ATOM     14  C   UNL     1      47.441  -9.003  -6.299  1.00  0.00     0.051 A 
ATOM     15  C   UNL     1      48.426  -8.097  -6.704  1.00  0.00     0.157 A 
ATOM     16  C   UNL     1      48.372  -7.095  -4.489  1.00  0.00     0.062 A 
ATOM     17  C   UNL     1      48.896  -7.128  -5.788  1.00  0.00     0.158 A 
BRANCH  15  18
ATOM     18  O   UNL     1      48.902  -8.192  -8.014  1.00  0.00    -0.504 OA
ATOM     19  H   UNL     1      48.590  -8.886  -8.679  1.00  0.00     0.293 HD
ENDBRANCH  15  18
BRANCH  17  20
ATOM     20  O   UNL     1      49.873  -6.186  -6.121  1.00  0.00    -0.504 OA
ATOM     21  H   UNL     1      50.861  -6.386  -6.155  1.00  0.00     0.293 HD
ENDBRANCH  17  20
ENDBRANCH   1  12
BRANCH   6  22
ATOM     22  O   UNL     1      44.508  -7.114   1.846  1.00  0.00    -0.507 OA
ATOM     23  H   UNL     1      43.844  -6.593   1.295  1.00  0.00     0.293 HD
ENDBRANCH   6  22
BRANCH   8  24
ATOM     24  O   UNL     1      48.351  -9.800   2.807  1.00  0.00    -0.508 OA
ATOM     25  H   UNL     1      48.181  -9.689   3.800  1.00  0.00     0.293 HD
ENDBRANCH   8  24
TORSDOF 5
ENDMDL
MODEL 7
REMARK VINA RESULT:    -4.646     10.838     13.687
REMARK INTER + INTRA:          -5.724
REMARK INTER:                  -5.459
REMARK INTRA:                  -0.265
REMARK UNBOUND:                -0.263
REMARK SMILES O=c1cc(-c2ccc(O)c(O)c2)oc2cc(O)cc(O)c12
REMARK SMILES IDX 4 1 3 2 2 3 1 4 21 5 19 6 18 7 16 8 15 9 14 10 13 11 5 12
REMARK SMILES IDX 6 13 7 14 8 15 12 16 10 17 9 18 11 20 20 22 17 24
REMARK H PARENT 9 19 11 21 20 23 17 25
REMARK Flexibility Score: inf
ROOT
ATOM      1  C   UNL     1      47.800  -7.889  -4.787  1.00  0.00     0.138 A 
ATOM      2  C   UNL     1      48.869  -7.075  -5.187  1.00  0.00     0.100 A 
ATOM      3  C   UNL     1      49.193  -6.976  -6.541  1.00  0.00     0.197 A 
ATOM      4  O   UNL     1      50.196  -6.287  -6.863  1.00  0.00    -0.289 OA
ATOM      5  C   UNL     1      48.421  -7.671  -7.501  1.00  0.00     0.107 A 
ATOM      6  C   UNL     1      48.633  -7.613  -8.911  1.00  0.00     0.134 A 
ATOM      7  C   UNL     1      47.879  -8.435  -9.757  1.00  0.00     0.093 A 
ATOM      8  C   UNL     1      46.882  -9.269  -9.251  1.00  0.00     0.123 A 
ATOM      9  C   UNL     1      46.630  -9.294  -7.879  1.00  0.00     0.094 A 
ATOM     10  C   UNL     1      47.388  -8.510  -7.006  1.00  0.00     0.146 A 
ATOM     11  O   UNL     1      47.125  -8.574  -5.705  1.00  0.00    -0.456 OA
ENDROOT
BRANCH   1  12
ATOM     12  C   UNL     1      47.413  -8.029  -3.361  1.00  0.00     0.021 A 
ATOM     13  C   UNL     1      48.063  -8.932  -2.503  1.00  0.00     0.016 A 
ATOM     14  C   UNL     1      47.684  -9.035  -1.164  1.00  0.00     0.051 A 
ATOM     15  C   UNL     1      46.657  -8.238  -0.648  1.00  0.00     0.157 A 
ATOM     16  C   UNL     1      46.390  -7.217  -2.839  1.00  0.00     0.062 A 
ATOM     17  C   UNL     1      46.003  -7.315  -1.496  1.00  0.00     0.158 A 
BRANCH  15  18
ATOM     18  O   UNL     1      46.325  -8.393   0.700  1.00  0.00    -0.504 OA
ATOM     19  H   UNL     1      46.759  -9.067   1.314  1.00  0.00     0.293 HD
ENDBRANCH  15  18
BRANCH  17  20
ATOM     20  O   UNL     1      44.974  -6.481  -1.053  1.00  0.00    -0.504 OA
ATOM     21  H   UNL     1      45.117  -5.664  -0.479  1.00  0.00     0.293 HD
ENDBRANCH  17  20
ENDBRANCH   1  12
BRANCH   6  22
ATOM     22  O   UNL     1      49.545  -6.752  -9.529  1.00  0.00    -0.507 OA
ATOM     23  H   UNL     1      50.546  -6.876  -9.530  1.00  0.00     0.293 HD
ENDBRANCH   6  22
BRANCH   8  24
ATOM     24  O   UNL     1      46.142 -10.064 -10.125  1.00  0.00    -0.508 OA
ATOM     25  H   UNL     1      46.424 -11.011 -10.348  1.00  0.00     0.293 HD
ENDBRANCH   8  24
TORSDOF 5
ENDMDL
