MODEL 1
REMARK VINA RESULT:    -3.208      0.000      0.000
REMARK INTER + INTRA:         -11.332
REMARK INTER:                  -7.334
REMARK INTRA:                  -3.998
REMARK UNBOUND:                -3.998
REMARK SMILES CCCCCCCCCCCCCCCCCCCCCCCC(=O)[O-]
REMARK SMILES IDX 13 1 14 2 15 3 16 4 17 5 18 6 19 7 20 8 21 9 22 10 23 11
REMARK SMILES IDX 24 12 25 13 26 14 12 15 11 16 10 17 9 18 8 19 7 20 6 21 5 22
REMARK SMILES IDX 4 23 3 24 2 25 1 26
REMARK H PARENT
REMARK Flexibility Score: inf
ROOT
ATOM      1  C   UNL     1    -100.980 -27.371 -14.087  1.00  0.00     0.000 C 
ENDROOT
BRANCH   1   2
ATOM      2  C   UNL     1    -101.981 -27.307 -15.260  1.00  0.00     0.000 C 
BRANCH   2   3
ATOM      3  C   UNL     1    -101.741 -28.335 -16.380  1.00  0.00     0.000 C 
BRANCH   3   4
ATOM      4  C   UNL     1    -102.370 -29.706 -16.076  1.00  0.00     0.000 C 
BRANCH   4   5
ATOM      5  C   UNL     1    -101.362 -30.702 -15.480  1.00  0.00     0.000 C 
BRANCH   5   6
ATOM      6  C   UNL     1     -99.960 -30.570 -16.101  1.00  0.00     0.000 C 
BRANCH   6   7
ATOM      7  C   UNL     1     -98.842 -30.958 -15.118  1.00  0.00     0.000 C 
BRANCH   7   8
ATOM      8  C   UNL     1     -99.141 -30.514 -13.679  1.00  0.00     0.000 C 
BRANCH   8   9
ATOM      9  C   UNL     1     -98.006 -29.641 -13.128  1.00  0.00     0.000 C 
BRANCH   9  10
ATOM     10  C   UNL     1     -97.812 -29.870 -11.625  1.00  0.00     0.006 C 
BRANCH  10  11
ATOM     11  C   UNL     1     -99.161 -30.021 -10.914  1.00  0.00     0.053 C 
BRANCH  11  12
ATOM     12  C   UNL     1     -98.972 -30.205  -9.440  1.00  0.00     0.041 C 
ATOM     13  O   UNL     1     -97.814 -30.327  -8.960  1.00  0.00    -0.550 OA
ATOM     14  O   UNL     1    -100.075 -30.252  -8.596  1.00  0.00    -0.550 OA
ENDBRANCH  11  12
ENDBRANCH  10  11
ENDBRANCH   9  10
ENDBRANCH   8   9
ENDBRANCH   7   8
ENDBRANCH   6   7
ENDBRANCH   5   6
ENDBRANCH   4   5
ENDBRANCH   3   4
ENDBRANCH   2   3
ENDBRANCH   1   2
BRANCH   1  15
ATOM     15  C   UNL     1    -101.553 -27.933 -12.771  1.00  0.00     0.000 C 
BRANCH  15  16
ATOM     16  C   UNL     1    -103.091 -27.884 -12.658  1.00  0.00     0.000 C 
BRANCH  16  17
ATOM     17  C   UNL     1    -103.654 -26.590 -12.044  1.00  0.00     0.000 C 
BRANCH  17  18
ATOM     18  C   UNL     1    -104.864 -26.043 -12.823  1.00  0.00    -0.000 C 
BRANCH  18  19
ATOM     19  C   UNL     1    -104.599 -24.657 -13.432  1.00  0.00    -0.000 C 
BRANCH  19  20
ATOM     20  C   UNL     1    -104.388 -24.714 -14.953  1.00  0.00    -0.000 C 
BRANCH  20  21
ATOM     21  C   UNL     1    -105.665 -24.292 -15.699  1.00  0.00    -0.000 C 
BRANCH  21  22
ATOM     22  C   UNL     1    -106.070 -25.292 -16.794  1.00  0.00    -0.000 C 
BRANCH  22  23
ATOM     23  C   UNL     1    -104.974 -26.335 -17.080  1.00  0.00    -0.000 C 
BRANCH  23  24
ATOM     24  C   UNL     1    -105.483 -27.781 -16.900  1.00  0.00    -0.000 C 
BRANCH  24  25
ATOM     25  C   UNL     1    -106.294 -27.994 -15.610  1.00  0.00    -0.003 C 
ATOM     26  C   UNL     1    -105.778 -29.157 -14.764  1.00  0.00     0.004 C 
ENDBRANCH  24  25
ENDBRANCH  23  24
ENDBRANCH  22  23
ENDBRANCH  21  22
ENDBRANCH  20  21
ENDBRANCH  19  20
ENDBRANCH  18  19
ENDBRANCH  17  18
ENDBRANCH  16  17
ENDBRANCH  15  16
ENDBRANCH   1  15
TORSDOF 22
ENDMDL
MODEL 2
REMARK VINA RESULT:    -3.107      2.152      4.642
REMARK INTER + INTRA:         -11.102
REMARK INTER:                  -6.703
REMARK INTRA:                  -4.399
REMARK UNBOUND:                -3.998
REMARK SMILES CCCCCCCCCCCCCCCCCCCCCCCC(=O)[O-]
REMARK SMILES IDX 13 1 14 2 15 3 16 4 17 5 18 6 19 7 20 8 21 9 22 10 23 11
REMARK SMILES IDX 24 12 25 13 26 14 12 15 11 16 10 17 9 18 8 19 7 20 6 21 5 22
REMARK SMILES IDX 4 23 3 24 2 25 1 26
REMARK H PARENT
REMARK Flexibility Score: inf
ROOT
ATOM      1  C   UNL     1    -102.414 -28.346 -16.692  1.00  0.00     0.000 C 
ENDROOT
BRANCH   1   2
ATOM      2  C   UNL     1    -101.357 -29.384 -16.263  1.00  0.00     0.000 C 
BRANCH   2   3
ATOM      3  C   UNL     1    -101.923 -30.736 -15.792  1.00  0.00     0.000 C 
BRANCH   3   4
ATOM      4  C   UNL     1    -103.432 -30.679 -15.495  1.00  0.00     0.000 C 
BRANCH   4   5
ATOM      5  C   UNL     1    -103.738 -30.610 -13.990  1.00  0.00     0.000 C 
BRANCH   5   6
ATOM      6  C   UNL     1    -104.565 -29.370 -13.609  1.00  0.00     0.000 C 
BRANCH   6   7
ATOM      7  C   UNL     1    -103.765 -28.366 -12.761  1.00  0.00     0.000 C 
BRANCH   7   8
ATOM      8  C   UNL     1    -102.362 -28.880 -12.405  1.00  0.00     0.000 C 
BRANCH   8   9
ATOM      9  C   UNL     1    -101.358 -27.723 -12.334  1.00  0.00     0.000 C 
BRANCH   9  10
ATOM     10  C   UNL     1    -100.103 -28.028 -13.159  1.00  0.00     0.006 C 
BRANCH  10  11
ATOM     11  C   UNL     1     -99.693 -29.498 -13.011  1.00  0.00     0.053 C 
BRANCH  11  12
ATOM     12  C   UNL     1     -98.386 -29.620 -12.292  1.00  0.00     0.041 C 
ATOM     13  O   UNL     1     -97.303 -29.581 -12.934  1.00  0.00    -0.550 OA
ATOM     14  O   UNL     1     -98.362 -29.787 -10.912  1.00  0.00    -0.550 OA
ENDBRANCH  11  12
ENDBRANCH  10  11
ENDBRANCH   9  10
ENDBRANCH   8   9
ENDBRANCH   7   8
ENDBRANCH   6   7
ENDBRANCH   5   6
ENDBRANCH   4   5
ENDBRANCH   3   4
ENDBRANCH   2   3
ENDBRANCH   1   2
BRANCH   1  15
ATOM     15  C   UNL     1    -102.434 -27.052 -15.855  1.00  0.00     0.000 C 
BRANCH  15  16
ATOM     16  C   UNL     1    -103.518 -26.031 -16.259  1.00  0.00     0.000 C 
BRANCH  16  17
ATOM     17  C   UNL     1    -104.963 -26.470 -15.961  1.00  0.00     0.000 C 
BRANCH  17  18
ATOM     18  C   UNL     1    -105.541 -25.794 -14.705  1.00  0.00    -0.000 C 
BRANCH  18  19
ATOM     19  C   UNL     1    -104.713 -24.582 -14.250  1.00  0.00    -0.000 C 
BRANCH  19  20
ATOM     20  C   UNL     1    -104.456 -24.581 -12.736  1.00  0.00    -0.000 C 
BRANCH  20  21
ATOM     21  C   UNL     1    -105.629 -25.228 -11.980  1.00  0.00    -0.000 C 
BRANCH  21  22
ATOM     22  C   UNL     1    -105.231 -25.726 -10.582  1.00  0.00    -0.000 C 
BRANCH  22  23
ATOM     23  C   UNL     1    -103.730 -25.545 -10.292  1.00  0.00    -0.000 C 
BRANCH  23  24
ATOM     24  C   UNL     1    -103.476 -24.659  -9.053  1.00  0.00    -0.000 C 
BRANCH  24  25
ATOM     25  C   UNL     1    -103.579 -23.152  -9.340  1.00  0.00    -0.003 C 
ATOM     26  C   UNL     1    -104.857 -22.523  -8.786  1.00  0.00     0.004 C 
ENDBRANCH  24  25
ENDBRANCH  23  24
ENDBRANCH  22  23
ENDBRANCH  21  22
ENDBRANCH  20  21
ENDBRANCH  19  20
ENDBRANCH  18  19
ENDBRANCH  17  18
ENDBRANCH  16  17
ENDBRANCH  15  16
ENDBRANCH   1  15
TORSDOF 22
ENDMDL
MODEL 3
REMARK VINA RESULT:    -3.086      1.793      4.127
REMARK INTER + INTRA:         -11.053
REMARK INTER:                  -7.314
REMARK INTRA:                  -3.738
REMARK UNBOUND:                -3.998
REMARK SMILES CCCCCCCCCCCCCCCCCCCCCCCC(=O)[O-]
REMARK SMILES IDX 13 1 14 2 15 3 16 4 17 5 18 6 19 7 20 8 21 9 22 10 23 11
REMARK SMILES IDX 24 12 25 13 26 14 12 15 11 16 10 17 9 18 8 19 7 20 6 21 5 22
REMARK SMILES IDX 4 23 3 24 2 25 1 26
REMARK H PARENT
REMARK Flexibility Score: inf
ROOT
ATOM      1  C   UNL     1    -102.725 -28.806 -16.378  1.00  0.00     0.000 C 
ENDROOT
BRANCH   1   2
ATOM      2  C   UNL     1    -101.540 -29.752 -16.093  1.00  0.00     0.000 C 
BRANCH   2   3
ATOM      3  C   UNL     1    -101.751 -30.728 -14.922  1.00  0.00     0.000 C 
BRANCH   3   4
ATOM      4  C   UNL     1    -103.128 -30.569 -14.254  1.00  0.00     0.000 C 
BRANCH   4   5
ATOM      5  C   UNL     1    -103.034 -29.990 -12.832  1.00  0.00     0.000 C 
BRANCH   5   6
ATOM      6  C   UNL     1    -103.667 -28.592 -12.716  1.00  0.00     0.000 C 
BRANCH   6   7
ATOM      7  C   UNL     1    -102.614 -27.472 -12.659  1.00  0.00     0.000 C 
BRANCH   7   8
ATOM      8  C   UNL     1    -101.225 -27.988 -12.256  1.00  0.00     0.000 C 
BRANCH   8   9
ATOM      9  C   UNL     1    -100.187 -27.669 -13.339  1.00  0.00     0.000 C 
BRANCH   9  10
ATOM     10  C   UNL     1     -99.046 -28.693 -13.330  1.00  0.00     0.006 C 
BRANCH  10  11
ATOM     11  C   UNL     1     -99.251 -29.733 -12.223  1.00  0.00     0.053 C 
BRANCH  11  12
ATOM     12  C   UNL     1     -97.984 -29.957 -11.457  1.00  0.00     0.041 C 
ATOM     13  O   UNL     1     -97.976 -29.853 -10.201  1.00  0.00    -0.550 OA
ATOM     14  O   UNL     1     -96.808 -30.268 -12.128  1.00  0.00    -0.550 OA
ENDBRANCH  11  12
ENDBRANCH  10  11
ENDBRANCH   9  10
ENDBRANCH   8   9
ENDBRANCH   7   8
ENDBRANCH   6   7
ENDBRANCH   5   6
ENDBRANCH   4   5
ENDBRANCH   3   4
ENDBRANCH   2   3
ENDBRANCH   1   2
BRANCH   1  15
ATOM     15  C   UNL     1    -102.420 -27.306 -16.196  1.00  0.00     0.000 C 
BRANCH  15  16
ATOM     16  C   UNL     1    -103.433 -26.350 -16.860  1.00  0.00     0.000 C 
BRANCH  16  17
ATOM     17  C   UNL     1    -104.644 -25.980 -15.985  1.00  0.00     0.000 C 
BRANCH  17  18
ATOM     18  C   UNL     1    -104.299 -24.939 -14.905  1.00  0.00    -0.000 C 
BRANCH  18  19
ATOM     19  C   UNL     1    -104.792 -23.529 -15.262  1.00  0.00    -0.000 C 
BRANCH  19  20
ATOM     20  C   UNL     1    -105.864 -23.017 -14.287  1.00  0.00    -0.000 C 
BRANCH  20  21
ATOM     21  C   UNL     1    -105.327 -21.844 -13.449  1.00  0.00    -0.000 C 
BRANCH  21  22
ATOM     22  C   UNL     1    -104.870 -22.278 -12.047  1.00  0.00    -0.000 C 
BRANCH  22  23
ATOM     23  C   UNL     1    -105.571 -23.561 -11.565  1.00  0.00    -0.000 C 
BRANCH  23  24
ATOM     24  C   UNL     1    -104.565 -24.680 -11.215  1.00  0.00    -0.000 C 
BRANCH  24  25
ATOM     25  C   UNL     1    -104.607 -25.108  -9.739  1.00  0.00    -0.003 C 
ATOM     26  C   UNL     1    -103.418 -25.977  -9.334  1.00  0.00     0.004 C 
ENDBRANCH  24  25
ENDBRANCH  23  24
ENDBRANCH  22  23
ENDBRANCH  21  22
ENDBRANCH  20  21
ENDBRANCH  19  20
ENDBRANCH  18  19
ENDBRANCH  17  18
ENDBRANCH  16  17
ENDBRANCH  15  16
ENDBRANCH   1  15
TORSDOF 22
ENDMDL
MODEL 4
REMARK VINA RESULT:    -3.050      1.776      3.734
REMARK INTER + INTRA:         -10.970
REMARK INTER:                  -6.299
REMARK INTRA:                  -4.671
REMARK UNBOUND:                -3.998
REMARK SMILES CCCCCCCCCCCCCCCCCCCCCCCC(=O)[O-]
REMARK SMILES IDX 13 1 14 2 15 3 16 4 17 5 18 6 19 7 20 8 21 9 22 10 23 11
REMARK SMILES IDX 24 12 25 13 26 14 12 15 11 16 10 17 9 18 8 19 7 20 6 21 5 22
REMARK SMILES IDX 4 23 3 24 2 25 1 26
REMARK H PARENT
REMARK Flexibility Score: inf
ROOT
ATOM      1  C   UNL     1    -102.635 -29.416 -16.124  1.00  0.00     0.000 C 
ENDROOT
BRANCH   1   2
ATOM      2  C   UNL     1    -101.668 -30.612 -15.994  1.00  0.00     0.000 C 
BRANCH   2   3
ATOM      3  C   UNL     1    -100.173 -30.248 -16.024  1.00  0.00     0.000 C 
BRANCH   3   4
ATOM      4  C   UNL     1     -99.363 -30.962 -14.927  1.00  0.00     0.000 C 
BRANCH   4   5
ATOM      5  C   UNL     1     -99.697 -30.451 -13.516  1.00  0.00     0.000 C 
BRANCH   5   6
ATOM      6  C   UNL     1     -99.028 -29.102 -13.199  1.00  0.00     0.000 C 
BRANCH   6   7
ATOM      7  C   UNL     1    -100.038 -27.945 -13.128  1.00  0.00     0.000 C 
BRANCH   7   8
ATOM      8  C   UNL     1    -101.439 -28.409 -12.705  1.00  0.00     0.000 C 
BRANCH   8   9
ATOM      9  C   UNL     1    -102.014 -27.494 -11.618  1.00  0.00     0.000 C 
BRANCH   9  10
ATOM     10  C   UNL     1    -102.230 -28.258 -10.307  1.00  0.00     0.006 C 
BRANCH  10  11
ATOM     11  C   UNL     1    -101.601 -29.655 -10.377  1.00  0.00     0.053 C 
BRANCH  11  12
ATOM     12  C   UNL     1    -100.456 -29.776  -9.421  1.00  0.00     0.041 C 
ATOM     13  O   UNL     1     -99.331 -30.171  -9.827  1.00  0.00    -0.550 OA
ATOM     14  O   UNL     1    -100.632 -29.464  -8.078  1.00  0.00    -0.550 OA
ENDBRANCH  11  12
ENDBRANCH  10  11
ENDBRANCH   9  10
ENDBRANCH   8   9
ENDBRANCH   7   8
ENDBRANCH   6   7
ENDBRANCH   5   6
ENDBRANCH   4   5
ENDBRANCH   3   4
ENDBRANCH   2   3
ENDBRANCH   1   2
BRANCH   1  15
ATOM     15  C   UNL     1    -101.967 -28.073 -16.476  1.00  0.00     0.000 C 
BRANCH  15  16
ATOM     16  C   UNL     1    -102.452 -26.867 -15.645  1.00  0.00     0.000 C 
BRANCH  16  17
ATOM     17  C   UNL     1    -103.493 -25.975 -16.345  1.00  0.00     0.000 C 
BRANCH  17  18
ATOM     18  C   UNL     1    -104.246 -25.061 -15.363  1.00  0.00    -0.000 C 
BRANCH  18  19
ATOM     19  C   UNL     1    -105.508 -25.722 -14.787  1.00  0.00    -0.000 C 
BRANCH  19  20
ATOM     20  C   UNL     1    -105.288 -26.275 -13.371  1.00  0.00    -0.000 C 
BRANCH  20  21
ATOM     21  C   UNL     1    -105.219 -27.811 -13.387  1.00  0.00    -0.000 C 
BRANCH  21  22
ATOM     22  C   UNL     1    -105.631 -28.438 -12.045  1.00  0.00    -0.000 C 
BRANCH  22  23
ATOM     23  C   UNL     1    -105.171 -29.900 -11.907  1.00  0.00    -0.000 C 
BRANCH  23  24
ATOM     24  C   UNL     1    -104.522 -30.434 -13.202  1.00  0.00    -0.000 C 
BRANCH  24  25
ATOM     25  C   UNL     1    -103.440 -31.499 -12.957  1.00  0.00    -0.003 C 
ATOM     26  C   UNL     1    -103.749 -32.833 -13.635  1.00  0.00     0.004 C 
ENDBRANCH  24  25
ENDBRANCH  23  24
ENDBRANCH  22  23
ENDBRANCH  21  22
ENDBRANCH  20  21
ENDBRANCH  19  20
ENDBRANCH  18  19
ENDBRANCH  17  18
ENDBRANCH  16  17
ENDBRANCH  15  16
ENDBRANCH   1  15
TORSDOF 22
ENDMDL
MODEL 5
REMARK VINA RESULT:    -2.998      2.369      4.511
REMARK INTER + INTRA:         -10.853
REMARK INTER:                  -6.843
REMARK INTRA:                  -4.010
REMARK UNBOUND:                -3.998
REMARK SMILES CCCCCCCCCCCCCCCCCCCCCCCC(=O)[O-]
REMARK SMILES IDX 13 1 14 2 15 3 16 4 17 5 18 6 19 7 20 8 21 9 22 10 23 11
REMARK SMILES IDX 24 12 25 13 26 14 12 15 11 16 10 17 9 18 8 19 7 20 6 21 5 22
REMARK SMILES IDX 4 23 3 24 2 25 1 26
REMARK H PARENT
REMARK Flexibility Score: inf
ROOT
ATOM      1  C   UNL     1    -103.143 -30.548 -14.519  1.00  0.00     0.000 C 
ENDROOT
BRANCH   1   2
ATOM      2  C   UNL     1    -104.493 -29.978 -14.036  1.00  0.00     0.000 C 
BRANCH   2   3
ATOM      3  C   UNL     1    -104.415 -29.089 -12.782  1.00  0.00     0.000 C 
BRANCH   3   4
ATOM      4  C   UNL     1    -104.137 -27.612 -13.114  1.00  0.00     0.000 C 
BRANCH   4   5
ATOM      5  C   UNL     1    -102.656 -27.235 -12.946  1.00  0.00     0.000 C 
BRANCH   5   6
ATOM      6  C   UNL     1    -102.085 -27.664 -11.583  1.00  0.00     0.000 C 
BRANCH   6   7
ATOM      7  C   UNL     1    -100.909 -28.645 -11.719  1.00  0.00     0.000 C 
BRANCH   7   8
ATOM      8  C   UNL     1    -100.261 -28.601 -13.111  1.00  0.00     0.000 C 
BRANCH   8   9
ATOM      9  C   UNL     1     -98.773 -28.963 -13.035  1.00  0.00     0.000 C 
BRANCH   9  10
ATOM     10  C   UNL     1     -98.579 -30.473 -12.858  1.00  0.00     0.006 C 
BRANCH  10  11
ATOM     11  C   UNL     1     -99.492 -31.259 -13.806  1.00  0.00     0.053 C 
BRANCH  11  12
ATOM     12  C   UNL     1     -98.765 -31.637 -15.059  1.00  0.00     0.041 C 
ATOM     13  O   UNL     1     -97.521 -31.462 -15.147  1.00  0.00    -0.550 OA
ATOM     14  O   UNL     1     -99.462 -32.173 -16.136  1.00  0.00    -0.550 OA
ENDBRANCH  11  12
ENDBRANCH  10  11
ENDBRANCH   9  10
ENDBRANCH   8   9
ENDBRANCH   7   8
ENDBRANCH   6   7
ENDBRANCH   5   6
ENDBRANCH   4   5
ENDBRANCH   3   4
ENDBRANCH   2   3
ENDBRANCH   1   2
BRANCH   1  15
ATOM     15  C   UNL     1    -102.807 -30.262 -15.996  1.00  0.00     0.000 C 
BRANCH  15  16
ATOM     16  C   UNL     1    -101.583 -29.350 -16.220  1.00  0.00     0.000 C 
BRANCH  16  17
ATOM     17  C   UNL     1    -101.913 -27.856 -16.393  1.00  0.00     0.000 C 
BRANCH  17  18
ATOM     18  C   UNL     1    -103.387 -27.613 -16.762  1.00  0.00    -0.000 C 
BRANCH  18  19
ATOM     19  C   UNL     1    -103.807 -26.145 -16.588  1.00  0.00    -0.000 C 
BRANCH  19  20
ATOM     20  C   UNL     1    -105.323 -25.987 -16.394  1.00  0.00    -0.000 C 
BRANCH  20  21
ATOM     21  C   UNL     1    -105.680 -24.538 -16.024  1.00  0.00    -0.000 C 
BRANCH  21  22
ATOM     22  C   UNL     1    -104.626 -23.880 -15.119  1.00  0.00    -0.000 C 
BRANCH  22  23
ATOM     23  C   UNL     1    -105.233 -23.286 -13.835  1.00  0.00    -0.000 C 
BRANCH  23  24
ATOM     24  C   UNL     1    -105.157 -24.267 -12.645  1.00  0.00    -0.000 C 
BRANCH  24  25
ATOM     25  C   UNL     1    -104.438 -23.689 -11.414  1.00  0.00    -0.003 C 
ATOM     26  C   UNL     1    -104.227 -24.718 -10.306  1.00  0.00     0.004 C 
ENDBRANCH  24  25
ENDBRANCH  23  24
ENDBRANCH  22  23
ENDBRANCH  21  22
ENDBRANCH  20  21
ENDBRANCH  19  20
ENDBRANCH  18  19
ENDBRANCH  17  18
ENDBRANCH  16  17
ENDBRANCH  15  16
ENDBRANCH   1  15
TORSDOF 22
ENDMDL
MODEL 6
REMARK VINA RESULT:    -2.986      1.520      3.796
REMARK INTER + INTRA:         -10.824
REMARK INTER:                  -6.306
REMARK INTRA:                  -4.517
REMARK UNBOUND:                -3.998
REMARK SMILES CCCCCCCCCCCCCCCCCCCCCCCC(=O)[O-]
REMARK SMILES IDX 13 1 14 2 15 3 16 4 17 5 18 6 19 7 20 8 21 9 22 10 23 11
REMARK SMILES IDX 24 12 25 13 26 14 12 15 11 16 10 17 9 18 8 19 7 20 6 21 5 22
REMARK SMILES IDX 4 23 3 24 2 25 1 26
REMARK H PARENT
REMARK Flexibility Score: inf
ROOT
ATOM      1  C   UNL     1    -103.839 -31.353 -13.935  1.00  0.00     0.000 C 
ENDROOT
BRANCH   1   2
ATOM      2  C   UNL     1    -102.342 -31.329 -14.308  1.00  0.00     0.000 C 
BRANCH   2   3
ATOM      3  C   UNL     1    -102.022 -31.749 -15.754  1.00  0.00     0.000 C 
BRANCH   3   4
ATOM      4  C   UNL     1    -102.052 -30.566 -16.738  1.00  0.00     0.000 C 
BRANCH   4   5
ATOM      5  C   UNL     1    -101.224 -29.366 -16.249  1.00  0.00     0.000 C 
BRANCH   5   6
ATOM      6  C   UNL     1    -101.981 -28.032 -16.371  1.00  0.00     0.000 C 
BRANCH   6   7
ATOM      7  C   UNL     1    -102.001 -27.243 -15.051  1.00  0.00     0.000 C 
BRANCH   7   8
ATOM      8  C   UNL     1    -100.790 -27.553 -14.159  1.00  0.00     0.000 C 
BRANCH   8   9
ATOM      9  C   UNL     1    -101.238 -28.089 -12.793  1.00  0.00     0.000 C 
BRANCH   9  10
ATOM     10  C   UNL     1    -100.219 -29.085 -12.228  1.00  0.00     0.006 C 
BRANCH  10  11
ATOM     11  C   UNL     1     -98.937 -29.094 -13.069  1.00  0.00     0.053 C 
BRANCH  11  12
ATOM     12  C   UNL     1     -97.804 -29.715 -12.312  1.00  0.00     0.041 C 
ATOM     13  O   UNL     1     -97.850 -29.796 -11.056  1.00  0.00    -0.550 OA
ATOM     14  O   UNL     1     -96.691 -30.196 -12.992  1.00  0.00    -0.550 OA
ENDBRANCH  11  12
ENDBRANCH  10  11
ENDBRANCH   9  10
ENDBRANCH   8   9
ENDBRANCH   7   8
ENDBRANCH   6   7
ENDBRANCH   5   6
ENDBRANCH   4   5
ENDBRANCH   3   4
ENDBRANCH   2   3
ENDBRANCH   1   2
BRANCH   1  15
ATOM     15  C   UNL     1    -104.380 -30.042 -13.329  1.00  0.00     0.000 C 
BRANCH  15  16
ATOM     16  C   UNL     1    -104.898 -29.015 -14.357  1.00  0.00     0.000 C 
BRANCH  16  17
ATOM     17  C   UNL     1    -105.482 -29.625 -15.645  1.00  0.00     0.000 C 
BRANCH  17  18
ATOM     18  C   UNL     1    -105.692 -28.578 -16.753  1.00  0.00    -0.000 C 
BRANCH  18  19
ATOM     19  C   UNL     1    -106.807 -27.576 -16.418  1.00  0.00    -0.000 C 
BRANCH  19  20
ATOM     20  C   UNL     1    -106.313 -26.121 -16.431  1.00  0.00    -0.000 C 
BRANCH  20  21
ATOM     21  C   UNL     1    -106.244 -25.552 -15.004  1.00  0.00    -0.000 C 
BRANCH  21  22
ATOM     22  C   UNL     1    -105.031 -24.634 -14.789  1.00  0.00    -0.000 C 
BRANCH  22  23
ATOM     23  C   UNL     1    -104.229 -24.994 -13.525  1.00  0.00    -0.000 C 
BRANCH  23  24
ATOM     24  C   UNL     1    -105.118 -25.624 -12.430  1.00  0.00    -0.000 C 
BRANCH  24  25
ATOM     25  C   UNL     1    -104.388 -26.670 -11.570  1.00  0.00    -0.003 C 
ATOM     26  C   UNL     1    -103.507 -26.046 -10.489  1.00  0.00     0.004 C 
ENDBRANCH  24  25
ENDBRANCH  23  24
ENDBRANCH  22  23
ENDBRANCH  21  22
ENDBRANCH  20  21
ENDBRANCH  19  20
ENDBRANCH  18  19
ENDBRANCH  17  18
ENDBRANCH  16  17
ENDBRANCH  15  16
ENDBRANCH   1  15
TORSDOF 22
ENDMDL
MODEL 7
REMARK VINA RESULT:    -2.981      2.058      4.634
REMARK INTER + INTRA:         -10.814
REMARK INTER:                  -7.197
REMARK INTRA:                  -3.618
REMARK UNBOUND:                -3.998
REMARK SMILES CCCCCCCCCCCCCCCCCCCCCCCC(=O)[O-]
REMARK SMILES IDX 13 1 14 2 15 3 16 4 17 5 18 6 19 7 20 8 21 9 22 10 23 11
REMARK SMILES IDX 24 12 25 13 26 14 12 15 11 16 10 17 9 18 8 19 7 20 6 21 5 22
REMARK SMILES IDX 4 23 3 24 2 25 1 26
REMARK H PARENT
REMARK Flexibility Score: inf
ROOT
ATOM      1  C   UNL     1    -102.347 -30.778 -14.127  1.00  0.00     0.000 C 
ENDROOT
BRANCH   1   2
ATOM      2  C   UNL     1    -103.826 -30.434 -14.403  1.00  0.00     0.000 C 
BRANCH   2   3
ATOM      3  C   UNL     1    -104.621 -29.940 -13.181  1.00  0.00     0.000 C 
BRANCH   3   4
ATOM      4  C   UNL     1    -104.852 -28.419 -13.195  1.00  0.00     0.000 C 
BRANCH   4   5
ATOM      5  C   UNL     1    -103.947 -27.672 -12.202  1.00  0.00     0.000 C 
BRANCH   5   6
ATOM      6  C   UNL     1    -102.594 -27.271 -12.816  1.00  0.00     0.000 C 
BRANCH   6   7
ATOM      7  C   UNL     1    -101.399 -27.796 -12.003  1.00  0.00     0.000 C 
BRANCH   7   8
ATOM      8  C   UNL     1    -101.823 -28.765 -10.889  1.00  0.00     0.000 C 
BRANCH   8   9
ATOM      9  C   UNL     1    -100.846 -29.942 -10.787  1.00  0.00     0.000 C 
BRANCH   9  10
ATOM     10  C   UNL     1     -99.600 -29.704 -11.648  1.00  0.00     0.006 C 
BRANCH  10  11
ATOM     11  C   UNL     1     -98.320 -29.957 -10.843  1.00  0.00     0.053 C 
BRANCH  11  12
ATOM     12  C   UNL     1     -97.193 -30.364 -11.741  1.00  0.00     0.041 C 
ATOM     13  O   UNL     1     -96.906 -29.668 -12.751  1.00  0.00    -0.550 OA
ATOM     14  O   UNL     1     -96.466 -31.517 -11.471  1.00  0.00    -0.550 OA
ENDBRANCH  11  12
ENDBRANCH  10  11
ENDBRANCH   9  10
ENDBRANCH   8   9
ENDBRANCH   7   8
ENDBRANCH   6   7
ENDBRANCH   5   6
ENDBRANCH   4   5
ENDBRANCH   3   4
ENDBRANCH   2   3
ENDBRANCH   1   2
BRANCH   1  15
ATOM     15  C   UNL     1    -101.330 -30.044 -15.023  1.00  0.00     0.000 C 
BRANCH  15  16
ATOM     16  C   UNL     1    -101.909 -29.472 -16.333  1.00  0.00     0.000 C 
BRANCH  16  17
ATOM     17  C   UNL     1    -101.999 -27.936 -16.385  1.00  0.00     0.000 C 
BRANCH  17  18
ATOM     18  C   UNL     1    -103.446 -27.431 -16.519  1.00  0.00    -0.000 C 
BRANCH  18  19
ATOM     19  C   UNL     1    -103.531 -25.904 -16.663  1.00  0.00    -0.000 C 
BRANCH  19  20
ATOM     20  C   UNL     1    -104.699 -25.302 -15.867  1.00  0.00    -0.000 C 
BRANCH  20  21
ATOM     21  C   UNL     1    -104.212 -24.739 -14.521  1.00  0.00    -0.000 C 
BRANCH  21  22
ATOM     22  C   UNL     1    -105.349 -24.124 -13.689  1.00  0.00    -0.000 C 
BRANCH  22  23
ATOM     23  C   UNL     1    -104.878 -23.642 -12.305  1.00  0.00    -0.000 C 
BRANCH  23  24
ATOM     24  C   UNL     1    -104.960 -22.107 -12.162  1.00  0.00    -0.000 C 
BRANCH  24  25
ATOM     25  C   UNL     1    -103.912 -21.521 -11.201  1.00  0.00    -0.003 C 
ATOM     26  C   UNL     1    -104.132 -21.939  -9.748  1.00  0.00     0.004 C 
ENDBRANCH  24  25
ENDBRANCH  23  24
ENDBRANCH  22  23
ENDBRANCH  21  22
ENDBRANCH  20  21
ENDBRANCH  19  20
ENDBRANCH  18  19
ENDBRANCH  17  18
ENDBRANCH  16  17
ENDBRANCH  15  16
ENDBRANCH   1  15
TORSDOF 22
ENDMDL
MODEL 8
REMARK VINA RESULT:    -2.965      2.767      6.328
REMARK INTER + INTRA:         -10.777
REMARK INTER:                  -6.702
REMARK INTRA:                  -4.075
REMARK UNBOUND:                -3.998
REMARK SMILES CCCCCCCCCCCCCCCCCCCCCCCC(=O)[O-]
REMARK SMILES IDX 13 1 14 2 15 3 16 4 17 5 18 6 19 7 20 8 21 9 22 10 23 11
REMARK SMILES IDX 24 12 25 13 26 14 12 15 11 16 10 17 9 18 8 19 7 20 6 21 5 22
REMARK SMILES IDX 4 23 3 24 2 25 1 26
REMARK H PARENT
REMARK Flexibility Score: inf
ROOT
ATOM      1  C   UNL     1    -101.308 -30.583 -16.230  1.00  0.00     0.000 C 
ENDROOT
BRANCH   1   2
ATOM      2  C   UNL     1    -102.300 -29.409 -16.356  1.00  0.00     0.000 C 
BRANCH   2   3
ATOM      3  C   UNL     1    -101.656 -28.011 -16.400  1.00  0.00     0.000 C 
BRANCH   3   4
ATOM      4  C   UNL     1    -102.572 -26.914 -15.830  1.00  0.00     0.000 C 
BRANCH   4   5
ATOM      5  C   UNL     1    -103.577 -26.383 -16.866  1.00  0.00     0.000 C 
BRANCH   5   6
ATOM      6  C   UNL     1    -104.761 -25.643 -16.220  1.00  0.00     0.000 C 
BRANCH   6   7
ATOM      7  C   UNL     1    -104.311 -24.623 -15.160  1.00  0.00     0.000 C 
BRANCH   7   8
ATOM      8  C   UNL     1    -105.356 -24.422 -14.052  1.00  0.00     0.000 C 
BRANCH   8   9
ATOM      9  C   UNL     1    -104.708 -23.855 -12.784  1.00  0.00     0.000 C 
BRANCH   9  10
ATOM     10  C   UNL     1    -105.514 -24.228 -11.535  1.00  0.00     0.006 C 
BRANCH  10  11
ATOM     11  C   UNL     1    -105.679 -23.019 -10.607  1.00  0.00     0.053 C 
BRANCH  11  12
ATOM     12  C   UNL     1    -104.609 -22.998  -9.560  1.00  0.00     0.041 C 
ATOM     13  O   UNL     1    -103.951 -24.042  -9.305  1.00  0.00    -0.550 OA
ATOM     14  O   UNL     1    -104.344 -21.829  -8.856  1.00  0.00    -0.550 OA
ENDBRANCH  11  12
ENDBRANCH  10  11
ENDBRANCH   9  10
ENDBRANCH   8   9
ENDBRANCH   7   8
ENDBRANCH   6   7
ENDBRANCH   5   6
ENDBRANCH   4   5
ENDBRANCH   3   4
ENDBRANCH   2   3
ENDBRANCH   1   2
BRANCH   1  15
ATOM     15  C   UNL     1    -101.251 -31.242 -14.838  1.00  0.00     0.000 C 
BRANCH  15  16
ATOM     16  C   UNL     1     -99.839 -31.355 -14.228  1.00  0.00     0.000 C 
BRANCH  16  17
ATOM     17  C   UNL     1     -99.595 -30.472 -12.991  1.00  0.00     0.000 C 
BRANCH  17  18
ATOM     18  C   UNL     1     -99.091 -29.065 -13.357  1.00  0.00    -0.000 C 
BRANCH  18  19
ATOM     19  C   UNL     1    -100.138 -27.973 -13.094  1.00  0.00    -0.000 C 
BRANCH  19  20
ATOM     20  C   UNL     1    -101.356 -28.500 -12.320  1.00  0.00    -0.000 C 
BRANCH  20  21
ATOM     21  C   UNL     1    -102.201 -27.339 -11.769  1.00  0.00    -0.000 C 
BRANCH  21  22
ATOM     22  C   UNL     1    -103.623 -27.311 -12.351  1.00  0.00    -0.000 C 
BRANCH  22  23
ATOM     23  C   UNL     1    -104.012 -28.637 -13.031  1.00  0.00    -0.000 C 
BRANCH  23  24
ATOM     24  C   UNL     1    -105.334 -28.523 -13.820  1.00  0.00    -0.000 C 
BRANCH  24  25
ATOM     25  C   UNL     1    -105.532 -29.641 -14.857  1.00  0.00    -0.003 C 
ATOM     26  C   UNL     1    -106.029 -29.126 -16.206  1.00  0.00     0.004 C 
ENDBRANCH  24  25
ENDBRANCH  23  24
ENDBRANCH  22  23
ENDBRANCH  21  22
ENDBRANCH  20  21
ENDBRANCH  19  20
ENDBRANCH  18  19
ENDBRANCH  17  18
ENDBRANCH  16  17
ENDBRANCH  15  16
ENDBRANCH   1  15
TORSDOF 22
ENDMDL
MODEL 9
REMARK VINA RESULT:    -2.953      3.012      7.776
REMARK INTER + INTRA:         -10.748
REMARK INTER:                  -6.834
REMARK INTRA:                  -3.914
REMARK UNBOUND:                -3.998
REMARK SMILES CCCCCCCCCCCCCCCCCCCCCCCC(=O)[O-]
REMARK SMILES IDX 13 1 14 2 15 3 16 4 17 5 18 6 19 7 20 8 21 9 22 10 23 11
REMARK SMILES IDX 24 12 25 13 26 14 12 15 11 16 10 17 9 18 8 19 7 20 6 21 5 22
REMARK SMILES IDX 4 23 3 24 2 25 1 26
REMARK H PARENT
REMARK Flexibility Score: inf
ROOT
ATOM      1  C   UNL     1    -102.290 -28.069 -13.675  1.00  0.00     0.000 C 
ENDROOT
BRANCH   1   2
ATOM      2  C   UNL     1    -101.846 -27.573 -12.283  1.00  0.00     0.000 C 
BRANCH   2   3
ATOM      3  C   UNL     1    -102.986 -27.087 -11.369  1.00  0.00     0.000 C 
BRANCH   3   4
ATOM      4  C   UNL     1    -104.215 -26.601 -12.157  1.00  0.00     0.000 C 
BRANCH   4   5
ATOM      5  C   UNL     1    -104.598 -25.150 -11.822  1.00  0.00     0.000 C 
BRANCH   5   6
ATOM      6  C   UNL     1    -104.629 -24.242 -13.065  1.00  0.00     0.000 C 
BRANCH   6   7
ATOM      7  C   UNL     1    -104.226 -24.986 -14.348  1.00  0.00     0.000 C 
BRANCH   7   8
ATOM      8  C   UNL     1    -104.811 -24.341 -15.614  1.00  0.00     0.000 C 
BRANCH   8   9
ATOM      9  C   UNL     1    -105.584 -25.371 -16.446  1.00  0.00     0.000 C 
BRANCH   9  10
ATOM     10  C   UNL     1    -105.534 -26.758 -15.796  1.00  0.00     0.006 C 
BRANCH  10  11
ATOM     11  C   UNL     1    -105.473 -27.861 -16.859  1.00  0.00     0.053 C 
BRANCH  11  12
ATOM     12  C   UNL     1    -106.087 -29.128 -16.352  1.00  0.00     0.041 C 
ATOM     13  O   UNL     1    -105.589 -30.242 -16.663  1.00  0.00    -0.550 OA
ATOM     14  O   UNL     1    -107.217 -29.082 -15.544  1.00  0.00    -0.550 OA
ENDBRANCH  11  12
ENDBRANCH  10  11
ENDBRANCH   9  10
ENDBRANCH   8   9
ENDBRANCH   7   8
ENDBRANCH   6   7
ENDBRANCH   5   6
ENDBRANCH   4   5
ENDBRANCH   3   4
ENDBRANCH   2   3
ENDBRANCH   1   2
BRANCH   1  15
ATOM     15  C   UNL     1    -101.607 -27.367 -14.865  1.00  0.00     0.000 C 
BRANCH  15  16
ATOM     16  C   UNL     1    -101.911 -27.984 -16.246  1.00  0.00     0.000 C 
BRANCH  16  17
ATOM     17  C   UNL     1    -102.124 -29.509 -16.242  1.00  0.00     0.000 C 
BRANCH  17  18
ATOM     18  C   UNL     1    -100.806 -30.291 -16.383  1.00  0.00    -0.000 C 
BRANCH  18  19
ATOM     19  C   UNL     1    -100.382 -30.978 -15.075  1.00  0.00    -0.000 C 
BRANCH  19  20
ATOM     20  C   UNL     1     -98.924 -31.460 -15.111  1.00  0.00    -0.000 C 
BRANCH  20  21
ATOM     21  C   UNL     1     -98.054 -30.647 -14.137  1.00  0.00    -0.000 C 
BRANCH  21  22
ATOM     22  C   UNL     1     -98.870 -29.639 -13.313  1.00  0.00    -0.000 C 
BRANCH  22  23
ATOM     23  C   UNL     1     -98.445 -29.600 -11.834  1.00  0.00    -0.000 C 
BRANCH  23  24
ATOM     24  C   UNL     1     -99.565 -30.092 -10.891  1.00  0.00    -0.000 C 
BRANCH  24  25
ATOM     25  C   UNL     1    -100.317 -31.326 -11.417  1.00  0.00    -0.003 C 
ATOM     26  C   UNL     1    -101.828 -31.117 -11.495  1.00  0.00     0.004 C 
ENDBRANCH  24  25
ENDBRANCH  23  24
ENDBRANCH  22  23
ENDBRANCH  21  22
ENDBRANCH  20  21
ENDBRANCH  19  20
ENDBRANCH  18  19
ENDBRANCH  17  18
ENDBRANCH  16  17
ENDBRANCH  15  16
ENDBRANCH   1  15
TORSDOF 22
ENDMDL
