MODEL 1
REMARK VINA RESULT:    -6.097      0.000      0.000
REMARK INTER + INTRA:          -9.859
REMARK INTER:                  -8.057
REMARK INTRA:                  -1.802
REMARK UNBOUND:                -1.802
REMARK SMILES CC[C@H](C=C[C@@H](C)[C@H]1CC[C@@H]2C3=CC[C@@H]4C[C@@H](O)CC[C@]4(C)[C@H]3CC[C@@]21C)C(C)C
REMARK SMILES IDX 6 1 7 2 5 3 4 4 3 5 2 6 1 7 28 8 29 9 30 10 8 11 9 12 26 13
REMARK SMILES IDX 10 14 11 15 25 16 27 17 12 18 24 19 23 20 13 21 21 22 14 23
REMARK SMILES IDX 15 24 20 25 22 26 16 27 19 28 17 29 18 30
REMARK H PARENT 18 31
REMARK Flexibility Score: inf
ROOT
ATOM      1  C   UNL     1      42.975   2.953  -7.605  1.00  0.00     0.012 C 
ATOM      2  C   UNL     1      43.868   1.882  -6.938  1.00  0.00     0.012 C 
ENDROOT
BRANCH   1   3
ATOM      3  C   UNL     1      41.634   2.297  -7.887  1.00  0.00    -0.028 C 
ATOM      4  C   UNL     1      40.500   2.721  -7.288  1.00  0.00    -0.027 C 
BRANCH   4   5
ATOM      5  C   UNL     1      39.138   2.621  -7.964  1.00  0.00     0.014 C 
BRANCH   5   6
ATOM      6  C   UNL     1      38.509   4.039  -8.125  1.00  0.00     0.004 C 
ATOM      7  C   UNL     1      39.182   5.086  -7.239  1.00  0.00     0.004 C 
ENDBRANCH   5   6
BRANCH   5   8
ATOM      8  C   UNL     1      39.196   1.819  -9.308  1.00  0.00    -0.011 C 
ATOM      9  C   UNL     1      38.877   0.338  -9.073  1.00  0.00     0.008 C 
ATOM     10  C   UNL     1      38.219   2.380 -10.349  1.00  0.00     0.008 C 
ENDBRANCH   5   8
ENDBRANCH   4   5
ENDBRANCH   1   3
BRANCH   1  11
ATOM     11  C   UNL     1      43.563   3.653  -8.902  1.00  0.00     0.002 C 
ATOM     12  C   UNL     1      43.060   2.877 -10.144  1.00  0.00     0.005 C 
ATOM     13  C   UNL     1      43.078   5.119  -9.218  1.00  0.00    -0.023 C 
ATOM     14  C   UNL     1      41.772   3.557 -10.593  1.00  0.00     0.009 C 
ATOM     15  C   UNL     1      41.675   4.876  -9.812  1.00  0.00     0.021 C 
ATOM     16  C   UNL     1      43.968   5.775 -10.324  1.00  0.00     0.008 C 
ATOM     17  C   UNL     1      43.048   6.041  -7.976  1.00  0.00     0.012 C 
ATOM     18  C   UNL     1      41.111   5.992 -10.661  1.00  0.00    -0.067 C 
ATOM     19  C   UNL     1      43.446   7.142 -10.800  1.00  0.00     0.009 C 
ATOM     20  C   UNL     1      41.926   7.178 -11.146  1.00  0.00     0.021 C 
ATOM     21  C   UNL     1      39.815   5.935 -11.018  1.00  0.00    -0.027 C 
ATOM     22  C   UNL     1      41.169   8.524 -10.774  1.00  0.00    -0.023 C 
ATOM     23  C   UNL     1      39.220   7.067 -11.805  1.00  0.00     0.031 C 
ATOM     24  C   UNL     1      39.621   8.425 -11.188  1.00  0.00     0.002 C 
ATOM     25  C   UNL     1      41.856   9.725 -11.507  1.00  0.00     0.010 C 
ATOM     26  C   UNL     1      41.251   8.774  -9.238  1.00  0.00     0.012 C 
ATOM     27  C   UNL     1      39.173   9.559 -12.124  1.00  0.00     0.036 C 
ATOM     28  C   UNL     1      41.094  11.052 -11.345  1.00  0.00     0.032 C 
ATOM     29  C   UNL     1      39.548  10.932 -11.556  1.00  0.00     0.114 C 
BRANCH  29  30
ATOM     30  O   UNL     1      38.775  11.190 -10.404  1.00  0.00    -0.393 OA
ATOM     31  H   UNL     1      38.233  10.388 -10.167  1.00  0.00     0.210 HD
ENDBRANCH  29  30
ENDBRANCH   1  11
TORSDOF 6
ENDMDL
MODEL 2
REMARK VINA RESULT:    -5.823      1.545      3.986
REMARK INTER + INTRA:          -9.497
REMARK INTER:                  -8.143
REMARK INTRA:                  -1.354
REMARK UNBOUND:                -1.802
REMARK SMILES CC[C@H](C=C[C@@H](C)[C@H]1CC[C@@H]2C3=CC[C@@H]4C[C@@H](O)CC[C@]4(C)[C@H]3CC[C@@]21C)C(C)C
REMARK SMILES IDX 6 1 7 2 5 3 4 4 3 5 2 6 1 7 28 8 29 9 30 10 8 11 9 12 26 13
REMARK SMILES IDX 10 14 11 15 25 16 27 17 12 18 24 19 23 20 13 21 21 22 14 23
REMARK SMILES IDX 15 24 20 25 22 26 16 27 19 28 17 29 18 30
REMARK H PARENT 18 31
REMARK Flexibility Score: inf
ROOT
ATOM      1  C   UNL     1      39.598   1.275  -9.509  1.00  0.00     0.012 C 
ATOM      2  C   UNL     1      38.870  -0.038  -9.139  1.00  0.00     0.012 C 
ENDROOT
BRANCH   1   3
ATOM      3  C   UNL     1      40.155   1.850  -8.218  1.00  0.00    -0.028 C 
ATOM      4  C   UNL     1      41.451   1.691  -7.875  1.00  0.00    -0.027 C 
BRANCH   4   5
ATOM      5  C   UNL     1      42.205   2.726  -7.048  1.00  0.00     0.014 C 
BRANCH   5   6
ATOM      6  C   UNL     1      42.676   2.101  -5.699  1.00  0.00     0.004 C 
ATOM      7  C   UNL     1      42.963   0.604  -5.811  1.00  0.00     0.004 C 
ENDBRANCH   5   6
BRANCH   5   8
ATOM      8  C   UNL     1      43.368   3.401  -7.851  1.00  0.00    -0.011 C 
ATOM      9  C   UNL     1      43.770   2.539  -9.054  1.00  0.00     0.008 C 
ATOM     10  C   UNL     1      42.983   4.800  -8.345  1.00  0.00     0.008 C 
ENDBRANCH   5   8
ENDBRANCH   4   5
ENDBRANCH   1   3
BRANCH   1  11
ATOM     11  C   UNL     1      38.747   2.352 -10.306  1.00  0.00     0.002 C 
ATOM     12  C   UNL     1      37.599   2.839  -9.389  1.00  0.00     0.005 C 
ATOM     13  C   UNL     1      39.461   3.707 -10.679  1.00  0.00    -0.023 C 
ATOM     14  C   UNL     1      38.117   4.070  -8.655  1.00  0.00     0.009 C 
ATOM     15  C   UNL     1      39.434   4.469  -9.338  1.00  0.00     0.021 C 
ATOM     16  C   UNL     1      38.613   4.515 -11.716  1.00  0.00     0.008 C 
ATOM     17  C   UNL     1      40.894   3.519 -11.230  1.00  0.00     0.012 C 
ATOM     18  C   UNL     1      39.591   5.970  -9.424  1.00  0.00    -0.067 C 
ATOM     19  C   UNL     1      39.168   5.923 -11.995  1.00  0.00     0.009 C 
ATOM     20  C   UNL     1      39.520   6.753 -10.723  1.00  0.00     0.021 C 
ATOM     21  C   UNL     1      39.798   6.659  -8.287  1.00  0.00    -0.027 C 
ATOM     22  C   UNL     1      40.799   7.686 -10.845  1.00  0.00    -0.023 C 
ATOM     23  C   UNL     1      40.024   8.142  -8.359  1.00  0.00     0.031 C 
ATOM     24  C   UNL     1      41.041   8.482  -9.471  1.00  0.00     0.002 C 
ATOM     25  C   UNL     1      40.599   8.690 -12.030  1.00  0.00     0.010 C 
ATOM     26  C   UNL     1      42.063   6.823 -11.140  1.00  0.00     0.012 C 
ATOM     27  C   UNL     1      41.096  10.007  -9.658  1.00  0.00     0.036 C 
ATOM     28  C   UNL     1      41.711   9.749 -12.125  1.00  0.00     0.032 C 
ATOM     29  C   UNL     1      42.094  10.398 -10.753  1.00  0.00     0.114 C 
BRANCH  29  30
ATOM     30  O   UNL     1      43.406  10.116 -10.316  1.00  0.00    -0.393 OA
ATOM     31  H   UNL     1      44.030  10.835 -10.613  1.00  0.00     0.210 HD
ENDBRANCH  29  30
ENDBRANCH   1  11
TORSDOF 6
ENDMDL
MODEL 3
REMARK VINA RESULT:    -5.477     14.573     17.090
REMARK INTER + INTRA:          -9.039
REMARK INTER:                  -7.747
REMARK INTRA:                  -1.293
REMARK UNBOUND:                -1.802
REMARK SMILES CC[C@H](C=C[C@@H](C)[C@H]1CC[C@@H]2C3=CC[C@@H]4C[C@@H](O)CC[C@]4(C)[C@H]3CC[C@@]21C)C(C)C
REMARK SMILES IDX 6 1 7 2 5 3 4 4 3 5 2 6 1 7 28 8 29 9 30 10 8 11 9 12 26 13
REMARK SMILES IDX 10 14 11 15 25 16 27 17 12 18 24 19 23 20 13 21 21 22 14 23
REMARK SMILES IDX 15 24 20 25 22 26 16 27 19 28 17 29 18 30
REMARK H PARENT 18 31
REMARK Flexibility Score: inf
ROOT
ATOM      1  C   UNL     1      33.787   7.443   5.828  1.00  0.00     0.012 C 
ATOM      2  C   UNL     1      32.493   6.664   5.504  1.00  0.00     0.012 C 
ENDROOT
BRANCH   1   3
ATOM      3  C   UNL     1      34.267   8.063   4.528  1.00  0.00    -0.028 C 
ATOM      4  C   UNL     1      34.043   9.364   4.239  1.00  0.00    -0.027 C 
BRANCH   4   5
ATOM      5  C   UNL     1      35.001  10.182   3.382  1.00  0.00     0.014 C 
BRANCH   5   6
ATOM      6  C   UNL     1      34.295  10.640   2.069  1.00  0.00     0.004 C 
ATOM      7  C   UNL     1      32.799  10.893   2.260  1.00  0.00     0.004 C 
ENDBRANCH   5   6
BRANCH   5   8
ATOM      8  C   UNL     1      35.649  11.367   4.175  1.00  0.00    -0.011 C 
ATOM      9  C   UNL     1      34.761  11.782   5.353  1.00  0.00     0.008 C 
ATOM     10  C   UNL     1      37.041  11.005   4.703  1.00  0.00     0.008 C 
ENDBRANCH   5   8
ENDBRANCH   4   5
ENDBRANCH   1   3
BRANCH   1  11
ATOM     11  C   UNL     1      34.944   6.624   6.543  1.00  0.00     0.002 C 
ATOM     12  C   UNL     1      35.440   5.532   5.565  1.00  0.00     0.005 C 
ATOM     13  C   UNL     1      36.279   7.394   6.874  1.00  0.00    -0.023 C 
ATOM     14  C   UNL     1      36.606   6.134   4.790  1.00  0.00     0.009 C 
ATOM     15  C   UNL     1      36.973   7.447   5.497  1.00  0.00     0.021 C 
ATOM     16  C   UNL     1      37.179   6.556   7.841  1.00  0.00     0.008 C 
ATOM     17  C   UNL     1      36.048   8.798   7.481  1.00  0.00     0.012 C 
ATOM     18  C   UNL     1      38.467   7.678   5.515  1.00  0.00    -0.067 C 
ATOM     19  C   UNL     1      38.570   7.173   8.070  1.00  0.00     0.009 C 
ATOM     20  C   UNL     1      39.317   7.606   6.772  1.00  0.00     0.021 C 
ATOM     21  C   UNL     1      39.087   7.956   4.355  1.00  0.00    -0.027 C 
ATOM     22  C   UNL     1      40.191   8.927   6.891  1.00  0.00    -0.023 C 
ATOM     23  C   UNL     1      40.559   8.254   4.362  1.00  0.00     0.031 C 
ATOM     24  C   UNL     1      40.904   9.252   5.490  1.00  0.00     0.002 C 
ATOM     25  C   UNL     1      41.261   8.741   8.019  1.00  0.00     0.010 C 
ATOM     26  C   UNL     1      39.282  10.135   7.271  1.00  0.00     0.012 C 
ATOM     27  C   UNL     1      42.432   9.378   5.604  1.00  0.00     0.036 C 
ATOM     28  C   UNL     1      42.268   9.901   8.100  1.00  0.00     0.032 C 
ATOM     29  C   UNL     1      42.828  10.361   6.712  1.00  0.00     0.114 C 
BRANCH  29  30
ATOM     30  O   UNL     1      42.460  11.669   6.333  1.00  0.00    -0.393 OA
ATOM     31  H   UNL     1      41.490  11.819   6.513  1.00  0.00     0.210 HD
ENDBRANCH  29  30
ENDBRANCH   1  11
TORSDOF 6
ENDMDL
MODEL 4
REMARK VINA RESULT:    -4.770     12.424     15.428
REMARK INTER + INTRA:          -8.105
REMARK INTER:                  -9.198
REMARK INTRA:                   1.093
REMARK UNBOUND:                -1.802
REMARK SMILES CC[C@H](C=C[C@@H](C)[C@H]1CC[C@@H]2C3=CC[C@@H]4C[C@@H](O)CC[C@]4(C)[C@H]3CC[C@@]21C)C(C)C
REMARK SMILES IDX 6 1 7 2 5 3 4 4 3 5 2 6 1 7 28 8 29 9 30 10 8 11 9 12 26 13
REMARK SMILES IDX 10 14 11 15 25 16 27 17 12 18 24 19 23 20 13 21 21 22 14 23
REMARK SMILES IDX 15 24 20 25 22 26 16 27 19 28 17 29 18 30
REMARK H PARENT 18 31
REMARK Flexibility Score: inf
ROOT
ATOM      1  C   UNL     1      41.406  11.138   2.425  1.00  0.00     0.012 C 
ATOM      2  C   UNL     1      40.364  12.125   1.852  1.00  0.00     0.012 C 
ENDROOT
BRANCH   1   3
ATOM      3  C   UNL     1      41.302   9.862   1.607  1.00  0.00    -0.028 C 
ATOM      4  C   UNL     1      41.154   9.893   0.265  1.00  0.00    -0.027 C 
BRANCH   4   5
ATOM      5  C   UNL     1      41.704   8.795  -0.639  1.00  0.00     0.014 C 
BRANCH   5   6
ATOM      6  C   UNL     1      40.871   7.488  -0.468  1.00  0.00     0.004 C 
ATOM      7  C   UNL     1      41.070   6.836   0.900  1.00  0.00     0.004 C 
ENDBRANCH   5   6
BRANCH   5   8
ATOM      8  C   UNL     1      41.826   9.255  -2.131  1.00  0.00    -0.011 C 
ATOM      9  C   UNL     1      43.128   8.738  -2.753  1.00  0.00     0.008 C 
ATOM     10  C   UNL     1      40.642   8.769  -2.975  1.00  0.00     0.008 C 
ENDBRANCH   5   8
ENDBRANCH   4   5
ENDBRANCH   1   3
BRANCH   1  11
ATOM     11  C   UNL     1      41.314  10.839   3.981  1.00  0.00     0.002 C 
ATOM     12  C   UNL     1      40.782  12.109   4.688  1.00  0.00     0.005 C 
ATOM     13  C   UNL     1      40.276   9.749   4.449  1.00  0.00    -0.023 C 
ATOM     14  C   UNL     1      39.267  11.967   4.764  1.00  0.00     0.009 C 
ATOM     15  C   UNL     1      38.941  10.518   4.373  1.00  0.00     0.021 C 
ATOM     16  C   UNL     1      40.523   9.349   5.941  1.00  0.00     0.008 C 
ATOM     17  C   UNL     1      40.282   8.474   3.573  1.00  0.00     0.012 C 
ATOM     18  C   UNL     1      37.803   9.956   5.194  1.00  0.00    -0.067 C 
ATOM     19  C   UNL     1      39.441   8.416   6.512  1.00  0.00     0.009 C 
ATOM     20  C   UNL     1      37.975   8.870   6.243  1.00  0.00     0.021 C 
ATOM     21  C   UNL     1      36.566  10.446   4.997  1.00  0.00    -0.027 C 
ATOM     22  C   UNL     1      36.934   7.703   5.966  1.00  0.00    -0.023 C 
ATOM     23  C   UNL     1      35.412   9.854   5.755  1.00  0.00     0.031 C 
ATOM     24  C   UNL     1      35.470   8.311   5.711  1.00  0.00     0.002 C 
ATOM     25  C   UNL     1      36.914   6.724   7.188  1.00  0.00     0.010 C 
ATOM     26  C   UNL     1      37.359   6.899   4.700  1.00  0.00     0.012 C 
ATOM     27  C   UNL     1      34.404   7.737   6.659  1.00  0.00     0.036 C 
ATOM     28  C   UNL     1      35.816   5.652   7.091  1.00  0.00     0.032 C 
ATOM     29  C   UNL     1      34.419   6.205   6.652  1.00  0.00     0.114 C 
BRANCH  29  30
ATOM     30  O   UNL     1      33.970   5.736   5.399  1.00  0.00    -0.393 OA
ATOM     31  H   UNL     1      34.586   6.041   4.677  1.00  0.00     0.210 HD
ENDBRANCH  29  30
ENDBRANCH   1  11
TORSDOF 6
ENDMDL
MODEL 5
REMARK VINA RESULT:    -4.075     13.443     15.740
REMARK INTER + INTRA:          -7.188
REMARK INTER:                  -5.803
REMARK INTRA:                  -1.385
REMARK UNBOUND:                -1.802
REMARK SMILES CC[C@H](C=C[C@@H](C)[C@H]1CC[C@@H]2C3=CC[C@@H]4C[C@@H](O)CC[C@]4(C)[C@H]3CC[C@@]21C)C(C)C
REMARK SMILES IDX 6 1 7 2 5 3 4 4 3 5 2 6 1 7 28 8 29 9 30 10 8 11 9 12 26 13
REMARK SMILES IDX 10 14 11 15 25 16 27 17 12 18 24 19 23 20 13 21 21 22 14 23
REMARK SMILES IDX 15 24 20 25 22 26 16 27 19 28 17 29 18 30
REMARK H PARENT 18 31
REMARK Flexibility Score: inf
ROOT
ATOM      1  C   UNL     1      36.622  10.310   7.418  1.00  0.00     0.012 C 
ATOM      2  C   UNL     1      35.777  11.428   8.070  1.00  0.00     0.012 C 
ENDROOT
BRANCH   1   3
ATOM      3  C   UNL     1      36.261   9.015   8.125  1.00  0.00    -0.028 C 
ATOM      4  C   UNL     1      35.233   8.244   7.708  1.00  0.00    -0.027 C 
BRANCH   4   5
ATOM      5  C   UNL     1      35.232   6.730   7.879  1.00  0.00     0.014 C 
BRANCH   5   6
ATOM      6  C   UNL     1      33.987   6.107   7.175  1.00  0.00     0.004 C 
ATOM      7  C   UNL     1      33.435   6.995   6.060  1.00  0.00     0.004 C 
ENDBRANCH   5   6
BRANCH   5   8
ATOM      8  C   UNL     1      36.582   6.076   7.428  1.00  0.00    -0.011 C 
ATOM      9  C   UNL     1      36.658   4.615   7.885  1.00  0.00     0.008 C 
ATOM     10  C   UNL     1      36.762   6.133   5.907  1.00  0.00     0.008 C 
ENDBRANCH   5   8
ENDBRANCH   4   5
ENDBRANCH   1   3
BRANCH   1  11
ATOM     11  C   UNL     1      38.192  10.538   7.388  1.00  0.00     0.002 C 
ATOM     12  C   UNL     1      38.884   9.205   7.763  1.00  0.00     0.005 C 
ATOM     13  C   UNL     1      38.850  10.864   5.994  1.00  0.00    -0.023 C 
ATOM     14  C   UNL     1      39.157   8.470   6.456  1.00  0.00     0.009 C 
ATOM     15  C   UNL     1      38.897   9.475   5.324  1.00  0.00     0.021 C 
ATOM     16  C   UNL     1      40.321  11.366   6.176  1.00  0.00     0.008 C 
ATOM     17  C   UNL     1      38.058  11.901   5.163  1.00  0.00     0.012 C 
ATOM     18  C   UNL     1      39.886   9.316   4.192  1.00  0.00    -0.067 C 
ATOM     19  C   UNL     1      41.077  11.540   4.847  1.00  0.00     0.009 C 
ATOM     20  C   UNL     1      40.968  10.332   3.867  1.00  0.00     0.021 C 
ATOM     21  C   UNL     1      39.817   8.210   3.429  1.00  0.00    -0.027 C 
ATOM     22  C   UNL     1      40.893  10.704   2.325  1.00  0.00    -0.023 C 
ATOM     23  C   UNL     1      40.747   8.065   2.260  1.00  0.00     0.031 C 
ATOM     24  C   UNL     1      40.788   9.372   1.435  1.00  0.00     0.002 C 
ATOM     25  C   UNL     1      42.164  11.528   1.928  1.00  0.00     0.010 C 
ATOM     26  C   UNL     1      39.634  11.579   2.048  1.00  0.00     0.012 C 
ATOM     27  C   UNL     1      41.894   9.266   0.373  1.00  0.00     0.036 C 
ATOM     28  C   UNL     1      42.270  11.793   0.417  1.00  0.00     0.032 C 
ATOM     29  C   UNL     1      41.976  10.540  -0.475  1.00  0.00     0.114 C 
BRANCH  29  30
ATOM     30  O   UNL     1      40.820  10.646  -1.276  1.00  0.00    -0.393 OA
ATOM     31  H   UNL     1      40.019  10.345  -0.764  1.00  0.00     0.210 HD
ENDBRANCH  29  30
ENDBRANCH   1  11
TORSDOF 6
ENDMDL
MODEL 6
REMARK VINA RESULT:    -4.009      1.583      3.588
REMARK INTER + INTRA:          -7.100
REMARK INTER:                  -6.430
REMARK INTRA:                  -0.669
REMARK UNBOUND:                -1.802
REMARK SMILES CC[C@H](C=C[C@@H](C)[C@H]1CC[C@@H]2C3=CC[C@@H]4C[C@@H](O)CC[C@]4(C)[C@H]3CC[C@@]21C)C(C)C
REMARK SMILES IDX 6 1 7 2 5 3 4 4 3 5 2 6 1 7 28 8 29 9 30 10 8 11 9 12 26 13
REMARK SMILES IDX 10 14 11 15 25 16 27 17 12 18 24 19 23 20 13 21 21 22 14 23
REMARK SMILES IDX 15 24 20 25 22 26 16 27 19 28 17 29 18 30
REMARK H PARENT 18 31
REMARK Flexibility Score: inf
ROOT
ATOM      1  C   UNL     1      39.531   3.380  -8.298  1.00  0.00     0.012 C 
ATOM      2  C   UNL     1      39.410   4.617  -7.378  1.00  0.00     0.012 C 
ENDROOT
BRANCH   1   3
ATOM      3  C   UNL     1      40.415   2.378  -7.576  1.00  0.00    -0.028 C 
ATOM      4  C   UNL     1      41.462   1.787  -8.192  1.00  0.00    -0.027 C 
BRANCH   4   5
ATOM      5  C   UNL     1      42.714   1.359  -7.436  1.00  0.00     0.014 C 
BRANCH   5   6
ATOM      6  C   UNL     1      43.988   1.922  -8.137  1.00  0.00     0.004 C 
ATOM      7  C   UNL     1      43.694   2.496  -9.522  1.00  0.00     0.004 C 
ENDBRANCH   5   6
BRANCH   5   8
ATOM      8  C   UNL     1      42.643   1.717  -5.913  1.00  0.00    -0.011 C 
ATOM      9  C   UNL     1      42.973   0.492  -5.051  1.00  0.00     0.008 C 
ATOM     10  C   UNL     1      43.603   2.855  -5.550  1.00  0.00     0.008 C 
ENDBRANCH   5   8
ENDBRANCH   4   5
ENDBRANCH   1   3
BRANCH   1  11
ATOM     11  C   UNL     1      40.042   3.648  -9.776  1.00  0.00     0.002 C 
ATOM     12  C   UNL     1      38.808   3.885 -10.681  1.00  0.00     0.005 C 
ATOM     13  C   UNL     1      40.883   4.957 -10.026  1.00  0.00    -0.023 C 
ATOM     14  C   UNL     1      38.560   5.388 -10.698  1.00  0.00     0.009 C 
ATOM     15  C   UNL     1      39.790   6.045 -10.054  1.00  0.00     0.021 C 
ATOM     16  C   UNL     1      41.570   4.919 -11.431  1.00  0.00     0.008 C 
ATOM     17  C   UNL     1      41.956   5.218  -8.942  1.00  0.00     0.012 C 
ATOM     18  C   UNL     1      40.160   7.340 -10.741  1.00  0.00    -0.067 C 
ATOM     19  C   UNL     1      42.267   6.238 -11.807  1.00  0.00     0.009 C 
ATOM     20  C   UNL     1      41.407   7.520 -11.589  1.00  0.00     0.021 C 
ATOM     21  C   UNL     1      39.338   8.397 -10.604  1.00  0.00    -0.027 C 
ATOM     22  C   UNL     1      42.201   8.802 -11.091  1.00  0.00    -0.023 C 
ATOM     23  C   UNL     1      39.722   9.710 -11.223  1.00  0.00     0.031 C 
ATOM     24  C   UNL     1      41.198  10.044 -10.914  1.00  0.00     0.002 C 
ATOM     25  C   UNL     1      43.324   9.151 -12.125  1.00  0.00     0.010 C 
ATOM     26  C   UNL     1      42.872   8.513  -9.715  1.00  0.00     0.012 C 
ATOM     27  C   UNL     1      41.618  11.280 -11.724  1.00  0.00     0.036 C 
ATOM     28  C   UNL     1      44.042  10.477 -11.820  1.00  0.00     0.032 C 
ATOM     29  C   UNL     1      43.079  11.655 -11.452  1.00  0.00     0.114 C 
BRANCH  29  30
ATOM     30  O   UNL     1      43.205  12.125 -10.127  1.00  0.00    -0.393 OA
ATOM     31  H   UNL     1      42.879  11.435  -9.486  1.00  0.00     0.210 HD
ENDBRANCH  29  30
ENDBRANCH   1  11
TORSDOF 6
ENDMDL
MODEL 7
REMARK VINA RESULT:    -3.478      4.058      6.639
REMARK INTER + INTRA:          -6.398
REMARK INTER:                  -7.252
REMARK INTRA:                   0.855
REMARK UNBOUND:                -1.802
REMARK SMILES CC[C@H](C=C[C@@H](C)[C@H]1CC[C@@H]2C3=CC[C@@H]4C[C@@H](O)CC[C@]4(C)[C@H]3CC[C@@]21C)C(C)C
REMARK SMILES IDX 6 1 7 2 5 3 4 4 3 5 2 6 1 7 28 8 29 9 30 10 8 11 9 12 26 13
REMARK SMILES IDX 10 14 11 15 25 16 27 17 12 18 24 19 23 20 13 21 21 22 14 23
REMARK SMILES IDX 15 24 20 25 22 26 16 27 19 28 17 29 18 30
REMARK H PARENT 18 31
REMARK Flexibility Score: inf
ROOT
ATOM      1  C   UNL     1      43.266   8.804  -5.889  1.00  0.00     0.012 C 
ATOM      2  C   UNL     1      44.125   7.564  -5.551  1.00  0.00     0.012 C 
ENDROOT
BRANCH   1   3
ATOM      3  C   UNL     1      42.052   8.762  -4.978  1.00  0.00    -0.028 C 
ATOM      4  C   UNL     1      42.177   8.633  -3.639  1.00  0.00    -0.027 C 
BRANCH   4   5
ATOM      5  C   UNL     1      41.170   9.237  -2.668  1.00  0.00     0.014 C 
BRANCH   5   6
ATOM      6  C   UNL     1      39.799   8.504  -2.784  1.00  0.00     0.004 C 
ATOM      7  C   UNL     1      39.021   8.902  -4.038  1.00  0.00     0.004 C 
ENDBRANCH   5   6
BRANCH   5   8
ATOM      8  C   UNL     1      41.714   9.292  -1.201  1.00  0.00    -0.011 C 
ATOM      9  C   UNL     1      41.113  10.481  -0.442  1.00  0.00     0.008 C 
ATOM     10  C   UNL     1      41.408   8.002  -0.431  1.00  0.00     0.008 C 
ENDBRANCH   5   8
ENDBRANCH   4   5
ENDBRANCH   1   3
BRANCH   1  11
ATOM     11  C   UNL     1      42.846   8.978  -7.410  1.00  0.00     0.002 C 
ATOM     12  C   UNL     1      44.042   8.552  -8.296  1.00  0.00     0.005 C 
ATOM     13  C   UNL     1      41.694   8.050  -7.953  1.00  0.00    -0.023 C 
ATOM     14  C   UNL     1      43.850   7.073  -8.609  1.00  0.00     0.009 C 
ATOM     15  C   UNL     1      42.427   6.709  -8.162  1.00  0.00     0.021 C 
ATOM     16  C   UNL     1      41.187   8.549  -9.347  1.00  0.00     0.008 C 
ATOM     17  C   UNL     1      40.491   7.929  -6.988  1.00  0.00     0.012 C 
ATOM     18  C   UNL     1      41.770   5.733  -9.111  1.00  0.00    -0.067 C 
ATOM     19  C   UNL     1      40.182   7.593 -10.011  1.00  0.00     0.009 C 
ATOM     20  C   UNL     1      40.613   6.095 -10.026  1.00  0.00     0.021 C 
ATOM     21  C   UNL     1      42.238   4.473  -9.162  1.00  0.00    -0.027 C 
ATOM     22  C   UNL     1      39.441   5.041  -9.832  1.00  0.00    -0.023 C 
ATOM     23  C   UNL     1      41.557   3.472 -10.050  1.00  0.00     0.031 C 
ATOM     24  C   UNL     1      40.023   3.546  -9.872  1.00  0.00     0.002 C 
ATOM     25  C   UNL     1      38.371   5.241 -10.957  1.00  0.00     0.010 C 
ATOM     26  C   UNL     1      38.750   5.260  -8.452  1.00  0.00     0.012 C 
ATOM     27  C   UNL     1      39.348   2.663 -10.934  1.00  0.00     0.036 C 
ATOM     28  C   UNL     1      37.277   4.159 -10.957  1.00  0.00     0.032 C 
ATOM     29  C   UNL     1      37.822   2.700 -10.800  1.00  0.00     0.114 C 
BRANCH  29  30
ATOM     30  O   UNL     1      37.439   2.055  -9.605  1.00  0.00    -0.393 OA
ATOM     31  H   UNL     1      37.896   1.172  -9.530  1.00  0.00     0.210 HD
ENDBRANCH  29  30
ENDBRANCH   1  11
TORSDOF 6
ENDMDL
MODEL 8
REMARK VINA RESULT:    -3.346     14.610     17.243
REMARK INTER + INTRA:          -6.224
REMARK INTER:                  -6.047
REMARK INTRA:                  -0.177
REMARK UNBOUND:                -1.802
REMARK SMILES CC[C@H](C=C[C@@H](C)[C@H]1CC[C@@H]2C3=CC[C@@H]4C[C@@H](O)CC[C@]4(C)[C@H]3CC[C@@]21C)C(C)C
REMARK SMILES IDX 6 1 7 2 5 3 4 4 3 5 2 6 1 7 28 8 29 9 30 10 8 11 9 12 26 13
REMARK SMILES IDX 10 14 11 15 25 16 27 17 12 18 24 19 23 20 13 21 21 22 14 23
REMARK SMILES IDX 15 24 20 25 22 26 16 27 19 28 17 29 18 30
REMARK H PARENT 18 31
REMARK Flexibility Score: inf
ROOT
ATOM      1  C   UNL     1      35.301   7.390   4.958  1.00  0.00     0.012 C 
ATOM      2  C   UNL     1      36.422   7.037   3.954  1.00  0.00     0.012 C 
ENDROOT
BRANCH   1   3
ATOM      3  C   UNL     1      34.379   8.374   4.261  1.00  0.00    -0.028 C 
ATOM      4  C   UNL     1      34.086   9.576   4.804  1.00  0.00    -0.027 C 
BRANCH   4   5
ATOM      5  C   UNL     1      33.782  10.801   3.950  1.00  0.00     0.014 C 
BRANCH   5   6
ATOM      6  C   UNL     1      34.450  12.069   4.566  1.00  0.00     0.004 C 
ATOM      7  C   UNL     1      34.652  11.953   6.077  1.00  0.00     0.004 C 
ENDBRANCH   5   6
BRANCH   5   8
ATOM      8  C   UNL     1      34.149  10.585   2.443  1.00  0.00    -0.011 C 
ATOM      9  C   UNL     1      32.883  10.446   1.590  1.00  0.00     0.008 C 
ATOM     10  C   UNL     1      34.997  11.738   1.893  1.00  0.00     0.008 C 
ENDBRANCH   5   8
ENDBRANCH   4   5
ENDBRANCH   1   3
BRANCH   1  11
ATOM     11  C   UNL     1      35.769   7.934   6.374  1.00  0.00     0.002 C 
ATOM     12  C   UNL     1      36.166   6.723   7.253  1.00  0.00     0.005 C 
ATOM     13  C   UNL     1      37.079   8.809   6.417  1.00  0.00    -0.023 C 
ATOM     14  C   UNL     1      37.661   6.509   7.054  1.00  0.00     0.009 C 
ATOM     15  C   UNL     1      38.187   7.741   6.303  1.00  0.00     0.021 C 
ATOM     16  C   UNL     1      37.229   9.520   7.802  1.00  0.00     0.008 C 
ATOM     17  C   UNL     1      37.152   9.868   5.291  1.00  0.00     0.012 C 
ATOM     18  C   UNL     1      39.558   8.153   6.787  1.00  0.00    -0.067 C 
ATOM     19  C   UNL     1      38.570  10.254   7.972  1.00  0.00     0.009 C 
ATOM     20  C   UNL     1      39.828   9.420   7.582  1.00  0.00     0.021 C 
ATOM     21  C   UNL     1      40.604   7.353   6.510  1.00  0.00    -0.027 C 
ATOM     22  C   UNL     1      41.004  10.232   6.890  1.00  0.00    -0.023 C 
ATOM     23  C   UNL     1      41.983   7.777   6.925  1.00  0.00     0.031 C 
ATOM     24  C   UNL     1      42.231   9.255   6.548  1.00  0.00     0.002 C 
ATOM     25  C   UNL     1      41.471  11.383   7.845  1.00  0.00     0.010 C 
ATOM     26  C   UNL     1      40.501  10.872   5.561  1.00  0.00     0.012 C 
ATOM     27  C   UNL     1      43.562   9.718   7.163  1.00  0.00     0.036 C 
ATOM     28  C   UNL     1      42.720  12.124   7.339  1.00  0.00     0.032 C 
ATOM     29  C   UNL     1      43.856  11.182   6.817  1.00  0.00     0.114 C 
BRANCH  29  30
ATOM     30  O   UNL     1      44.125  11.293   5.437  1.00  0.00    -0.393 OA
ATOM     31  H   UNL     1      43.541  10.670   4.922  1.00  0.00     0.210 HD
ENDBRANCH  29  30
ENDBRANCH   1  11
TORSDOF 6
ENDMDL
MODEL 9
REMARK VINA RESULT:    -3.122     13.072     15.357
REMARK INTER + INTRA:          -5.927
REMARK INTER:                  -6.581
REMARK INTRA:                   0.653
REMARK UNBOUND:                -1.802
REMARK SMILES CC[C@H](C=C[C@@H](C)[C@H]1CC[C@@H]2C3=CC[C@@H]4C[C@@H](O)CC[C@]4(C)[C@H]3CC[C@@]21C)C(C)C
REMARK SMILES IDX 6 1 7 2 5 3 4 4 3 5 2 6 1 7 28 8 29 9 30 10 8 11 9 12 26 13
REMARK SMILES IDX 10 14 11 15 25 16 27 17 12 18 24 19 23 20 13 21 21 22 14 23
REMARK SMILES IDX 15 24 20 25 22 26 16 27 19 28 17 29 18 30
REMARK H PARENT 18 31
REMARK Flexibility Score: inf
ROOT
ATOM      1  C   UNL     1      37.409   8.564   8.121  1.00  0.00     0.012 C 
ATOM      2  C   UNL     1      37.022   7.067   8.121  1.00  0.00     0.012 C 
ENDROOT
BRANCH   1   3
ATOM      3  C   UNL     1      36.581   9.234   7.039  1.00  0.00    -0.028 C 
ATOM      4  C   UNL     1      36.113   8.543   5.976  1.00  0.00    -0.027 C 
BRANCH   4   5
ATOM      5  C   UNL     1      34.809   8.910   5.278  1.00  0.00     0.014 C 
BRANCH   5   6
ATOM      6  C   UNL     1      34.950  10.286   4.558  1.00  0.00     0.004 C 
ATOM      7  C   UNL     1      34.951  11.464   5.533  1.00  0.00     0.004 C 
ENDBRANCH   5   6
BRANCH   5   8
ATOM      8  C   UNL     1      34.297   7.773   4.332  1.00  0.00    -0.011 C 
ATOM      9  C   UNL     1      35.436   7.243   3.453  1.00  0.00     0.008 C 
ATOM     10  C   UNL     1      33.691   6.606   5.120  1.00  0.00     0.008 C 
ENDBRANCH   5   8
ENDBRANCH   4   5
ENDBRANCH   1   3
BRANCH   1  11
ATOM     11  C   UNL     1      38.953   8.892   7.957  1.00  0.00     0.002 C 
ATOM     12  C   UNL     1      39.729   7.555   7.886  1.00  0.00     0.005 C 
ATOM     13  C   UNL     1      39.406   9.601   6.624  1.00  0.00    -0.023 C 
ATOM     14  C   UNL     1      39.845   7.193   6.410  1.00  0.00     0.009 C 
ATOM     15  C   UNL     1      39.403   8.432   5.617  1.00  0.00     0.021 C 
ATOM     16  C   UNL     1      40.872  10.134   6.747  1.00  0.00     0.008 C 
ATOM     17  C   UNL     1      38.477  10.761   6.195  1.00  0.00     0.012 C 
ATOM     18  C   UNL     1      40.233   8.628   4.370  1.00  0.00    -0.067 C 
ATOM     19  C   UNL     1      41.435  10.686   5.425  1.00  0.00     0.009 C 
ATOM     20  C   UNL     1      41.230   9.760   4.188  1.00  0.00     0.021 C 
ATOM     21  C   UNL     1      40.094   7.748   3.361  1.00  0.00    -0.027 C 
ATOM     22  C   UNL     1      40.935  10.503   2.816  1.00  0.00    -0.023 C 
ATOM     23  C   UNL     1      40.861   7.963   2.088  1.00  0.00     0.031 C 
ATOM     24  C   UNL     1      40.750   9.435   1.632  1.00  0.00     0.002 C 
ATOM     25  C   UNL     1      42.115  11.481   2.491  1.00  0.00     0.010 C 
ATOM     26  C   UNL     1      39.624  11.338   2.932  1.00  0.00     0.012 C 
ATOM     27  C   UNL     1      41.705   9.672   0.450  1.00  0.00     0.036 C 
ATOM     28  C   UNL     1      42.006  12.125   1.099  1.00  0.00     0.032 C 
ATOM     29  C   UNL     1      41.632  11.121  -0.043  1.00  0.00     0.114 C 
BRANCH  29  30
ATOM     30  O   UNL     1      40.375  11.352  -0.640  1.00  0.00    -0.393 OA
ATOM     31  H   UNL     1      39.749  10.606  -0.423  1.00  0.00     0.210 HD
ENDBRANCH  29  30
ENDBRANCH   1  11
TORSDOF 6
ENDMDL
