MODEL 1
REMARK VINA RESULT:    -2.481      0.000      0.000
REMARK INTER + INTRA:          -7.415
REMARK INTER:                  -4.802
REMARK INTRA:                  -2.613
REMARK UNBOUND:                -2.613
REMARK SMILES CCCCCCCCCCCCCCCCCC(=O)[O-]
REMARK SMILES IDX 10 1 11 2 12 3 13 4 14 5 15 6 16 7 17 8 18 9 19 10 20 11
REMARK SMILES IDX 9 12 8 13 7 14 6 15 5 16 4 17 3 18 2 19 1 20
REMARK H PARENT
REMARK Flexibility Score: inf
ROOT
ATOM      1  C   UNL     1       0.877   6.391  11.897  1.00  0.00     0.000 C 
ENDROOT
BRANCH   1   2
ATOM      2  C   UNL     1       2.037   5.490  11.437  1.00  0.00     0.000 C 
BRANCH   2   3
ATOM      3  C   UNL     1       2.472   5.769   9.991  1.00  0.00     0.000 C 
BRANCH   3   4
ATOM      4  C   UNL     1       2.906   4.476   9.289  1.00  0.00     0.000 C 
BRANCH   4   5
ATOM      5  C   UNL     1       2.633   3.252  10.174  1.00  0.00     0.000 C 
BRANCH   5   6
ATOM      6  C   UNL     1       2.363   1.979   9.357  1.00  0.00     0.000 C 
BRANCH   6   7
ATOM      7  C   UNL     1       1.105   1.228   9.828  1.00  0.00     0.006 C 
BRANCH   7   8
ATOM      8  C   UNL     1       1.429  -0.187  10.325  1.00  0.00     0.053 C 
BRANCH   8   9
ATOM      9  C   UNL     1       0.369  -0.708  11.245  1.00  0.00     0.041 C 
ATOM     10  O   UNL     1      -0.143  -1.840  11.046  1.00  0.00    -0.550 OA
ATOM     11  O   UNL     1      -0.028   0.042  12.345  1.00  0.00    -0.550 OA
ENDBRANCH   8   9
ENDBRANCH   7   8
ENDBRANCH   6   7
ENDBRANCH   5   6
ENDBRANCH   4   5
ENDBRANCH   3   4
ENDBRANCH   2   3
ENDBRANCH   1   2
BRANCH   1  12
ATOM     12  C   UNL     1      -0.418   5.646  12.281  1.00  0.00     0.000 C 
BRANCH  12  13
ATOM     13  C   UNL     1      -0.395   4.125  12.043  1.00  0.00    -0.000 C 
BRANCH  13  14
ATOM     14  C   UNL     1      -1.421   3.672  10.989  1.00  0.00    -0.000 C 
BRANCH  14  15
ATOM     15  C   UNL     1      -1.050   4.135   9.571  1.00  0.00    -0.000 C 
BRANCH  15  16
ATOM     16  C   UNL     1      -2.266   4.659   8.786  1.00  0.00    -0.000 C 
BRANCH  16  17
ATOM     17  C   UNL     1      -2.134   6.144   8.405  1.00  0.00    -0.000 C 
BRANCH  17  18
ATOM     18  C   UNL     1      -0.758   6.778   8.693  1.00  0.00    -0.000 C 
BRANCH  18  19
ATOM     19  C   UNL     1      -0.574   8.206   8.153  1.00  0.00    -0.003 C 
ATOM     20  C   UNL     1       0.827   8.761   8.404  1.00  0.00     0.004 C 
ENDBRANCH  18  19
ENDBRANCH  17  18
ENDBRANCH  16  17
ENDBRANCH  15  16
ENDBRANCH  14  15
ENDBRANCH  13  14
ENDBRANCH  12  13
ENDBRANCH   1  12
TORSDOF 16
ENDMDL
MODEL 2
REMARK VINA RESULT:    -2.430      3.881      7.140
REMARK INTER + INTRA:          -7.317
REMARK INTER:                  -5.457
REMARK INTRA:                  -1.859
REMARK UNBOUND:                -2.613
REMARK SMILES CCCCCCCCCCCCCCCCCC(=O)[O-]
REMARK SMILES IDX 10 1 11 2 12 3 13 4 14 5 15 6 16 7 17 8 18 9 19 10 20 11
REMARK SMILES IDX 9 12 8 13 7 14 6 15 5 16 4 17 3 18 2 19 1 20
REMARK H PARENT
REMARK Flexibility Score: inf
ROOT
ATOM      1  C   UNL     1      -2.351   4.976   8.504  1.00  0.00     0.000 C 
ENDROOT
BRANCH   1   2
ATOM      2  C   UNL     1      -2.060   6.487   8.476  1.00  0.00     0.000 C 
BRANCH   2   3
ATOM      3  C   UNL     1      -0.576   6.813   8.699  1.00  0.00     0.000 C 
BRANCH   3   4
ATOM      4  C   UNL     1      -0.365   8.322   8.871  1.00  0.00     0.000 C 
BRANCH   4   5
ATOM      5  C   UNL     1      -0.193   9.012   7.509  1.00  0.00     0.000 C 
BRANCH   5   6
ATOM      6  C   UNL     1      -1.400   9.886   7.132  1.00  0.00     0.000 C 
BRANCH   6   7
ATOM      7  C   UNL     1      -2.074   9.433   5.825  1.00  0.00     0.006 C 
BRANCH   7   8
ATOM      8  C   UNL     1      -3.604   9.514   5.906  1.00  0.00     0.053 C 
BRANCH   8   9
ATOM      9  C   UNL     1      -4.240   8.168   5.742  1.00  0.00     0.041 C 
ATOM     10  O   UNL     1      -4.005   7.475   4.718  1.00  0.00    -0.550 OA
ATOM     11  O   UNL     1      -5.067   7.663   6.738  1.00  0.00    -0.550 OA
ENDBRANCH   8   9
ENDBRANCH   7   8
ENDBRANCH   6   7
ENDBRANCH   5   6
ENDBRANCH   4   5
ENDBRANCH   3   4
ENDBRANCH   2   3
ENDBRANCH   1   2
BRANCH   1  12
ATOM     12  C   UNL     1      -1.441   4.152   9.438  1.00  0.00     0.000 C 
BRANCH  12  13
ATOM     13  C   UNL     1      -1.888   4.099  10.911  1.00  0.00    -0.000 C 
BRANCH  13  14
ATOM     14  C   UNL     1      -0.793   3.559  11.847  1.00  0.00    -0.000 C 
BRANCH  14  15
ATOM     15  C   UNL     1      -0.719   2.023  11.838  1.00  0.00    -0.000 C 
BRANCH  15  16
ATOM     16  C   UNL     1       0.719   1.505  11.655  1.00  0.00    -0.000 C 
BRANCH  16  17
ATOM     17  C   UNL     1       1.027   1.104  10.201  1.00  0.00    -0.000 C 
BRANCH  17  18
ATOM     18  C   UNL     1       1.944   2.076   9.432  1.00  0.00    -0.000 C 
BRANCH  18  19
ATOM     19  C   UNL     1       2.570   3.192  10.284  1.00  0.00    -0.003 C 
ATOM     20  C   UNL     1       2.216   4.593   9.785  1.00  0.00     0.004 C 
ENDBRANCH  18  19
ENDBRANCH  17  18
ENDBRANCH  16  17
ENDBRANCH  15  16
ENDBRANCH  14  15
ENDBRANCH  13  14
ENDBRANCH  12  13
ENDBRANCH   1  12
TORSDOF 16
ENDMDL
MODEL 3
REMARK VINA RESULT:    -2.399      1.591      3.084
REMARK INTER + INTRA:          -7.256
REMARK INTER:                  -4.231
REMARK INTRA:                  -3.024
REMARK UNBOUND:                -2.613
REMARK SMILES CCCCCCCCCCCCCCCCCC(=O)[O-]
REMARK SMILES IDX 10 1 11 2 12 3 13 4 14 5 15 6 16 7 17 8 18 9 19 10 20 11
REMARK SMILES IDX 9 12 8 13 7 14 6 15 5 16 4 17 3 18 2 19 1 20
REMARK H PARENT
REMARK Flexibility Score: inf
ROOT
ATOM      1  C   UNL     1      -0.943   6.976   8.440  1.00  0.00     0.000 C 
ENDROOT
BRANCH   1   2
ATOM      2  C   UNL     1       0.103   6.122   9.177  1.00  0.00     0.000 C 
BRANCH   2   3
ATOM      3  C   UNL     1       1.464   6.822   9.303  1.00  0.00     0.000 C 
BRANCH   3   4
ATOM      4  C   UNL     1       2.273   6.244  10.470  1.00  0.00     0.000 C 
BRANCH   4   5
ATOM      5  C   UNL     1       1.847   4.800  10.773  1.00  0.00     0.000 C 
BRANCH   5   6
ATOM      6  C   UNL     1       2.680   3.764  10.001  1.00  0.00     0.000 C 
BRANCH   6   7
ATOM      7  C   UNL     1       1.889   2.481   9.691  1.00  0.00     0.006 C 
BRANCH   7   8
ATOM      8  C   UNL     1       0.449   2.548  10.218  1.00  0.00     0.053 C 
BRANCH   8   9
ATOM      9  C   UNL     1       0.236   1.614  11.370  1.00  0.00     0.041 C 
ATOM     10  O   UNL     1       0.268   0.369  11.190  1.00  0.00    -0.550 OA
ATOM     11  O   UNL     1       0.037   2.120  12.648  1.00  0.00    -0.550 OA
ENDBRANCH   8   9
ENDBRANCH   7   8
ENDBRANCH   6   7
ENDBRANCH   5   6
ENDBRANCH   4   5
ENDBRANCH   3   4
ENDBRANCH   2   3
ENDBRANCH   1   2
BRANCH   1  12
ATOM     12  C   UNL     1      -2.314   6.300   8.235  1.00  0.00     0.000 C 
BRANCH  12  13
ATOM     13  C   UNL     1      -2.410   4.846   8.733  1.00  0.00    -0.000 C 
BRANCH  13  14
ATOM     14  C   UNL     1      -3.443   4.669   9.860  1.00  0.00    -0.000 C 
BRANCH  14  15
ATOM     15  C   UNL     1      -2.851   3.972  11.096  1.00  0.00    -0.000 C 
BRANCH  15  16
ATOM     16  C   UNL     1      -2.729   4.918  12.303  1.00  0.00    -0.000 C 
BRANCH  16  17
ATOM     17  C   UNL     1      -1.278   5.349  12.579  1.00  0.00    -0.000 C 
BRANCH  17  18
ATOM     18  C   UNL     1      -0.994   6.855  12.408  1.00  0.00    -0.000 C 
BRANCH  18  19
ATOM     19  C   UNL     1      -2.160   7.675  11.830  1.00  0.00    -0.003 C 
ATOM     20  C   UNL     1      -1.744   9.081  11.401  1.00  0.00     0.004 C 
ENDBRANCH  18  19
ENDBRANCH  17  18
ENDBRANCH  16  17
ENDBRANCH  15  16
ENDBRANCH  14  15
ENDBRANCH  13  14
ENDBRANCH  12  13
ENDBRANCH   1  12
TORSDOF 16
ENDMDL
MODEL 4
REMARK VINA RESULT:    -2.375      3.339      6.118
REMARK INTER + INTRA:          -7.210
REMARK INTER:                  -4.579
REMARK INTRA:                  -2.631
REMARK UNBOUND:                -2.613
REMARK SMILES CCCCCCCCCCCCCCCCCC(=O)[O-]
REMARK SMILES IDX 10 1 11 2 12 3 13 4 14 5 15 6 16 7 17 8 18 9 19 10 20 11
REMARK SMILES IDX 9 12 8 13 7 14 6 15 5 16 4 17 3 18 2 19 1 20
REMARK H PARENT
REMARK Flexibility Score: inf
ROOT
ATOM      1  C   UNL     1       0.174   4.024  12.678  1.00  0.00     0.000 C 
ENDROOT
BRANCH   1   2
ATOM      2  C   UNL     1      -1.021   4.765  12.052  1.00  0.00     0.000 C 
BRANCH   2   3
ATOM      3  C   UNL     1      -1.759   3.924  11.000  1.00  0.00     0.000 C 
BRANCH   3   4
ATOM      4  C   UNL     1      -1.221   4.213   9.592  1.00  0.00     0.000 C 
BRANCH   4   5
ATOM      5  C   UNL     1      -2.353   4.648   8.649  1.00  0.00     0.000 C 
BRANCH   5   6
ATOM      6  C   UNL     1      -2.390   6.169   8.434  1.00  0.00     0.000 C 
BRANCH   6   7
ATOM      7  C   UNL     1      -0.991   6.808   8.477  1.00  0.00     0.006 C 
BRANCH   7   8
ATOM      8  C   UNL     1      -1.012   8.274   8.024  1.00  0.00     0.053 C 
BRANCH   8   9
ATOM      9  C   UNL     1      -1.150   9.212   9.185  1.00  0.00     0.041 C 
ATOM     10  O   UNL     1      -2.015  10.126   9.161  1.00  0.00    -0.550 OA
ATOM     11  O   UNL     1      -0.347   9.053  10.307  1.00  0.00    -0.550 OA
ENDBRANCH   8   9
ENDBRANCH   7   8
ENDBRANCH   6   7
ENDBRANCH   5   6
ENDBRANCH   4   5
ENDBRANCH   3   4
ENDBRANCH   2   3
ENDBRANCH   1   2
BRANCH   1  12
ATOM     12  C   UNL     1      -0.061   2.526  12.963  1.00  0.00     0.000 C 
BRANCH  12  13
ATOM     13  C   UNL     1       0.991   1.572  12.367  1.00  0.00    -0.000 C 
BRANCH  13  14
ATOM     14  C   UNL     1       0.460   0.778  11.161  1.00  0.00    -0.000 C 
BRANCH  14  15
ATOM     15  C   UNL     1       0.879   1.399   9.819  1.00  0.00    -0.000 C 
BRANCH  15  16
ATOM     16  C   UNL     1       2.405   1.545   9.688  1.00  0.00    -0.000 C 
BRANCH  16  17
ATOM     17  C   UNL     1       2.827   2.917   9.135  1.00  0.00    -0.000 C 
BRANCH  17  18
ATOM     18  C   UNL     1       2.763   4.081  10.144  1.00  0.00    -0.000 C 
BRANCH  18  19
ATOM     19  C   UNL     1       2.240   5.410   9.571  1.00  0.00    -0.003 C 
ATOM     20  C   UNL     1       2.110   6.504  10.630  1.00  0.00     0.004 C 
ENDBRANCH  18  19
ENDBRANCH  17  18
ENDBRANCH  16  17
ENDBRANCH  15  16
ENDBRANCH  14  15
ENDBRANCH  13  14
ENDBRANCH  12  13
ENDBRANCH   1  12
TORSDOF 16
ENDMDL
MODEL 5
REMARK VINA RESULT:    -2.366      7.666     10.219
REMARK INTER + INTRA:          -7.192
REMARK INTER:                  -5.393
REMARK INTRA:                  -1.798
REMARK UNBOUND:                -2.613
REMARK SMILES CCCCCCCCCCCCCCCCCC(=O)[O-]
REMARK SMILES IDX 10 1 11 2 12 3 13 4 14 5 15 6 16 7 17 8 18 9 19 10 20 11
REMARK SMILES IDX 9 12 8 13 7 14 6 15 5 16 4 17 3 18 2 19 1 20
REMARK H PARENT
REMARK Flexibility Score: inf
ROOT
ATOM      1  C   UNL     1      -2.696  -3.827  10.784  1.00  0.00     0.000 C 
ENDROOT
BRANCH   1   2
ATOM      2  C   UNL     1      -3.580  -2.570  10.693  1.00  0.00     0.000 C 
BRANCH   2   3
ATOM      3  C   UNL     1      -3.746  -1.859  12.043  1.00  0.00     0.000 C 
BRANCH   3   4
ATOM      4  C   UNL     1      -4.783  -0.732  11.946  1.00  0.00     0.000 C 
BRANCH   4   5
ATOM      5  C   UNL     1      -5.985  -1.163  11.094  1.00  0.00     0.000 C 
BRANCH   5   6
ATOM      6  C   UNL     1      -7.241  -0.322  11.374  1.00  0.00     0.000 C 
BRANCH   6   7
ATOM      7  C   UNL     1      -7.489   0.748  10.296  1.00  0.00     0.006 C 
BRANCH   7   8
ATOM      8  C   UNL     1      -7.112   2.154  10.779  1.00  0.00     0.053 C 
BRANCH   8   9
ATOM      9  C   UNL     1      -7.131   3.150   9.661  1.00  0.00     0.041 C 
ATOM     10  O   UNL     1      -6.657   4.303   9.830  1.00  0.00    -0.550 OA
ATOM     11  O   UNL     1      -7.642   2.791   8.419  1.00  0.00    -0.550 OA
ENDBRANCH   8   9
ENDBRANCH   7   8
ENDBRANCH   6   7
ENDBRANCH   5   6
ENDBRANCH   4   5
ENDBRANCH   3   4
ENDBRANCH   2   3
ENDBRANCH   1   2
BRANCH   1  12
ATOM     12  C   UNL     1      -2.644  -4.685   9.503  1.00  0.00     0.000 C 
BRANCH  12  13
ATOM     13  C   UNL     1      -4.003  -5.218   9.014  1.00  0.00    -0.000 C 
BRANCH  13  14
ATOM     14  C   UNL     1      -4.156  -5.147   7.485  1.00  0.00    -0.000 C 
BRANCH  14  15
ATOM     15  C   UNL     1      -5.231  -4.137   7.049  1.00  0.00    -0.000 C 
BRANCH  15  16
ATOM     16  C   UNL     1      -6.132  -3.697   8.216  1.00  0.00    -0.000 C 
BRANCH  16  17
ATOM     17  C   UNL     1      -6.992  -2.467   7.873  1.00  0.00    -0.000 C 
BRANCH  17  18
ATOM     18  C   UNL     1      -8.514  -2.669   8.013  1.00  0.00    -0.000 C 
BRANCH  18  19
ATOM     19  C   UNL     1      -9.364  -1.417   7.738  1.00  0.00    -0.003 C 
ATOM     20  C   UNL     1      -8.561  -0.278   7.111  1.00  0.00     0.004 C 
ENDBRANCH  18  19
ENDBRANCH  17  18
ENDBRANCH  16  17
ENDBRANCH  15  16
ENDBRANCH  14  15
ENDBRANCH  13  14
ENDBRANCH  12  13
ENDBRANCH   1  12
TORSDOF 16
ENDMDL
MODEL 6
REMARK VINA RESULT:    -2.366      2.885      5.633
REMARK INTER + INTRA:          -7.192
REMARK INTER:                  -4.119
REMARK INTRA:                  -3.073
REMARK UNBOUND:                -2.613
REMARK SMILES CCCCCCCCCCCCCCCCCC(=O)[O-]
REMARK SMILES IDX 10 1 11 2 12 3 13 4 14 5 15 6 16 7 17 8 18 9 19 10 20 11
REMARK SMILES IDX 9 12 8 13 7 14 6 15 5 16 4 17 3 18 2 19 1 20
REMARK H PARENT
REMARK Flexibility Score: inf
ROOT
ATOM      1  C   UNL     1      -0.504   7.223  11.794  1.00  0.00     0.000 C 
ENDROOT
BRANCH   1   2
ATOM      2  C   UNL     1      -0.088   8.089  10.591  1.00  0.00     0.000 C 
BRANCH   2   3
ATOM      3  C   UNL     1      -1.159   8.135   9.492  1.00  0.00     0.000 C 
BRANCH   3   4
ATOM      4  C   UNL     1      -0.952   7.004   8.477  1.00  0.00     0.000 C 
BRANCH   4   5
ATOM      5  C   UNL     1      -2.221   6.150   8.339  1.00  0.00     0.000 C 
BRANCH   5   6
ATOM      6  C   UNL     1      -2.027   4.714   8.851  1.00  0.00     0.000 C 
BRANCH   6   7
ATOM      7  C   UNL     1      -2.830   4.428  10.131  1.00  0.00     0.006 C 
BRANCH   7   8
ATOM      8  C   UNL     1      -3.875   5.516  10.412  1.00  0.00     0.053 C 
BRANCH   8   9
ATOM      9  C   UNL     1      -5.224   4.929  10.698  1.00  0.00     0.041 C 
ATOM     10  O   UNL     1      -5.809   5.184  11.782  1.00  0.00    -0.550 OA
ATOM     11  O   UNL     1      -5.850   4.129   9.750  1.00  0.00    -0.550 OA
ENDBRANCH   8   9
ENDBRANCH   7   8
ENDBRANCH   6   7
ENDBRANCH   5   6
ENDBRANCH   4   5
ENDBRANCH   3   4
ENDBRANCH   2   3
ENDBRANCH   1   2
BRANCH   1  12
ATOM     12  C   UNL     1       0.097   5.803  11.818  1.00  0.00     0.000 C 
BRANCH  12  13
ATOM     13  C   UNL     1       1.583   5.726  12.217  1.00  0.00    -0.000 C 
BRANCH  13  14
ATOM     14  C   UNL     1       2.506   5.438  11.021  1.00  0.00    -0.000 C 
BRANCH  14  15
ATOM     15  C   UNL     1       1.757   4.796   9.841  1.00  0.00    -0.000 C 
BRANCH  15  16
ATOM     16  C   UNL     1       2.446   3.518   9.331  1.00  0.00    -0.000 C 
BRANCH  16  17
ATOM     17  C   UNL     1       1.842   2.236   9.931  1.00  0.00    -0.000 C 
BRANCH  17  18
ATOM     18  C   UNL     1       0.317   2.268  10.150  1.00  0.00    -0.000 C 
BRANCH  18  19
ATOM     19  C   UNL     1      -0.136   2.068  11.607  1.00  0.00    -0.003 C 
ATOM     20  C   UNL     1       1.032   2.024  12.592  1.00  0.00     0.004 C 
ENDBRANCH  18  19
ENDBRANCH  17  18
ENDBRANCH  16  17
ENDBRANCH  15  16
ENDBRANCH  14  15
ENDBRANCH  13  14
ENDBRANCH  12  13
ENDBRANCH   1  12
TORSDOF 16
ENDMDL
MODEL 7
REMARK VINA RESULT:    -2.296      2.341      5.043
REMARK INTER + INTRA:          -7.057
REMARK INTER:                  -4.385
REMARK INTRA:                  -2.672
REMARK UNBOUND:                -2.613
REMARK SMILES CCCCCCCCCCCCCCCCCC(=O)[O-]
REMARK SMILES IDX 10 1 11 2 12 3 13 4 14 5 15 6 16 7 17 8 18 9 19 10 20 11
REMARK SMILES IDX 9 12 8 13 7 14 6 15 5 16 4 17 3 18 2 19 1 20
REMARK H PARENT
REMARK Flexibility Score: inf
ROOT
ATOM      1  C   UNL     1       2.287   5.497  11.063  1.00  0.00     0.000 C 
ENDROOT
BRANCH   1   2
ATOM      2  C   UNL     1       1.382   5.294   9.834  1.00  0.00     0.000 C 
BRANCH   2   3
ATOM      3  C   UNL     1       0.664   6.581   9.403  1.00  0.00     0.000 C 
BRANCH   3   4
ATOM      4  C   UNL     1      -0.762   6.280   8.923  1.00  0.00     0.000 C 
BRANCH   4   5
ATOM      5  C   UNL     1      -1.148   4.825   9.225  1.00  0.00     0.000 C 
BRANCH   5   6
ATOM      6  C   UNL     1      -2.630   4.535   8.939  1.00  0.00     0.000 C 
BRANCH   6   7
ATOM      7  C   UNL     1      -3.573   5.226   9.939  1.00  0.00     0.006 C 
BRANCH   7   8
ATOM      8  C   UNL     1      -3.390   4.694  11.366  1.00  0.00     0.053 C 
BRANCH   8   9
ATOM      9  C   UNL     1      -4.381   3.617  11.688  1.00  0.00     0.041 C 
ATOM     10  O   UNL     1      -3.984   2.472  12.026  1.00  0.00    -0.550 OA
ATOM     11  O   UNL     1      -5.742   3.889  11.648  1.00  0.00    -0.550 OA
ENDBRANCH   8   9
ENDBRANCH   7   8
ENDBRANCH   6   7
ENDBRANCH   5   6
ENDBRANCH   4   5
ENDBRANCH   3   4
ENDBRANCH   2   3
ENDBRANCH   1   2
BRANCH   1  12
ATOM     12  C   UNL     1       1.912   4.653  12.298  1.00  0.00     0.000 C 
BRANCH  12  13
ATOM     13  C   UNL     1       0.401   4.480  12.541  1.00  0.00    -0.000 C 
BRANCH  13  14
ATOM     14  C   UNL     1       0.008   3.020  12.828  1.00  0.00    -0.000 C 
BRANCH  14  15
ATOM     15  C   UNL     1      -0.522   2.298  11.578  1.00  0.00    -0.000 C 
BRANCH  15  16
ATOM     16  C   UNL     1       0.445   1.213  11.073  1.00  0.00    -0.000 C 
BRANCH  16  17
ATOM     17  C   UNL     1       1.270   1.670   9.857  1.00  0.00    -0.000 C 
BRANCH  17  18
ATOM     18  C   UNL     1       2.790   1.775  10.095  1.00  0.00    -0.000 C 
BRANCH  18  19
ATOM     19  C   UNL     1       3.657   1.659   8.830  1.00  0.00    -0.003 C 
ATOM     20  C   UNL     1       3.690   2.949   8.011  1.00  0.00     0.004 C 
ENDBRANCH  18  19
ENDBRANCH  17  18
ENDBRANCH  16  17
ENDBRANCH  15  16
ENDBRANCH  14  15
ENDBRANCH  13  14
ENDBRANCH  12  13
ENDBRANCH   1  12
TORSDOF 16
ENDMDL
MODEL 8
REMARK VINA RESULT:    -2.293      2.092      4.057
REMARK INTER + INTRA:          -7.051
REMARK INTER:                  -4.409
REMARK INTRA:                  -2.642
REMARK UNBOUND:                -2.613
REMARK SMILES CCCCCCCCCCCCCCCCCC(=O)[O-]
REMARK SMILES IDX 10 1 11 2 12 3 13 4 14 5 15 6 16 7 17 8 18 9 19 10 20 11
REMARK SMILES IDX 9 12 8 13 7 14 6 15 5 16 4 17 3 18 2 19 1 20
REMARK H PARENT
REMARK Flexibility Score: inf
ROOT
ATOM      1  C   UNL     1      -2.769   4.284  11.405  1.00  0.00     0.000 C 
ENDROOT
BRANCH   1   2
ATOM      2  C   UNL     1      -1.481   3.445  11.469  1.00  0.00     0.000 C 
BRANCH   2   3
ATOM      3  C   UNL     1      -1.616   2.212  12.374  1.00  0.00     0.000 C 
BRANCH   3   4
ATOM      4  C   UNL     1      -0.371   2.035  13.251  1.00  0.00     0.000 C 
BRANCH   4   5
ATOM      5  C   UNL     1       0.235   0.635  13.072  1.00  0.00     0.000 C 
BRANCH   5   6
ATOM      6  C   UNL     1       0.063   0.096  11.643  1.00  0.00     0.000 C 
BRANCH   6   7
ATOM      7  C   UNL     1       1.287   0.377  10.753  1.00  0.00     0.006 C 
BRANCH   7   8
ATOM      8  C   UNL     1       1.013   1.484   9.727  1.00  0.00     0.053 C 
BRANCH   8   9
ATOM      9  C   UNL     1       1.994   2.610   9.849  1.00  0.00     0.041 C 
ATOM     10  O   UNL     1       2.751   2.898   8.887  1.00  0.00    -0.550 OA
ATOM     11  O   UNL     1       2.047   3.363  11.016  1.00  0.00    -0.550 OA
ENDBRANCH   8   9
ENDBRANCH   7   8
ENDBRANCH   6   7
ENDBRANCH   5   6
ENDBRANCH   4   5
ENDBRANCH   3   4
ENDBRANCH   2   3
ENDBRANCH   1   2
BRANCH   1  12
ATOM     12  C   UNL     1      -3.339   4.503   9.988  1.00  0.00     0.000 C 
BRANCH  12  13
ATOM     13  C   UNL     1      -2.287   4.726   8.886  1.00  0.00    -0.000 C 
BRANCH  13  14
ATOM     14  C   UNL     1      -2.256   6.177   8.377  1.00  0.00    -0.000 C 
BRANCH  14  15
ATOM     15  C   UNL     1      -0.869   6.823   8.527  1.00  0.00    -0.000 C 
BRANCH  15  16
ATOM     16  C   UNL     1       0.102   5.950   9.341  1.00  0.00    -0.000 C 
BRANCH  16  17
ATOM     17  C   UNL     1       0.768   6.717  10.497  1.00  0.00    -0.000 C 
BRANCH  17  18
ATOM     18  C   UNL     1      -0.049   6.780  11.802  1.00  0.00    -0.000 C 
BRANCH  18  19
ATOM     19  C   UNL     1      -0.845   8.081  12.010  1.00  0.00    -0.003 C 
ATOM     20  C   UNL     1      -2.344   7.907  11.768  1.00  0.00     0.004 C 
ENDBRANCH  18  19
ENDBRANCH  17  18
ENDBRANCH  16  17
ENDBRANCH  15  16
ENDBRANCH  14  15
ENDBRANCH  13  14
ENDBRANCH  12  13
ENDBRANCH   1  12
TORSDOF 16
ENDMDL
MODEL 9
REMARK VINA RESULT:    -2.257      2.922      4.956
REMARK INTER + INTRA:          -6.980
REMARK INTER:                  -4.232
REMARK INTRA:                  -2.749
REMARK UNBOUND:                -2.613
REMARK SMILES CCCCCCCCCCCCCCCCCC(=O)[O-]
REMARK SMILES IDX 10 1 11 2 12 3 13 4 14 5 15 6 16 7 17 8 18 9 19 10 20 11
REMARK SMILES IDX 9 12 8 13 7 14 6 15 5 16 4 17 3 18 2 19 1 20
REMARK H PARENT
REMARK Flexibility Score: inf
ROOT
ATOM      1  C   UNL     1      -2.071   5.954   8.497  1.00  0.00     0.000 C 
ENDROOT
BRANCH   1   2
ATOM      2  C   UNL     1      -0.647   6.382   8.894  1.00  0.00     0.000 C 
BRANCH   2   3
ATOM      3  C   UNL     1       0.138   5.264   9.595  1.00  0.00     0.000 C 
BRANCH   3   4
ATOM      4  C   UNL     1      -0.757   4.046   9.856  1.00  0.00     0.000 C 
BRANCH   4   5
ATOM      5  C   UNL     1      -0.017   2.988  10.687  1.00  0.00     0.000 C 
BRANCH   5   6
ATOM      6  C   UNL     1       0.722   1.961   9.814  1.00  0.00     0.000 C 
BRANCH   6   7
ATOM      7  C   UNL     1       2.249   2.017   9.999  1.00  0.00     0.006 C 
BRANCH   7   8
ATOM      8  C   UNL     1       2.955   2.626   8.780  1.00  0.00     0.053 C 
BRANCH   8   9
ATOM      9  C   UNL     1       3.608   3.933   9.113  1.00  0.00     0.041 C 
ATOM     10  O   UNL     1       4.204   4.589   8.220  1.00  0.00    -0.550 OA
ATOM     11  O   UNL     1       3.526   4.443  10.403  1.00  0.00    -0.550 OA
ENDBRANCH   8   9
ENDBRANCH   7   8
ENDBRANCH   6   7
ENDBRANCH   5   6
ENDBRANCH   4   5
ENDBRANCH   3   4
ENDBRANCH   2   3
ENDBRANCH   1   2
BRANCH   1  12
ATOM     12  C   UNL     1      -2.971   7.088   7.964  1.00  0.00     0.000 C 
BRANCH  12  13
ATOM     13  C   UNL     1      -4.030   7.607   8.955  1.00  0.00    -0.000 C 
BRANCH  13  14
ATOM     14  C   UNL     1      -3.455   8.609   9.971  1.00  0.00    -0.000 C 
BRANCH  14  15
ATOM     15  C   UNL     1      -3.541   8.094  11.417  1.00  0.00    -0.000 C 
BRANCH  15  16
ATOM     16  C   UNL     1      -2.209   7.505  11.912  1.00  0.00    -0.000 C 
BRANCH  16  17
ATOM     17  C   UNL     1      -2.367   6.099  12.518  1.00  0.00    -0.000 C 
BRANCH  17  18
ATOM     18  C   UNL     1      -3.785   5.499  12.427  1.00  0.00    -0.000 C 
BRANCH  18  19
ATOM     19  C   UNL     1      -3.886   4.186  11.632  1.00  0.00    -0.003 C 
ATOM     20  C   UNL     1      -4.790   4.302  10.405  1.00  0.00     0.004 C 
ENDBRANCH  18  19
ENDBRANCH  17  18
ENDBRANCH  16  17
ENDBRANCH  15  16
ENDBRANCH  14  15
ENDBRANCH  13  14
ENDBRANCH  12  13
ENDBRANCH   1  12
TORSDOF 16
ENDMDL
