MODEL 1
REMARK VINA RESULT:    -6.978      0.000      0.000
REMARK INTER + INTRA:          -8.616
REMARK INTER:                  -8.406
REMARK INTRA:                  -0.210
REMARK UNBOUND:                -0.210
REMARK SMILES Oc1cc(O)c2cc(O)c(-c3ccc(O)c(O)c3)[o+]c2c1.[Cl-]
REMARK SMILES IDX 10 1 19 2 20 3 21 4 2 5 3 6 4 7 6 8 7 9 8 10 11 11 12 12
REMARK SMILES IDX 13 13 14 14 18 15 16 16 15 17 17 19 9 21 1 23 5 25
REMARK H PARENT 15 18 17 20 9 22 1 24 5 26
REMARK Flexibility Score: inf
ROOT
ATOM      1  C   UNL     1      23.027  16.351   4.050  1.00  0.00     0.402 A 
ATOM      2  O   UNL     1      21.753  15.973   3.994  1.00  0.00    -0.202 OA
ATOM      3  C   UNL     1      21.368  14.755   3.627  1.00  0.00     0.368 A 
ATOM      4  C   UNL     1      20.004  14.450   3.602  1.00  0.00     0.162 A 
ATOM      5  C   UNL     1      19.572  13.176   3.224  1.00  0.00     0.128 A 
ATOM      6  C   UNL     1      20.508  12.202   2.870  1.00  0.00     0.093 A 
ATOM      7  C   UNL     1      21.880  12.481   2.886  1.00  0.00     0.136 A 
ATOM      8  C   UNL     1      22.323  13.774   3.268  1.00  0.00     0.125 A 
ATOM      9  C   UNL     1      23.677  14.147   3.301  1.00  0.00     0.078 A 
ATOM     10  C   UNL     1      24.038  15.443   3.683  1.00  0.00     0.223 A 
ENDROOT
BRANCH   1  11
ATOM     11  C   UNL     1      23.329  17.734   4.484  1.00  0.00     0.087 A 
ATOM     12  C   UNL     1      23.847  18.650   3.556  1.00  0.00     0.022 A 
ATOM     13  C   UNL     1      24.121  19.966   3.938  1.00  0.00     0.051 A 
ATOM     14  C   UNL     1      23.867  20.391   5.245  1.00  0.00     0.157 A 
ATOM     15  C   UNL     1      23.054  18.168   5.794  1.00  0.00     0.068 A 
ATOM     16  C   UNL     1      23.326  19.490   6.178  1.00  0.00     0.158 A 
BRANCH  14  17
ATOM     17  O   UNL     1      24.152  21.709   5.598  1.00  0.00    -0.504 OA
ATOM     18  H   UNL     1      24.598  21.947   6.475  1.00  0.00     0.293 HD
ENDBRANCH  14  17
BRANCH  16  19
ATOM     19  O   UNL     1      23.058  19.910   7.479  1.00  0.00    -0.504 OA
ATOM     20  H   UNL     1      23.725  20.459   8.009  1.00  0.00     0.293 HD
ENDBRANCH  16  19
ENDBRANCH   1  11
BRANCH  10  21
ATOM     21  O   UNL     1      25.378  15.829   3.668  1.00  0.00    -0.500 OA
ATOM     22  H   UNL     1      26.032  15.512   4.374  1.00  0.00     0.294 HD
ENDBRANCH  10  21
BRANCH   5  23
ATOM     23  O   UNL     1      18.214  12.866   3.196  1.00  0.00    -0.507 OA
ATOM     24  H   UNL     1      17.802  12.362   2.419  1.00  0.00     0.293 HD
ENDBRANCH   5  23
BRANCH   7  25
ATOM     25  O   UNL     1      22.752  11.451   2.521  1.00  0.00    -0.507 OA
ATOM     26  H   UNL     1      23.037  10.700   3.133  1.00  0.00     0.293 HD
ENDBRANCH   7  25
TORSDOF 6
ENDMDL
MODEL 2
REMARK VINA RESULT:    -6.897      1.290      2.708
REMARK INTER + INTRA:          -8.519
REMARK INTER:                  -8.211
REMARK INTRA:                  -0.308
REMARK UNBOUND:                -0.210
REMARK SMILES Oc1cc(O)c2cc(O)c(-c3ccc(O)c(O)c3)[o+]c2c1.[Cl-]
REMARK SMILES IDX 10 1 19 2 20 3 21 4 2 5 3 6 4 7 6 8 7 9 8 10 11 11 12 12
REMARK SMILES IDX 13 13 14 14 18 15 16 16 15 17 17 19 9 21 1 23 5 25
REMARK H PARENT 15 18 17 20 9 22 1 24 5 26
REMARK Flexibility Score: inf
ROOT
ATOM      1  C   UNL     1      22.715  16.815   3.877  1.00  0.00     0.402 A 
ATOM      2  O   UNL     1      23.589  15.814   3.932  1.00  0.00    -0.202 OA
ATOM      3  C   UNL     1      23.318  14.584   3.508  1.00  0.00     0.368 A 
ATOM      4  C   UNL     1      24.304  13.598   3.604  1.00  0.00     0.162 A 
ATOM      5  C   UNL     1      24.046  12.297   3.162  1.00  0.00     0.128 A 
ATOM      6  C   UNL     1      22.798  11.981   2.621  1.00  0.00     0.093 A 
ATOM      7  C   UNL     1      21.794  12.950   2.513  1.00  0.00     0.136 A 
ATOM      8  C   UNL     1      22.049  14.272   2.962  1.00  0.00     0.125 A 
ATOM      9  C   UNL     1      21.098  15.304   2.906  1.00  0.00     0.078 A 
ATOM     10  C   UNL     1      21.422  16.582   3.373  1.00  0.00     0.223 A 
ENDROOT
BRANCH   1  11
ATOM     11  C   UNL     1      23.140  18.144   4.373  1.00  0.00     0.087 A 
ATOM     12  C   UNL     1      23.894  18.983   3.538  1.00  0.00     0.022 A 
ATOM     13  C   UNL     1      24.288  20.250   3.977  1.00  0.00     0.051 A 
ATOM     14  C   UNL     1      23.924  20.703   5.247  1.00  0.00     0.157 A 
ATOM     15  C   UNL     1      22.756  18.610   5.643  1.00  0.00     0.068 A 
ATOM     16  C   UNL     1      23.150  19.882   6.085  1.00  0.00     0.158 A 
BRANCH  14  17
ATOM     17  O   UNL     1      24.334  21.970   5.660  1.00  0.00    -0.504 OA
ATOM     18  H   UNL     1      23.677  22.725   5.816  1.00  0.00     0.293 HD
ENDBRANCH  14  17
BRANCH  16  19
ATOM     19  O   UNL     1      22.771  20.332   7.348  1.00  0.00    -0.504 OA
ATOM     20  H   UNL     1      22.542  19.688   8.096  1.00  0.00     0.293 HD
ENDBRANCH  16  19
ENDBRANCH   1  11
BRANCH  10  21
ATOM     21  O   UNL     1      20.462  17.594   3.363  1.00  0.00    -0.500 OA
ATOM     22  H   UNL     1      20.399  18.276   4.110  1.00  0.00     0.294 HD
ENDBRANCH  10  21
BRANCH   5  23
ATOM     23  O   UNL     1      25.024  11.309   3.256  1.00  0.00    -0.507 OA
ATOM     24  H   UNL     1      24.784  10.325   3.255  1.00  0.00     0.293 HD
ENDBRANCH   5  23
BRANCH   7  25
ATOM     25  O   UNL     1      20.573  12.555   1.957  1.00  0.00    -0.507 OA
ATOM     26  H   UNL     1      20.049  11.742   2.249  1.00  0.00     0.293 HD
ENDBRANCH   7  25
TORSDOF 6
ENDMDL
MODEL 3
REMARK VINA RESULT:    -5.763      3.060      5.551
REMARK INTER + INTRA:          -7.152
REMARK INTER:                  -7.147
REMARK INTRA:                  -0.005
REMARK UNBOUND:                -0.210
REMARK SMILES Oc1cc(O)c2cc(O)c(-c3ccc(O)c(O)c3)[o+]c2c1.[Cl-]
REMARK SMILES IDX 10 1 19 2 20 3 21 4 2 5 3 6 4 7 6 8 7 9 8 10 11 11 12 12
REMARK SMILES IDX 13 13 14 14 18 15 16 16 15 17 17 19 9 21 1 23 5 25
REMARK H PARENT 15 18 17 20 9 22 1 24 5 26
REMARK Flexibility Score: inf
ROOT
ATOM      1  C   UNL     1      23.163  19.312   7.360  1.00  0.00     0.402 A 
ATOM      2  O   UNL     1      22.357  18.540   6.637  1.00  0.00    -0.202 OA
ATOM      3  C   UNL     1      22.580  18.247   5.360  1.00  0.00     0.368 A 
ATOM      4  C   UNL     1      21.677  17.423   4.683  1.00  0.00     0.162 A 
ATOM      5  C   UNL     1      21.889  17.096   3.340  1.00  0.00     0.128 A 
ATOM      6  C   UNL     1      23.009  17.594   2.673  1.00  0.00     0.093 A 
ATOM      7  C   UNL     1      23.930  18.421   3.328  1.00  0.00     0.136 A 
ATOM      8  C   UNL     1      23.717  18.758   4.690  1.00  0.00     0.125 A 
ATOM      9  C   UNL     1      24.579  19.591   5.423  1.00  0.00     0.078 A 
ATOM     10  C   UNL     1      24.302  19.882   6.762  1.00  0.00     0.223 A 
ENDROOT
BRANCH   1  11
ATOM     11  C   UNL     1      22.811  19.558   8.778  1.00  0.00     0.087 A 
ATOM     12  C   UNL     1      23.794  19.408   9.768  1.00  0.00     0.022 A 
ATOM     13  C   UNL     1      23.490  19.654  11.110  1.00  0.00     0.051 A 
ATOM     14  C   UNL     1      22.208  20.067  11.480  1.00  0.00     0.157 A 
ATOM     15  C   UNL     1      21.526  19.994   9.150  1.00  0.00     0.068 A 
ATOM     16  C   UNL     1      21.220  20.243  10.496  1.00  0.00     0.158 A 
BRANCH  14  17
ATOM     17  O   UNL     1      21.933  20.302  12.827  1.00  0.00    -0.504 OA
ATOM     18  H   UNL     1      21.024  20.618  13.144  1.00  0.00     0.293 HD
ENDBRANCH  14  17
BRANCH  16  19
ATOM     19  O   UNL     1      19.943  20.669  10.856  1.00  0.00    -0.504 OA
ATOM     20  H   UNL     1      19.558  20.475  11.774  1.00  0.00     0.293 HD
ENDBRANCH  16  19
ENDBRANCH   1  11
BRANCH  10  21
ATOM     21  O   UNL     1      25.130  20.749   7.475  1.00  0.00    -0.500 OA
ATOM     22  H   UNL     1      24.948  20.983   8.444  1.00  0.00     0.294 HD
ENDBRANCH  10  21
BRANCH   5  23
ATOM     23  O   UNL     1      20.992  16.276   2.659  1.00  0.00    -0.507 OA
ATOM     24  H   UNL     1      21.311  15.501   2.090  1.00  0.00     0.293 HD
ENDBRANCH   5  23
BRANCH   7  25
ATOM     25  O   UNL     1      25.027  18.876   2.590  1.00  0.00    -0.507 OA
ATOM     26  H   UNL     1      24.970  19.251   1.654  1.00  0.00     0.293 HD
ENDBRANCH   7  25
TORSDOF 6
ENDMDL
MODEL 4
REMARK VINA RESULT:    -5.631      1.366      6.894
REMARK INTER + INTRA:          -6.994
REMARK INTER:                  -6.678
REMARK INTRA:                  -0.316
REMARK UNBOUND:                -0.210
REMARK SMILES Oc1cc(O)c2cc(O)c(-c3ccc(O)c(O)c3)[o+]c2c1.[Cl-]
REMARK SMILES IDX 10 1 19 2 20 3 21 4 2 5 3 6 4 7 6 8 7 9 8 10 11 11 12 12
REMARK SMILES IDX 13 13 14 14 18 15 16 16 15 17 17 19 9 21 1 23 5 25
REMARK H PARENT 15 18 17 20 9 22 1 24 5 26
REMARK Flexibility Score: inf
ROOT
ATOM      1  C   UNL     1      23.427  16.551   3.926  1.00  0.00     0.402 A 
ATOM      2  O   UNL     1      22.975  16.962   5.107  1.00  0.00    -0.202 OA
ATOM      3  C   UNL     1      23.115  18.207   5.549  1.00  0.00     0.368 A 
ATOM      4  C   UNL     1      22.601  18.546   6.804  1.00  0.00     0.162 A 
ATOM      5  C   UNL     1      22.732  19.850   7.291  1.00  0.00     0.128 A 
ATOM      6  C   UNL     1      23.378  20.819   6.520  1.00  0.00     0.093 A 
ATOM      7  C   UNL     1      23.900  20.506   5.260  1.00  0.00     0.136 A 
ATOM      8  C   UNL     1      23.772  19.183   4.762  1.00  0.00     0.125 A 
ATOM      9  C   UNL     1      24.277  18.775   3.516  1.00  0.00     0.078 A 
ATOM     10  C   UNL     1      24.117  17.452   3.093  1.00  0.00     0.223 A 
ENDROOT
BRANCH   1  11
ATOM     11  C   UNL     1      23.201  15.138   3.542  1.00  0.00     0.087 A 
ATOM     12  C   UNL     1      24.230  14.201   3.721  1.00  0.00     0.022 A 
ATOM     13  C   UNL     1      24.031  12.859   3.384  1.00  0.00     0.051 A 
ATOM     14  C   UNL     1      22.801  12.431   2.880  1.00  0.00     0.157 A 
ATOM     15  C   UNL     1      21.955  14.702   3.054  1.00  0.00     0.068 A 
ATOM     16  C   UNL     1      21.754  13.355   2.718  1.00  0.00     0.158 A 
BRANCH  14  17
ATOM     17  O   UNL     1      22.633  11.087   2.551  1.00  0.00    -0.504 OA
ATOM     18  H   UNL     1      21.819  10.559   2.841  1.00  0.00     0.293 HD
ENDBRANCH  14  17
BRANCH  16  19
ATOM     19  O   UNL     1      20.520  12.933   2.229  1.00  0.00    -0.504 OA
ATOM     20  H   UNL     1      20.039  12.131   2.620  1.00  0.00     0.293 HD
ENDBRANCH  16  19
ENDBRANCH   1  11
BRANCH  10  21
ATOM     21  O   UNL     1      24.661  17.034   1.878  1.00  0.00    -0.500 OA
ATOM     22  H   UNL     1      24.224  16.313   1.318  1.00  0.00     0.294 HD
ENDBRANCH  10  21
BRANCH   5  23
ATOM     23  O   UNL     1      22.223  20.194   8.542  1.00  0.00    -0.507 OA
ATOM     24  H   UNL     1      22.832  20.338   9.339  1.00  0.00     0.293 HD
ENDBRANCH   5  23
BRANCH   7  25
ATOM     25  O   UNL     1      24.529  21.532   4.550  1.00  0.00    -0.507 OA
ATOM     26  H   UNL     1      24.943  21.424   3.634  1.00  0.00     0.293 HD
ENDBRANCH   7  25
TORSDOF 6
ENDMDL
MODEL 5
REMARK VINA RESULT:    -5.522      1.668      7.126
REMARK INTER + INTRA:          -6.862
REMARK INTER:                  -6.812
REMARK INTRA:                  -0.050
REMARK UNBOUND:                -0.210
REMARK SMILES Oc1cc(O)c2cc(O)c(-c3ccc(O)c(O)c3)[o+]c2c1.[Cl-]
REMARK SMILES IDX 10 1 19 2 20 3 21 4 2 5 3 6 4 7 6 8 7 9 8 10 11 11 12 12
REMARK SMILES IDX 13 13 14 14 18 15 16 16 15 17 17 19 9 21 1 23 5 25
REMARK H PARENT 15 18 17 20 9 22 1 24 5 26
REMARK Flexibility Score: inf
ROOT
ATOM      1  C   UNL     1      21.832  16.890   4.276  1.00  0.00     0.402 A 
ATOM      2  O   UNL     1      22.135  17.258   5.518  1.00  0.00    -0.202 OA
ATOM      3  C   UNL     1      22.853  18.340   5.804  1.00  0.00     0.368 A 
ATOM      4  C   UNL     1      23.117  18.648   7.141  1.00  0.00     0.162 A 
ATOM      5  C   UNL     1      23.866  19.781   7.470  1.00  0.00     0.128 A 
ATOM      6  C   UNL     1      24.353  20.610   6.457  1.00  0.00     0.093 A 
ATOM      7  C   UNL     1      24.103  20.324   5.110  1.00  0.00     0.136 A 
ATOM      8  C   UNL     1      23.344  19.174   4.771  1.00  0.00     0.125 A 
ATOM      9  C   UNL     1      23.055  18.802   3.447  1.00  0.00     0.078 A 
ATOM     10  C   UNL     1      22.304  17.651   3.190  1.00  0.00     0.223 A 
ENDROOT
BRANCH   1  11
ATOM     11  C   UNL     1      21.016  15.668   4.087  1.00  0.00     0.087 A 
ATOM     12  C   UNL     1      19.768  15.568   4.721  1.00  0.00     0.022 A 
ATOM     13  C   UNL     1      18.972  14.433   4.541  1.00  0.00     0.051 A 
ATOM     14  C   UNL     1      19.402  13.392   3.715  1.00  0.00     0.157 A 
ATOM     15  C   UNL     1      21.438  14.628   3.239  1.00  0.00     0.068 A 
ATOM     16  C   UNL     1      20.639  13.490   3.056  1.00  0.00     0.158 A 
BRANCH  14  17
ATOM     17  O   UNL     1      18.588  12.271   3.556  1.00  0.00    -0.504 OA
ATOM     18  H   UNL     1      17.976  12.159   2.757  1.00  0.00     0.293 HD
ENDBRANCH  14  17
BRANCH  16  19
ATOM     19  O   UNL     1      21.068  12.462   2.219  1.00  0.00    -0.504 OA
ATOM     20  H   UNL     1      21.470  11.607   2.590  1.00  0.00     0.293 HD
ENDBRANCH  16  19
ENDBRANCH   1  11
BRANCH  10  21
ATOM     21  O   UNL     1      22.060  17.254   1.875  1.00  0.00    -0.500 OA
ATOM     22  H   UNL     1      22.789  17.261   1.172  1.00  0.00     0.294 HD
ENDBRANCH  10  21
BRANCH   5  23
ATOM     23  O   UNL     1      24.134  20.093   8.801  1.00  0.00    -0.507 OA
ATOM     24  H   UNL     1      25.064  19.994   9.191  1.00  0.00     0.293 HD
ENDBRANCH   5  23
BRANCH   7  25
ATOM     25  O   UNL     1      24.622  21.205   4.157  1.00  0.00    -0.507 OA
ATOM     26  H   UNL     1      25.576  21.535   4.143  1.00  0.00     0.293 HD
ENDBRANCH   7  25
TORSDOF 6
ENDMDL
MODEL 6
REMARK VINA RESULT:    -5.485      3.533      7.765
REMARK INTER + INTRA:          -6.817
REMARK INTER:                  -6.887
REMARK INTRA:                   0.069
REMARK UNBOUND:                -0.210
REMARK SMILES Oc1cc(O)c2cc(O)c(-c3ccc(O)c(O)c3)[o+]c2c1.[Cl-]
REMARK SMILES IDX 10 1 19 2 20 3 21 4 2 5 3 6 4 7 6 8 7 9 8 10 11 11 12 12
REMARK SMILES IDX 13 13 14 14 18 15 16 16 15 17 17 19 9 21 1 23 5 25
REMARK H PARENT 15 18 17 20 9 22 1 24 5 26
REMARK Flexibility Score: inf
ROOT
ATOM      1  C   UNL     1      23.506  19.361   7.594  1.00  0.00     0.402 A 
ATOM      2  O   UNL     1      22.461  19.237   8.408  1.00  0.00    -0.202 OA
ATOM      3  C   UNL     1      22.479  19.617   9.681  1.00  0.00     0.368 A 
ATOM      4  C   UNL     1      21.330  19.449  10.458  1.00  0.00     0.162 A 
ATOM      5  C   UNL     1      21.320  19.843  11.799  1.00  0.00     0.128 A 
ATOM      6  C   UNL     1      22.464  20.408  12.365  1.00  0.00     0.093 A 
ATOM      7  C   UNL     1      23.629  20.587  11.610  1.00  0.00     0.136 A 
ATOM      8  C   UNL     1      23.644  20.187  10.248  1.00  0.00     0.125 A 
ATOM      9  C   UNL     1      24.770  20.316   9.418  1.00  0.00     0.078 A 
ATOM     10  C   UNL     1      24.712  19.894   8.086  1.00  0.00     0.223 A 
ENDROOT
BRANCH   1  11
ATOM     11  C   UNL     1      23.358  18.909   6.191  1.00  0.00     0.087 A 
ATOM     12  C   UNL     1      23.884  19.696   5.154  1.00  0.00     0.022 A 
ATOM     13  C   UNL     1      23.774  19.279   3.825  1.00  0.00     0.051 A 
ATOM     14  C   UNL     1      23.154  18.067   3.513  1.00  0.00     0.157 A 
ATOM     15  C   UNL     1      22.753  17.679   5.877  1.00  0.00     0.068 A 
ATOM     16  C   UNL     1      22.644  17.258   4.543  1.00  0.00     0.158 A 
BRANCH  14  17
ATOM     17  O   UNL     1      23.057  17.678   2.177  1.00  0.00    -0.504 OA
ATOM     18  H   UNL     1      23.701  18.013   1.470  1.00  0.00     0.293 HD
ENDBRANCH  14  17
BRANCH  16  19
ATOM     19  O   UNL     1      22.037  16.042   4.240  1.00  0.00    -0.504 OA
ATOM     20  H   UNL     1      21.439  15.565   4.906  1.00  0.00     0.293 HD
ENDBRANCH  16  19
ENDBRANCH   1  11
BRANCH  10  21
ATOM     21  O   UNL     1      25.844  19.976   7.276  1.00  0.00    -0.500 OA
ATOM     22  H   UNL     1      26.410  19.162   7.068  1.00  0.00     0.294 HD
ENDBRANCH  10  21
BRANCH   5  23
ATOM     23  O   UNL     1      20.178  19.677  12.579  1.00  0.00    -0.507 OA
ATOM     24  H   UNL     1      20.092  18.910  13.236  1.00  0.00     0.293 HD
ENDBRANCH   5  23
BRANCH   7  25
ATOM     25  O   UNL     1      24.731  21.163  12.249  1.00  0.00    -0.507 OA
ATOM     26  H   UNL     1      24.766  22.116  12.580  1.00  0.00     0.293 HD
ENDBRANCH   7  25
TORSDOF 6
ENDMDL
MODEL 7
REMARK VINA RESULT:    -5.016      5.716      8.458
REMARK INTER + INTRA:          -6.252
REMARK INTER:                  -6.627
REMARK INTRA:                   0.375
REMARK UNBOUND:                -0.210
REMARK SMILES Oc1cc(O)c2cc(O)c(-c3ccc(O)c(O)c3)[o+]c2c1.[Cl-]
REMARK SMILES IDX 10 1 19 2 20 3 21 4 2 5 3 6 4 7 6 8 7 9 8 10 11 11 12 12
REMARK SMILES IDX 13 13 14 14 18 15 16 16 15 17 17 19 9 21 1 23 5 25
REMARK H PARENT 15 18 17 20 9 22 1 24 5 26
REMARK Flexibility Score: inf
ROOT
ATOM      1  C   UNL     1      22.071  19.773   9.838  1.00  0.00     0.402 A 
ATOM      2  O   UNL     1      20.759  19.558   9.876  1.00  0.00    -0.202 OA
ATOM      3  C   UNL     1      20.062  19.499  11.006  1.00  0.00     0.368 A 
ATOM      4  C   UNL     1      18.684  19.273  10.946  1.00  0.00     0.162 A 
ATOM      5  C   UNL     1      17.926  19.210  12.119  1.00  0.00     0.128 A 
ATOM      6  C   UNL     1      18.549  19.376  13.357  1.00  0.00     0.093 A 
ATOM      7  C   UNL     1      19.928  19.604  13.446  1.00  0.00     0.136 A 
ATOM      8  C   UNL     1      20.701  19.667  12.258  1.00  0.00     0.125 A 
ATOM      9  C   UNL     1      22.090  19.879  12.252  1.00  0.00     0.078 A 
ATOM     10  C   UNL     1      22.787  19.923  11.040  1.00  0.00     0.223 A 
ENDROOT
BRANCH   1  11
ATOM     11  C   UNL     1      22.733  19.826   8.514  1.00  0.00     0.087 A 
ATOM     12  C   UNL     1      21.959  20.041   7.363  1.00  0.00     0.022 A 
ATOM     13  C   UNL     1      22.565  20.115   6.106  1.00  0.00     0.051 A 
ATOM     14  C   UNL     1      23.951  19.991   5.981  1.00  0.00     0.157 A 
ATOM     15  C   UNL     1      24.131  19.722   8.389  1.00  0.00     0.068 A 
ATOM     16  C   UNL     1      24.741  19.798   7.128  1.00  0.00     0.158 A 
BRANCH  14  17
ATOM     17  O   UNL     1      24.528  20.067   4.714  1.00  0.00    -0.504 OA
ATOM     18  H   UNL     1      25.009  20.897   4.390  1.00  0.00     0.293 HD
ENDBRANCH  14  17
BRANCH  16  19
ATOM     19  O   UNL     1      26.125  19.688   7.012  1.00  0.00    -0.504 OA
ATOM     20  H   UNL     1      26.579  18.789   6.899  1.00  0.00     0.293 HD
ENDBRANCH  16  19
ENDBRANCH   1  11
BRANCH  10  21
ATOM     21  O   UNL     1      24.173  20.083  11.036  1.00  0.00    -0.500 OA
ATOM     22  H   UNL     1      24.758  19.639  10.339  1.00  0.00     0.294 HD
ENDBRANCH  10  21
BRANCH   5  23
ATOM     23  O   UNL     1      16.553  18.983  12.065  1.00  0.00    -0.507 OA
ATOM     24  H   UNL     1      15.889  19.680  12.380  1.00  0.00     0.293 HD
ENDBRANCH   5  23
BRANCH   7  25
ATOM     25  O   UNL     1      20.474  19.763  14.723  1.00  0.00    -0.507 OA
ATOM     26  H   UNL     1      20.832  20.634  15.087  1.00  0.00     0.293 HD
ENDBRANCH   7  25
TORSDOF 6
ENDMDL
MODEL 8
REMARK VINA RESULT:    -4.736      5.504      8.782
REMARK INTER + INTRA:          -5.916
REMARK INTER:                  -6.392
REMARK INTRA:                   0.476
REMARK UNBOUND:                -0.210
REMARK SMILES Oc1cc(O)c2cc(O)c(-c3ccc(O)c(O)c3)[o+]c2c1.[Cl-]
REMARK SMILES IDX 10 1 19 2 20 3 21 4 2 5 3 6 4 7 6 8 7 9 8 10 11 11 12 12
REMARK SMILES IDX 13 13 14 14 18 15 16 16 15 17 17 19 9 21 1 23 5 25
REMARK H PARENT 15 18 17 20 9 22 1 24 5 26
REMARK Flexibility Score: inf
ROOT
ATOM      1  C   UNL     1      21.269  19.666  10.365  1.00  0.00     0.402 A 
ATOM      2  O   UNL     1      21.321  19.596   9.038  1.00  0.00    -0.202 OA
ATOM      3  C   UNL     1      22.446  19.723   8.343  1.00  0.00     0.368 A 
ATOM      4  C   UNL     1      22.400  19.631   6.950  1.00  0.00     0.162 A 
ATOM      5  C   UNL     1      23.570  19.758   6.194  1.00  0.00     0.128 A 
ATOM      6  C   UNL     1      24.791  19.976   6.836  1.00  0.00     0.093 A 
ATOM      7  C   UNL     1      24.865  20.071   8.231  1.00  0.00     0.136 A 
ATOM      8  C   UNL     1      23.680  19.946   9.002  1.00  0.00     0.125 A 
ATOM      9  C   UNL     1      23.657  20.042  10.403  1.00  0.00     0.078 A 
ATOM     10  C   UNL     1      22.448  19.912  11.095  1.00  0.00     0.223 A 
ENDROOT
BRANCH   1  11
ATOM     11  C   UNL     1      19.954  19.499  11.026  1.00  0.00     0.087 A 
ATOM     12  C   UNL     1      19.887  19.457  12.427  1.00  0.00     0.022 A 
ATOM     13  C   UNL     1      18.654  19.321  13.072  1.00  0.00     0.051 A 
ATOM     14  C   UNL     1      17.473  19.239  12.330  1.00  0.00     0.157 A 
ATOM     15  C   UNL     1      18.762  19.438  10.281  1.00  0.00     0.068 A 
ATOM     16  C   UNL     1      17.525  19.303  10.927  1.00  0.00     0.158 A 
BRANCH  14  17
ATOM     17  O   UNL     1      16.259  19.101  13.001  1.00  0.00    -0.504 OA
ATOM     18  H   UNL     1      16.210  18.915  13.996  1.00  0.00     0.293 HD
ENDBRANCH  14  17
BRANCH  16  19
ATOM     19  O   UNL     1      16.349  19.237  10.182  1.00  0.00    -0.504 OA
ATOM     20  H   UNL     1      15.532  18.742  10.521  1.00  0.00     0.293 HD
ENDBRANCH  16  19
ENDBRANCH   1  11
BRANCH  10  21
ATOM     21  O   UNL     1      22.417  20.057  12.482  1.00  0.00    -0.500 OA
ATOM     22  H   UNL     1      22.017  20.876  12.923  1.00  0.00     0.294 HD
ENDBRANCH  10  21
BRANCH   5  23
ATOM     23  O   UNL     1      23.531  19.668   4.805  1.00  0.00    -0.507 OA
ATOM     24  H   UNL     1      22.741  19.254   4.324  1.00  0.00     0.293 HD
ENDBRANCH   5  23
BRANCH   7  25
ATOM     25  O   UNL     1      26.125  20.287   8.797  1.00  0.00    -0.507 OA
ATOM     26  H   UNL     1      26.286  20.486   9.774  1.00  0.00     0.293 HD
ENDBRANCH   7  25
TORSDOF 6
ENDMDL
MODEL 9
REMARK VINA RESULT:    -4.642      1.716      6.793
REMARK INTER + INTRA:          -5.802
REMARK INTER:                  -5.802
REMARK INTRA:                  -0.000
REMARK UNBOUND:                -0.210
REMARK SMILES Oc1cc(O)c2cc(O)c(-c3ccc(O)c(O)c3)[o+]c2c1.[Cl-]
REMARK SMILES IDX 10 1 19 2 20 3 21 4 2 5 3 6 4 7 6 8 7 9 8 10 11 11 12 12
REMARK SMILES IDX 13 13 14 14 18 15 16 16 15 17 17 19 9 21 1 23 5 25
REMARK H PARENT 15 18 17 20 9 22 1 24 5 26
REMARK Flexibility Score: inf
ROOT
ATOM      1  C   UNL     1      21.968  16.353   4.274  1.00  0.00     0.402 A 
ATOM      2  O   UNL     1      21.340  17.458   4.665  1.00  0.00    -0.202 OA
ATOM      3  C   UNL     1      21.961  18.494   5.219  1.00  0.00     0.368 A 
ATOM      4  C   UNL     1      21.215  19.614   5.594  1.00  0.00     0.162 A 
ATOM      5  C   UNL     1      21.844  20.719   6.175  1.00  0.00     0.128 A 
ATOM      6  C   UNL     1      23.224  20.703   6.382  1.00  0.00     0.093 A 
ATOM      7  C   UNL     1      23.995  19.594   6.015  1.00  0.00     0.136 A 
ATOM      8  C   UNL     1      23.361  18.469   5.426  1.00  0.00     0.125 A 
ATOM      9  C   UNL     1      24.052  17.308   5.039  1.00  0.00     0.078 A 
ATOM     10  C   UNL     1      23.357  16.237   4.469  1.00  0.00     0.223 A 
ENDROOT
BRANCH   1  11
ATOM     11  C   UNL     1      21.165  15.270   3.661  1.00  0.00     0.087 A 
ATOM     12  C   UNL     1      21.610  14.670   2.473  1.00  0.00     0.022 A 
ATOM     13  C   UNL     1      20.880  13.633   1.887  1.00  0.00     0.051 A 
ATOM     14  C   UNL     1      19.705  13.170   2.485  1.00  0.00     0.157 A 
ATOM     15  C   UNL     1      19.994  14.788   4.273  1.00  0.00     0.068 A 
ATOM     16  C   UNL     1      19.260  13.746   3.687  1.00  0.00     0.158 A 
BRANCH  14  17
ATOM     17  O   UNL     1      18.995  12.135   1.876  1.00  0.00    -0.504 OA
ATOM     18  H   UNL     1      19.233  11.788   0.955  1.00  0.00     0.293 HD
ENDBRANCH  14  17
BRANCH  16  19
ATOM     19  O   UNL     1      18.097  13.280   4.297  1.00  0.00    -0.504 OA
ATOM     20  H   UNL     1      17.960  13.344   5.299  1.00  0.00     0.293 HD
ENDBRANCH  16  19
ENDBRANCH   1  11
BRANCH  10  21
ATOM     21  O   UNL     1      24.034  15.065   4.131  1.00  0.00    -0.500 OA
ATOM     22  H   UNL     1      24.713  15.039   3.379  1.00  0.00     0.294 HD
ENDBRANCH  10  21
BRANCH   5  23
ATOM     23  O   UNL     1      21.105  21.839   6.553  1.00  0.00    -0.507 OA
ATOM     24  H   UNL     1      21.552  22.728   6.742  1.00  0.00     0.293 HD
ENDBRANCH   5  23
BRANCH   7  25
ATOM     25  O   UNL     1      25.372  19.658   6.252  1.00  0.00    -0.507 OA
ATOM     26  H   UNL     1      26.080  19.492   5.552  1.00  0.00     0.293 HD
ENDBRANCH   7  25
TORSDOF 6
ENDMDL
