MODEL 1
REMARK VINA RESULT:    -6.310      0.000      0.000
REMARK INTER + INTRA:          -7.568
REMARK INTER:                  -7.416
REMARK INTRA:                  -0.151
REMARK UNBOUND:                -0.151
REMARK SMILES O=c1c(O)c(-c2ccc(O)cc2)oc2cc(O)cc(O)c12
REMARK SMILES IDX 5 1 3 2 2 3 1 4 21 5 19 6 18 7 16 8 15 9 14 10 13 11 6 12
REMARK SMILES IDX 7 13 8 14 9 15 12 16 11 17 10 18 4 20 20 22 17 24
REMARK H PARENT 10 19 4 21 20 23 17 25
REMARK Flexibility Score: inf
ROOT
ATOM      1  C   UNL     1      18.689  -1.487 -17.274  1.00  0.00     0.180 A 
ATOM      2  C   UNL     1      18.195  -0.626 -16.279  1.00  0.00     0.208 A 
ATOM      3  C   UNL     1      17.477  -1.171 -15.203  1.00  0.00     0.238 A 
ATOM      4  O   UNL     1      17.084  -0.402 -14.287  1.00  0.00    -0.285 OA
ATOM      5  C   UNL     1      17.250  -2.567 -15.142  1.00  0.00     0.111 A 
ATOM      6  C   UNL     1      16.503  -3.223 -14.118  1.00  0.00     0.134 A 
ATOM      7  C   UNL     1      16.453  -4.623 -14.088  1.00  0.00     0.093 A 
ATOM      8  C   UNL     1      17.069  -5.387 -15.081  1.00  0.00     0.123 A 
ATOM      9  C   UNL     1      17.751  -4.754 -16.118  1.00  0.00     0.094 A 
ATOM     10  C   UNL     1      17.849  -3.361 -16.155  1.00  0.00     0.146 A 
ATOM     11  O   UNL     1      18.517  -2.798 -17.156  1.00  0.00    -0.452 OA
ENDROOT
BRANCH   1  12
ATOM     12  C   UNL     1      19.433  -0.985 -18.453  1.00  0.00     0.021 A 
ATOM     13  C   UNL     1      20.702  -0.392 -18.321  1.00  0.00     0.016 A 
ATOM     14  C   UNL     1      21.374   0.097 -19.446  1.00  0.00     0.047 A 
ATOM     15  C   UNL     1      20.785   0.011 -20.710  1.00  0.00     0.115 A 
ATOM     16  C   UNL     1      18.838  -1.049 -19.724  1.00  0.00     0.016 A 
ATOM     17  C   UNL     1      19.514  -0.561 -20.847  1.00  0.00     0.047 A 
BRANCH  15  18
ATOM     18  O   UNL     1      21.467   0.500 -21.822  1.00  0.00    -0.508 OA
ATOM     19  H   UNL     1      22.435   0.794 -21.764  1.00  0.00     0.293 HD
ENDBRANCH  15  18
ENDBRANCH   1  12
BRANCH   2  20
ATOM     20  O   UNL     1      18.449   0.746 -16.347  1.00  0.00    -0.502 OA
ATOM     21  H   UNL     1      18.374   1.354 -15.541  1.00  0.00     0.293 HD
ENDBRANCH   2  20
BRANCH   6  22
ATOM     22  O   UNL     1      15.775  -2.551 -13.132  1.00  0.00    -0.507 OA
ATOM     23  H   UNL     1      15.700  -2.848 -12.170  1.00  0.00     0.293 HD
ENDBRANCH   6  22
BRANCH   8  24
ATOM     24  O   UNL     1      17.001  -6.778 -15.053  1.00  0.00    -0.508 OA
ATOM     25  H   UNL     1      16.744  -7.279 -14.211  1.00  0.00     0.293 HD
ENDBRANCH   8  24
TORSDOF 5
ENDMDL
MODEL 2
REMARK VINA RESULT:    -6.117      9.512     13.256
REMARK INTER + INTRA:          -7.340
REMARK INTER:                  -7.367
REMARK INTRA:                   0.027
REMARK UNBOUND:                -0.151
REMARK SMILES O=c1c(O)c(-c2ccc(O)cc2)oc2cc(O)cc(O)c12
REMARK SMILES IDX 5 1 3 2 2 3 1 4 21 5 19 6 18 7 16 8 15 9 14 10 13 11 6 12
REMARK SMILES IDX 7 13 8 14 9 15 12 16 11 17 10 18 4 20 20 22 17 24
REMARK H PARENT 10 19 4 21 20 23 17 25
REMARK Flexibility Score: inf
ROOT
ATOM      1  C   UNL     1      10.608  -8.280  -9.629  1.00  0.00     0.180 A 
ATOM      2  C   UNL     1       9.481  -9.120  -9.608  1.00  0.00     0.208 A 
ATOM      3  C   UNL     1       8.493  -8.908  -8.633  1.00  0.00     0.238 A 
ATOM      4  O   UNL     1       7.461  -9.628  -8.652  1.00  0.00    -0.285 OA
ATOM      5  C   UNL     1       8.651  -7.870  -7.683  1.00  0.00     0.111 A 
ATOM      6  C   UNL     1       7.732  -7.590  -6.628  1.00  0.00     0.134 A 
ATOM      7  C   UNL     1       7.923  -6.457  -5.827  1.00  0.00     0.093 A 
ATOM      8  C   UNL     1       9.035  -5.630  -6.003  1.00  0.00     0.123 A 
ATOM      9  C   UNL     1       9.969  -5.929  -6.992  1.00  0.00     0.094 A 
ATOM     10  C   UNL     1       9.787  -7.031  -7.830  1.00  0.00     0.146 A 
ATOM     11  O   UNL     1      10.696  -7.274  -8.767  1.00  0.00    -0.452 OA
ENDROOT
BRANCH   1  12
ATOM     12  C   UNL     1      11.704  -8.457 -10.610  1.00  0.00     0.021 A 
ATOM     13  C   UNL     1      12.288  -9.717 -10.836  1.00  0.00     0.016 A 
ATOM     14  C   UNL     1      13.338  -9.854 -11.749  1.00  0.00     0.047 A 
ATOM     15  C   UNL     1      13.826  -8.739 -12.436  1.00  0.00     0.115 A 
ATOM     16  C   UNL     1      12.213  -7.337 -11.287  1.00  0.00     0.016 A 
ATOM     17  C   UNL     1      13.263  -7.478 -12.201  1.00  0.00     0.047 A 
BRANCH  15  18
ATOM     18  O   UNL     1      14.871  -8.891 -13.344  1.00  0.00    -0.508 OA
ATOM     19  H   UNL     1      15.168  -8.131 -13.943  1.00  0.00     0.293 HD
ENDBRANCH  15  18
ENDBRANCH   1  12
BRANCH   2  20
ATOM     20  O   UNL     1       9.334 -10.125 -10.567  1.00  0.00    -0.502 OA
ATOM     21  H   UNL     1       9.861 -10.132 -11.432  1.00  0.00     0.293 HD
ENDBRANCH   2  20
BRANCH   6  22
ATOM     22  O   UNL     1       6.640  -8.402  -6.308  1.00  0.00    -0.507 OA
ATOM     23  H   UNL     1       5.788  -8.459  -6.847  1.00  0.00     0.293 HD
ENDBRANCH   6  22
BRANCH   8  24
ATOM     24  O   UNL     1       9.227  -4.515  -5.192  1.00  0.00    -0.508 OA
ATOM     25  H   UNL     1       8.446  -4.021  -4.775  1.00  0.00     0.293 HD
ENDBRANCH   8  24
TORSDOF 5
ENDMDL
MODEL 3
REMARK VINA RESULT:    -6.047      1.191      2.893
REMARK INTER + INTRA:          -7.258
REMARK INTER:                  -7.048
REMARK INTRA:                  -0.210
REMARK UNBOUND:                -0.151
REMARK SMILES O=c1c(O)c(-c2ccc(O)cc2)oc2cc(O)cc(O)c12
REMARK SMILES IDX 5 1 3 2 2 3 1 4 21 5 19 6 18 7 16 8 15 9 14 10 13 11 6 12
REMARK SMILES IDX 7 13 8 14 9 15 12 16 11 17 10 18 4 20 20 22 17 24
REMARK H PARENT 10 19 4 21 20 23 17 25
REMARK Flexibility Score: inf
ROOT
ATOM      1  C   UNL     1      18.669  -2.209 -17.456  1.00  0.00     0.180 A 
ATOM      2  C   UNL     1      18.523  -3.599 -17.613  1.00  0.00     0.208 A 
ATOM      3  C   UNL     1      17.866  -4.331 -16.612  1.00  0.00     0.238 A 
ATOM      4  O   UNL     1      17.691  -5.566 -16.783  1.00  0.00    -0.285 OA
ATOM      5  C   UNL     1      17.377  -3.669 -15.460  1.00  0.00     0.111 A 
ATOM      6  C   UNL     1      16.730  -4.318 -14.366  1.00  0.00     0.134 A 
ATOM      7  C   UNL     1      16.170  -3.547 -13.338  1.00  0.00     0.093 A 
ATOM      8  C   UNL     1      16.290  -2.155 -13.335  1.00  0.00     0.123 A 
ATOM      9  C   UNL     1      16.971  -1.518 -14.369  1.00  0.00     0.094 A 
ATOM     10  C   UNL     1      17.509  -2.256 -15.426  1.00  0.00     0.146 A 
ATOM     11  O   UNL     1      18.141  -1.607 -16.397  1.00  0.00    -0.452 OA
ENDROOT
BRANCH   1  12
ATOM     12  C   UNL     1      19.372  -1.372 -18.456  1.00  0.00     0.021 A 
ATOM     13  C   UNL     1      20.640  -0.824 -18.189  1.00  0.00     0.016 A 
ATOM     14  C   UNL     1      21.274  -0.016 -19.139  1.00  0.00     0.047 A 
ATOM     15  C   UNL     1      20.648   0.263 -20.357  1.00  0.00     0.115 A 
ATOM     16  C   UNL     1      18.740  -1.070 -19.673  1.00  0.00     0.016 A 
ATOM     17  C   UNL     1      19.377  -0.264 -20.621  1.00  0.00     0.047 A 
BRANCH  15  18
ATOM     18  O   UNL     1      21.292   1.067 -21.295  1.00  0.00    -0.508 OA
ATOM     19  H   UNL     1      20.775   1.572 -22.004  1.00  0.00     0.293 HD
ENDBRANCH  15  18
ENDBRANCH   1  12
BRANCH   2  20
ATOM     20  O   UNL     1      18.994  -4.229 -18.768  1.00  0.00    -0.502 OA
ATOM     21  H   UNL     1      18.872  -3.834 -19.691  1.00  0.00     0.293 HD
ENDBRANCH   2  20
BRANCH   6  22
ATOM     22  O   UNL     1      16.636  -5.706 -14.226  1.00  0.00    -0.507 OA
ATOM     23  H   UNL     1      17.376  -6.357 -14.443  1.00  0.00     0.293 HD
ENDBRANCH   6  22
BRANCH   8  24
ATOM     24  O   UNL     1      15.744  -1.398 -12.302  1.00  0.00    -0.508 OA
ATOM     25  H   UNL     1      14.750  -1.406 -12.106  1.00  0.00     0.293 HD
ENDBRANCH   8  24
TORSDOF 5
ENDMDL
MODEL 4
REMARK VINA RESULT:    -6.031      8.403     12.093
REMARK INTER + INTRA:          -7.239
REMARK INTER:                  -6.951
REMARK INTRA:                  -0.288
REMARK UNBOUND:                -0.151
REMARK SMILES O=c1c(O)c(-c2ccc(O)cc2)oc2cc(O)cc(O)c12
REMARK SMILES IDX 5 1 3 2 2 3 1 4 21 5 19 6 18 7 16 8 15 9 14 10 13 11 6 12
REMARK SMILES IDX 7 13 8 14 9 15 12 16 11 17 10 18 4 20 20 22 17 24
REMARK H PARENT 10 19 4 21 20 23 17 25
REMARK Flexibility Score: inf
ROOT
ATOM      1  C   UNL     1      11.395  -6.375  -9.550  1.00  0.00     0.180 A 
ATOM      2  C   UNL     1      11.159  -7.741  -9.783  1.00  0.00     0.208 A 
ATOM      3  C   UNL     1      10.245  -8.423  -8.964  1.00  0.00     0.238 A 
ATOM      4  O   UNL     1       9.997  -9.632  -9.211  1.00  0.00    -0.285 OA
ATOM      5  C   UNL     1       9.591  -7.735  -7.913  1.00  0.00     0.111 A 
ATOM      6  C   UNL     1       8.676  -8.336  -6.998  1.00  0.00     0.134 A 
ATOM      7  C   UNL     1       7.989  -7.532  -6.079  1.00  0.00     0.093 A 
ATOM      8  C   UNL     1       8.233  -6.159  -6.001  1.00  0.00     0.123 A 
ATOM      9  C   UNL     1       9.167  -5.573  -6.851  1.00  0.00     0.094 A 
ATOM     10  C   UNL     1       9.842  -6.342  -7.802  1.00  0.00     0.146 A 
ATOM     11  O   UNL     1      10.718  -5.742  -8.599  1.00  0.00    -0.452 OA
ENDROOT
BRANCH   1  12
ATOM     12  C   UNL     1      12.363  -5.594 -10.354  1.00  0.00     0.021 A 
ATOM     13  C   UNL     1      13.740  -5.612 -10.064  1.00  0.00     0.016 A 
ATOM     14  C   UNL     1      14.631  -4.847 -10.823  1.00  0.00     0.047 A 
ATOM     15  C   UNL     1      14.161  -4.048 -11.868  1.00  0.00     0.115 A 
ATOM     16  C   UNL     1      11.895  -4.773 -11.393  1.00  0.00     0.016 A 
ATOM     17  C   UNL     1      12.790  -4.010 -12.151  1.00  0.00     0.047 A 
BRANCH  15  18
ATOM     18  O   UNL     1      15.061  -3.293 -12.617  1.00  0.00    -0.508 OA
ATOM     19  H   UNL     1      14.748  -2.670 -13.352  1.00  0.00     0.293 HD
ENDBRANCH  15  18
ENDBRANCH   1  12
BRANCH   2  20
ATOM     20  O   UNL     1      11.799  -8.396 -10.839  1.00  0.00    -0.502 OA
ATOM     21  H   UNL     1      11.362  -9.147 -11.358  1.00  0.00     0.293 HD
ENDBRANCH   2  20
BRANCH   6  22
ATOM     22  O   UNL     1       8.429  -9.711  -6.929  1.00  0.00    -0.507 OA
ATOM     23  H   UNL     1       9.116 -10.407  -6.679  1.00  0.00     0.293 HD
ENDBRANCH   6  22
BRANCH   8  24
ATOM     24  O   UNL     1       7.557  -5.369  -5.074  1.00  0.00    -0.508 OA
ATOM     25  H   UNL     1       7.239  -4.435  -5.305  1.00  0.00     0.293 HD
ENDBRANCH   8  24
TORSDOF 5
ENDMDL
MODEL 5
REMARK VINA RESULT:    -6.029     11.591     14.594
REMARK INTER + INTRA:          -7.238
REMARK INTER:                  -7.282
REMARK INTRA:                   0.044
REMARK UNBOUND:                -0.151
REMARK SMILES O=c1c(O)c(-c2ccc(O)cc2)oc2cc(O)cc(O)c12
REMARK SMILES IDX 5 1 3 2 2 3 1 4 21 5 19 6 18 7 16 8 15 9 14 10 13 11 6 12
REMARK SMILES IDX 7 13 8 14 9 15 12 16 11 17 10 18 4 20 20 22 17 24
REMARK H PARENT 10 19 4 21 20 23 17 25
REMARK Flexibility Score: inf
ROOT
ATOM      1  C   UNL     1       9.375  -7.250  -8.444  1.00  0.00     0.180 A 
ATOM      2  C   UNL     1      10.709  -7.216  -8.887  1.00  0.00     0.208 A 
ATOM      3  C   UNL     1      10.996  -7.589 -10.210  1.00  0.00     0.238 A 
ATOM      4  O   UNL     1      12.184  -7.505 -10.617  1.00  0.00    -0.285 OA
ATOM      5  C   UNL     1       9.950  -8.006 -11.068  1.00  0.00     0.111 A 
ATOM      6  C   UNL     1      10.131  -8.442 -12.414  1.00  0.00     0.134 A 
ATOM      7  C   UNL     1       9.010  -8.707 -13.212  1.00  0.00     0.093 A 
ATOM      8  C   UNL     1       7.718  -8.612 -12.692  1.00  0.00     0.123 A 
ATOM      9  C   UNL     1       7.533  -8.243 -11.361  1.00  0.00     0.094 A 
ATOM     10  C   UNL     1       8.629  -7.939 -10.551  1.00  0.00     0.146 A 
ATOM     11  O   UNL     1       8.408  -7.582  -9.291  1.00  0.00    -0.452 OA
ENDROOT
BRANCH   1  12
ATOM     12  C   UNL     1       8.996  -6.896  -7.057  1.00  0.00     0.021 A 
ATOM     13  C   UNL     1       8.184  -7.744  -6.281  1.00  0.00     0.016 A 
ATOM     14  C   UNL     1       7.819  -7.377  -4.981  1.00  0.00     0.047 A 
ATOM     15  C   UNL     1       8.247  -6.159  -4.447  1.00  0.00     0.115 A 
ATOM     16  C   UNL     1       9.405  -5.664  -6.520  1.00  0.00     0.016 A 
ATOM     17  C   UNL     1       9.040  -5.301  -5.220  1.00  0.00     0.047 A 
BRANCH  15  18
ATOM     18  O   UNL     1       7.878  -5.808  -3.150  1.00  0.00    -0.508 OA
ATOM     19  H   UNL     1       8.440  -5.177  -2.591  1.00  0.00     0.293 HD
ENDBRANCH  15  18
ENDBRANCH   1  12
BRANCH   2  20
ATOM     20  O   UNL     1      11.724  -6.781  -8.031  1.00  0.00    -0.502 OA
ATOM     21  H   UNL     1      11.852  -5.806  -7.791  1.00  0.00     0.293 HD
ENDBRANCH   2  20
BRANCH   6  22
ATOM     22  O   UNL     1      11.381  -8.658 -13.003  1.00  0.00    -0.507 OA
ATOM     23  H   UNL     1      12.253  -8.711 -12.499  1.00  0.00     0.293 HD
ENDBRANCH   6  22
BRANCH   8  24
ATOM     24  O   UNL     1       6.609  -8.892 -13.487  1.00  0.00    -0.508 OA
ATOM     25  H   UNL     1       5.731  -9.197 -13.085  1.00  0.00     0.293 HD
ENDBRANCH   8  24
TORSDOF 5
ENDMDL
MODEL 6
REMARK VINA RESULT:    -5.940      7.591     11.002
REMARK INTER + INTRA:          -7.133
REMARK INTER:                  -6.899
REMARK INTRA:                  -0.233
REMARK UNBOUND:                -0.151
REMARK SMILES O=c1c(O)c(-c2ccc(O)cc2)oc2cc(O)cc(O)c12
REMARK SMILES IDX 5 1 3 2 2 3 1 4 21 5 19 6 18 7 16 8 15 9 14 10 13 11 6 12
REMARK SMILES IDX 7 13 8 14 9 15 12 16 11 17 10 18 4 20 20 22 17 24
REMARK H PARENT 10 19 4 21 20 23 17 25
REMARK Flexibility Score: inf
ROOT
ATOM      1  C   UNL     1      11.334  -6.166 -10.948  1.00  0.00     0.180 A 
ATOM      2  C   UNL     1      11.167  -6.473  -9.586  1.00  0.00     0.208 A 
ATOM      3  C   UNL     1      10.035  -7.200  -9.186  1.00  0.00     0.238 A 
ATOM      4  O   UNL     1       9.918  -7.518  -7.974  1.00  0.00    -0.285 OA
ATOM      5  C   UNL     1       9.076  -7.597 -10.149  1.00  0.00     0.111 A 
ATOM      6  C   UNL     1       7.873  -8.303  -9.851  1.00  0.00     0.134 A 
ATOM      7  C   UNL     1       7.061  -8.759 -10.898  1.00  0.00     0.093 A 
ATOM      8  C   UNL     1       7.378  -8.479 -12.229  1.00  0.00     0.123 A 
ATOM      9  C   UNL     1       8.521  -7.740 -12.527  1.00  0.00     0.094 A 
ATOM     10  C   UNL     1       9.368  -7.302 -11.507  1.00  0.00     0.146 A 
ATOM     11  O   UNL     1      10.452  -6.609 -11.836  1.00  0.00    -0.452 OA
ENDROOT
BRANCH   1  12
ATOM     12  C   UNL     1      12.489  -5.381 -11.443  1.00  0.00     0.021 A 
ATOM     13  C   UNL     1      12.346  -4.038 -11.837  1.00  0.00     0.016 A 
ATOM     14  C   UNL     1      13.446  -3.324 -12.324  1.00  0.00     0.047 A 
ATOM     15  C   UNL     1      14.694  -3.944 -12.437  1.00  0.00     0.115 A 
ATOM     16  C   UNL     1      13.741  -6.003 -11.579  1.00  0.00     0.016 A 
ATOM     17  C   UNL     1      14.839  -5.286 -12.066  1.00  0.00     0.047 A 
BRANCH  15  18
ATOM     18  O   UNL     1      15.780  -3.220 -12.923  1.00  0.00    -0.508 OA
ATOM     19  H   UNL     1      16.628  -3.108 -12.379  1.00  0.00     0.293 HD
ENDBRANCH  15  18
ENDBRANCH   1  12
BRANCH   2  20
ATOM     20  O   UNL     1      12.136  -6.090  -8.655  1.00  0.00    -0.502 OA
ATOM     21  H   UNL     1      11.900  -5.657  -7.770  1.00  0.00     0.293 HD
ENDBRANCH   2  20
BRANCH   6  22
ATOM     22  O   UNL     1       7.416  -8.555  -8.553  1.00  0.00    -0.507 OA
ATOM     23  H   UNL     1       7.257  -7.847  -7.852  1.00  0.00     0.293 HD
ENDBRANCH   6  22
BRANCH   8  24
ATOM     24  O   UNL     1       6.558  -8.923 -13.263  1.00  0.00    -0.508 OA
ATOM     25  H   UNL     1       6.156  -8.279 -13.935  1.00  0.00     0.293 HD
ENDBRANCH   8  24
TORSDOF 5
ENDMDL
MODEL 7
REMARK VINA RESULT:    -5.752      6.571      8.920
REMARK INTER + INTRA:          -6.912
REMARK INTER:                  -6.655
REMARK INTRA:                  -0.257
REMARK UNBOUND:                -0.151
REMARK SMILES O=c1c(O)c(-c2ccc(O)cc2)oc2cc(O)cc(O)c12
REMARK SMILES IDX 5 1 3 2 2 3 1 4 21 5 19 6 18 7 16 8 15 9 14 10 13 11 6 12
REMARK SMILES IDX 7 13 8 14 9 15 12 16 11 17 10 18 4 20 20 22 17 24
REMARK H PARENT 10 19 4 21 20 23 17 25
REMARK Flexibility Score: inf
ROOT
ATOM      1  C   UNL     1      17.974  -2.305  -9.041  1.00  0.00     0.180 A 
ATOM      2  C   UNL     1      17.245  -1.104  -9.064  1.00  0.00     0.208 A 
ATOM      3  C   UNL     1      16.220  -0.948 -10.011  1.00  0.00     0.238 A 
ATOM      4  O   UNL     1      15.535   0.108  -9.991  1.00  0.00    -0.285 OA
ATOM      5  C   UNL     1      15.949  -1.987 -10.933  1.00  0.00     0.111 A 
ATOM      6  C   UNL     1      14.960  -1.920 -11.960  1.00  0.00     0.134 A 
ATOM      7  C   UNL     1      14.688  -3.057 -12.733  1.00  0.00     0.093 A 
ATOM      8  C   UNL     1      15.414  -4.238 -12.556  1.00  0.00     0.123 A 
ATOM      9  C   UNL     1      16.421  -4.294 -11.595  1.00  0.00     0.094 A 
ATOM     10  C   UNL     1      16.691  -3.188 -10.786  1.00  0.00     0.146 A 
ATOM     11  O   UNL     1      17.652  -3.287  -9.875  1.00  0.00    -0.452 OA
ENDROOT
BRANCH   1  12
ATOM     12  C   UNL     1      19.085  -2.535  -8.089  1.00  0.00     0.021 A 
ATOM     13  C   UNL     1      18.841  -2.889  -6.749  1.00  0.00     0.016 A 
ATOM     14  C   UNL     1      19.906  -3.077  -5.863  1.00  0.00     0.047 A 
ATOM     15  C   UNL     1      21.223  -2.902  -6.297  1.00  0.00     0.115 A 
ATOM     16  C   UNL     1      20.410  -2.340  -8.513  1.00  0.00     0.016 A 
ATOM     17  C   UNL     1      21.473  -2.531  -7.624  1.00  0.00     0.047 A 
BRANCH  15  18
ATOM     18  O   UNL     1      22.274  -3.095  -5.404  1.00  0.00    -0.508 OA
ATOM     19  H   UNL     1      22.207  -3.759  -4.642  1.00  0.00     0.293 HD
ENDBRANCH  15  18
ENDBRANCH   1  12
BRANCH   2  20
ATOM     20  O   UNL     1      17.514  -0.099  -8.130  1.00  0.00    -0.502 OA
ATOM     21  H   UNL     1      16.825   0.222  -7.463  1.00  0.00     0.293 HD
ENDBRANCH   2  20
BRANCH   6  22
ATOM     22  O   UNL     1      14.243  -0.763 -12.281  1.00  0.00    -0.507 OA
ATOM     23  H   UNL     1      13.908  -0.531 -13.204  1.00  0.00     0.293 HD
ENDBRANCH   6  22
BRANCH   8  24
ATOM     24  O   UNL     1      15.148  -5.359 -13.338  1.00  0.00    -0.508 OA
ATOM     25  H   UNL     1      15.791  -6.141 -13.381  1.00  0.00     0.293 HD
ENDBRANCH   8  24
TORSDOF 5
ENDMDL
MODEL 8
REMARK VINA RESULT:    -5.718      7.318     12.369
REMARK INTER + INTRA:          -6.871
REMARK INTER:                  -6.621
REMARK INTRA:                  -0.250
REMARK UNBOUND:                -0.151
REMARK SMILES O=c1c(O)c(-c2ccc(O)cc2)oc2cc(O)cc(O)c12
REMARK SMILES IDX 5 1 3 2 2 3 1 4 21 5 19 6 18 7 16 8 15 9 14 10 13 11 6 12
REMARK SMILES IDX 7 13 8 14 9 15 12 16 11 17 10 18 4 20 20 22 17 24
REMARK H PARENT 10 19 4 21 20 23 17 25
REMARK Flexibility Score: inf
ROOT
ATOM      1  C   UNL     1      11.248  -6.444  -9.801  1.00  0.00     0.180 A 
ATOM      2  C   UNL     1      11.185  -7.577 -10.630  1.00  0.00     0.208 A 
ATOM      3  C   UNL     1      12.201  -7.784 -11.576  1.00  0.00     0.238 A 
ATOM      4  O   UNL     1      12.169  -8.828 -12.279  1.00  0.00    -0.285 OA
ATOM      5  C   UNL     1      13.258  -6.849 -11.692  1.00  0.00     0.111 A 
ATOM      6  C   UNL     1      14.319  -6.938 -12.642  1.00  0.00     0.134 A 
ATOM      7  C   UNL     1      15.381  -6.027 -12.581  1.00  0.00     0.093 A 
ATOM      8  C   UNL     1      15.387  -4.991 -11.644  1.00  0.00     0.123 A 
ATOM      9  C   UNL     1      14.327  -4.860 -10.750  1.00  0.00     0.094 A 
ATOM     10  C   UNL     1      13.271  -5.775 -10.764  1.00  0.00     0.146 A 
ATOM     11  O   UNL     1      12.285  -5.619  -9.888  1.00  0.00    -0.452 OA
ENDROOT
BRANCH   1  12
ATOM     12  C   UNL     1      10.201  -6.143  -8.797  1.00  0.00     0.021 A 
ATOM     13  C   UNL     1       8.949  -5.625  -9.177  1.00  0.00     0.016 A 
ATOM     14  C   UNL     1       7.985  -5.326  -8.208  1.00  0.00     0.047 A 
ATOM     15  C   UNL     1       8.262  -5.527  -6.853  1.00  0.00     0.115 A 
ATOM     16  C   UNL     1      10.479  -6.323  -7.432  1.00  0.00     0.016 A 
ATOM     17  C   UNL     1       9.513  -6.025  -6.466  1.00  0.00     0.047 A 
BRANCH  15  18
ATOM     18  O   UNL     1       7.291  -5.227  -5.900  1.00  0.00    -0.508 OA
ATOM     19  H   UNL     1       7.026  -4.271  -5.696  1.00  0.00     0.293 HD
ENDBRANCH  15  18
ENDBRANCH   1  12
BRANCH   2  20
ATOM     20  O   UNL     1      10.145  -8.499 -10.484  1.00  0.00    -0.502 OA
ATOM     21  H   UNL     1      10.201  -9.285  -9.849  1.00  0.00     0.293 HD
ENDBRANCH   2  20
BRANCH   6  22
ATOM     22  O   UNL     1      14.363  -7.878 -13.677  1.00  0.00    -0.507 OA
ATOM     23  H   UNL     1      14.118  -8.852 -13.580  1.00  0.00     0.293 HD
ENDBRANCH   6  22
BRANCH   8  24
ATOM     24  O   UNL     1      16.439  -4.079 -11.600  1.00  0.00    -0.508 OA
ATOM     25  H   UNL     1      17.051  -3.936 -12.395  1.00  0.00     0.293 HD
ENDBRANCH   8  24
TORSDOF 5
ENDMDL
MODEL 9
REMARK VINA RESULT:    -5.671      6.785      9.841
REMARK INTER + INTRA:          -6.817
REMARK INTER:                  -6.526
REMARK INTRA:                  -0.291
REMARK UNBOUND:                -0.151
REMARK SMILES O=c1c(O)c(-c2ccc(O)cc2)oc2cc(O)cc(O)c12
REMARK SMILES IDX 5 1 3 2 2 3 1 4 21 5 19 6 18 7 16 8 15 9 14 10 13 11 6 12
REMARK SMILES IDX 7 13 8 14 9 15 12 16 11 17 10 18 4 20 20 22 17 24
REMARK H PARENT 10 19 4 21 20 23 17 25
REMARK Flexibility Score: inf
ROOT
ATOM      1  C   UNL     1      13.054  -5.365 -10.795  1.00  0.00     0.180 A 
ATOM      2  C   UNL     1      12.011  -4.616 -11.366  1.00  0.00     0.208 A 
ATOM      3  C   UNL     1      10.685  -4.925 -11.023  1.00  0.00     0.238 A 
ATOM      4  O   UNL     1       9.758  -4.216 -11.496  1.00  0.00    -0.285 OA
ATOM      5  C   UNL     1      10.417  -5.988 -10.128  1.00  0.00     0.111 A 
ATOM      6  C   UNL     1       9.111  -6.413  -9.742  1.00  0.00     0.134 A 
ATOM      7  C   UNL     1       8.967  -7.392  -8.750  1.00  0.00     0.093 A 
ATOM      8  C   UNL     1      10.083  -8.004  -8.175  1.00  0.00     0.123 A 
ATOM      9  C   UNL     1      11.362  -7.637  -8.588  1.00  0.00     0.094 A 
ATOM     10  C   UNL     1      11.538  -6.640  -9.550  1.00  0.00     0.146 A 
ATOM     11  O   UNL     1      12.775  -6.314  -9.908  1.00  0.00    -0.452 OA
ENDROOT
BRANCH   1  12
ATOM     12  C   UNL     1      14.476  -5.117 -11.125  1.00  0.00     0.021 A 
ATOM     13  C   UNL     1      15.072  -5.682 -12.268  1.00  0.00     0.016 A 
ATOM     14  C   UNL     1      16.423  -5.453 -12.547  1.00  0.00     0.047 A 
ATOM     15  C   UNL     1      17.197  -4.670 -11.685  1.00  0.00     0.115 A 
ATOM     16  C   UNL     1      15.265  -4.349 -10.254  1.00  0.00     0.016 A 
ATOM     17  C   UNL     1      16.615  -4.120 -10.536  1.00  0.00     0.047 A 
BRANCH  15  18
ATOM     18  O   UNL     1      18.541  -4.448 -11.977  1.00  0.00    -0.508 OA
ATOM     19  H   UNL     1      19.228  -4.318 -11.244  1.00  0.00     0.293 HD
ENDBRANCH  15  18
ENDBRANCH   1  12
BRANCH   2  20
ATOM     20  O   UNL     1      12.298  -3.556 -12.230  1.00  0.00    -0.502 OA
ATOM     21  H   UNL     1      12.186  -3.628 -13.234  1.00  0.00     0.293 HD
ENDBRANCH   2  20
BRANCH   6  22
ATOM     22  O   UNL     1       7.931  -5.932 -10.319  1.00  0.00    -0.507 OA
ATOM     23  H   UNL     1       7.529  -5.026 -10.133  1.00  0.00     0.293 HD
ENDBRANCH   6  22
BRANCH   8  24
ATOM     24  O   UNL     1       9.932  -8.987  -7.201  1.00  0.00    -0.508 OA
ATOM     25  H   UNL     1       9.045  -9.142  -6.737  1.00  0.00     0.293 HD
ENDBRANCH   8  24
TORSDOF 5
ENDMDL
