MODEL 1
REMARK VINA RESULT:    -0.308      0.000      0.000
REMARK INTER + INTRA:          -2.194
REMARK INTER:                  -0.813
REMARK INTRA:                  -1.381
REMARK UNBOUND:                -1.381
REMARK SMILES CCCCCCCCCCCCCCCCCCCCCCCCCCCCCC(=O)[O-]
REMARK SMILES IDX 16 1 17 2 18 3 19 4 20 5 21 6 22 7 23 8 24 9 25 10 26 11
REMARK SMILES IDX 27 12 28 13 29 14 30 15 31 16 32 17 15 18 14 19 13 20 12 21
REMARK SMILES IDX 11 22 10 23 9 24 8 25 7 26 6 27 5 28 4 29 3 30 2 31 1 32
REMARK H PARENT
REMARK Flexibility Score: inf
ROOT
ATOM      1  C   UNL     1      45.582  33.360  19.589  1.00  0.00     0.000 C 
ENDROOT
BRANCH   1   2
ATOM      2  C   UNL     1      45.155  32.994  18.156  1.00  0.00     0.000 C 
BRANCH   2   3
ATOM      3  C   UNL     1      45.962  31.830  17.540  1.00  0.00     0.000 C 
BRANCH   3   4
ATOM      4  C   UNL     1      45.410  31.278  16.208  1.00  0.00     0.000 C 
BRANCH   4   5
ATOM      5  C   UNL     1      44.436  32.210  15.458  1.00  0.00     0.000 C 
BRANCH   5   6
ATOM      6  C   UNL     1      42.951  31.810  15.557  1.00  0.00     0.000 C 
BRANCH   6   7
ATOM      7  C   UNL     1      42.700  30.729  16.619  1.00  0.00     0.000 C 
BRANCH   7   8
ATOM      8  C   UNL     1      42.218  29.422  15.974  1.00  0.00     0.000 C 
BRANCH   8   9
ATOM      9  C   UNL     1      41.758  28.420  17.044  1.00  0.00     0.000 C 
BRANCH   9  10
ATOM     10  C   UNL     1      41.197  27.121  16.446  1.00  0.00     0.000 C 
BRANCH  10  11
ATOM     11  C   UNL     1      40.686  26.141  17.513  1.00  0.00     0.000 C 
BRANCH  11  12
ATOM     12  C   UNL     1      41.839  25.637  18.391  1.00  0.00     0.000 C 
BRANCH  12  13
ATOM     13  C   UNL     1      41.800  26.282  19.786  1.00  0.00     0.006 C 
BRANCH  13  14
ATOM     14  C   UNL     1      40.398  26.782  20.164  1.00  0.00     0.053 C 
BRANCH  14  15
ATOM     15  C   UNL     1      40.404  27.698  21.352  1.00  0.00     0.041 C 
ATOM     16  O   UNL     1      39.783  28.797  21.318  1.00  0.00    -0.550 OA
ATOM     17  O   UNL     1      41.108  27.345  22.494  1.00  0.00    -0.550 OA
ENDBRANCH  14  15
ENDBRANCH  13  14
ENDBRANCH  12  13
ENDBRANCH  11  12
ENDBRANCH  10  11
ENDBRANCH   9  10
ENDBRANCH   8   9
ENDBRANCH   7   8
ENDBRANCH   6   7
ENDBRANCH   5   6
ENDBRANCH   4   5
ENDBRANCH   3   4
ENDBRANCH   2   3
ENDBRANCH   1   2
BRANCH   1  18
ATOM     18  C   UNL     1      44.385  33.771  20.471  1.00  0.00     0.000 C 
BRANCH  18  19
ATOM     19  C   UNL     1      44.552  33.324  21.932  1.00  0.00     0.000 C 
BRANCH  19  20
ATOM     20  C   UNL     1      43.614  34.101  22.873  1.00  0.00     0.000 C 
BRANCH  20  21
ATOM     21  C   UNL     1      44.102  34.125  24.333  1.00  0.00     0.000 C 
BRANCH  21  22
ATOM     22  C   UNL     1      43.528  35.264  25.195  1.00  0.00     0.000 C 
BRANCH  22  23
ATOM     23  C   UNL     1      43.654  35.004  26.703  1.00  0.00     0.000 C 
BRANCH  23  24
ATOM     24  C   UNL     1      43.950  36.303  27.467  1.00  0.00    -0.000 C 
BRANCH  24  25
ATOM     25  C   UNL     1      44.540  36.054  28.865  1.00  0.00    -0.000 C 
BRANCH  25  26
ATOM     26  C   UNL     1      43.799  34.997  29.706  1.00  0.00    -0.000 C 
BRANCH  26  27
ATOM     27  C   UNL     1      44.500  33.623  29.748  1.00  0.00    -0.000 C 
BRANCH  27  28
ATOM     28  C   UNL     1      43.529  32.467  30.048  1.00  0.00    -0.000 C 
BRANCH  28  29
ATOM     29  C   UNL     1      43.909  31.160  29.329  1.00  0.00    -0.000 C 
BRANCH  29  30
ATOM     30  C   UNL     1      42.874  30.030  29.502  1.00  0.00    -0.000 C 
BRANCH  30  31
ATOM     31  C   UNL     1      43.537  28.662  29.733  1.00  0.00    -0.003 C 
ATOM     32  C   UNL     1      45.019  28.701  29.377  1.00  0.00     0.004 C 
ENDBRANCH  30  31
ENDBRANCH  29  30
ENDBRANCH  28  29
ENDBRANCH  27  28
ENDBRANCH  26  27
ENDBRANCH  25  26
ENDBRANCH  24  25
ENDBRANCH  23  24
ENDBRANCH  22  23
ENDBRANCH  21  22
ENDBRANCH  20  21
ENDBRANCH  19  20
ENDBRANCH  18  19
ENDBRANCH   1  18
TORSDOF 28
ENDMDL
MODEL 2
REMARK VINA RESULT:    -0.192      7.559     10.821
REMARK INTER + INTRA:          -1.886
REMARK INTER:                  -0.298
REMARK INTRA:                  -1.588
REMARK UNBOUND:                -1.381
REMARK SMILES CCCCCCCCCCCCCCCCCCCCCCCCCCCCCC(=O)[O-]
REMARK SMILES IDX 16 1 17 2 18 3 19 4 20 5 21 6 22 7 23 8 24 9 25 10 26 11
REMARK SMILES IDX 27 12 28 13 29 14 30 15 31 16 32 17 15 18 14 19 13 20 12 21
REMARK SMILES IDX 11 22 10 23 9 24 8 25 7 26 6 27 5 28 4 29 3 30 2 31 1 32
REMARK H PARENT
REMARK Flexibility Score: inf
ROOT
ATOM      1  C   UNL     1      43.471  23.247  16.917  1.00  0.00     0.000 C 
ENDROOT
BRANCH   1   2
ATOM      2  C   UNL     1      43.529  24.601  17.647  1.00  0.00     0.000 C 
BRANCH   2   3
ATOM      3  C   UNL     1      42.143  25.174  18.015  1.00  0.00     0.000 C 
BRANCH   3   4
ATOM      4  C   UNL     1      41.313  25.707  16.826  1.00  0.00     0.000 C 
BRANCH   4   5
ATOM      5  C   UNL     1      40.464  26.960  17.121  1.00  0.00     0.000 C 
BRANCH   5   6
ATOM      6  C   UNL     1      41.024  27.877  18.226  1.00  0.00     0.000 C 
BRANCH   6   7
ATOM      7  C   UNL     1      42.111  28.831  17.708  1.00  0.00     0.000 C 
BRANCH   7   8
ATOM      8  C   UNL     1      41.499  29.970  16.882  1.00  0.00     0.000 C 
BRANCH   8   9
ATOM      9  C   UNL     1      42.479  30.450  15.801  1.00  0.00     0.000 C 
BRANCH   9  10
ATOM     10  C   UNL     1      43.107  31.814  16.124  1.00  0.00     0.000 C 
BRANCH  10  11
ATOM     11  C   UNL     1      44.460  32.032  15.429  1.00  0.00     0.000 C 
BRANCH  11  12
ATOM     12  C   UNL     1      45.569  31.236  16.130  1.00  0.00     0.000 C 
BRANCH  12  13
ATOM     13  C   UNL     1      46.369  30.393  15.123  1.00  0.00     0.006 C 
BRANCH  13  14
ATOM     14  C   UNL     1      47.784  30.065  15.624  1.00  0.00     0.053 C 
BRANCH  14  15
ATOM     15  C   UNL     1      48.855  30.466  14.653  1.00  0.00     0.041 C 
ATOM     16  O   UNL     1      48.594  30.588  13.424  1.00  0.00    -0.550 OA
ATOM     17  O   UNL     1      50.146  30.696  15.104  1.00  0.00    -0.550 OA
ENDBRANCH  14  15
ENDBRANCH  13  14
ENDBRANCH  12  13
ENDBRANCH  11  12
ENDBRANCH  10  11
ENDBRANCH   9  10
ENDBRANCH   8   9
ENDBRANCH   7   8
ENDBRANCH   6   7
ENDBRANCH   5   6
ENDBRANCH   4   5
ENDBRANCH   3   4
ENDBRANCH   2   3
ENDBRANCH   1   2
BRANCH   1  18
ATOM     18  C   UNL     1      44.698  22.363  17.222  1.00  0.00     0.000 C 
BRANCH  18  19
ATOM     19  C   UNL     1      44.390  20.863  17.083  1.00  0.00     0.000 C 
BRANCH  19  20
ATOM     20  C   UNL     1      42.928  20.549  17.445  1.00  0.00     0.000 C 
BRANCH  20  21
ATOM     21  C   UNL     1      42.773  19.877  18.821  1.00  0.00     0.000 C 
BRANCH  21  22
ATOM     22  C   UNL     1      44.049  19.853  19.683  1.00  0.00     0.000 C 
BRANCH  22  23
ATOM     23  C   UNL     1      43.759  19.860  21.191  1.00  0.00     0.000 C 
BRANCH  23  24
ATOM     24  C   UNL     1      44.838  20.641  21.958  1.00  0.00    -0.000 C 
BRANCH  24  25
ATOM     25  C   UNL     1      44.417  20.986  23.396  1.00  0.00    -0.000 C 
BRANCH  25  26
ATOM     26  C   UNL     1      45.303  22.034  24.099  1.00  0.00    -0.000 C 
BRANCH  26  27
ATOM     27  C   UNL     1      45.569  21.733  25.589  1.00  0.00    -0.000 C 
BRANCH  27  28
ATOM     28  C   UNL     1      44.291  21.358  26.360  1.00  0.00    -0.000 C 
BRANCH  28  29
ATOM     29  C   UNL     1      44.464  21.441  27.887  1.00  0.00    -0.000 C 
BRANCH  29  30
ATOM     30  C   UNL     1      45.918  21.247  28.362  1.00  0.00    -0.000 C 
BRANCH  30  31
ATOM     31  C   UNL     1      46.056  20.091  29.366  1.00  0.00    -0.003 C 
ATOM     32  C   UNL     1      47.515  19.862  29.743  1.00  0.00     0.004 C 
ENDBRANCH  30  31
ENDBRANCH  29  30
ENDBRANCH  28  29
ENDBRANCH  27  28
ENDBRANCH  26  27
ENDBRANCH  25  26
ENDBRANCH  24  25
ENDBRANCH  23  24
ENDBRANCH  22  23
ENDBRANCH  21  22
ENDBRANCH  20  21
ENDBRANCH  19  20
ENDBRANCH  18  19
ENDBRANCH   1  18
TORSDOF 28
ENDMDL
MODEL 3
REMARK VINA RESULT:    -0.178      7.356     12.111
REMARK INTER + INTRA:          -1.849
REMARK INTER:                  -1.435
REMARK INTRA:                  -0.414
REMARK UNBOUND:                -1.381
REMARK SMILES CCCCCCCCCCCCCCCCCCCCCCCCCCCCCC(=O)[O-]
REMARK SMILES IDX 16 1 17 2 18 3 19 4 20 5 21 6 22 7 23 8 24 9 25 10 26 11
REMARK SMILES IDX 27 12 28 13 29 14 30 15 31 16 32 17 15 18 14 19 13 20 12 21
REMARK SMILES IDX 11 22 10 23 9 24 8 25 7 26 6 27 5 28 4 29 3 30 2 31 1 32
REMARK H PARENT
REMARK Flexibility Score: inf
ROOT
ATOM      1  C   UNL     1      39.587  25.864  20.088  1.00  0.00     0.000 C 
ENDROOT
BRANCH   1   2
ATOM      2  C   UNL     1      40.483  26.550  21.135  1.00  0.00     0.000 C 
BRANCH   2   3
ATOM      3  C   UNL     1      41.638  27.375  20.527  1.00  0.00     0.000 C 
BRANCH   3   4
ATOM      4  C   UNL     1      41.207  28.499  19.559  1.00  0.00     0.000 C 
BRANCH   4   5
ATOM      5  C   UNL     1      41.926  28.509  18.194  1.00  0.00     0.000 C 
BRANCH   5   6
ATOM      6  C   UNL     1      41.450  29.604  17.220  1.00  0.00     0.000 C 
BRANCH   6   7
ATOM      7  C   UNL     1      42.496  29.934  16.145  1.00  0.00     0.000 C 
BRANCH   7   8
ATOM      8  C   UNL     1      42.472  31.427  15.790  1.00  0.00     0.000 C 
BRANCH   8   9
ATOM      9  C   UNL     1      43.888  31.943  15.495  1.00  0.00     0.000 C 
BRANCH   9  10
ATOM     10  C   UNL     1      44.810  31.900  16.722  1.00  0.00     0.000 C 
BRANCH  10  11
ATOM     11  C   UNL     1      46.118  31.138  16.465  1.00  0.00     0.000 C 
BRANCH  11  12
ATOM     12  C   UNL     1      46.060  30.388  15.127  1.00  0.00     0.000 C 
BRANCH  12  13
ATOM     13  C   UNL     1      47.432  30.381  14.433  1.00  0.00     0.006 C 
BRANCH  13  14
ATOM     14  C   UNL     1      48.578  30.041  15.397  1.00  0.00     0.053 C 
BRANCH  14  15
ATOM     15  C   UNL     1      49.932  30.328  14.819  1.00  0.00     0.041 C 
ATOM     16  O   UNL     1      50.352  29.684  13.817  1.00  0.00    -0.550 OA
ATOM     17  O   UNL     1      50.739  31.299  15.395  1.00  0.00    -0.550 OA
ENDBRANCH  14  15
ENDBRANCH  13  14
ENDBRANCH  12  13
ENDBRANCH  11  12
ENDBRANCH  10  11
ENDBRANCH   9  10
ENDBRANCH   8   9
ENDBRANCH   7   8
ENDBRANCH   6   7
ENDBRANCH   5   6
ENDBRANCH   4   5
ENDBRANCH   3   4
ENDBRANCH   2   3
ENDBRANCH   1   2
BRANCH   1  18
ATOM     18  C   UNL     1      39.301  26.772  18.874  1.00  0.00     0.000 C 
BRANCH  18  19
ATOM     19  C   UNL     1      38.990  25.969  17.601  1.00  0.00     0.000 C 
BRANCH  19  20
ATOM     20  C   UNL     1      39.716  26.548  16.374  1.00  0.00     0.000 C 
BRANCH  20  21
ATOM     21  C   UNL     1      41.202  26.152  16.305  1.00  0.00     0.000 C 
BRANCH  21  22
ATOM     22  C   UNL     1      41.743  25.428  17.551  1.00  0.00     0.000 C 
BRANCH  22  23
ATOM     23  C   UNL     1      43.202  24.973  17.400  1.00  0.00     0.000 C 
BRANCH  23  24
ATOM     24  C   UNL     1      43.282  23.542  16.846  1.00  0.00    -0.000 C 
BRANCH  24  25
ATOM     25  C   UNL     1      44.678  22.917  17.002  1.00  0.00    -0.000 C 
BRANCH  25  26
ATOM     26  C   UNL     1      44.691  21.487  17.575  1.00  0.00    -0.000 C 
BRANCH  26  27
ATOM     27  C   UNL     1      43.623  20.555  16.964  1.00  0.00    -0.000 C 
BRANCH  27  28
ATOM     28  C   UNL     1      42.593  20.070  17.998  1.00  0.00    -0.000 C 
BRANCH  28  29
ATOM     29  C   UNL     1      41.383  19.366  17.358  1.00  0.00    -0.000 C 
BRANCH  29  30
ATOM     30  C   UNL     1      41.366  19.435  15.817  1.00  0.00    -0.000 C 
BRANCH  30  31
ATOM     31  C   UNL     1      41.480  18.046  15.169  1.00  0.00    -0.003 C 
ATOM     32  C   UNL     1      40.401  17.104  15.694  1.00  0.00     0.004 C 
ENDBRANCH  30  31
ENDBRANCH  29  30
ENDBRANCH  28  29
ENDBRANCH  27  28
ENDBRANCH  26  27
ENDBRANCH  25  26
ENDBRANCH  24  25
ENDBRANCH  23  24
ENDBRANCH  22  23
ENDBRANCH  21  22
ENDBRANCH  20  21
ENDBRANCH  19  20
ENDBRANCH  18  19
ENDBRANCH   1  18
TORSDOF 28
ENDMDL
MODEL 4
REMARK VINA RESULT:    -0.168      7.217     11.685
REMARK INTER + INTRA:          -1.824
REMARK INTER:                  -1.245
REMARK INTRA:                  -0.579
REMARK UNBOUND:                -1.381
REMARK SMILES CCCCCCCCCCCCCCCCCCCCCCCCCCCCCC(=O)[O-]
REMARK SMILES IDX 16 1 17 2 18 3 19 4 20 5 21 6 22 7 23 8 24 9 25 10 26 11
REMARK SMILES IDX 27 12 28 13 29 14 30 15 31 16 32 17 15 18 14 19 13 20 12 21
REMARK SMILES IDX 11 22 10 23 9 24 8 25 7 26 6 27 5 28 4 29 3 30 2 31 1 32
REMARK H PARENT
REMARK Flexibility Score: inf
ROOT
ATOM      1  C   UNL     1      40.305  28.549  19.547  1.00  0.00     0.000 C 
ENDROOT
BRANCH   1   2
ATOM      2  C   UNL     1      41.634  28.731  18.791  1.00  0.00     0.000 C 
BRANCH   2   3
ATOM      3  C   UNL     1      41.467  29.244  17.344  1.00  0.00     0.000 C 
BRANCH   3   4
ATOM      4  C   UNL     1      41.714  28.193  16.240  1.00  0.00     0.000 C 
BRANCH   4   5
ATOM      5  C   UNL     1      41.177  26.779  16.540  1.00  0.00     0.000 C 
BRANCH   5   6
ATOM      6  C   UNL     1      39.678  26.579  16.245  1.00  0.00     0.000 C 
BRANCH   6   7
ATOM      7  C   UNL     1      38.846  26.376  17.520  1.00  0.00     0.000 C 
BRANCH   7   8
ATOM      8  C   UNL     1      37.626  25.485  17.248  1.00  0.00     0.000 C 
BRANCH   8   9
ATOM      9  C   UNL     1      37.020  25.792  15.870  1.00  0.00     0.000 C 
BRANCH   9  10
ATOM     10  C   UNL     1      35.484  25.788  15.877  1.00  0.00     0.000 C 
BRANCH  10  11
ATOM     11  C   UNL     1      34.882  27.159  16.222  1.00  0.00     0.000 C 
BRANCH  11  12
ATOM     12  C   UNL     1      35.021  28.130  15.042  1.00  0.00     0.000 C 
BRANCH  12  13
ATOM     13  C   UNL     1      34.829  29.587  15.494  1.00  0.00     0.006 C 
BRANCH  13  14
ATOM     14  C   UNL     1      35.165  30.596  14.386  1.00  0.00     0.053 C 
BRANCH  14  15
ATOM     15  C   UNL     1      34.041  30.791  13.412  1.00  0.00     0.041 C 
ATOM     16  O   UNL     1      33.164  31.676  13.613  1.00  0.00    -0.550 OA
ATOM     17  O   UNL     1      33.954  29.985  12.286  1.00  0.00    -0.550 OA
ENDBRANCH  14  15
ENDBRANCH  13  14
ENDBRANCH  12  13
ENDBRANCH  11  12
ENDBRANCH  10  11
ENDBRANCH   9  10
ENDBRANCH   8   9
ENDBRANCH   7   8
ENDBRANCH   6   7
ENDBRANCH   5   6
ENDBRANCH   4   5
ENDBRANCH   3   4
ENDBRANCH   2   3
ENDBRANCH   1   2
BRANCH   1  18
ATOM     18  C   UNL     1      40.491  28.580  21.077  1.00  0.00     0.000 C 
BRANCH  18  19
ATOM     19  C   UNL     1      40.561  27.171  21.688  1.00  0.00     0.000 C 
BRANCH  19  20
ATOM     20  C   UNL     1      40.608  26.083  20.601  1.00  0.00     0.000 C 
BRANCH  20  21
ATOM     21  C   UNL     1      42.020  25.852  20.033  1.00  0.00     0.000 C 
BRANCH  21  22
ATOM     22  C   UNL     1      42.068  25.427  18.555  1.00  0.00     0.000 C 
BRANCH  22  23
ATOM     23  C   UNL     1      43.429  24.854  18.134  1.00  0.00     0.000 C 
BRANCH  23  24
ATOM     24  C   UNL     1      43.281  23.886  16.949  1.00  0.00    -0.000 C 
BRANCH  24  25
ATOM     25  C   UNL     1      44.520  22.999  16.743  1.00  0.00    -0.000 C 
BRANCH  25  26
ATOM     26  C   UNL     1      44.554  21.719  17.600  1.00  0.00    -0.000 C 
BRANCH  26  27
ATOM     27  C   UNL     1      43.723  20.553  17.023  1.00  0.00    -0.000 C 
BRANCH  27  28
ATOM     28  C   UNL     1      42.719  19.977  18.037  1.00  0.00    -0.000 C 
BRANCH  28  29
ATOM     29  C   UNL     1      41.435  19.446  17.376  1.00  0.00    -0.000 C 
BRANCH  29  30
ATOM     30  C   UNL     1      41.474  19.462  15.834  1.00  0.00    -0.000 C 
BRANCH  30  31
ATOM     31  C   UNL     1      41.483  18.047  15.236  1.00  0.00    -0.003 C 
ATOM     32  C   UNL     1      40.329  17.212  15.780  1.00  0.00     0.004 C 
ENDBRANCH  30  31
ENDBRANCH  29  30
ENDBRANCH  28  29
ENDBRANCH  27  28
ENDBRANCH  26  27
ENDBRANCH  25  26
ENDBRANCH  24  25
ENDBRANCH  23  24
ENDBRANCH  22  23
ENDBRANCH  21  22
ENDBRANCH  20  21
ENDBRANCH  19  20
ENDBRANCH  18  19
ENDBRANCH   1  18
TORSDOF 28
ENDMDL
MODEL 5
REMARK VINA RESULT:     0.114      3.119     11.120
REMARK INTER + INTRA:          -1.081
REMARK INTER:                   0.365
REMARK INTRA:                  -1.446
REMARK UNBOUND:                -1.381
REMARK SMILES CCCCCCCCCCCCCCCCCCCCCCCCCCCCCC(=O)[O-]
REMARK SMILES IDX 16 1 17 2 18 3 19 4 20 5 21 6 22 7 23 8 24 9 25 10 26 11
REMARK SMILES IDX 27 12 28 13 29 14 30 15 31 16 32 17 15 18 14 19 13 20 12 21
REMARK SMILES IDX 11 22 10 23 9 24 8 25 7 26 6 27 5 28 4 29 3 30 2 31 1 32
REMARK H PARENT
REMARK Flexibility Score: inf
ROOT
ATOM      1  C   UNL     1      45.088  32.835  18.096  1.00  0.00     0.000 C 
ENDROOT
BRANCH   1   2
ATOM      2  C   UNL     1      45.920  33.243  19.325  1.00  0.00     0.000 C 
BRANCH   2   3
ATOM      3  C   UNL     1      45.123  33.248  20.647  1.00  0.00     0.000 C 
BRANCH   3   4
ATOM      4  C   UNL     1      43.870  34.150  20.658  1.00  0.00     0.000 C 
BRANCH   4   5
ATOM      5  C   UNL     1      43.062  34.145  21.972  1.00  0.00     0.000 C 
BRANCH   5   6
ATOM      6  C   UNL     1      43.911  34.034  23.253  1.00  0.00     0.000 C 
BRANCH   6   7
ATOM      7  C   UNL     1      43.218  34.649  24.478  1.00  0.00     0.000 C 
BRANCH   7   8
ATOM      8  C   UNL     1      44.193  34.784  25.655  1.00  0.00     0.000 C 
BRANCH   8   9
ATOM      9  C   UNL     1      43.437  34.836  26.991  1.00  0.00     0.000 C 
BRANCH   9  10
ATOM     10  C   UNL     1      43.771  33.656  27.915  1.00  0.00     0.000 C 
BRANCH  10  11
ATOM     11  C   UNL     1      42.952  33.660  29.215  1.00  0.00     0.000 C 
BRANCH  11  12
ATOM     12  C   UNL     1      42.078  32.402  29.315  1.00  0.00     0.000 C 
BRANCH  12  13
ATOM     13  C   UNL     1      40.680  32.738  29.859  1.00  0.00     0.006 C 
BRANCH  13  14
ATOM     14  C   UNL     1      39.671  33.041  28.741  1.00  0.00     0.053 C 
BRANCH  14  15
ATOM     15  C   UNL     1      38.434  32.197  28.824  1.00  0.00     0.041 C 
ATOM     16  O   UNL     1      37.725  32.199  29.869  1.00  0.00    -0.550 OA
ATOM     17  O   UNL     1      38.069  31.396  27.752  1.00  0.00    -0.550 OA
ENDBRANCH  14  15
ENDBRANCH  13  14
ENDBRANCH  12  13
ENDBRANCH  11  12
ENDBRANCH  10  11
ENDBRANCH   9  10
ENDBRANCH   8   9
ENDBRANCH   7   8
ENDBRANCH   6   7
ENDBRANCH   5   6
ENDBRANCH   4   5
ENDBRANCH   3   4
ENDBRANCH   2   3
ENDBRANCH   1   2
BRANCH   1  18
ATOM     18  C   UNL     1      45.807  31.790  17.219  1.00  0.00     0.000 C 
BRANCH  18  19
ATOM     19  C   UNL     1      45.039  31.480  15.924  1.00  0.00     0.000 C 
BRANCH  19  20
ATOM     20  C   UNL     1      43.688  32.216  15.877  1.00  0.00     0.000 C 
BRANCH  20  21
ATOM     21  C   UNL     1      42.478  31.265  15.919  1.00  0.00     0.000 C 
BRANCH  21  22
ATOM     22  C   UNL     1      42.819  29.785  16.166  1.00  0.00     0.000 C 
BRANCH  22  23
ATOM     23  C   UNL     1      41.792  29.068  17.055  1.00  0.00     0.000 C 
BRANCH  23  24
ATOM     24  C   UNL     1      41.667  27.585  16.673  1.00  0.00    -0.000 C 
BRANCH  24  25
ATOM     25  C   UNL     1      40.765  26.793  17.634  1.00  0.00    -0.000 C 
BRANCH  25  26
ATOM     26  C   UNL     1      41.302  25.405  18.035  1.00  0.00    -0.000 C 
BRANCH  26  27
ATOM     27  C   UNL     1      42.819  25.229  17.810  1.00  0.00    -0.000 C 
BRANCH  27  28
ATOM     28  C   UNL     1      43.149  24.058  16.867  1.00  0.00    -0.000 C 
BRANCH  28  29
ATOM     29  C   UNL     1      44.385  23.257  17.313  1.00  0.00    -0.000 C 
BRANCH  29  30
ATOM     30  C   UNL     1      44.359  21.778  16.876  1.00  0.00    -0.000 C 
BRANCH  30  31
ATOM     31  C   UNL     1      43.525  20.903  17.825  1.00  0.00    -0.003 C 
ATOM     32  C   UNL     1      42.529  20.046  17.050  1.00  0.00     0.004 C 
ENDBRANCH  30  31
ENDBRANCH  29  30
ENDBRANCH  28  29
ENDBRANCH  27  28
ENDBRANCH  26  27
ENDBRANCH  25  26
ENDBRANCH  24  25
ENDBRANCH  23  24
ENDBRANCH  22  23
ENDBRANCH  21  22
ENDBRANCH  20  21
ENDBRANCH  19  20
ENDBRANCH  18  19
ENDBRANCH   1  18
TORSDOF 28
ENDMDL
MODEL 6
REMARK VINA RESULT:     0.140      6.324     12.726
REMARK INTER + INTRA:          -1.011
REMARK INTER:                   0.452
REMARK INTRA:                  -1.464
REMARK UNBOUND:                -1.381
REMARK SMILES CCCCCCCCCCCCCCCCCCCCCCCCCCCCCC(=O)[O-]
REMARK SMILES IDX 16 1 17 2 18 3 19 4 20 5 21 6 22 7 23 8 24 9 25 10 26 11
REMARK SMILES IDX 27 12 28 13 29 14 30 15 31 16 32 17 15 18 14 19 13 20 12 21
REMARK SMILES IDX 11 22 10 23 9 24 8 25 7 26 6 27 5 28 4 29 3 30 2 31 1 32
REMARK H PARENT
REMARK Flexibility Score: inf
ROOT
ATOM      1  C   UNL     1      35.190  27.628  15.858  1.00  0.00     0.000 C 
ENDROOT
BRANCH   1   2
ATOM      2  C   UNL     1      34.276  28.299  16.900  1.00  0.00     0.000 C 
BRANCH   2   3
ATOM      3  C   UNL     1      33.604  27.308  17.875  1.00  0.00     0.000 C 
BRANCH   3   4
ATOM      4  C   UNL     1      33.184  27.904  19.236  1.00  0.00     0.000 C 
BRANCH   4   5
ATOM      5  C   UNL     1      33.259  26.935  20.434  1.00  0.00     0.000 C 
BRANCH   5   6
ATOM      6  C   UNL     1      33.592  27.600  21.784  1.00  0.00     0.000 C 
BRANCH   6   7
ATOM      7  C   UNL     1      33.472  26.628  22.967  1.00  0.00     0.000 C 
BRANCH   7   8
ATOM      8  C   UNL     1      33.245  27.384  24.283  1.00  0.00     0.000 C 
BRANCH   8   9
ATOM      9  C   UNL     1      32.773  26.430  25.390  1.00  0.00     0.000 C 
BRANCH   9  10
ATOM     10  C   UNL     1      32.196  27.164  26.609  1.00  0.00     0.000 C 
BRANCH  10  11
ATOM     11  C   UNL     1      33.012  26.933  27.891  1.00  0.00     0.000 C 
BRANCH  11  12
ATOM     12  C   UNL     1      32.721  28.025  28.929  1.00  0.00     0.000 C 
BRANCH  12  13
ATOM     13  C   UNL     1      33.981  28.373  29.738  1.00  0.00     0.006 C 
BRANCH  13  14
ATOM     14  C   UNL     1      35.051  29.075  28.889  1.00  0.00     0.053 C 
BRANCH  14  15
ATOM     15  C   UNL     1      36.446  28.826  29.382  1.00  0.00     0.041 C 
ATOM     16  O   UNL     1      36.790  27.677  29.777  1.00  0.00    -0.550 OA
ATOM     17  O   UNL     1      37.364  29.865  29.416  1.00  0.00    -0.550 OA
ENDBRANCH  14  15
ENDBRANCH  13  14
ENDBRANCH  12  13
ENDBRANCH  11  12
ENDBRANCH  10  11
ENDBRANCH   9  10
ENDBRANCH   8   9
ENDBRANCH   7   8
ENDBRANCH   6   7
ENDBRANCH   5   6
ENDBRANCH   4   5
ENDBRANCH   3   4
ENDBRANCH   2   3
ENDBRANCH   1   2
BRANCH   1  18
ATOM     18  C   UNL     1      35.123  26.089  15.923  1.00  0.00     0.000 C 
BRANCH  18  19
ATOM     19  C   UNL     1      36.396  25.470  16.523  1.00  0.00     0.000 C 
BRANCH  19  20
ATOM     20  C   UNL     1      37.624  26.369  16.297  1.00  0.00     0.000 C 
BRANCH  20  21
ATOM     21  C   UNL     1      38.907  25.818  16.946  1.00  0.00     0.000 C 
BRANCH  21  22
ATOM     22  C   UNL     1      39.353  26.544  18.228  1.00  0.00     0.000 C 
BRANCH  22  23
ATOM     23  C   UNL     1      40.755  27.161  18.118  1.00  0.00     0.000 C 
BRANCH  23  24
ATOM     24  C   UNL     1      41.232  27.195  16.657  1.00  0.00    -0.000 C 
BRANCH  24  25
ATOM     25  C   UNL     1      42.029  28.465  16.318  1.00  0.00    -0.000 C 
BRANCH  25  26
ATOM     26  C   UNL     1      41.657  29.709  17.149  1.00  0.00    -0.000 C 
BRANCH  26  27
ATOM     27  C   UNL     1      42.163  31.038  16.551  1.00  0.00    -0.000 C 
BRANCH  27  28
ATOM     28  C   UNL     1      43.381  30.853  15.630  1.00  0.00    -0.000 C 
BRANCH  28  29
ATOM     29  C   UNL     1      44.542  31.805  15.970  1.00  0.00    -0.000 C 
BRANCH  29  30
ATOM     30  C   UNL     1      45.866  31.083  16.294  1.00  0.00    -0.000 C 
BRANCH  30  31
ATOM     31  C   UNL     1      46.619  30.647  15.027  1.00  0.00    -0.003 C 
ATOM     32  C   UNL     1      47.928  29.948  15.378  1.00  0.00     0.004 C 
ENDBRANCH  30  31
ENDBRANCH  29  30
ENDBRANCH  28  29
ENDBRANCH  27  28
ENDBRANCH  26  27
ENDBRANCH  25  26
ENDBRANCH  24  25
ENDBRANCH  23  24
ENDBRANCH  22  23
ENDBRANCH  21  22
ENDBRANCH  20  21
ENDBRANCH  19  20
ENDBRANCH  18  19
ENDBRANCH   1  18
TORSDOF 28
ENDMDL
MODEL 7
REMARK VINA RESULT:     0.141      8.165     13.513
REMARK INTER + INTRA:          -1.010
REMARK INTER:                   0.458
REMARK INTRA:                  -1.468
REMARK UNBOUND:                -1.381
REMARK SMILES CCCCCCCCCCCCCCCCCCCCCCCCCCCCCC(=O)[O-]
REMARK SMILES IDX 16 1 17 2 18 3 19 4 20 5 21 6 22 7 23 8 24 9 25 10 26 11
REMARK SMILES IDX 27 12 28 13 29 14 30 15 31 16 32 17 15 18 14 19 13 20 12 21
REMARK SMILES IDX 11 22 10 23 9 24 8 25 7 26 6 27 5 28 4 29 3 30 2 31 1 32
REMARK H PARENT
REMARK Flexibility Score: inf
ROOT
ATOM      1  C   UNL     1      35.150  27.522  15.900  1.00  0.00     0.000 C 
ENDROOT
BRANCH   1   2
ATOM      2  C   UNL     1      34.318  28.204  17.002  1.00  0.00     0.000 C 
BRANCH   2   3
ATOM      3  C   UNL     1      33.494  27.223  17.863  1.00  0.00     0.000 C 
BRANCH   3   4
ATOM      4  C   UNL     1      33.121  27.735  19.272  1.00  0.00     0.000 C 
BRANCH   4   5
ATOM      5  C   UNL     1      33.098  26.663  20.381  1.00  0.00     0.000 C 
BRANCH   5   6
ATOM      6  C   UNL     1      33.896  27.027  21.648  1.00  0.00     0.000 C 
BRANCH   6   7
ATOM      7  C   UNL     1      33.427  26.248  22.886  1.00  0.00     0.000 C 
BRANCH   7   8
ATOM      8  C   UNL     1      33.379  27.154  24.124  1.00  0.00     0.000 C 
BRANCH   8   9
ATOM      9  C   UNL     1      32.673  26.449  25.292  1.00  0.00     0.000 C 
BRANCH   9  10
ATOM     10  C   UNL     1      32.518  27.348  26.528  1.00  0.00     0.000 C 
BRANCH  10  11
ATOM     11  C   UNL     1      31.123  27.256  27.166  1.00  0.00     0.000 C 
BRANCH  11  12
ATOM     12  C   UNL     1      31.180  27.604  28.660  1.00  0.00     0.000 C 
BRANCH  12  13
ATOM     13  C   UNL     1      32.434  27.009  29.321  1.00  0.00     0.006 C 
BRANCH  13  14
ATOM     14  C   UNL     1      33.282  28.071  30.037  1.00  0.00     0.053 C 
BRANCH  14  15
ATOM     15  C   UNL     1      34.660  28.205  29.459  1.00  0.00     0.041 C 
ATOM     16  O   UNL     1      35.061  29.312  29.006  1.00  0.00    -0.550 OA
ATOM     17  O   UNL     1      35.500  27.101  29.411  1.00  0.00    -0.550 OA
ENDBRANCH  14  15
ENDBRANCH  13  14
ENDBRANCH  12  13
ENDBRANCH  11  12
ENDBRANCH  10  11
ENDBRANCH   9  10
ENDBRANCH   8   9
ENDBRANCH   7   8
ENDBRANCH   6   7
ENDBRANCH   5   6
ENDBRANCH   4   5
ENDBRANCH   3   4
ENDBRANCH   2   3
ENDBRANCH   1   2
BRANCH   1  18
ATOM     18  C   UNL     1      35.240  25.995  16.094  1.00  0.00     0.000 C 
BRANCH  18  19
ATOM     19  C   UNL     1      36.688  25.481  16.045  1.00  0.00     0.000 C 
BRANCH  19  20
ATOM     20  C   UNL     1      37.697  26.602  16.349  1.00  0.00     0.000 C 
BRANCH  20  21
ATOM     21  C   UNL     1      39.071  26.075  16.802  1.00  0.00     0.000 C 
BRANCH  21  22
ATOM     22  C   UNL     1      39.560  26.609  18.160  1.00  0.00     0.000 C 
BRANCH  22  23
ATOM     23  C   UNL     1      41.091  26.663  18.274  1.00  0.00     0.000 C 
BRANCH  23  24
ATOM     24  C   UNL     1      41.759  25.870  17.139  1.00  0.00    -0.000 C 
BRANCH  24  25
ATOM     25  C   UNL     1      42.903  24.970  17.632  1.00  0.00    -0.000 C 
BRANCH  25  26
ATOM     26  C   UNL     1      43.112  23.679  16.816  1.00  0.00    -0.000 C 
BRANCH  26  27
ATOM     27  C   UNL     1      44.498  23.029  17.011  1.00  0.00    -0.000 C 
BRANCH  27  28
ATOM     28  C   UNL     1      44.425  21.674  17.737  1.00  0.00    -0.000 C 
BRANCH  28  29
ATOM     29  C   UNL     1      43.567  20.638  16.990  1.00  0.00    -0.000 C 
BRANCH  29  30
ATOM     30  C   UNL     1      42.273  20.249  17.734  1.00  0.00    -0.000 C 
BRANCH  30  31
ATOM     31  C   UNL     1      41.517  19.108  17.033  1.00  0.00    -0.003 C 
ATOM     32  C   UNL     1      41.443  19.340  15.528  1.00  0.00     0.004 C 
ENDBRANCH  30  31
ENDBRANCH  29  30
ENDBRANCH  28  29
ENDBRANCH  27  28
ENDBRANCH  26  27
ENDBRANCH  25  26
ENDBRANCH  24  25
ENDBRANCH  23  24
ENDBRANCH  22  23
ENDBRANCH  21  22
ENDBRANCH  20  21
ENDBRANCH  19  20
ENDBRANCH  18  19
ENDBRANCH   1  18
TORSDOF 28
ENDMDL
MODEL 8
REMARK VINA RESULT:     0.198      2.673      5.106
REMARK INTER + INTRA:          -0.858
REMARK INTER:                   0.037
REMARK INTRA:                  -0.895
REMARK UNBOUND:                -1.381
REMARK SMILES CCCCCCCCCCCCCCCCCCCCCCCCCCCCCC(=O)[O-]
REMARK SMILES IDX 16 1 17 2 18 3 19 4 20 5 21 6 22 7 23 8 24 9 25 10 26 11
REMARK SMILES IDX 27 12 28 13 29 14 30 15 31 16 32 17 15 18 14 19 13 20 12 21
REMARK SMILES IDX 11 22 10 23 9 24 8 25 7 26 6 27 5 28 4 29 3 30 2 31 1 32
REMARK H PARENT
REMARK Flexibility Score: inf
ROOT
ATOM      1  C   UNL     1      44.197  34.312  24.987  1.00  0.00     0.000 C 
ENDROOT
BRANCH   1   2
ATOM      2  C   UNL     1      43.489  34.368  23.620  1.00  0.00     0.000 C 
BRANCH   2   3
ATOM      3  C   UNL     1      44.288  33.712  22.473  1.00  0.00     0.000 C 
BRANCH   3   4
ATOM      4  C   UNL     1      43.608  33.753  21.088  1.00  0.00     0.000 C 
BRANCH   4   5
ATOM      5  C   UNL     1      44.520  34.167  19.914  1.00  0.00     0.000 C 
BRANCH   5   6
ATOM      6  C   UNL     1      45.455  33.056  19.400  1.00  0.00     0.000 C 
BRANCH   6   7
ATOM      7  C   UNL     1      45.542  33.019  17.866  1.00  0.00     0.000 C 
BRANCH   7   8
ATOM      8  C   UNL     1      45.250  31.611  17.330  1.00  0.00     0.000 C 
BRANCH   8   9
ATOM      9  C   UNL     1      44.452  31.678  16.020  1.00  0.00     0.000 C 
BRANCH   9  10
ATOM     10  C   UNL     1      42.938  31.532  16.232  1.00  0.00     0.000 C 
BRANCH  10  11
ATOM     11  C   UNL     1      42.391  30.181  15.748  1.00  0.00     0.000 C 
BRANCH  11  12
ATOM     12  C   UNL     1      41.881  29.343  16.928  1.00  0.00     0.000 C 
BRANCH  12  13
ATOM     13  C   UNL     1      41.787  27.854  16.555  1.00  0.00     0.006 C 
BRANCH  13  14
ATOM     14  C   UNL     1      41.891  26.933  17.779  1.00  0.00     0.053 C 
BRANCH  14  15
ATOM     15  C   UNL     1      40.636  26.908  18.600  1.00  0.00     0.041 C 
ATOM     16  O   UNL     1      40.694  26.816  19.858  1.00  0.00    -0.550 OA
ATOM     17  O   UNL     1      39.399  26.976  17.976  1.00  0.00    -0.550 OA
ENDBRANCH  14  15
ENDBRANCH  13  14
ENDBRANCH  12  13
ENDBRANCH  11  12
ENDBRANCH  10  11
ENDBRANCH   9  10
ENDBRANCH   8   9
ENDBRANCH   7   8
ENDBRANCH   6   7
ENDBRANCH   5   6
ENDBRANCH   4   5
ENDBRANCH   3   4
ENDBRANCH   2   3
ENDBRANCH   1   2
BRANCH   1  18
ATOM     18  C   UNL     1      43.721  35.426  25.940  1.00  0.00     0.000 C 
BRANCH  18  19
ATOM     19  C   UNL     1      43.364  34.891  27.337  1.00  0.00     0.000 C 
BRANCH  19  20
ATOM     20  C   UNL     1      44.276  35.487  28.423  1.00  0.00     0.000 C 
BRANCH  20  21
ATOM     21  C   UNL     1      43.869  35.079  29.850  1.00  0.00     0.000 C 
BRANCH  21  22
ATOM     22  C   UNL     1      43.885  33.564  30.125  1.00  0.00     0.000 C 
BRANCH  22  23
ATOM     23  C   UNL     1      44.147  32.724  28.866  1.00  0.00     0.000 C 
BRANCH  23  24
ATOM     24  C   UNL     1      43.271  31.462  28.850  1.00  0.00    -0.000 C 
BRANCH  24  25
ATOM     25  C   UNL     1      42.408  31.316  30.114  1.00  0.00    -0.000 C 
BRANCH  25  26
ATOM     26  C   UNL     1      40.886  31.342  29.870  1.00  0.00    -0.000 C 
BRANCH  26  27
ATOM     27  C   UNL     1      40.353  32.701  29.368  1.00  0.00    -0.000 C 
BRANCH  27  28
ATOM     28  C   UNL     1      39.262  32.553  28.294  1.00  0.00    -0.000 C 
BRANCH  28  29
ATOM     29  C   UNL     1      37.903  32.118  28.872  1.00  0.00    -0.000 C 
BRANCH  29  30
ATOM     30  C   UNL     1      37.660  30.596  28.813  1.00  0.00    -0.000 C 
BRANCH  30  31
ATOM     31  C   UNL     1      36.227  30.218  29.223  1.00  0.00    -0.003 C 
ATOM     32  C   UNL     1      35.945  28.746  28.940  1.00  0.00     0.004 C 
ENDBRANCH  30  31
ENDBRANCH  29  30
ENDBRANCH  28  29
ENDBRANCH  27  28
ENDBRANCH  26  27
ENDBRANCH  25  26
ENDBRANCH  24  25
ENDBRANCH  23  24
ENDBRANCH  22  23
ENDBRANCH  21  22
ENDBRANCH  20  21
ENDBRANCH  19  20
ENDBRANCH  18  19
ENDBRANCH   1  18
TORSDOF 28
ENDMDL
MODEL 9
REMARK VINA RESULT:     0.231      2.516      4.388
REMARK INTER + INTRA:          -0.773
REMARK INTER:                   0.948
REMARK INTRA:                  -1.721
REMARK UNBOUND:                -1.381
REMARK SMILES CCCCCCCCCCCCCCCCCCCCCCCCCCCCCC(=O)[O-]
REMARK SMILES IDX 16 1 17 2 18 3 19 4 20 5 21 6 22 7 23 8 24 9 25 10 26 11
REMARK SMILES IDX 27 12 28 13 29 14 30 15 31 16 32 17 15 18 14 19 13 20 12 21
REMARK SMILES IDX 11 22 10 23 9 24 8 25 7 26 6 27 5 28 4 29 3 30 2 31 1 32
REMARK H PARENT
REMARK Flexibility Score: inf
ROOT
ATOM      1  C   UNL     1      43.571  33.852  23.489  1.00  0.00     0.000 C 
ENDROOT
BRANCH   1   2
ATOM      2  C   UNL     1      43.399  34.387  22.055  1.00  0.00     0.000 C 
BRANCH   2   3
ATOM      3  C   UNL     1      44.347  33.735  21.026  1.00  0.00     0.000 C 
BRANCH   3   4
ATOM      4  C   UNL     1      44.008  34.018  19.546  1.00  0.00     0.000 C 
BRANCH   4   5
ATOM      5  C   UNL     1      45.161  33.787  18.547  1.00  0.00     0.000 C 
BRANCH   5   6
ATOM      6  C   UNL     1      45.995  32.517  18.803  1.00  0.00     0.000 C 
BRANCH   6   7
ATOM      7  C   UNL     1      46.217  31.688  17.530  1.00  0.00     0.000 C 
BRANCH   7   8
ATOM      8  C   UNL     1      45.101  31.937  16.506  1.00  0.00     0.000 C 
BRANCH   8   9
ATOM      9  C   UNL     1      44.333  30.641  16.207  1.00  0.00     0.000 C 
BRANCH   9  10
ATOM     10  C   UNL     1      42.821  30.863  16.050  1.00  0.00     0.000 C 
BRANCH  10  11
ATOM     11  C   UNL     1      42.021  29.551  16.026  1.00  0.00     0.000 C 
BRANCH  11  12
ATOM     12  C   UNL     1      42.026  28.882  17.407  1.00  0.00     0.000 C 
BRANCH  12  13
ATOM     13  C   UNL     1      40.981  27.757  17.483  1.00  0.00     0.006 C 
BRANCH  13  14
ATOM     14  C   UNL     1      41.402  26.508  16.694  1.00  0.00     0.053 C 
BRANCH  14  15
ATOM     15  C   UNL     1      42.124  25.499  17.538  1.00  0.00     0.041 C 
ATOM     16  O   UNL     1      42.812  24.587  17.000  1.00  0.00    -0.550 OA
ATOM     17  O   UNL     1      42.027  25.558  18.920  1.00  0.00    -0.550 OA
ENDBRANCH  14  15
ENDBRANCH  13  14
ENDBRANCH  12  13
ENDBRANCH  11  12
ENDBRANCH  10  11
ENDBRANCH   9  10
ENDBRANCH   8   9
ENDBRANCH   7   8
ENDBRANCH   6   7
ENDBRANCH   5   6
ENDBRANCH   4   5
ENDBRANCH   3   4
ENDBRANCH   2   3
ENDBRANCH   1   2
BRANCH   1  18
ATOM     18  C   UNL     1      43.246  34.917  24.556  1.00  0.00     0.000 C 
BRANCH  18  19
ATOM     19  C   UNL     1      43.695  34.493  25.964  1.00  0.00     0.000 C 
BRANCH  19  20
ATOM     20  C   UNL     1      44.674  35.510  26.577  1.00  0.00     0.000 C 
BRANCH  20  21
ATOM     21  C   UNL     1      44.009  36.457  27.592  1.00  0.00     0.000 C 
BRANCH  21  22
ATOM     22  C   UNL     1      44.779  36.645  28.911  1.00  0.00     0.000 C 
BRANCH  22  23
ATOM     23  C   UNL     1      44.055  36.043  30.125  1.00  0.00     0.000 C 
BRANCH  23  24
ATOM     24  C   UNL     1      44.085  34.508  30.084  1.00  0.00    -0.000 C 
BRANCH  24  25
ATOM     25  C   UNL     1      42.695  33.887  29.872  1.00  0.00    -0.000 C 
BRANCH  25  26
ATOM     26  C   UNL     1      42.702  32.452  29.308  1.00  0.00    -0.000 C 
BRANCH  26  27
ATOM     27  C   UNL     1      41.540  31.572  29.813  1.00  0.00    -0.000 C 
BRANCH  27  28
ATOM     28  C   UNL     1      40.209  32.339  29.909  1.00  0.00    -0.000 C 
BRANCH  28  29
ATOM     29  C   UNL     1      39.699  32.832  28.544  1.00  0.00    -0.000 C 
BRANCH  29  30
ATOM     30  C   UNL     1      38.580  31.957  27.943  1.00  0.00    -0.000 C 
BRANCH  30  31
ATOM     31  C   UNL     1      37.579  31.477  29.007  1.00  0.00    -0.003 C 
ATOM     32  C   UNL     1      36.742  30.312  28.489  1.00  0.00     0.004 C 
ENDBRANCH  30  31
ENDBRANCH  29  30
ENDBRANCH  28  29
ENDBRANCH  27  28
ENDBRANCH  26  27
ENDBRANCH  25  26
ENDBRANCH  24  25
ENDBRANCH  23  24
ENDBRANCH  22  23
ENDBRANCH  21  22
ENDBRANCH  20  21
ENDBRANCH  19  20
ENDBRANCH  18  19
ENDBRANCH   1  18
TORSDOF 28
ENDMDL
