MODEL 1
REMARK VINA RESULT:    -0.362      0.000      0.000
REMARK INTER + INTRA:          -0.684
REMARK INTER:                  -0.447
REMARK INTRA:                  -0.237
REMARK UNBOUND:                -0.237
REMARK SMILES C=CC(=C)CCC=C(C)C
REMARK SMILES IDX 5 1 6 2 7 3 9 4 8 5 10 6 3 7 4 8 2 9 1 10
REMARK H PARENT
REMARK Flexibility Score: inf
ROOT
ATOM      1  C   UNL     1       0.587   5.252  -9.956  1.00  0.00     0.039 C 
ENDROOT
BRANCH   1   2
ATOM      2  C   UNL     1       0.004   6.105 -11.093  1.00  0.00     0.032 C 
BRANCH   2   3
ATOM      3  C   UNL     1      -1.376   5.640 -11.493  1.00  0.00    -0.028 C 
ATOM      4  C   UNL     1      -3.158   4.865 -12.996  1.00  0.00     0.039 C 
ATOM      5  C   UNL     1      -1.725   5.258 -12.741  1.00  0.00    -0.080 C 
ATOM      6  C   UNL     1      -0.724   5.196 -13.870  1.00  0.00     0.039 C 
ENDBRANCH   2   3
ENDBRANCH   1   2
BRANCH   1   7
ATOM      7  C   UNL     1       0.431   5.926  -8.607  1.00  0.00    -0.055 C 
ATOM      8  C   UNL     1       1.416   5.822  -7.710  1.00  0.00     0.012 C 
BRANCH   7   9
ATOM      9  C   UNL     1      -0.768   6.734  -8.258  1.00  0.00    -0.005 C 
ATOM     10  C   UNL     1      -0.773   7.707  -7.347  1.00  0.00     0.009 C 
ENDBRANCH   7   9
ENDBRANCH   1   7
TORSDOF 4
ENDMDL
MODEL 2
REMARK VINA RESULT:    -0.161      0.926      1.611
REMARK INTER + INTRA:          -0.436
REMARK INTER:                  -0.159
REMARK INTRA:                  -0.276
REMARK UNBOUND:                -0.237
REMARK SMILES C=CC(=C)CCC=C(C)C
REMARK SMILES IDX 5 1 6 2 7 3 9 4 8 5 10 6 3 7 4 8 2 9 1 10
REMARK H PARENT
REMARK Flexibility Score: inf
ROOT
ATOM      1  C   UNL     1       0.499   6.355 -10.391  1.00  0.00     0.039 C 
ENDROOT
BRANCH   1   2
ATOM      2  C   UNL     1      -0.780   5.855 -11.079  1.00  0.00     0.032 C 
BRANCH   2   3
ATOM      3  C   UNL     1      -0.560   5.594 -12.550  1.00  0.00    -0.028 C 
ATOM      4  C   UNL     1      -1.108   4.836 -14.822  1.00  0.00     0.039 C 
ATOM      5  C   UNL     1      -1.493   5.086 -13.387  1.00  0.00    -0.080 C 
ATOM      6  C   UNL     1      -2.900   4.783 -12.929  1.00  0.00     0.039 C 
ENDBRANCH   2   3
ENDBRANCH   1   2
BRANCH   1   7
ATOM      7  C   UNL     1       0.825   5.551  -9.148  1.00  0.00    -0.055 C 
ATOM      8  C   UNL     1       1.428   4.365  -9.281  1.00  0.00     0.012 C 
BRANCH   7   9
ATOM      9  C   UNL     1       0.532   6.052  -7.779  1.00  0.00    -0.005 C 
ATOM     10  C   UNL     1      -0.311   7.050  -7.514  1.00  0.00     0.009 C 
ENDBRANCH   7   9
ENDBRANCH   1   7
TORSDOF 4
ENDMDL
MODEL 3
REMARK VINA RESULT:    -0.064      0.863      4.943
REMARK INTER + INTRA:          -0.316
REMARK INTER:                   0.001
REMARK INTRA:                  -0.317
REMARK UNBOUND:                -0.237
REMARK SMILES C=CC(=C)CCC=C(C)C
REMARK SMILES IDX 5 1 6 2 7 3 9 4 8 5 10 6 3 7 4 8 2 9 1 10
REMARK H PARENT
REMARK Flexibility Score: inf
ROOT
ATOM      1  C   UNL     1       0.132   6.168 -11.500  1.00  0.00     0.039 C 
ENDROOT
BRANCH   1   2
ATOM      2  C   UNL     1       0.466   5.169 -10.381  1.00  0.00     0.032 C 
BRANCH   2   3
ATOM      3  C   UNL     1       0.810   5.869  -9.088  1.00  0.00    -0.028 C 
ATOM      4  C   UNL     1       0.412   7.162  -7.037  1.00  0.00     0.039 C 
ATOM      5  C   UNL     1      -0.091   6.460  -8.272  1.00  0.00    -0.080 C 
ATOM      6  C   UNL     1      -1.575   6.419  -8.553  1.00  0.00     0.039 C 
ENDBRANCH   2   3
ENDBRANCH   1   2
BRANCH   1   7
ATOM      7  C   UNL     1      -0.890   5.609 -12.470  1.00  0.00    -0.055 C 
ATOM      8  C   UNL     1      -0.509   5.309 -13.715  1.00  0.00     0.012 C 
BRANCH   7   9
ATOM      9  C   UNL     1      -2.299   5.347 -12.073  1.00  0.00    -0.005 C 
ATOM     10  C   UNL     1      -3.220   4.830 -12.887  1.00  0.00     0.009 C 
ENDBRANCH   7   9
ENDBRANCH   1   7
TORSDOF 4
ENDMDL
MODEL 4
REMARK VINA RESULT:     0.617     11.065     13.158
REMARK INTER + INTRA:           0.524
REMARK INTER:                   0.739
REMARK INTRA:                  -0.215
REMARK UNBOUND:                -0.237
REMARK SMILES C=CC(=C)CCC=C(C)C
REMARK SMILES IDX 5 1 6 2 7 3 9 4 8 5 10 6 3 7 4 8 2 9 1 10
REMARK H PARENT
REMARK Flexibility Score: inf
ROOT
ATOM      1  C   UNL     1      11.238   8.388  -7.558  1.00  0.00     0.039 C 
ENDROOT
BRANCH   1   2
ATOM      2  C   UNL     1      12.118   7.784  -8.662  1.00  0.00     0.032 C 
BRANCH   2   3
ATOM      3  C   UNL     1      12.494   8.809  -9.705  1.00  0.00    -0.028 C 
ATOM      4  C   UNL     1      13.794   9.805 -11.537  1.00  0.00     0.039 C 
ATOM      5  C   UNL     1      13.511   8.671 -10.586  1.00  0.00    -0.080 C 
ATOM      6  C   UNL     1      14.347   7.415 -10.653  1.00  0.00     0.039 C 
ENDBRANCH   2   3
ENDBRANCH   1   2
BRANCH   1   7
ATOM      7  C   UNL     1      10.981   7.401  -6.436  1.00  0.00    -0.055 C 
ATOM      8  C   UNL     1      12.017   6.766  -5.878  1.00  0.00     0.012 C 
BRANCH   7   9
ATOM      9  C   UNL     1       9.616   7.143  -5.904  1.00  0.00    -0.005 C 
ATOM     10  C   UNL     1       8.544   7.870  -6.215  1.00  0.00     0.009 C 
ENDBRANCH   7   9
ENDBRANCH   1   7
TORSDOF 4
ENDMDL
MODEL 5
REMARK VINA RESULT:     0.620      1.049      2.372
REMARK INTER + INTRA:           0.529
REMARK INTER:                   0.653
REMARK INTRA:                  -0.124
REMARK UNBOUND:                -0.237
REMARK SMILES C=CC(=C)CCC=C(C)C
REMARK SMILES IDX 5 1 6 2 7 3 9 4 8 5 10 6 3 7 4 8 2 9 1 10
REMARK H PARENT
REMARK Flexibility Score: inf
ROOT
ATOM      1  C   UNL     1      -0.617   6.654  -9.655  1.00  0.00     0.039 C 
ENDROOT
BRANCH   1   2
ATOM      2  C   UNL     1      -1.366   5.674 -10.571  1.00  0.00     0.032 C 
BRANCH   2   3
ATOM      3  C   UNL     1      -0.781   5.648 -11.963  1.00  0.00    -0.028 C 
ATOM      4  C   UNL     1      -0.695   5.189 -14.375  1.00  0.00     0.039 C 
ATOM      5  C   UNL     1      -1.430   5.196 -13.060  1.00  0.00    -0.080 C 
ATOM      6  C   UNL     1      -2.863   4.722 -13.004  1.00  0.00     0.039 C 
ENDBRANCH   2   3
ENDBRANCH   1   2
BRANCH   1   7
ATOM      7  C   UNL     1       0.512   5.975  -8.905  1.00  0.00    -0.055 C 
ATOM      8  C   UNL     1       0.600   6.132  -7.580  1.00  0.00     0.012 C 
BRANCH   7   9
ATOM      9  C   UNL     1       1.508   5.107  -9.587  1.00  0.00    -0.005 C 
ATOM     10  C   UNL     1       1.429   3.777  -9.637  1.00  0.00     0.009 C 
ENDBRANCH   7   9
ENDBRANCH   1   7
TORSDOF 4
ENDMDL
MODEL 6
REMARK VINA RESULT:     0.701      9.846     12.468
REMARK INTER + INTRA:           0.628
REMARK INTER:                   0.959
REMARK INTRA:                  -0.330
REMARK UNBOUND:                -0.237
REMARK SMILES C=CC(=C)CCC=C(C)C
REMARK SMILES IDX 5 1 6 2 7 3 9 4 8 5 10 6 3 7 4 8 2 9 1 10
REMARK H PARENT
REMARK Flexibility Score: inf
ROOT
ATOM      1  C   UNL     1      12.009   7.220  -7.550  1.00  0.00     0.039 C 
ENDROOT
BRANCH   1   2
ATOM      2  C   UNL     1      11.131   8.004  -6.564  1.00  0.00     0.032 C 
BRANCH   2   3
ATOM      3  C   UNL     1       9.891   7.231  -6.179  1.00  0.00    -0.028 C 
ATOM      4  C   UNL     1       7.491   6.806  -5.876  1.00  0.00     0.039 C 
ATOM      5  C   UNL     1       8.626   7.672  -6.358  1.00  0.00    -0.080 C 
ATOM      6  C   UNL     1       8.324   8.987  -7.037  1.00  0.00     0.039 C 
ENDBRANCH   2   3
ENDBRANCH   1   2
BRANCH   1   7
ATOM      7  C   UNL     1      11.965   7.815  -8.944  1.00  0.00    -0.055 C 
ATOM      8  C   UNL     1      10.796   8.236  -9.435  1.00  0.00     0.012 C 
BRANCH   7   9
ATOM      9  C   UNL     1      13.189   7.984  -9.772  1.00  0.00    -0.005 C 
ATOM     10  C   UNL     1      13.346   8.942 -10.685  1.00  0.00     0.009 C 
ENDBRANCH   7   9
ENDBRANCH   1   7
TORSDOF 4
ENDMDL
MODEL 7
REMARK VINA RESULT:     0.739      0.921      5.246
REMARK INTER + INTRA:           0.676
REMARK INTER:                   0.043
REMARK INTRA:                   0.633
REMARK UNBOUND:                -0.237
REMARK SMILES C=CC(=C)CCC=C(C)C
REMARK SMILES IDX 5 1 6 2 7 3 9 4 8 5 10 6 3 7 4 8 2 9 1 10
REMARK H PARENT
REMARK Flexibility Score: inf
ROOT
ATOM      1  C   UNL     1      -0.913   6.011 -11.100  1.00  0.00     0.039 C 
ENDROOT
BRANCH   1   2
ATOM      2  C   UNL     1       0.340   5.339 -10.519  1.00  0.00     0.032 C 
BRANCH   2   3
ATOM      3  C   UNL     1       0.753   5.961  -9.206  1.00  0.00    -0.028 C 
ATOM      4  C   UNL     1       0.463   7.117  -7.058  1.00  0.00     0.039 C 
ATOM      5  C   UNL     1      -0.105   6.488  -8.304  1.00  0.00    -0.080 C 
ATOM      6  C   UNL     1      -1.602   6.445  -8.501  1.00  0.00     0.039 C 
ENDBRANCH   2   3
ENDBRANCH   1   2
BRANCH   1   7
ATOM      7  C   UNL     1      -1.289   5.435 -12.452  1.00  0.00    -0.055 C 
ATOM      8  C   UNL     1      -2.524   4.959 -12.636  1.00  0.00     0.012 C 
BRANCH   7   9
ATOM      9  C   UNL     1      -0.340   5.416 -13.596  1.00  0.00    -0.005 C 
ATOM     10  C   UNL     1      -0.697   5.176 -14.858  1.00  0.00     0.009 C 
ENDBRANCH   7   9
ENDBRANCH   1   7
TORSDOF 4
ENDMDL
MODEL 8
REMARK VINA RESULT:     1.096      9.563     11.578
REMARK INTER + INTRA:           1.115
REMARK INTER:                   0.685
REMARK INTRA:                   0.431
REMARK UNBOUND:                -0.237
REMARK SMILES C=CC(=C)CCC=C(C)C
REMARK SMILES IDX 5 1 6 2 7 3 9 4 8 5 10 6 3 7 4 8 2 9 1 10
REMARK H PARENT
REMARK Flexibility Score: inf
ROOT
ATOM      1  C   UNL     1       9.539   8.294  -6.590  1.00  0.00     0.039 C 
ENDROOT
BRANCH   1   2
ATOM      2  C   UNL     1      10.675   7.323  -6.235  1.00  0.00     0.032 C 
BRANCH   2   3
ATOM      3  C   UNL     1      11.882   7.523  -7.121  1.00  0.00    -0.028 C 
ATOM      4  C   UNL     1      13.122   7.887  -9.210  1.00  0.00     0.039 C 
ATOM      5  C   UNL     1      11.826   7.757  -8.451  1.00  0.00    -0.080 C 
ATOM      6  C   UNL     1      10.515   7.909  -9.185  1.00  0.00     0.039 C 
ENDBRANCH   2   3
ENDBRANCH   1   2
BRANCH   1   7
ATOM      7  C   UNL     1       8.191   7.785  -6.117  1.00  0.00    -0.055 C 
ATOM      8  C   UNL     1       8.037   6.480  -5.875  1.00  0.00     0.012 C 
BRANCH   7   9
ATOM      9  C   UNL     1       7.041   8.696  -5.875  1.00  0.00    -0.005 C 
ATOM     10  C   UNL     1       6.780   9.780  -6.605  1.00  0.00     0.009 C 
ENDBRANCH   7   9
ENDBRANCH   1   7
TORSDOF 4
ENDMDL
