MODEL 1
REMARK VINA RESULT:    -1.100      0.000      0.000
REMARK INTER + INTRA:          -1.650
REMARK INTER:                  -1.357
REMARK INTRA:                  -0.293
REMARK UNBOUND:                -0.293
REMARK SMILES Oc1cc(O)c2cc(O)c(-c3cc(O)c(O)c(O)c3)[o+]c2c1.[Cl-]
REMARK SMILES IDX 10 1 20 2 21 3 22 4 2 5 3 6 4 7 6 8 7 9 8 10 11 11 12 12
REMARK SMILES IDX 13 13 19 14 15 15 17 16 14 17 16 19 18 21 9 23 1 25 5 27
REMARK H PARENT 14 18 16 20 18 22 9 24 1 26 5 28
REMARK Flexibility Score: inf
ROOT
ATOM      1  C   UNL     1      24.889  35.005  13.713  1.00  0.00     0.402 A 
ATOM      2  O   UNL     1      24.391  34.448  12.611  1.00  0.00    -0.202 OA
ATOM      3  C   UNL     1      24.907  33.363  12.045  1.00  0.00     0.368 A 
ATOM      4  C   UNL     1      24.310  32.851  10.889  1.00  0.00     0.162 A 
ATOM      5  C   UNL     1      24.828  31.710  10.275  1.00  0.00     0.128 A 
ATOM      6  C   UNL     1      25.951  31.075  10.817  1.00  0.00     0.093 A 
ATOM      7  C   UNL     1      26.566  31.568  11.974  1.00  0.00     0.136 A 
ATOM      8  C   UNL     1      26.044  32.730  12.601  1.00  0.00     0.125 A 
ATOM      9  C   UNL     1      26.604  33.303  13.755  1.00  0.00     0.078 A 
ATOM     10  C   UNL     1      26.035  34.451  14.314  1.00  0.00     0.223 A 
ENDROOT
BRANCH   1  11
ATOM     11  C   UNL     1      24.218  36.208  14.255  1.00  0.00     0.091 A 
ATOM     12  C   UNL     1      22.994  36.070  14.929  1.00  0.00     0.068 A 
ATOM     13  C   UNL     1      22.349  37.191  15.469  1.00  0.00     0.162 A 
ATOM     14  C   UNL     1      24.806  37.481  14.159  1.00  0.00     0.068 A 
ATOM     15  C   UNL     1      22.929  38.460  15.350  1.00  0.00     0.200 A 
ATOM     16  C   UNL     1      24.165  38.605  14.697  1.00  0.00     0.162 A 
BRANCH  13  17
ATOM     17  O   UNL     1      21.127  37.051  16.125  1.00  0.00    -0.504 OA
ATOM     18  H   UNL     1      20.971  36.316  16.806  1.00  0.00     0.293 HD
ENDBRANCH  13  17
BRANCH  15  19
ATOM     19  O   UNL     1      22.270  39.564  15.891  1.00  0.00    -0.502 OA
ATOM     20  H   UNL     1      22.721  40.194  16.545  1.00  0.00     0.293 HD
ENDBRANCH  15  19
BRANCH  16  21
ATOM     21  O   UNL     1      24.754  39.864  14.591  1.00  0.00    -0.504 OA
ATOM     22  H   UNL     1      24.713  40.399  13.731  1.00  0.00     0.293 HD
ENDBRANCH  16  21
ENDBRANCH   1  11
BRANCH  10  23
ATOM     23  O   UNL     1      26.619  35.049  15.430  1.00  0.00    -0.500 OA
ATOM     24  H   UNL     1      27.477  35.584  15.360  1.00  0.00     0.294 HD
ENDBRANCH  10  23
BRANCH   5  25
ATOM     25  O   UNL     1      24.219  31.215   9.124  1.00  0.00    -0.507 OA
ATOM     26  H   UNL     1      24.753  31.022   8.283  1.00  0.00     0.293 HD
ENDBRANCH   5  25
BRANCH   7  27
ATOM     27  O   UNL     1      27.681  30.875  12.456  1.00  0.00    -0.507 OA
ATOM     28  H   UNL     1      27.673  30.273  13.266  1.00  0.00     0.293 HD
ENDBRANCH   7  27
TORSDOF 7
ENDMDL
MODEL 2
REMARK VINA RESULT:    -0.667      1.324      7.296
REMARK INTER + INTRA:          -1.116
REMARK INTER:                  -0.846
REMARK INTRA:                  -0.269
REMARK UNBOUND:                -0.293
REMARK SMILES Oc1cc(O)c2cc(O)c(-c3cc(O)c(O)c(O)c3)[o+]c2c1.[Cl-]
REMARK SMILES IDX 10 1 20 2 21 3 22 4 2 5 3 6 4 7 6 8 7 9 8 10 11 11 12 12
REMARK SMILES IDX 13 13 19 14 15 15 17 16 14 17 16 19 18 21 9 23 1 25 5 27
REMARK H PARENT 14 18 16 20 18 22 9 24 1 26 5 28
REMARK Flexibility Score: inf
ROOT
ATOM      1  C   UNL     1      23.997  35.182  13.237  1.00  0.00     0.402 A 
ATOM      2  O   UNL     1      24.838  36.183  13.487  1.00  0.00    -0.202 OA
ATOM      3  C   UNL     1      24.510  37.248  14.211  1.00  0.00     0.368 A 
ATOM      4  C   UNL     1      25.465  38.247  14.421  1.00  0.00     0.162 A 
ATOM      5  C   UNL     1      25.149  39.375  15.179  1.00  0.00     0.128 A 
ATOM      6  C   UNL     1      23.870  39.508  15.732  1.00  0.00     0.093 A 
ATOM      7  C   UNL     1      22.896  38.521  15.536  1.00  0.00     0.136 A 
ATOM      8  C   UNL     1      23.213  37.374  14.763  1.00  0.00     0.125 A 
ATOM      9  C   UNL     1      22.296  36.341  14.503  1.00  0.00     0.078 A 
ATOM     10  C   UNL     1      22.680  35.241  13.729  1.00  0.00     0.223 A 
ENDROOT
BRANCH   1  11
ATOM     11  C   UNL     1      24.485  34.043  12.426  1.00  0.00     0.091 A 
ATOM     12  C   UNL     1      24.018  33.882  11.112  1.00  0.00     0.068 A 
ATOM     13  C   UNL     1      24.479  32.824  10.317  1.00  0.00     0.162 A 
ATOM     14  C   UNL     1      25.449  33.149  12.924  1.00  0.00     0.068 A 
ATOM     15  C   UNL     1      25.424  31.924  10.827  1.00  0.00     0.200 A 
ATOM     16  C   UNL     1      25.914  32.091  12.133  1.00  0.00     0.162 A 
BRANCH  13  17
ATOM     17  O   UNL     1      24.002  32.660   9.018  1.00  0.00    -0.504 OA
ATOM     18  H   UNL     1      24.323  31.902   8.426  1.00  0.00     0.293 HD
ENDBRANCH  13  17
BRANCH  15  19
ATOM     19  O   UNL     1      25.869  30.875  10.021  1.00  0.00    -0.502 OA
ATOM     20  H   UNL     1      25.375  29.992   9.965  1.00  0.00     0.293 HD
ENDBRANCH  15  19
BRANCH  16  21
ATOM     21  O   UNL     1      26.866  31.206  12.639  1.00  0.00    -0.504 OA
ATOM     22  H   UNL     1      27.852  31.438  12.652  1.00  0.00     0.293 HD
ENDBRANCH  16  21
ENDBRANCH   1  11
BRANCH  10  23
ATOM     23  O   UNL     1      21.756  34.241  13.429  1.00  0.00    -0.500 OA
ATOM     24  H   UNL     1      20.861  34.184  13.899  1.00  0.00     0.294 HD
ENDBRANCH  10  23
BRANCH   5  25
ATOM     25  O   UNL     1      26.114  40.360  15.377  1.00  0.00    -0.507 OA
ATOM     26  H   UNL     1      26.916  40.203  15.977  1.00  0.00     0.293 HD
ENDBRANCH   5  25
BRANCH   7  27
ATOM     27  O   UNL     1      21.644  38.727  16.123  1.00  0.00    -0.507 OA
ATOM     28  H   UNL     1      20.806  38.960  15.612  1.00  0.00     0.293 HD
ENDBRANCH   7  27
TORSDOF 7
ENDMDL
MODEL 3
REMARK VINA RESULT:     0.052     20.410     21.813
REMARK INTER + INTRA:          -0.229
REMARK INTER:                  -0.700
REMARK INTRA:                   0.471
REMARK UNBOUND:                -0.293
REMARK SMILES Oc1cc(O)c2cc(O)c(-c3cc(O)c(O)c(O)c3)[o+]c2c1.[Cl-]
REMARK SMILES IDX 10 1 20 2 21 3 22 4 2 5 3 6 4 7 6 8 7 9 8 10 11 11 12 12
REMARK SMILES IDX 13 13 19 14 15 15 17 16 14 17 16 19 18 21 9 23 1 25 5 27
REMARK H PARENT 14 18 16 20 18 22 9 24 1 26 5 28
REMARK Flexibility Score: inf
ROOT
ATOM      1  C   UNL     1      20.956  51.104  -0.314  1.00  0.00     0.402 A 
ATOM      2  O   UNL     1      21.946  51.107   0.576  1.00  0.00    -0.202 OA
ATOM      3  C   UNL     1      23.231  51.108   0.238  1.00  0.00     0.368 A 
ATOM      4  C   UNL     1      24.198  51.114   1.246  1.00  0.00     0.162 A 
ATOM      5  C   UNL     1      25.555  51.119   0.920  1.00  0.00     0.128 A 
ATOM      6  C   UNL     1      25.950  51.117  -0.423  1.00  0.00     0.093 A 
ATOM      7  C   UNL     1      24.999  51.112  -1.451  1.00  0.00     0.136 A 
ATOM      8  C   UNL     1      23.618  51.104  -1.124  1.00  0.00     0.125 A 
ATOM      9  C   UNL     1      22.596  51.085  -2.088  1.00  0.00     0.078 A 
ATOM     10  C   UNL     1      21.256  51.075  -1.688  1.00  0.00     0.223 A 
ENDROOT
BRANCH   1  11
ATOM     11  C   UNL     1      19.563  51.115   0.188  1.00  0.00     0.091 A 
ATOM     12  C   UNL     1      18.499  51.106  -0.729  1.00  0.00     0.068 A 
ATOM     13  C   UNL     1      17.172  51.095  -0.279  1.00  0.00     0.162 A 
ATOM     14  C   UNL     1      19.280  51.077   1.565  1.00  0.00     0.068 A 
ATOM     15  C   UNL     1      16.896  51.080   1.094  1.00  0.00     0.200 A 
ATOM     16  C   UNL     1      17.954  51.065   2.019  1.00  0.00     0.162 A 
BRANCH  13  17
ATOM     17  O   UNL     1      16.119  51.101  -1.193  1.00  0.00    -0.504 OA
ATOM     18  H   UNL     1      16.065  50.423  -1.945  1.00  0.00     0.293 HD
ENDBRANCH  13  17
BRANCH  15  19
ATOM     19  O   UNL     1      15.568  51.072   1.523  1.00  0.00    -0.502 OA
ATOM     20  H   UNL     1      14.902  51.775   1.224  1.00  0.00     0.293 HD
ENDBRANCH  15  19
BRANCH  16  21
ATOM     21  O   UNL     1      17.684  51.034   3.387  1.00  0.00    -0.504 OA
ATOM     22  H   UNL     1      17.072  51.714   3.823  1.00  0.00     0.293 HD
ENDBRANCH  16  21
ENDBRANCH   1  11
BRANCH  10  23
ATOM     23  O   UNL     1      20.243  51.005  -2.643  1.00  0.00    -0.500 OA
ATOM     24  H   UNL     1      19.946  51.820  -3.167  1.00  0.00     0.294 HD
ENDBRANCH  10  23
BRANCH   5  25
ATOM     25  O   UNL     1      26.505  51.125   1.939  1.00  0.00    -0.507 OA
ATOM     26  H   UNL     1      27.386  50.632   1.845  1.00  0.00     0.293 HD
ENDBRANCH   5  25
BRANCH   7  27
ATOM     27  O   UNL     1      25.474  51.114  -2.766  1.00  0.00    -0.507 OA
ATOM     28  H   UNL     1      25.783  51.939  -3.260  1.00  0.00     0.293 HD
ENDBRANCH   7  27
TORSDOF 7
ENDMDL
MODEL 4
REMARK VINA RESULT:     0.476      2.118      3.292
REMARK INTER + INTRA:           0.294
REMARK INTER:                  -0.149
REMARK INTRA:                   0.443
REMARK UNBOUND:                -0.293
REMARK SMILES Oc1cc(O)c2cc(O)c(-c3cc(O)c(O)c(O)c3)[o+]c2c1.[Cl-]
REMARK SMILES IDX 10 1 20 2 21 3 22 4 2 5 3 6 4 7 6 8 7 9 8 10 11 11 12 12
REMARK SMILES IDX 13 13 19 14 15 15 17 16 14 17 16 19 18 21 9 23 1 25 5 27
REMARK H PARENT 14 18 16 20 18 22 9 24 1 26 5 28
REMARK Flexibility Score: inf
ROOT
ATOM      1  C   UNL     1      24.655  35.737  13.830  1.00  0.00     0.402 A 
ATOM      2  O   UNL     1      25.499  34.972  14.518  1.00  0.00    -0.202 OA
ATOM      3  C   UNL     1      25.627  33.665  14.319  1.00  0.00     0.368 A 
ATOM      4  C   UNL     1      26.545  32.947  15.090  1.00  0.00     0.162 A 
ATOM      5  C   UNL     1      26.702  31.573  14.901  1.00  0.00     0.128 A 
ATOM      6  C   UNL     1      25.939  30.911  13.934  1.00  0.00     0.093 A 
ATOM      7  C   UNL     1      25.013  31.608  13.148  1.00  0.00     0.136 A 
ATOM      8  C   UNL     1      24.848  33.005  13.339  1.00  0.00     0.125 A 
ATOM      9  C   UNL     1      23.935  33.782  12.607  1.00  0.00     0.078 A 
ATOM     10  C   UNL     1      23.825  35.154  12.855  1.00  0.00     0.223 A 
ENDROOT
BRANCH   1  11
ATOM     11  C   UNL     1      24.612  37.185  14.137  1.00  0.00     0.091 A 
ATOM     12  C   UNL     1      23.573  37.971  13.613  1.00  0.00     0.068 A 
ATOM     13  C   UNL     1      23.499  39.340  13.905  1.00  0.00     0.162 A 
ATOM     14  C   UNL     1      25.558  37.782  14.988  1.00  0.00     0.068 A 
ATOM     15  C   UNL     1      24.458  39.933  14.737  1.00  0.00     0.200 A 
ATOM     16  C   UNL     1      25.488  39.150  15.284  1.00  0.00     0.162 A 
BRANCH  13  17
ATOM     17  O   UNL     1      22.474  40.119  13.371  1.00  0.00    -0.504 OA
ATOM     18  H   UNL     1      22.624  41.086  13.109  1.00  0.00     0.293 HD
ENDBRANCH  13  17
BRANCH  15  19
ATOM     19  O   UNL     1      24.369  41.298  15.014  1.00  0.00    -0.502 OA
ATOM     20  H   UNL     1      25.121  41.941  14.798  1.00  0.00     0.293 HD
ENDBRANCH  15  19
BRANCH  16  21
ATOM     21  O   UNL     1      26.436  39.733  16.125  1.00  0.00    -0.504 OA
ATOM     22  H   UNL     1      27.426  39.556  16.012  1.00  0.00     0.293 HD
ENDBRANCH  16  21
ENDBRANCH   1  11
BRANCH  10  23
ATOM     23  O   UNL     1      22.884  35.916  12.164  1.00  0.00    -0.500 OA
ATOM     24  H   UNL     1      21.900  35.676  12.164  1.00  0.00     0.294 HD
ENDBRANCH  10  23
BRANCH   5  25
ATOM     25  O   UNL     1      27.622  30.875  15.680  1.00  0.00    -0.507 OA
ATOM     26  H   UNL     1      27.901  29.928  15.449  1.00  0.00     0.293 HD
ENDBRANCH   5  25
BRANCH   7  27
ATOM     27  O   UNL     1      24.291  30.875  12.201  1.00  0.00    -0.507 OA
ATOM     28  H   UNL     1      24.689  30.477  11.363  1.00  0.00     0.293 HD
ENDBRANCH   7  27
TORSDOF 7
ENDMDL
MODEL 5
REMARK VINA RESULT:     0.492      2.258      3.588
REMARK INTER + INTRA:           0.314
REMARK INTER:                   0.489
REMARK INTRA:                  -0.175
REMARK UNBOUND:                -0.293
REMARK SMILES Oc1cc(O)c2cc(O)c(-c3cc(O)c(O)c(O)c3)[o+]c2c1.[Cl-]
REMARK SMILES IDX 10 1 20 2 21 3 22 4 2 5 3 6 4 7 6 8 7 9 8 10 11 11 12 12
REMARK SMILES IDX 13 13 19 14 15 15 17 16 14 17 16 19 18 21 9 23 1 25 5 27
REMARK H PARENT 14 18 16 20 18 22 9 24 1 26 5 28
REMARK Flexibility Score: inf
ROOT
ATOM      1  C   UNL     1      23.889  35.811  14.715  1.00  0.00     0.402 A 
ATOM      2  O   UNL     1      24.916  35.035  14.375  1.00  0.00    -0.202 OA
ATOM      3  C   UNL     1      24.850  33.708  14.348  1.00  0.00     0.368 A 
ATOM      4  C   UNL     1      25.983  32.979  13.974  1.00  0.00     0.162 A 
ATOM      5  C   UNL     1      25.942  31.585  13.935  1.00  0.00     0.128 A 
ATOM      6  C   UNL     1      24.762  30.912  14.271  1.00  0.00     0.093 A 
ATOM      7  C   UNL     1      23.614  31.620  14.648  1.00  0.00     0.136 A 
ATOM      8  C   UNL     1      23.652  33.038  14.692  1.00  0.00     0.125 A 
ATOM      9  C   UNL     1      22.555  33.829  15.072  1.00  0.00     0.078 A 
ATOM     10  C   UNL     1      22.669  35.222  15.095  1.00  0.00     0.223 A 
ENDROOT
BRANCH   1  11
ATOM     11  C   UNL     1      24.084  37.278  14.695  1.00  0.00     0.091 A 
ATOM     12  C   UNL     1      25.149  37.843  15.415  1.00  0.00     0.068 A 
ATOM     13  C   UNL     1      25.366  39.227  15.396  1.00  0.00     0.162 A 
ATOM     14  C   UNL     1      23.259  38.117  13.925  1.00  0.00     0.068 A 
ATOM     15  C   UNL     1      24.527  40.060  14.645  1.00  0.00     0.200 A 
ATOM     16  C   UNL     1      23.473  39.501  13.902  1.00  0.00     0.162 A 
BRANCH  13  17
ATOM     17  O   UNL     1      26.416  39.785  16.125  1.00  0.00    -0.504 OA
ATOM     18  H   UNL     1      26.252  40.301  16.981  1.00  0.00     0.293 HD
ENDBRANCH  13  17
BRANCH  15  19
ATOM     19  O   UNL     1      24.757  41.436  14.641  1.00  0.00    -0.502 OA
ATOM     20  H   UNL     1      24.048  42.101  14.923  1.00  0.00     0.293 HD
ENDBRANCH  15  19
BRANCH  16  21
ATOM     21  O   UNL     1      22.644  40.325  13.140  1.00  0.00    -0.504 OA
ATOM     22  H   UNL     1      23.010  41.120  12.630  1.00  0.00     0.293 HD
ENDBRANCH  16  21
ENDBRANCH   1  11
BRANCH  10  23
ATOM     23  O   UNL     1      21.596  36.005  15.519  1.00  0.00    -0.500 OA
ATOM     24  H   UNL     1      21.163  35.870  16.425  1.00  0.00     0.294 HD
ENDBRANCH  10  23
BRANCH   5  25
ATOM     25  O   UNL     1      27.081  30.876  13.560  1.00  0.00    -0.507 OA
ATOM     26  H   UNL     1      27.939  30.928  14.098  1.00  0.00     0.293 HD
ENDBRANCH   5  25
BRANCH   7  27
ATOM     27  O   UNL     1      22.474  30.875  14.966  1.00  0.00    -0.507 OA
ATOM     28  H   UNL     1      22.477  30.044  15.539  1.00  0.00     0.293 HD
ENDBRANCH   7  27
TORSDOF 7
ENDMDL
MODEL 6
REMARK VINA RESULT:     0.891     18.484     20.817
REMARK INTER + INTRA:           0.806
REMARK INTER:                   0.335
REMARK INTRA:                   0.471
REMARK UNBOUND:                -0.293
REMARK SMILES Oc1cc(O)c2cc(O)c(-c3cc(O)c(O)c(O)c3)[o+]c2c1.[Cl-]
REMARK SMILES IDX 10 1 20 2 21 3 22 4 2 5 3 6 4 7 6 8 7 9 8 10 11 11 12 12
REMARK SMILES IDX 13 13 19 14 15 15 17 16 14 17 16 19 18 21 9 23 1 25 5 27
REMARK H PARENT 14 18 16 20 18 22 9 24 1 26 5 28
REMARK Flexibility Score: inf
ROOT
ATOM      1  C   UNL     1      21.469  51.100   1.401  1.00  0.00     0.402 A 
ATOM      2  O   UNL     1      21.932  51.043   2.648  1.00  0.00    -0.202 OA
ATOM      3  C   UNL     1      23.227  51.033   2.945  1.00  0.00     0.368 A 
ATOM      4  C   UNL     1      23.616  50.976   4.287  1.00  0.00     0.162 A 
ATOM      5  C   UNL     1      24.969  50.967   4.628  1.00  0.00     0.128 A 
ATOM      6  C   UNL     1      25.942  51.016   3.624  1.00  0.00     0.093 A 
ATOM      7  C   UNL     1      25.578  51.075   2.273  1.00  0.00     0.136 A 
ATOM      8  C   UNL     1      24.203  51.081   1.921  1.00  0.00     0.125 A 
ATOM      9  C   UNL     1      23.746  51.125   0.593  1.00  0.00     0.078 A 
ATOM     10  C   UNL     1      22.373  51.125   0.324  1.00  0.00     0.223 A 
ENDROOT
BRANCH   1  11
ATOM     11  C   UNL     1      20.002  51.117   1.199  1.00  0.00     0.091 A 
ATOM     12  C   UNL     1      19.485  51.077  -0.105  1.00  0.00     0.068 A 
ATOM     13  C   UNL     1      18.101  51.072  -0.322  1.00  0.00     0.162 A 
ATOM     14  C   UNL     1      19.113  51.115   2.288  1.00  0.00     0.068 A 
ATOM     15  C   UNL     1      17.219  51.092   0.766  1.00  0.00     0.200 A 
ATOM     16  C   UNL     1      17.727  51.109   2.076  1.00  0.00     0.162 A 
BRANCH  13  17
ATOM     17  O   UNL     1      17.592  51.047  -1.620  1.00  0.00    -0.504 OA
ATOM     18  H   UNL     1      18.057  50.537  -2.363  1.00  0.00     0.293 HD
ENDBRANCH  13  17
BRANCH  15  19
ATOM     19  O   UNL     1      15.844  51.090   0.529  1.00  0.00    -0.502 OA
ATOM     20  H   UNL     1      15.314  50.231   0.444  1.00  0.00     0.293 HD
ENDBRANCH  15  19
BRANCH  16  21
ATOM     21  O   UNL     1      16.853  51.114   3.163  1.00  0.00    -0.504 OA
ATOM     22  H   UNL     1      15.981  51.629   3.140  1.00  0.00     0.293 HD
ENDBRANCH  16  21
ENDBRANCH   1  11
BRANCH  10  23
ATOM     23  O   UNL     1      21.920  51.117  -0.994  1.00  0.00    -0.500 OA
ATOM     24  H   UNL     1      20.939  51.229  -1.221  1.00  0.00     0.294 HD
ENDBRANCH  10  23
BRANCH   5  25
ATOM     25  O   UNL     1      25.336  50.908   5.971  1.00  0.00    -0.507 OA
ATOM     26  H   UNL     1      26.084  50.302   6.290  1.00  0.00     0.293 HD
ENDBRANCH   5  25
BRANCH   7  27
ATOM     27  O   UNL     1      26.609  51.125   1.330  1.00  0.00    -0.507 OA
ATOM     28  H   UNL     1      27.499  50.658   1.433  1.00  0.00     0.293 HD
ENDBRANCH   7  27
TORSDOF 7
ENDMDL
MODEL 7
REMARK VINA RESULT:     1.050     20.390     22.112
REMARK INTER + INTRA:           1.002
REMARK INTER:                   0.618
REMARK INTRA:                   0.385
REMARK UNBOUND:                -0.293
REMARK SMILES Oc1cc(O)c2cc(O)c(-c3cc(O)c(O)c(O)c3)[o+]c2c1.[Cl-]
REMARK SMILES IDX 10 1 20 2 21 3 22 4 2 5 3 6 4 7 6 8 7 9 8 10 11 11 12 12
REMARK SMILES IDX 13 13 19 14 15 15 17 16 14 17 16 19 18 21 9 23 1 25 5 27
REMARK H PARENT 14 18 16 20 18 22 9 24 1 26 5 28
REMARK Flexibility Score: inf
ROOT
ATOM      1  C   UNL     1      21.507  51.092  -0.284  1.00  0.00     0.402 A 
ATOM      2  O   UNL     1      20.924  51.112   0.913  1.00  0.00    -0.202 OA
ATOM      3  C   UNL     1      19.607  51.092   1.084  1.00  0.00     0.368 A 
ATOM      4  C   UNL     1      19.090  51.113   2.382  1.00  0.00     0.162 A 
ATOM      5  C   UNL     1      17.710  51.090   2.591  1.00  0.00     0.128 A 
ATOM      6  C   UNL     1      16.840  51.047   1.496  1.00  0.00     0.093 A 
ATOM      7  C   UNL     1      17.333  51.025   0.186  1.00  0.00     0.136 A 
ATOM      8  C   UNL     1      18.736  51.051  -0.031  1.00  0.00     0.125 A 
ATOM      9  C   UNL     1      19.320  51.045  -1.309  1.00  0.00     0.078 A 
ATOM     10  C   UNL     1      20.711  51.076  -1.444  1.00  0.00     0.223 A 
ENDROOT
BRANCH   1  11
ATOM     11  C   UNL     1      22.986  51.106  -0.343  1.00  0.00     0.091 A 
ATOM     12  C   UNL     1      23.724  51.109   0.852  1.00  0.00     0.068 A 
ATOM     13  C   UNL     1      25.125  51.102   0.823  1.00  0.00     0.162 A 
ATOM     14  C   UNL     1      23.671  51.059  -1.570  1.00  0.00     0.068 A 
ATOM     15  C   UNL     1      25.802  51.078  -0.403  1.00  0.00     0.200 A 
ATOM     16  C   UNL     1      25.072  51.051  -1.604  1.00  0.00     0.162 A 
BRANCH  13  17
ATOM     17  O   UNL     1      25.854  51.120   2.011  1.00  0.00    -0.504 OA
ATOM     18  H   UNL     1      25.856  50.328   2.644  1.00  0.00     0.293 HD
ENDBRANCH  13  17
BRANCH  15  19
ATOM     19  O   UNL     1      27.197  51.074  -0.412  1.00  0.00    -0.502 OA
ATOM     20  H   UNL     1      27.739  50.535   0.254  1.00  0.00     0.293 HD
ENDBRANCH  15  19
BRANCH  16  21
ATOM     21  O   UNL     1      25.742  51.011  -2.827  1.00  0.00    -0.504 OA
ATOM     22  H   UNL     1      26.548  50.415  -2.971  1.00  0.00     0.293 HD
ENDBRANCH  16  21
ENDBRANCH   1  11
BRANCH  10  23
ATOM     23  O   UNL     1      21.290  51.121  -2.712  1.00  0.00    -0.500 OA
ATOM     24  H   UNL     1      22.143  50.619  -2.927  1.00  0.00     0.294 HD
ENDBRANCH  10  23
BRANCH   5  25
ATOM     25  O   UNL     1      17.214  51.111   3.892  1.00  0.00    -0.507 OA
ATOM     26  H   UNL     1      16.252  50.863   4.096  1.00  0.00     0.293 HD
ENDBRANCH   5  25
BRANCH   7  27
ATOM     27  O   UNL     1      16.399  50.978  -0.854  1.00  0.00    -0.507 OA
ATOM     28  H   UNL     1      15.453  50.639  -0.755  1.00  0.00     0.293 HD
ENDBRANCH   7  27
TORSDOF 7
ENDMDL
