MODEL 1
REMARK VINA RESULT:    -2.764      0.000      0.000
REMARK INTER + INTRA:          -5.110
REMARK INTER:                  -4.380
REMARK INTRA:                  -0.730
REMARK UNBOUND:                -0.730
REMARK SMILES CCCCCCCCCCCC(=O)[O-]
REMARK SMILES IDX 7 1 8 2 9 3 10 4 11 5 12 6 13 7 14 8 6 9 5 10 4 11 3 12 2 13
REMARK SMILES IDX 1 14
REMARK H PARENT
REMARK Flexibility Score: inf
ROOT
ATOM      1  C   UNL     1      -1.689  59.014  -4.860  1.00  0.00     0.000 C 
ENDROOT
BRANCH   1   2
ATOM      2  C   UNL     1      -0.351  59.335  -5.548  1.00  0.00     0.000 C 
BRANCH   2   3
ATOM      3  C   UNL     1       0.666  60.001  -4.605  1.00  0.00     0.000 C 
BRANCH   3   4
ATOM      4  C   UNL     1       2.003  60.316  -5.307  1.00  0.00     0.006 C 
BRANCH   4   5
ATOM      5  C   UNL     1       2.579  59.129  -6.093  1.00  0.00     0.053 C 
BRANCH   5   6
ATOM      6  C   UNL     1       3.427  59.566  -7.247  1.00  0.00     0.041 C 
ATOM      7  O   UNL     1       4.440  58.895  -7.578  1.00  0.00    -0.550 OA
ATOM      8  O   UNL     1       3.115  60.728  -7.940  1.00  0.00    -0.550 OA
ENDBRANCH   5   6
ENDBRANCH   4   5
ENDBRANCH   3   4
ENDBRANCH   2   3
ENDBRANCH   1   2
BRANCH   1   9
ATOM      9  C   UNL     1      -2.307  60.174  -4.057  1.00  0.00     0.000 C 
BRANCH   9  10
ATOM     10  C   UNL     1      -3.557  60.767  -4.728  1.00  0.00    -0.000 C 
BRANCH  10  11
ATOM     11  C   UNL     1      -4.283  59.752  -5.625  1.00  0.00    -0.000 C 
BRANCH  11  12
ATOM     12  C   UNL     1      -4.775  60.369  -6.944  1.00  0.00    -0.000 C 
BRANCH  12  13
ATOM     13  C   UNL     1      -4.493  59.433  -8.125  1.00  0.00    -0.003 C 
ATOM     14  C   UNL     1      -3.067  58.895  -8.075  1.00  0.00     0.004 C 
ENDBRANCH  12  13
ENDBRANCH  11  12
ENDBRANCH  10  11
ENDBRANCH   9  10
ENDBRANCH   1   9
TORSDOF 10
ENDMDL
MODEL 2
REMARK VINA RESULT:    -2.010      3.181      6.426
REMARK INTER + INTRA:          -3.914
REMARK INTER:                  -3.632
REMARK INTRA:                  -0.283
REMARK UNBOUND:                -0.730
REMARK SMILES CCCCCCCCCCCC(=O)[O-]
REMARK SMILES IDX 7 1 8 2 9 3 10 4 11 5 12 6 13 7 14 8 6 9 5 10 4 11 3 12 2 13
REMARK SMILES IDX 1 14
REMARK H PARENT
REMARK Flexibility Score: inf
ROOT
ATOM      1  C   UNL     1       0.120  60.075  -4.163  1.00  0.00     0.000 C 
ENDROOT
BRANCH   1   2
ATOM      2  C   UNL     1      -1.298  59.653  -4.586  1.00  0.00     0.000 C 
BRANCH   2   3
ATOM      3  C   UNL     1      -2.276  59.565  -3.402  1.00  0.00     0.000 C 
BRANCH   3   4
ATOM      4  C   UNL     1      -3.726  59.295  -3.854  1.00  0.00     0.006 C 
BRANCH   4   5
ATOM      5  C   UNL     1      -3.848  58.924  -5.340  1.00  0.00     0.053 C 
BRANCH   5   6
ATOM      6  C   UNL     1      -4.049  60.124  -6.213  1.00  0.00     0.041 C 
ATOM      7  O   UNL     1      -4.392  61.225  -5.706  1.00  0.00    -0.550 OA
ATOM      8  O   UNL     1      -3.883  60.020  -7.588  1.00  0.00    -0.550 OA
ENDBRANCH   5   6
ENDBRANCH   4   5
ENDBRANCH   3   4
ENDBRANCH   2   3
ENDBRANCH   1   2
BRANCH   1   9
ATOM      9  C   UNL     1       1.247  59.628  -5.113  1.00  0.00     0.000 C 
BRANCH   9  10
ATOM     10  C   UNL     1       0.725  58.876  -6.349  1.00  0.00    -0.000 C 
BRANCH  10  11
ATOM     11  C   UNL     1       1.695  58.950  -7.539  1.00  0.00    -0.000 C 
BRANCH  11  12
ATOM     12  C   UNL     1       3.035  59.606  -7.174  1.00  0.00    -0.000 C 
BRANCH  12  13
ATOM     13  C   UNL     1       4.147  59.145  -8.125  1.00  0.00    -0.003 C 
ATOM     14  C   UNL     1       5.502  59.705  -7.703  1.00  0.00     0.004 C 
ENDBRANCH  12  13
ENDBRANCH  11  12
ENDBRANCH  10  11
ENDBRANCH   9  10
ENDBRANCH   1   9
TORSDOF 10
ENDMDL
MODEL 3
REMARK VINA RESULT:    -1.675      1.137      1.725
REMARK INTER + INTRA:          -3.385
REMARK INTER:                  -2.912
REMARK INTRA:                  -0.472
REMARK UNBOUND:                -0.730
REMARK SMILES CCCCCCCCCCCC(=O)[O-]
REMARK SMILES IDX 7 1 8 2 9 3 10 4 11 5 12 6 13 7 14 8 6 9 5 10 4 11 3 12 2 13
REMARK SMILES IDX 1 14
REMARK H PARENT
REMARK Flexibility Score: inf
ROOT
ATOM      1  C   UNL     1      -0.165  60.366  -3.195  1.00  0.00     0.000 C 
ENDROOT
BRANCH   1   2
ATOM      2  C   UNL     1       0.904  59.877  -4.190  1.00  0.00     0.000 C 
BRANCH   2   3
ATOM      3  C   UNL     1       0.328  59.554  -5.579  1.00  0.00     0.000 C 
BRANCH   3   4
ATOM      4  C   UNL     1       1.385  58.953  -6.529  1.00  0.00     0.006 C 
BRANCH   4   5
ATOM      5  C   UNL     1       2.824  59.372  -6.193  1.00  0.00     0.053 C 
BRANCH   5   6
ATOM      6  C   UNL     1       3.523  59.998  -7.359  1.00  0.00     0.041 C 
ATOM      7  O   UNL     1       4.708  59.672  -7.636  1.00  0.00    -0.550 OA
ATOM      8  O   UNL     1       2.877  60.959  -8.125  1.00  0.00    -0.550 OA
ENDBRANCH   5   6
ENDBRANCH   4   5
ENDBRANCH   3   4
ENDBRANCH   2   3
ENDBRANCH   1   2
BRANCH   1   9
ATOM      9  C   UNL     1      -1.603  60.402  -3.745  1.00  0.00     0.000 C 
BRANCH   9  10
ATOM     10  C   UNL     1      -2.399  59.127  -3.424  1.00  0.00    -0.000 C 
BRANCH  10  11
ATOM     11  C   UNL     1      -3.858  59.206  -3.900  1.00  0.00    -0.000 C 
BRANCH  11  12
ATOM     12  C   UNL     1      -4.015  58.876  -5.393  1.00  0.00    -0.000 C 
BRANCH  12  13
ATOM     13  C   UNL     1      -4.085  60.157  -6.232  1.00  0.00    -0.003 C 
ATOM     14  C   UNL     1      -5.044  59.996  -7.408  1.00  0.00     0.004 C 
ENDBRANCH  12  13
ENDBRANCH  11  12
ENDBRANCH  10  11
ENDBRANCH   9  10
ENDBRANCH   1   9
TORSDOF 10
ENDMDL
MODEL 4
REMARK VINA RESULT:    -1.666     19.882     21.484
REMARK INTER + INTRA:          -3.370
REMARK INTER:                  -2.968
REMARK INTRA:                  -0.402
REMARK UNBOUND:                -0.730
REMARK SMILES CCCCCCCCCCCC(=O)[O-]
REMARK SMILES IDX 7 1 8 2 9 3 10 4 11 5 12 6 13 7 14 8 6 9 5 10 4 11 3 12 2 13
REMARK SMILES IDX 1 14
REMARK H PARENT
REMARK Flexibility Score: inf
ROOT
ATOM      1  C   UNL     1       4.565  76.712   3.559  1.00  0.00     0.000 C 
ENDROOT
BRANCH   1   2
ATOM      2  C   UNL     1       4.281  77.128   5.014  1.00  0.00     0.000 C 
BRANCH   2   3
ATOM      3  C   UNL     1       2.783  77.103   5.364  1.00  0.00     0.000 C 
BRANCH   3   4
ATOM      4  C   UNL     1       2.507  77.576   6.806  1.00  0.00     0.006 C 
BRANCH   4   5
ATOM      5  C   UNL     1       3.545  77.081   7.825  1.00  0.00     0.053 C 
BRANCH   5   6
ATOM      6  C   UNL     1       3.527  77.878   9.091  1.00  0.00     0.041 C 
ATOM      7  O   UNL     1       3.352  79.125   9.052  1.00  0.00    -0.550 OA
ATOM      8  O   UNL     1       3.729  77.250  10.313  1.00  0.00    -0.550 OA
ENDBRANCH   5   6
ENDBRANCH   4   5
ENDBRANCH   3   4
ENDBRANCH   2   3
ENDBRANCH   1   2
BRANCH   1   9
ATOM      9  C   UNL     1       5.769  77.412   2.901  1.00  0.00     0.000 C 
BRANCH   9  10
ATOM     10  C   UNL     1       5.765  77.294   1.368  1.00  0.00    -0.000 C 
BRANCH  10  11
ATOM     11  C   UNL     1       6.625  76.124   0.864  1.00  0.00    -0.000 C 
BRANCH  11  12
ATOM     12  C   UNL     1       5.875  74.783   0.882  1.00  0.00    -0.000 C 
BRANCH  12  13
ATOM     13  C   UNL     1       4.637  74.837  -0.022  1.00  0.00    -0.003 C 
ATOM     14  C   UNL     1       4.677  73.736  -1.078  1.00  0.00     0.004 C 
ENDBRANCH  12  13
ENDBRANCH  11  12
ENDBRANCH  10  11
ENDBRANCH   9  10
ENDBRANCH   1   9
TORSDOF 10
ENDMDL
MODEL 5
REMARK VINA RESULT:    -1.381     19.077     20.625
REMARK INTER + INTRA:          -2.919
REMARK INTER:                  -2.508
REMARK INTRA:                  -0.411
REMARK UNBOUND:                -0.730
REMARK SMILES CCCCCCCCCCCC(=O)[O-]
REMARK SMILES IDX 7 1 8 2 9 3 10 4 11 5 12 6 13 7 14 8 6 9 5 10 4 11 3 12 2 13
REMARK SMILES IDX 1 14
REMARK H PARENT
REMARK Flexibility Score: inf
ROOT
ATOM      1  C   UNL     1       4.643  77.496   3.793  1.00  0.00     0.000 C 
ENDROOT
BRANCH   1   2
ATOM      2  C   UNL     1       5.372  76.493   2.880  1.00  0.00     0.000 C 
BRANCH   2   3
ATOM      3  C   UNL     1       5.910  77.137   1.590  1.00  0.00     0.000 C 
BRANCH   3   4
ATOM      4  C   UNL     1       6.560  76.106   0.644  1.00  0.00     0.006 C 
BRANCH   4   5
ATOM      5  C   UNL     1       6.049  74.672   0.853  1.00  0.00     0.053 C 
BRANCH   5   6
ATOM      6  C   UNL     1       4.978  74.300  -0.124  1.00  0.00     0.041 C 
ATOM      7  O   UNL     1       3.928  74.990  -0.206  1.00  0.00    -0.550 OA
ATOM      8  O   UNL     1       5.128  73.176  -0.927  1.00  0.00    -0.550 OA
ENDBRANCH   5   6
ENDBRANCH   4   5
ENDBRANCH   3   4
ENDBRANCH   2   3
ENDBRANCH   1   2
BRANCH   1   9
ATOM      9  C   UNL     1       4.023  76.891   5.067  1.00  0.00     0.000 C 
BRANCH   9  10
ATOM     10  C   UNL     1       2.561  77.316   5.281  1.00  0.00    -0.000 C 
BRANCH  10  11
ATOM     11  C   UNL     1       2.278  77.749   6.728  1.00  0.00    -0.000 C 
BRANCH  11  12
ATOM     12  C   UNL     1       3.370  77.296   7.709  1.00  0.00    -0.000 C 
BRANCH  12  13
ATOM     13  C   UNL     1       3.551  78.319   8.837  1.00  0.00    -0.003 C 
ATOM     14  C   UNL     1       3.846  77.629  10.166  1.00  0.00     0.004 C 
ENDBRANCH  12  13
ENDBRANCH  11  12
ENDBRANCH  10  11
ENDBRANCH   9  10
ENDBRANCH   1   9
TORSDOF 10
ENDMDL
MODEL 6
REMARK VINA RESULT:    -1.304     20.845     22.362
REMARK INTER + INTRA:          -2.796
REMARK INTER:                  -2.397
REMARK INTRA:                  -0.399
REMARK UNBOUND:                -0.730
REMARK SMILES CCCCCCCCCCCC(=O)[O-]
REMARK SMILES IDX 7 1 8 2 9 3 10 4 11 5 12 6 13 7 14 8 6 9 5 10 4 11 3 12 2 13
REMARK SMILES IDX 1 14
REMARK H PARENT
REMARK Flexibility Score: inf
ROOT
ATOM      1  C   UNL     1       3.785  76.931   5.259  1.00  0.00     0.000 C 
ENDROOT
BRANCH   1   2
ATOM      2  C   UNL     1       2.345  77.218   5.722  1.00  0.00     0.000 C 
BRANCH   2   3
ATOM      3  C   UNL     1       2.283  78.131   6.958  1.00  0.00     0.000 C 
BRANCH   3   4
ATOM      4  C   UNL     1       3.344  77.764   8.016  1.00  0.00     0.006 C 
BRANCH   4   5
ATOM      5  C   UNL     1       3.491  78.813   9.129  1.00  0.00     0.053 C 
BRANCH   5   6
ATOM      6  C   UNL     1       3.798  78.196  10.458  1.00  0.00     0.041 C 
ATOM      7  O   UNL     1       3.397  77.033  10.723  1.00  0.00    -0.550 OA
ATOM      8  O   UNL     1       4.505  78.915  11.413  1.00  0.00    -0.550 OA
ENDBRANCH   5   6
ENDBRANCH   4   5
ENDBRANCH   3   4
ENDBRANCH   2   3
ENDBRANCH   1   2
BRANCH   1   9
ATOM      9  C   UNL     1       4.126  77.419   3.839  1.00  0.00     0.000 C 
BRANCH   9  10
ATOM     10  C   UNL     1       5.399  76.769   3.272  1.00  0.00    -0.000 C 
BRANCH  10  11
ATOM     11  C   UNL     1       5.789  77.333   1.897  1.00  0.00    -0.000 C 
BRANCH  11  12
ATOM     12  C   UNL     1       6.212  76.240   0.904  1.00  0.00    -0.000 C 
BRANCH  12  13
ATOM     13  C   UNL     1       5.374  74.970   1.098  1.00  0.00    -0.003 C 
ATOM     14  C   UNL     1       5.095  74.282  -0.235  1.00  0.00     0.004 C 
ENDBRANCH  12  13
ENDBRANCH  11  12
ENDBRANCH  10  11
ENDBRANCH   9  10
ENDBRANCH   1   9
TORSDOF 10
ENDMDL
MODEL 7
REMARK VINA RESULT:    -1.017     19.938     21.444
REMARK INTER + INTRA:          -2.341
REMARK INTER:                  -1.986
REMARK INTRA:                  -0.355
REMARK UNBOUND:                -0.730
REMARK SMILES CCCCCCCCCCCC(=O)[O-]
REMARK SMILES IDX 7 1 8 2 9 3 10 4 11 5 12 6 13 7 14 8 6 9 5 10 4 11 3 12 2 13
REMARK SMILES IDX 1 14
REMARK H PARENT
REMARK Flexibility Score: inf
ROOT
ATOM      1  C   UNL     1       3.902  76.880   5.164  1.00  0.00     0.000 C 
ENDROOT
BRANCH   1   2
ATOM      2  C   UNL     1       4.430  77.479   3.848  1.00  0.00     0.000 C 
BRANCH   2   3
ATOM      3  C   UNL     1       5.362  76.523   3.084  1.00  0.00     0.000 C 
BRANCH   3   4
ATOM      4  C   UNL     1       5.721  77.048   1.679  1.00  0.00     0.006 C 
BRANCH   4   5
ATOM      5  C   UNL     1       6.346  75.981   0.766  1.00  0.00     0.053 C 
BRANCH   5   6
ATOM      6  C   UNL     1       5.437  74.810   0.553  1.00  0.00     0.041 C 
ATOM      7  O   UNL     1       5.788  73.661   0.930  1.00  0.00    -0.550 OA
ATOM      8  O   UNL     1       4.215  74.983  -0.084  1.00  0.00    -0.550 OA
ENDBRANCH   5   6
ENDBRANCH   4   5
ENDBRANCH   3   4
ENDBRANCH   2   3
ENDBRANCH   1   2
BRANCH   1   9
ATOM      9  C   UNL     1       2.458  77.272   5.529  1.00  0.00     0.000 C 
BRANCH   9  10
ATOM     10  C   UNL     1       2.357  77.994   6.882  1.00  0.00    -0.000 C 
BRANCH  10  11
ATOM     11  C   UNL     1       3.482  77.593   7.850  1.00  0.00    -0.000 C 
BRANCH  11  12
ATOM     12  C   UNL     1       3.509  78.457   9.121  1.00  0.00    -0.000 C 
BRANCH  12  13
ATOM     13  C   UNL     1       3.797  77.599  10.359  1.00  0.00    -0.003 C 
ATOM     14  C   UNL     1       4.286  78.456  11.523  1.00  0.00     0.004 C 
ENDBRANCH  12  13
ENDBRANCH  11  12
ENDBRANCH  10  11
ENDBRANCH   9  10
ENDBRANCH   1   9
TORSDOF 10
ENDMDL
MODEL 8
REMARK VINA RESULT:    -0.977      3.766      4.310
REMARK INTER + INTRA:          -2.279
REMARK INTER:                  -1.546
REMARK INTRA:                  -0.733
REMARK UNBOUND:                -0.730
REMARK SMILES CCCCCCCCCCCC(=O)[O-]
REMARK SMILES IDX 7 1 8 2 9 3 10 4 11 5 12 6 13 7 14 8 6 9 5 10 4 11 3 12 2 13
REMARK SMILES IDX 1 14
REMARK H PARENT
REMARK Flexibility Score: inf
ROOT
ATOM      1  C   UNL     1      -1.831  60.146  -3.780  1.00  0.00     0.000 C 
ENDROOT
BRANCH   1   2
ATOM      2  C   UNL     1      -0.648  59.898  -4.733  1.00  0.00     0.000 C 
BRANCH   2   3
ATOM      3  C   UNL     1       0.719  60.105  -4.060  1.00  0.00     0.000 C 
BRANCH   3   4
ATOM      4  C   UNL     1       0.593  60.671  -2.631  1.00  0.00     0.006 C 
BRANCH   4   5
ATOM      5  C   UNL     1       1.243  59.783  -1.558  1.00  0.00     0.053 C 
BRANCH   5   6
ATOM      6  C   UNL     1       0.803  60.147  -0.174  1.00  0.00     0.041 C 
ATOM      7  O   UNL     1      -0.077  59.463   0.411  1.00  0.00    -0.550 OA
ATOM      8  O   UNL     1       1.347  61.256   0.461  1.00  0.00    -0.550 OA
ENDBRANCH   5   6
ENDBRANCH   4   5
ENDBRANCH   3   4
ENDBRANCH   2   3
ENDBRANCH   1   2
BRANCH   1   9
ATOM      9  C   UNL     1      -2.686  58.905  -3.461  1.00  0.00     0.000 C 
BRANCH   9  10
ATOM     10  C   UNL     1      -4.120  59.010  -4.007  1.00  0.00    -0.000 C 
BRANCH  10  11
ATOM     11  C   UNL     1      -4.178  58.894  -5.538  1.00  0.00    -0.000 C 
BRANCH  11  12
ATOM     12  C   UNL     1      -4.448  60.240  -6.227  1.00  0.00    -0.000 C 
BRANCH  12  13
ATOM     13  C   UNL     1      -4.060  60.184  -7.710  1.00  0.00    -0.003 C 
ATOM     14  C   UNL     1      -3.252  58.928  -8.022  1.00  0.00     0.004 C 
ENDBRANCH  12  13
ENDBRANCH  11  12
ENDBRANCH  10  11
ENDBRANCH   9  10
ENDBRANCH   1   9
TORSDOF 10
ENDMDL
