MODEL 1
REMARK VINA RESULT:    -4.678      0.000      0.000
REMARK INTER + INTRA:          -5.971
REMARK INTER:                  -5.635
REMARK INTRA:                  -0.336
REMARK UNBOUND:                -0.336
REMARK SMILES Oc1cc(O)c2cc(O)c(-c3ccc(O)c(O)c3)[o+]c2c1.[Cl-]
REMARK SMILES IDX 10 1 19 2 20 3 21 4 2 5 3 6 4 7 6 8 7 9 8 10 11 11 12 12
REMARK SMILES IDX 13 13 14 14 18 15 16 16 15 17 17 19 9 21 1 23 5 25
REMARK H PARENT 15 18 17 20 9 22 1 24 5 26
REMARK Flexibility Score: inf
ROOT
ATOM      1  C   UNL     1      99.029 109.276 108.727  1.00  0.00     0.402 A 
ATOM      2  O   UNL     1      98.235 110.215 108.218  1.00  0.00    -0.202 OA
ATOM      3  C   UNL     1      98.689 111.290 107.583  1.00  0.00     0.368 A 
ATOM      4  C   UNL     1      97.774 112.220 107.081  1.00  0.00     0.162 A 
ATOM      5  C   UNL     1      98.225 113.358 106.405  1.00  0.00     0.128 A 
ATOM      6  C   UNL     1      99.595 113.566 106.230  1.00  0.00     0.093 A 
ATOM      7  C   UNL     1     100.532 112.649 106.723  1.00  0.00     0.136 A 
ATOM      8  C   UNL     1     100.079 111.494 107.413  1.00  0.00     0.125 A 
ATOM      9  C   UNL     1     100.945 110.529 107.952  1.00  0.00     0.078 A 
ATOM     10  C   UNL     1     100.426 109.417 108.623  1.00  0.00     0.223 A 
ENDROOT
BRANCH   1  11
ATOM     11  C   UNL     1      98.401 108.120 109.405  1.00  0.00     0.087 A 
ATOM     12  C   UNL     1      97.890 108.274 110.703  1.00  0.00     0.022 A 
ATOM     13  C   UNL     1      97.276 107.201 111.354  1.00  0.00     0.051 A 
ATOM     14  C   UNL     1      97.149 105.965 110.715  1.00  0.00     0.157 A 
ATOM     15  C   UNL     1      98.254 106.880 108.755  1.00  0.00     0.068 A 
ATOM     16  C   UNL     1      97.636 105.803 109.408  1.00  0.00     0.158 A 
BRANCH  14  17
ATOM     17  O   UNL     1      96.534 104.912 111.391  1.00  0.00    -0.504 OA
ATOM     18  H   UNL     1      95.568 104.657 111.225  1.00  0.00     0.293 HD
ENDBRANCH  14  17
BRANCH  16  19
ATOM     19  O   UNL     1      97.501 104.577 108.759  1.00  0.00    -0.504 OA
ATOM     20  H   UNL     1      97.368 104.518 107.756  1.00  0.00     0.293 HD
ENDBRANCH  16  19
ENDBRANCH   1  11
BRANCH  10  21
ATOM     21  O   UNL     1     101.285 108.484 109.203  1.00  0.00    -0.500 OA
ATOM     22  H   UNL     1     101.454 107.580 108.777  1.00  0.00     0.294 HD
ENDBRANCH  10  21
BRANCH   5  23
ATOM     23  O   UNL     1      97.319 114.290 105.901  1.00  0.00    -0.507 OA
ATOM     24  H   UNL     1      97.577 115.260 105.769  1.00  0.00     0.293 HD
ENDBRANCH   5  23
BRANCH   7  25
ATOM     25  O   UNL     1     101.883 112.929 106.503  1.00  0.00    -0.507 OA
ATOM     26  H   UNL     1     102.317 113.822 106.684  1.00  0.00     0.293 HD
ENDBRANCH   7  25
TORSDOF 6
ENDMDL
MODEL 2
REMARK VINA RESULT:    -4.670      9.728     11.876
REMARK INTER + INTRA:          -5.962
REMARK INTER:                  -5.651
REMARK INTRA:                  -0.310
REMARK UNBOUND:                -0.336
REMARK SMILES Oc1cc(O)c2cc(O)c(-c3ccc(O)c(O)c3)[o+]c2c1.[Cl-]
REMARK SMILES IDX 10 1 19 2 20 3 21 4 2 5 3 6 4 7 6 8 7 9 8 10 11 11 12 12
REMARK SMILES IDX 13 13 14 14 18 15 16 16 15 17 17 19 9 21 1 23 5 25
REMARK H PARENT 15 18 17 20 9 22 1 24 5 26
REMARK Flexibility Score: inf
ROOT
ATOM      1  C   UNL     1     100.964 100.935 103.135  1.00  0.00     0.402 A 
ATOM      2  O   UNL     1     101.643  99.898 102.652  1.00  0.00    -0.202 OA
ATOM      3  C   UNL     1     102.969  99.816 102.677  1.00  0.00     0.368 A 
ATOM      4  C   UNL     1     103.591  98.683 102.147  1.00  0.00     0.162 A 
ATOM      5  C   UNL     1     104.985  98.570 102.165  1.00  0.00     0.128 A 
ATOM      6  C   UNL     1     105.758  99.593 102.717  1.00  0.00     0.093 A 
ATOM      7  C   UNL     1     105.159 100.739 103.255  1.00  0.00     0.136 A 
ATOM      8  C   UNL     1     103.744 100.860 103.236  1.00  0.00     0.125 A 
ATOM      9  C   UNL     1     103.059 101.977 103.741  1.00  0.00     0.078 A 
ATOM     10  C   UNL     1     101.663 102.027 103.684  1.00  0.00     0.223 A 
ENDROOT
BRANCH   1  11
ATOM     11  C   UNL     1      99.486 100.904 103.055  1.00  0.00     0.087 A 
ATOM     12  C   UNL     1      98.758 100.193 104.022  1.00  0.00     0.022 A 
ATOM     13  C   UNL     1      97.362 100.167 103.978  1.00  0.00     0.051 A 
ATOM     14  C   UNL     1      96.672 100.859 102.979  1.00  0.00     0.157 A 
ATOM     15  C   UNL     1      98.790 101.618 102.063  1.00  0.00     0.068 A 
ATOM     16  C   UNL     1      97.388 101.593 102.019  1.00  0.00     0.158 A 
BRANCH  14  17
ATOM     17  O   UNL     1      95.279 100.812 102.959  1.00  0.00    -0.504 OA
ATOM     18  H   UNL     1      94.772  99.981 102.680  1.00  0.00     0.293 HD
ENDBRANCH  14  17
BRANCH  16  19
ATOM     19  O   UNL     1      96.707 102.299 101.029  1.00  0.00    -0.504 OA
ATOM     20  H   UNL     1      96.272 101.827 100.244  1.00  0.00     0.293 HD
ENDBRANCH  16  19
ENDBRANCH   1  11
BRANCH  10  21
ATOM     21  O   UNL     1     100.983 103.157 104.138  1.00  0.00    -0.500 OA
ATOM     22  H   UNL     1     101.473 104.011 104.379  1.00  0.00     0.294 HD
ENDBRANCH  10  21
BRANCH   5  23
ATOM     23  O   UNL     1     105.612  97.443 101.638  1.00  0.00    -0.507 OA
ATOM     24  H   UNL     1     106.618  97.328 101.682  1.00  0.00     0.293 HD
ENDBRANCH   5  23
BRANCH   7  25
ATOM     25  O   UNL     1     106.003 101.715 103.791  1.00  0.00    -0.507 OA
ATOM     26  H   UNL     1     105.993 102.009 104.757  1.00  0.00     0.293 HD
ENDBRANCH   7  25
TORSDOF 6
ENDMDL
MODEL 3
REMARK VINA RESULT:    -4.614      1.069      2.593
REMARK INTER + INTRA:          -5.894
REMARK INTER:                  -5.547
REMARK INTRA:                  -0.347
REMARK UNBOUND:                -0.336
REMARK SMILES Oc1cc(O)c2cc(O)c(-c3ccc(O)c(O)c3)[o+]c2c1.[Cl-]
REMARK SMILES IDX 10 1 19 2 20 3 21 4 2 5 3 6 4 7 6 8 7 9 8 10 11 11 12 12
REMARK SMILES IDX 13 13 14 14 18 15 16 16 15 17 17 19 9 21 1 23 5 25
REMARK H PARENT 15 18 17 20 9 22 1 24 5 26
REMARK Flexibility Score: inf
ROOT
ATOM      1  C   UNL     1      98.044 109.534 108.606  1.00  0.00     0.402 A 
ATOM      2  O   UNL     1      99.199 110.040 108.180  1.00  0.00    -0.202 OA
ATOM      3  C   UNL     1      99.292 111.182 107.507  1.00  0.00     0.368 A 
ATOM      4  C   UNL     1     100.552 111.633 107.105  1.00  0.00     0.162 A 
ATOM      5  C   UNL     1     100.679 112.834 106.399  1.00  0.00     0.128 A 
ATOM      6  C   UNL     1      99.542 113.586 106.097  1.00  0.00     0.093 A 
ATOM      7  C   UNL     1      98.268 113.156 106.489  1.00  0.00     0.136 A 
ATOM      8  C   UNL     1      98.134 111.936 107.203  1.00  0.00     0.125 A 
ATOM      9  C   UNL     1      96.897 111.421 107.624  1.00  0.00     0.078 A 
ATOM     10  C   UNL     1      96.843 110.210 108.320  1.00  0.00     0.223 A 
ENDROOT
BRANCH   1  11
ATOM     11  C   UNL     1      98.072 108.257 109.354  1.00  0.00     0.087 A 
ATOM     12  C   UNL     1      98.101 108.279 110.757  1.00  0.00     0.022 A 
ATOM     13  C   UNL     1      98.107 107.085 111.483  1.00  0.00     0.051 A 
ATOM     14  C   UNL     1      98.071 105.855 110.822  1.00  0.00     0.157 A 
ATOM     15  C   UNL     1      98.014 107.017 108.690  1.00  0.00     0.068 A 
ATOM     16  C   UNL     1      98.019 105.819 109.419  1.00  0.00     0.158 A 
BRANCH  14  17
ATOM     17  O   UNL     1      98.081 104.681 111.574  1.00  0.00    -0.504 OA
ATOM     18  H   UNL     1      98.309 104.675 112.561  1.00  0.00     0.293 HD
ENDBRANCH  14  17
BRANCH  16  19
ATOM     19  O   UNL     1      97.967 104.595 108.753  1.00  0.00    -0.504 OA
ATOM     20  H   UNL     1      98.810 104.106 108.476  1.00  0.00     0.293 HD
ENDBRANCH  16  19
ENDBRANCH   1  11
BRANCH  10  21
ATOM     21  O   UNL     1      95.611 109.672 108.695  1.00  0.00    -0.500 OA
ATOM     22  H   UNL     1      94.761 109.882 108.184  1.00  0.00     0.294 HD
ENDBRANCH  10  21
BRANCH   5  23
ATOM     23  O   UNL     1     101.932 113.290 105.995  1.00  0.00    -0.507 OA
ATOM     24  H   UNL     1     102.442 113.981 106.532  1.00  0.00     0.293 HD
ENDBRANCH   5  23
BRANCH   7  25
ATOM     25  O   UNL     1      97.182 113.967 106.149  1.00  0.00    -0.507 OA
ATOM     26  H   UNL     1      96.241 113.630 106.007  1.00  0.00     0.293 HD
ENDBRANCH   7  25
TORSDOF 6
ENDMDL
MODEL 4
REMARK VINA RESULT:    -4.605      8.906     10.146
REMARK INTER + INTRA:          -5.883
REMARK INTER:                  -5.531
REMARK INTRA:                  -0.352
REMARK UNBOUND:                -0.336
REMARK SMILES Oc1cc(O)c2cc(O)c(-c3ccc(O)c(O)c3)[o+]c2c1.[Cl-]
REMARK SMILES IDX 10 1 19 2 20 3 21 4 2 5 3 6 4 7 6 8 7 9 8 10 11 11 12 12
REMARK SMILES IDX 13 13 14 14 18 15 16 16 15 17 17 19 9 21 1 23 5 25
REMARK H PARENT 15 18 17 20 9 22 1 24 5 26
REMARK Flexibility Score: inf
ROOT
ATOM      1  C   UNL     1     100.234 101.517 102.628  1.00  0.00     0.402 A 
ATOM      2  O   UNL     1      99.484 102.134 101.719  1.00  0.00    -0.202 OA
ATOM      3  C   UNL     1      99.721 103.371 101.294  1.00  0.00     0.368 A 
ATOM      4  C   UNL     1      98.877 103.932 100.332  1.00  0.00     0.162 A 
ATOM      5  C   UNL     1      99.107 105.231  99.864  1.00  0.00     0.128 A 
ATOM      6  C   UNL     1     100.185 105.967 100.360  1.00  0.00     0.093 A 
ATOM      7  C   UNL     1     101.045 105.427 101.324  1.00  0.00     0.136 A 
ATOM      8  C   UNL     1     100.814 104.111 101.804  1.00  0.00     0.125 A 
ATOM      9  C   UNL     1     101.616 103.494 102.778  1.00  0.00     0.078 A 
ATOM     10  C   UNL     1     101.324 102.195 103.205  1.00  0.00     0.223 A 
ENDROOT
BRANCH   1  11
ATOM     11  C   UNL     1      99.871 100.134 103.013  1.00  0.00     0.087 A 
ATOM     12  C   UNL     1      98.889  99.925 103.994  1.00  0.00     0.022 A 
ATOM     13  C   UNL     1      98.518  98.628 104.358  1.00  0.00     0.051 A 
ATOM     14  C   UNL     1      99.109  97.523 103.740  1.00  0.00     0.157 A 
ATOM     15  C   UNL     1     100.450  99.020 102.377  1.00  0.00     0.068 A 
ATOM     16  C   UNL     1     100.076  97.719 102.741  1.00  0.00     0.158 A 
BRANCH  14  17
ATOM     17  O   UNL     1      98.720  96.241 104.127  1.00  0.00    -0.504 OA
ATOM     18  H   UNL     1      98.493  96.014 105.087  1.00  0.00     0.293 HD
ENDBRANCH  14  17
BRANCH  16  19
ATOM     19  O   UNL     1     100.660  96.621 102.110  1.00  0.00    -0.504 OA
ATOM     20  H   UNL     1     100.601  96.492 101.106  1.00  0.00     0.293 HD
ENDBRANCH  16  19
ENDBRANCH   1  11
BRANCH  10  21
ATOM     21  O   UNL     1     102.089 101.599 104.208  1.00  0.00    -0.500 OA
ATOM     22  H   UNL     1     101.889 100.665 104.545  1.00  0.00     0.294 HD
ENDBRANCH  10  21
BRANCH   5  23
ATOM     23  O   UNL     1      98.270 105.798  98.905  1.00  0.00    -0.507 OA
ATOM     24  H   UNL     1      97.955 105.270  98.100  1.00  0.00     0.293 HD
ENDBRANCH   5  23
BRANCH   7  25
ATOM     25  O   UNL     1     102.101 106.228 101.766  1.00  0.00    -0.507 OA
ATOM     26  H   UNL     1     102.802 106.632 101.161  1.00  0.00     0.293 HD
ENDBRANCH   7  25
TORSDOF 6
ENDMDL
MODEL 5
REMARK VINA RESULT:    -4.555      1.559      6.729
REMARK INTER + INTRA:          -5.823
REMARK INTER:                  -5.583
REMARK INTRA:                  -0.240
REMARK UNBOUND:                -0.336
REMARK SMILES Oc1cc(O)c2cc(O)c(-c3ccc(O)c(O)c3)[o+]c2c1.[Cl-]
REMARK SMILES IDX 10 1 19 2 20 3 21 4 2 5 3 6 4 7 6 8 7 9 8 10 11 11 12 12
REMARK SMILES IDX 13 13 14 14 18 15 16 16 15 17 17 19 9 21 1 23 5 25
REMARK H PARENT 15 18 17 20 9 22 1 24 5 26
REMARK Flexibility Score: inf
ROOT
ATOM      1  C   UNL     1      98.781 109.967 108.552  1.00  0.00     0.402 A 
ATOM      2  O   UNL     1      98.043 108.876 108.367  1.00  0.00    -0.202 OA
ATOM      3  C   UNL     1      98.311 107.707 108.940  1.00  0.00     0.368 A 
ATOM      4  C   UNL     1      97.474 106.618 108.686  1.00  0.00     0.162 A 
ATOM      5  C   UNL     1      97.732 105.377 109.279  1.00  0.00     0.128 A 
ATOM      6  C   UNL     1      98.829 105.228 110.129  1.00  0.00     0.093 A 
ATOM      7  C   UNL     1      99.683 106.304 110.400  1.00  0.00     0.136 A 
ATOM      8  C   UNL     1      99.428 107.564 109.798  1.00  0.00     0.125 A 
ATOM      9  C   UNL     1     100.237 108.694 110.001  1.00  0.00     0.078 A 
ATOM     10  C   UNL     1      99.924 109.902 109.370  1.00  0.00     0.223 A 
ENDROOT
BRANCH   1  11
ATOM     11  C   UNL     1      98.373 111.213 107.865  1.00  0.00     0.087 A 
ATOM     12  C   UNL     1      97.237 111.907 108.310  1.00  0.00     0.022 A 
ATOM     13  C   UNL     1      96.845 113.096 107.689  1.00  0.00     0.051 A 
ATOM     14  C   UNL     1      97.588 113.616 106.625  1.00  0.00     0.157 A 
ATOM     15  C   UNL     1      99.131 111.750 106.808  1.00  0.00     0.068 A 
ATOM     16  C   UNL     1      98.739 112.944 106.185  1.00  0.00     0.158 A 
BRANCH  14  17
ATOM     17  O   UNL     1      97.171 114.803 106.023  1.00  0.00    -0.504 OA
ATOM     18  H   UNL     1      97.333 115.708 106.448  1.00  0.00     0.293 HD
ENDBRANCH  14  17
BRANCH  16  19
ATOM     19  O   UNL     1      99.493 113.465 105.134  1.00  0.00    -0.504 OA
ATOM     20  H   UNL     1     100.173 112.901 104.637  1.00  0.00     0.293 HD
ENDBRANCH  16  19
ENDBRANCH   1  11
BRANCH  10  21
ATOM     21  O   UNL     1     100.755 111.011 109.531  1.00  0.00    -0.500 OA
ATOM     22  H   UNL     1     100.499 111.924 109.172  1.00  0.00     0.294 HD
ENDBRANCH  10  21
BRANCH   5  23
ATOM     23  O   UNL     1      96.901 104.286 109.031  1.00  0.00    -0.507 OA
ATOM     24  H   UNL     1      96.130 104.057 109.647  1.00  0.00     0.293 HD
ENDBRANCH   5  23
BRANCH   7  25
ATOM     25  O   UNL     1     100.757 106.072 111.263  1.00  0.00    -0.507 OA
ATOM     26  H   UNL     1     101.025 105.162 111.608  1.00  0.00     0.293 HD
ENDBRANCH   7  25
TORSDOF 6
ENDMDL
MODEL 6
REMARK VINA RESULT:    -4.552      9.616     12.699
REMARK INTER + INTRA:          -5.820
REMARK INTER:                  -5.508
REMARK INTRA:                  -0.312
REMARK UNBOUND:                -0.336
REMARK SMILES Oc1cc(O)c2cc(O)c(-c3ccc(O)c(O)c3)[o+]c2c1.[Cl-]
REMARK SMILES IDX 10 1 19 2 20 3 21 4 2 5 3 6 4 7 6 8 7 9 8 10 11 11 12 12
REMARK SMILES IDX 13 13 14 14 18 15 16 16 15 17 17 19 9 21 1 23 5 25
REMARK H PARENT 15 18 17 20 9 22 1 24 5 26
REMARK Flexibility Score: inf
ROOT
ATOM      1  C   UNL     1     101.731 101.153 102.998  1.00  0.00     0.402 A 
ATOM      2  O   UNL     1     101.422  99.944 102.536  1.00  0.00    -0.202 OA
ATOM      3  C   UNL     1     100.239  99.368 102.727  1.00  0.00     0.368 A 
ATOM      4  C   UNL     1     100.009  98.095 102.200  1.00  0.00     0.162 A 
ATOM      5  C   UNL     1      98.772  97.469 102.383  1.00  0.00     0.128 A 
ATOM      6  C   UNL     1      97.763  98.120 103.095  1.00  0.00     0.093 A 
ATOM      7  C   UNL     1      97.968  99.396 103.634  1.00  0.00     0.136 A 
ATOM      8  C   UNL     1      99.223 100.035 103.453  1.00  0.00     0.125 A 
ATOM      9  C   UNL     1      99.523 101.306 103.968  1.00  0.00     0.078 A 
ATOM     10  C   UNL     1     100.784 101.870 103.752  1.00  0.00     0.223 A 
ENDROOT
BRANCH   1  11
ATOM     11  C   UNL     1     103.081 101.689 102.710  1.00  0.00     0.087 A 
ATOM     12  C   UNL     1     103.238 102.663 101.713  1.00  0.00     0.022 A 
ATOM     13  C   UNL     1     104.500 103.197 101.439  1.00  0.00     0.051 A 
ATOM     14  C   UNL     1     105.618 102.779 102.164  1.00  0.00     0.157 A 
ATOM     15  C   UNL     1     104.204 101.283 103.454  1.00  0.00     0.068 A 
ATOM     16  C   UNL     1     105.470 101.820 103.180  1.00  0.00     0.158 A 
BRANCH  14  17
ATOM     17  O   UNL     1     106.865 103.327 101.866  1.00  0.00    -0.504 OA
ATOM     18  H   UNL     1     107.716 102.779 101.895  1.00  0.00     0.293 HD
ENDBRANCH  14  17
BRANCH  16  19
ATOM     19  O   UNL     1     106.579 101.408 103.918  1.00  0.00    -0.504 OA
ATOM     20  H   UNL     1     106.489 101.072 104.870  1.00  0.00     0.293 HD
ENDBRANCH  16  19
ENDBRANCH   1  11
BRANCH  10  21
ATOM     21  O   UNL     1     101.100 103.111 104.306  1.00  0.00    -0.500 OA
ATOM     22  H   UNL     1     101.831 103.214 104.999  1.00  0.00     0.294 HD
ENDBRANCH  10  21
BRANCH   5  23
ATOM     23  O   UNL     1      98.535  96.199 101.860  1.00  0.00    -0.507 OA
ATOM     24  H   UNL     1      98.716  95.362 102.401  1.00  0.00     0.293 HD
ENDBRANCH   5  23
BRANCH   7  25
ATOM     25  O   UNL     1      96.906  99.979 104.330  1.00  0.00    -0.507 OA
ATOM     26  H   UNL     1      95.969  99.605 104.357  1.00  0.00     0.293 HD
ENDBRANCH   7  25
TORSDOF 6
ENDMDL
MODEL 7
REMARK VINA RESULT:    -4.449     12.069     13.333
REMARK INTER + INTRA:          -5.695
REMARK INTER:                  -5.421
REMARK INTRA:                  -0.275
REMARK UNBOUND:                -0.336
REMARK SMILES Oc1cc(O)c2cc(O)c(-c3ccc(O)c(O)c3)[o+]c2c1.[Cl-]
REMARK SMILES IDX 10 1 19 2 20 3 21 4 2 5 3 6 4 7 6 8 7 9 8 10 11 11 12 12
REMARK SMILES IDX 13 13 14 14 18 15 16 16 15 17 17 19 9 21 1 23 5 25
REMARK H PARENT 15 18 17 20 9 22 1 24 5 26
REMARK Flexibility Score: inf
ROOT
ATOM      1  C   UNL     1     108.384 101.948 103.032  1.00  0.00     0.402 A 
ATOM      2  O   UNL     1     108.152 103.173 102.568  1.00  0.00    -0.202 OA
ATOM      3  C   UNL     1     109.033 104.165 102.651  1.00  0.00     0.368 A 
ATOM      4  C   UNL     1     108.697 105.417 102.132  1.00  0.00     0.162 A 
ATOM      5  C   UNL     1     109.607 106.478 102.202  1.00  0.00     0.128 A 
ATOM      6  C   UNL     1     110.856 106.282 102.794  1.00  0.00     0.093 A 
ATOM      7  C   UNL     1     111.218 105.036 103.322  1.00  0.00     0.136 A 
ATOM      8  C   UNL     1     110.296 103.958 103.255  1.00  0.00     0.125 A 
ATOM      9  C   UNL     1     110.566 102.680 103.769  1.00  0.00     0.078 A 
ATOM     10  C   UNL     1     109.607 101.667 103.671  1.00  0.00     0.223 A 
ENDROOT
BRANCH   1  11
ATOM     11  C   UNL     1     107.325 100.926 102.871  1.00  0.00     0.087 A 
ATOM     12  C   UNL     1     107.507  99.883 101.950  1.00  0.00     0.022 A 
ATOM     13  C   UNL     1     106.530  98.896 101.797  1.00  0.00     0.051 A 
ATOM     14  C   UNL     1     105.365  98.927 102.569  1.00  0.00     0.157 A 
ATOM     15  C   UNL     1     106.162 100.944 103.663  1.00  0.00     0.068 A 
ATOM     16  C   UNL     1     105.182  99.953 103.511  1.00  0.00     0.158 A 
BRANCH  14  17
ATOM     17  O   UNL     1     104.407  97.931 102.391  1.00  0.00    -0.504 OA
ATOM     18  H   UNL     1     103.513  97.952 102.868  1.00  0.00     0.293 HD
ENDBRANCH  14  17
BRANCH  16  19
ATOM     19  O   UNL     1     104.029  99.983 104.295  1.00  0.00    -0.504 OA
ATOM     20  H   UNL     1     103.179 100.429 103.973  1.00  0.00     0.293 HD
ENDBRANCH  16  19
ENDBRANCH   1  11
BRANCH  10  21
ATOM     21  O   UNL     1     109.854 100.411 104.225  1.00  0.00    -0.500 OA
ATOM     22  H   UNL     1     110.591 100.266 104.905  1.00  0.00     0.294 HD
ENDBRANCH  10  21
BRANCH   5  23
ATOM     23  O   UNL     1     109.279 107.730 101.686  1.00  0.00    -0.507 OA
ATOM     24  H   UNL     1     109.827 108.553 101.907  1.00  0.00     0.293 HD
ENDBRANCH   5  23
BRANCH   7  25
ATOM     25  O   UNL     1     112.487 104.923 103.893  1.00  0.00    -0.507 OA
ATOM     26  H   UNL     1     113.295 104.547 103.418  1.00  0.00     0.293 HD
ENDBRANCH   7  25
TORSDOF 6
ENDMDL
MODEL 8
REMARK VINA RESULT:    -4.427     13.395     15.786
REMARK INTER + INTRA:          -5.669
REMARK INTER:                  -5.551
REMARK INTRA:                  -0.118
REMARK UNBOUND:                -0.336
REMARK SMILES Oc1cc(O)c2cc(O)c(-c3ccc(O)c(O)c3)[o+]c2c1.[Cl-]
REMARK SMILES IDX 10 1 19 2 20 3 21 4 2 5 3 6 4 7 6 8 7 9 8 10 11 11 12 12
REMARK SMILES IDX 13 13 14 14 18 15 16 16 15 17 17 19 9 21 1 23 5 25
REMARK H PARENT 15 18 17 20 9 22 1 24 5 26
REMARK Flexibility Score: inf
ROOT
ATOM      1  C   UNL     1     109.809 101.305 102.667  1.00  0.00     0.402 A 
ATOM      2  O   UNL     1     108.662 101.359 103.340  1.00  0.00    -0.202 OA
ATOM      3  C   UNL     1     107.595 100.632 103.024  1.00  0.00     0.368 A 
ATOM      4  C   UNL     1     106.436 100.757 103.794  1.00  0.00     0.162 A 
ATOM      5  C   UNL     1     105.300 100.001 103.486  1.00  0.00     0.128 A 
ATOM      6  C   UNL     1     105.325  99.118 102.405  1.00  0.00     0.093 A 
ATOM      7  C   UNL     1     106.475  98.974 101.617  1.00  0.00     0.136 A 
ATOM      8  C   UNL     1     107.629  99.742 101.924  1.00  0.00     0.125 A 
ATOM      9  C   UNL     1     108.820  99.673 101.183  1.00  0.00     0.078 A 
ATOM     10  C   UNL     1     109.916 100.463 101.544  1.00  0.00     0.223 A 
ENDROOT
BRANCH   1  11
ATOM     11  C   UNL     1     110.929 102.158 103.124  1.00  0.00     0.087 A 
ATOM     12  C   UNL     1     112.162 101.567 103.442  1.00  0.00     0.022 A 
ATOM     13  C   UNL     1     113.239 102.355 103.856  1.00  0.00     0.051 A 
ATOM     14  C   UNL     1     113.107 103.743 103.944  1.00  0.00     0.157 A 
ATOM     15  C   UNL     1     110.804 103.558 103.192  1.00  0.00     0.068 A 
ATOM     16  C   UNL     1     111.886 104.350 103.606  1.00  0.00     0.158 A 
BRANCH  14  17
ATOM     17  O   UNL     1     114.198 104.503 104.362  1.00  0.00    -0.504 OA
ATOM     18  H   UNL     1     114.096 105.457 104.690  1.00  0.00     0.293 HD
ENDBRANCH  14  17
BRANCH  16  19
ATOM     19  O   UNL     1     111.751 105.735 103.677  1.00  0.00    -0.504 OA
ATOM     20  H   UNL     1     111.289 106.185 104.459  1.00  0.00     0.293 HD
ENDBRANCH  16  19
ENDBRANCH   1  11
BRANCH  10  21
ATOM     21  O   UNL     1     111.082 100.434 100.779  1.00  0.00    -0.500 OA
ATOM     22  H   UNL     1     111.074 100.645  99.788  1.00  0.00     0.294 HD
ENDBRANCH  10  21
BRANCH   5  23
ATOM     23  O   UNL     1     104.140 100.119 104.249  1.00  0.00    -0.507 OA
ATOM     24  H   UNL     1     104.055  99.673 105.154  1.00  0.00     0.293 HD
ENDBRANCH   5  23
BRANCH   7  25
ATOM     25  O   UNL     1     106.419  98.067 100.556  1.00  0.00    -0.507 OA
ATOM     26  H   UNL     1     105.594  97.549 100.292  1.00  0.00     0.293 HD
ENDBRANCH   7  25
TORSDOF 6
ENDMDL
MODEL 9
REMARK VINA RESULT:    -4.374     10.266     11.951
REMARK INTER + INTRA:          -5.605
REMARK INTER:                  -5.278
REMARK INTRA:                  -0.327
REMARK UNBOUND:                -0.336
REMARK SMILES Oc1cc(O)c2cc(O)c(-c3ccc(O)c(O)c3)[o+]c2c1.[Cl-]
REMARK SMILES IDX 10 1 19 2 20 3 21 4 2 5 3 6 4 7 6 8 7 9 8 10 11 11 12 12
REMARK SMILES IDX 13 13 14 14 18 15 16 16 15 17 17 19 9 21 1 23 5 25
REMARK H PARENT 15 18 17 20 9 22 1 24 5 26
REMARK Flexibility Score: inf
ROOT
ATOM      1  C   UNL     1     104.156 101.364 103.008  1.00  0.00     0.402 A 
ATOM      2  O   UNL     1     104.836 102.439 102.614  1.00  0.00    -0.202 OA
ATOM      3  C   UNL     1     106.163 102.512 102.635  1.00  0.00     0.368 A 
ATOM      4  C   UNL     1     106.785 103.684 102.198  1.00  0.00     0.162 A 
ATOM      5  C   UNL     1     108.180 103.786 102.205  1.00  0.00     0.128 A 
ATOM      6  C   UNL     1     108.953 102.712 102.650  1.00  0.00     0.093 A 
ATOM      7  C   UNL     1     108.354 101.526 103.092  1.00  0.00     0.136 A 
ATOM      8  C   UNL     1     106.938 101.419 103.090  1.00  0.00     0.125 A 
ATOM      9  C   UNL     1     106.250 100.275 103.528  1.00  0.00     0.078 A 
ATOM     10  C   UNL     1     104.853 100.244 103.499  1.00  0.00     0.223 A 
ENDROOT
BRANCH   1  11
ATOM     11  C   UNL     1     102.679 101.402 102.929  1.00  0.00     0.087 A 
ATOM     12  C   UNL     1     101.955 102.137 103.880  1.00  0.00     0.022 A 
ATOM     13  C   UNL     1     100.561 102.203 103.813  1.00  0.00     0.051 A 
ATOM     14  C   UNL     1      99.871 101.550 102.789  1.00  0.00     0.157 A 
ATOM     15  C   UNL     1     101.984 100.762 101.886  1.00  0.00     0.068 A 
ATOM     16  C   UNL     1     100.584 100.829 101.817  1.00  0.00     0.158 A 
BRANCH  14  17
ATOM     17  O   UNL     1      98.479 101.631 102.749  1.00  0.00    -0.504 OA
ATOM     18  H   UNL     1      97.915 101.624 103.590  1.00  0.00     0.293 HD
ENDBRANCH  14  17
BRANCH  16  19
ATOM     19  O   UNL     1      99.904 100.187 100.784  1.00  0.00    -0.504 OA
ATOM     20  H   UNL     1      99.615  99.218 100.859  1.00  0.00     0.293 HD
ENDBRANCH  16  19
ENDBRANCH   1  11
BRANCH  10  21
ATOM     21  O   UNL     1     104.167  99.128 103.981  1.00  0.00    -0.500 OA
ATOM     22  H   UNL     1     104.657  98.325 104.356  1.00  0.00     0.294 HD
ENDBRANCH  10  21
BRANCH   5  23
ATOM     23  O   UNL     1     108.808 104.952 101.771  1.00  0.00    -0.507 OA
ATOM     24  H   UNL     1     108.405 105.865 101.941  1.00  0.00     0.293 HD
ENDBRANCH   5  23
BRANCH   7  25
ATOM     25  O   UNL     1     109.198 100.498 103.518  1.00  0.00    -0.507 OA
ATOM     26  H   UNL     1     110.205 100.520 103.446  1.00  0.00     0.293 HD
ENDBRANCH   7  25
TORSDOF 6
ENDMDL
