MODEL 1
REMARK VINA RESULT:    -7.228      0.000      0.000
REMARK INTER + INTRA:          -9.020
REMARK INTER:                  -8.707
REMARK INTRA:                  -0.314
REMARK UNBOUND:                -0.314
REMARK SMILES O=c1c(O)c(-c2ccc(O)c(O)c2)oc2cc(O)cc(O)c12
REMARK SMILES IDX 5 1 3 2 2 3 1 4 22 5 20 6 19 7 17 8 16 9 15 10 14 11 6 12
REMARK SMILES IDX 7 13 8 14 9 15 13 16 11 17 10 18 12 20 4 22 21 24 18 26
REMARK H PARENT 10 19 12 21 4 23 21 25 18 27
REMARK Flexibility Score: inf
ROOT
ATOM      1  C   UNL     1      15.174 -32.532 -19.726  1.00  0.00     0.180 A 
ATOM      2  C   UNL     1      15.309 -31.137 -19.826  1.00  0.00     0.208 A 
ATOM      3  C   UNL     1      16.437 -30.605 -20.471  1.00  0.00     0.238 A 
ATOM      4  O   UNL     1      16.514 -29.359 -20.622  1.00  0.00    -0.285 OA
ATOM      5  C   UNL     1      17.445 -31.474 -20.958  1.00  0.00     0.111 A 
ATOM      6  C   UNL     1      18.651 -31.044 -21.589  1.00  0.00     0.134 A 
ATOM      7  C   UNL     1      19.527 -31.996 -22.126  1.00  0.00     0.093 A 
ATOM      8  C   UNL     1      19.272 -33.360 -22.001  1.00  0.00     0.123 A 
ATOM      9  C   UNL     1      18.123 -33.793 -21.338  1.00  0.00     0.094 A 
ATOM     10  C   UNL     1      17.211 -32.867 -20.825  1.00  0.00     0.146 A 
ATOM     11  O   UNL     1      16.120 -33.322 -20.221  1.00  0.00    -0.452 OA
ENDROOT
BRANCH   1  12
ATOM     12  C   UNL     1      14.007 -33.167 -19.073  1.00  0.00     0.025 A 
ATOM     13  C   UNL     1      14.034 -33.528 -17.715  1.00  0.00     0.016 A 
ATOM     14  C   UNL     1      12.911 -34.104 -17.114  1.00  0.00     0.051 A 
ATOM     15  C   UNL     1      11.743 -34.315 -17.854  1.00  0.00     0.157 A 
ATOM     16  C   UNL     1      12.826 -33.361 -19.808  1.00  0.00     0.062 A 
ATOM     17  C   UNL     1      11.697 -33.939 -19.207  1.00  0.00     0.158 A 
BRANCH  15  18
ATOM     18  O   UNL     1      10.639 -34.892 -17.228  1.00  0.00    -0.504 OA
ATOM     19  H   UNL     1      10.638 -35.121 -16.241  1.00  0.00     0.293 HD
ENDBRANCH  15  18
BRANCH  17  20
ATOM     20  O   UNL     1      10.534 -34.139 -19.948  1.00  0.00    -0.504 OA
ATOM     21  H   UNL     1      10.184 -33.434 -20.587  1.00  0.00     0.293 HD
ENDBRANCH  17  20
ENDBRANCH   1  12
BRANCH   2  22
ATOM     22  O   UNL     1      14.340 -30.296 -19.271  1.00  0.00    -0.502 OA
ATOM     23  H   UNL     1      14.239 -29.326 -19.547  1.00  0.00     0.293 HD
ENDBRANCH   2  22
BRANCH   6  24
ATOM     24  O   UNL     1      19.049 -29.707 -21.690  1.00  0.00    -0.507 OA
ATOM     25  H   UNL     1      19.017 -29.036 -20.939  1.00  0.00     0.293 HD
ENDBRANCH   6  24
BRANCH   8  26
ATOM     26  O   UNL     1      20.173 -34.280 -22.533  1.00  0.00    -0.508 OA
ATOM     27  H   UNL     1      21.016 -33.982 -23.010  1.00  0.00     0.293 HD
ENDBRANCH   8  26
TORSDOF 6
ENDMDL
MODEL 2
REMARK VINA RESULT:    -7.170     11.723     13.960
REMARK INTER + INTRA:          -8.951
REMARK INTER:                  -8.628
REMARK INTRA:                  -0.322
REMARK UNBOUND:                -0.314
REMARK SMILES O=c1c(O)c(-c2ccc(O)c(O)c2)oc2cc(O)cc(O)c12
REMARK SMILES IDX 5 1 3 2 2 3 1 4 22 5 20 6 19 7 17 8 16 9 15 10 14 11 6 12
REMARK SMILES IDX 7 13 8 14 9 15 13 16 11 17 10 18 12 20 4 22 21 24 18 26
REMARK H PARENT 10 19 12 21 4 23 21 25 18 27
REMARK Flexibility Score: inf
ROOT
ATOM      1  C   UNL     1       8.303 -24.079 -13.692  1.00  0.00     0.180 A 
ATOM      2  C   UNL     1       8.153 -25.423 -14.075  1.00  0.00     0.208 A 
ATOM      3  C   UNL     1       8.779 -26.423 -13.314  1.00  0.00     0.238 A 
ATOM      4  O   UNL     1       8.580 -27.627 -13.618  1.00  0.00    -0.285 OA
ATOM      5  C   UNL     1       9.594 -26.063 -12.212  1.00  0.00     0.111 A 
ATOM      6  C   UNL     1      10.312 -26.990 -11.397  1.00  0.00     0.134 A 
ATOM      7  C   UNL     1      11.002 -26.527 -10.269  1.00  0.00     0.093 A 
ATOM      8  C   UNL     1      11.051 -25.169  -9.962  1.00  0.00     0.123 A 
ATOM      9  C   UNL     1      10.399 -24.249 -10.783  1.00  0.00     0.094 A 
ATOM     10  C   UNL     1       9.671 -24.682 -11.894  1.00  0.00     0.146 A 
ATOM     11  O   UNL     1       9.047 -23.775 -12.636  1.00  0.00    -0.452 OA
ENDROOT
BRANCH   1  12
ATOM     12  C   UNL     1       7.662 -22.971 -14.436  1.00  0.00     0.025 A 
ATOM     13  C   UNL     1       8.313 -22.336 -15.507  1.00  0.00     0.016 A 
ATOM     14  C   UNL     1       7.678 -21.308 -16.211  1.00  0.00     0.051 A 
ATOM     15  C   UNL     1       6.384 -20.910 -15.866  1.00  0.00     0.157 A 
ATOM     16  C   UNL     1       6.354 -22.583 -14.105  1.00  0.00     0.062 A 
ATOM     17  C   UNL     1       5.715 -21.552 -14.810  1.00  0.00     0.158 A 
BRANCH  15  18
ATOM     18  O   UNL     1       5.776 -19.881 -16.585  1.00  0.00    -0.504 OA
ATOM     19  H   UNL     1       4.830 -19.957 -16.939  1.00  0.00     0.293 HD
ENDBRANCH  15  18
BRANCH  17  20
ATOM     20  O   UNL     1       4.421 -21.165 -14.465  1.00  0.00    -0.504 OA
ATOM     21  H   UNL     1       3.658 -21.211 -15.131  1.00  0.00     0.293 HD
ENDBRANCH  17  20
ENDBRANCH   1  12
BRANCH   2  22
ATOM     22  O   UNL     1       7.407 -25.752 -15.211  1.00  0.00    -0.502 OA
ATOM     23  H   UNL     1       6.514 -25.320 -15.419  1.00  0.00     0.293 HD
ENDBRANCH   2  22
BRANCH   6  24
ATOM     24  O   UNL     1      10.404 -28.360 -11.663  1.00  0.00    -0.507 OA
ATOM     25  H   UNL     1      11.242 -28.911 -11.573  1.00  0.00     0.293 HD
ENDBRANCH   6  24
BRANCH   8  26
ATOM     26  O   UNL     1      11.761 -24.742  -8.842  1.00  0.00    -0.508 OA
ATOM     27  H   UNL     1      12.247 -25.397  -8.240  1.00  0.00     0.293 HD
ENDBRANCH   8  26
TORSDOF 6
ENDMDL
MODEL 3
REMARK VINA RESULT:    -6.992      1.596      7.270
REMARK INTER + INTRA:          -8.736
REMARK INTER:                  -8.461
REMARK INTRA:                  -0.275
REMARK UNBOUND:                -0.314
REMARK SMILES O=c1c(O)c(-c2ccc(O)c(O)c2)oc2cc(O)cc(O)c12
REMARK SMILES IDX 5 1 3 2 2 3 1 4 22 5 20 6 19 7 17 8 16 9 15 10 14 11 6 12
REMARK SMILES IDX 7 13 8 14 9 15 13 16 11 17 10 18 12 20 4 22 21 24 18 26
REMARK H PARENT 10 19 12 21 4 23 21 25 18 27
REMARK Flexibility Score: inf
ROOT
ATOM      1  C   UNL     1      14.423 -32.884 -19.656  1.00  0.00     0.180 A 
ATOM      2  C   UNL     1      14.380 -33.771 -18.567  1.00  0.00     0.208 A 
ATOM      3  C   UNL     1      13.136 -34.251 -18.127  1.00  0.00     0.238 A 
ATOM      4  O   UNL     1      13.111 -35.102 -17.201  1.00  0.00    -0.285 OA
ATOM      5  C   UNL     1      11.946 -33.796 -18.746  1.00  0.00     0.111 A 
ATOM      6  C   UNL     1      10.628 -34.182 -18.354  1.00  0.00     0.134 A 
ATOM      7  C   UNL     1       9.529 -33.749 -19.107  1.00  0.00     0.093 A 
ATOM      8  C   UNL     1       9.694 -32.897 -20.198  1.00  0.00     0.123 A 
ATOM      9  C   UNL     1      10.973 -32.470 -20.556  1.00  0.00     0.094 A 
ATOM     10  C   UNL     1      12.092 -32.914 -19.848  1.00  0.00     0.146 A 
ATOM     11  O   UNL     1      13.292 -32.500 -20.237  1.00  0.00    -0.452 OA
ENDROOT
BRANCH   1  12
ATOM     12  C   UNL     1      15.696 -32.346 -20.185  1.00  0.00     0.025 A 
ATOM     13  C   UNL     1      16.136 -31.052 -19.859  1.00  0.00     0.016 A 
ATOM     14  C   UNL     1      17.354 -30.574 -20.350  1.00  0.00     0.051 A 
ATOM     15  C   UNL     1      18.155 -31.383 -21.162  1.00  0.00     0.157 A 
ATOM     16  C   UNL     1      16.513 -33.163 -20.983  1.00  0.00     0.062 A 
ATOM     17  C   UNL     1      17.736 -32.686 -21.478  1.00  0.00     0.158 A 
BRANCH  15  18
ATOM     18  O   UNL     1      19.365 -30.879 -21.639  1.00  0.00    -0.504 OA
ATOM     19  H   UNL     1      19.526 -30.709 -22.624  1.00  0.00     0.293 HD
ENDBRANCH  15  18
BRANCH  17  20
ATOM     20  O   UNL     1      18.533 -33.501 -22.280  1.00  0.00    -0.504 OA
ATOM     21  H   UNL     1      19.355 -33.966 -21.913  1.00  0.00     0.293 HD
ENDBRANCH  17  20
ENDBRANCH   1  12
BRANCH   2  22
ATOM     22  O   UNL     1      15.561 -34.149 -17.921  1.00  0.00    -0.502 OA
ATOM     23  H   UNL     1      15.567 -34.558 -16.994  1.00  0.00     0.293 HD
ENDBRANCH   2  22
BRANCH   6  24
ATOM     24  O   UNL     1      10.342 -34.959 -17.227  1.00  0.00    -0.507 OA
ATOM     25  H   UNL     1      11.011 -35.527 -16.733  1.00  0.00     0.293 HD
ENDBRANCH   6  24
BRANCH   8  26
ATOM     26  O   UNL     1       8.577 -32.474 -20.914  1.00  0.00    -0.508 OA
ATOM     27  H   UNL     1       8.550 -31.568 -21.368  1.00  0.00     0.293 HD
ENDBRANCH   8  26
TORSDOF 6
ENDMDL
MODEL 4
REMARK VINA RESULT:    -6.935      1.766      6.901
REMARK INTER + INTRA:          -8.667
REMARK INTER:                  -8.816
REMARK INTRA:                   0.148
REMARK UNBOUND:                -0.314
REMARK SMILES O=c1c(O)c(-c2ccc(O)c(O)c2)oc2cc(O)cc(O)c12
REMARK SMILES IDX 5 1 3 2 2 3 1 4 22 5 20 6 19 7 17 8 16 9 15 10 14 11 6 12
REMARK SMILES IDX 7 13 8 14 9 15 13 16 11 17 10 18 12 20 4 22 21 24 18 26
REMARK H PARENT 10 19 12 21 4 23 21 25 18 27
REMARK Flexibility Score: inf
ROOT
ATOM      1  C   UNL     1      14.023 -31.936 -20.102  1.00  0.00     0.180 A 
ATOM      2  C   UNL     1      13.043 -30.928 -20.103  1.00  0.00     0.208 A 
ATOM      3  C   UNL     1      11.729 -31.254 -19.732  1.00  0.00     0.238 A 
ATOM      4  O   UNL     1      10.875 -30.333 -19.663  1.00  0.00    -0.285 OA
ATOM      5  C   UNL     1      11.397 -32.596 -19.419  1.00  0.00     0.111 A 
ATOM      6  C   UNL     1      10.088 -33.048 -19.073  1.00  0.00     0.134 A 
ATOM      7  C   UNL     1       9.899 -34.380 -18.680  1.00  0.00     0.093 A 
ATOM      8  C   UNL     1      10.956 -35.287 -18.681  1.00  0.00     0.123 A 
ATOM      9  C   UNL     1      12.229 -34.869 -19.070  1.00  0.00     0.094 A 
ATOM     10  C   UNL     1      12.457 -33.539 -19.431  1.00  0.00     0.146 A 
ATOM     11  O   UNL     1      13.688 -33.178 -19.774  1.00  0.00    -0.452 OA
ENDROOT
BRANCH   1  12
ATOM     12  C   UNL     1      15.431 -31.666 -20.468  1.00  0.00     0.025 A 
ATOM     13  C   UNL     1      16.071 -30.474 -20.089  1.00  0.00     0.016 A 
ATOM     14  C   UNL     1      17.410 -30.252 -20.424  1.00  0.00     0.051 A 
ATOM     15  C   UNL     1      18.132 -31.220 -21.128  1.00  0.00     0.157 A 
ATOM     16  C   UNL     1      16.165 -32.645 -21.157  1.00  0.00     0.062 A 
ATOM     17  C   UNL     1      17.509 -32.425 -21.495  1.00  0.00     0.158 A 
BRANCH  15  18
ATOM     18  O   UNL     1      19.465 -30.970 -21.450  1.00  0.00    -0.504 OA
ATOM     19  H   UNL     1      20.224 -31.211 -20.824  1.00  0.00     0.293 HD
ENDBRANCH  15  18
BRANCH  17  20
ATOM     20  O   UNL     1      18.225 -33.398 -22.190  1.00  0.00    -0.504 OA
ATOM     21  H   UNL     1      17.812 -34.291 -22.431  1.00  0.00     0.293 HD
ENDBRANCH  17  20
ENDBRANCH   1  12
BRANCH   2  22
ATOM     22  O   UNL     1      13.374 -29.626 -20.488  1.00  0.00    -0.502 OA
ATOM     23  H   UNL     1      14.235 -29.405 -20.975  1.00  0.00     0.293 HD
ENDBRANCH   2  22
BRANCH   6  24
ATOM     24  O   UNL     1       8.943 -32.247 -19.124  1.00  0.00    -0.507 OA
ATOM     25  H   UNL     1       8.750 -31.476 -18.505  1.00  0.00     0.293 HD
ENDBRANCH   6  24
BRANCH   8  26
ATOM     26  O   UNL     1      10.729 -36.608 -18.300  1.00  0.00    -0.508 OA
ATOM     27  H   UNL     1      11.333 -37.361 -18.608  1.00  0.00     0.293 HD
ENDBRANCH   8  26
TORSDOF 6
ENDMDL
MODEL 5
REMARK VINA RESULT:    -6.821      3.120      7.503
REMARK INTER + INTRA:          -8.531
REMARK INTER:                  -8.203
REMARK INTRA:                  -0.328
REMARK UNBOUND:                -0.314
REMARK SMILES O=c1c(O)c(-c2ccc(O)c(O)c2)oc2cc(O)cc(O)c12
REMARK SMILES IDX 5 1 3 2 2 3 1 4 22 5 20 6 19 7 17 8 16 9 15 10 14 11 6 12
REMARK SMILES IDX 7 13 8 14 9 15 13 16 11 17 10 18 12 20 4 22 21 24 18 26
REMARK H PARENT 10 19 12 21 4 23 21 25 18 27
REMARK Flexibility Score: inf
ROOT
ATOM      1  C   UNL     1      17.696 -29.345 -21.462  1.00  0.00     0.180 A 
ATOM      2  C   UNL     1      17.869 -29.260 -20.069  1.00  0.00     0.208 A 
ATOM      3  C   UNL     1      17.214 -30.188 -19.244  1.00  0.00     0.238 A 
ATOM      4  O   UNL     1      17.433 -30.153 -18.006  1.00  0.00    -0.285 OA
ATOM      5  C   UNL     1      16.350 -31.155 -19.815  1.00  0.00     0.111 A 
ATOM      6  C   UNL     1      15.601 -32.116 -19.071  1.00  0.00     0.134 A 
ATOM      7  C   UNL     1      14.860 -33.091 -19.751  1.00  0.00     0.093 A 
ATOM      8  C   UNL     1      14.791 -33.102 -21.142  1.00  0.00     0.123 A 
ATOM      9  C   UNL     1      15.475 -32.134 -21.879  1.00  0.00     0.094 A 
ATOM     10  C   UNL     1      16.253 -31.171 -21.231  1.00  0.00     0.146 A 
ATOM     11  O   UNL     1      16.904 -30.281 -21.971  1.00  0.00    -0.452 OA
ENDROOT
BRANCH   1  12
ATOM     12  C   UNL     1      18.363 -28.412 -22.397  1.00  0.00     0.025 A 
ATOM     13  C   UNL     1      19.671 -28.645 -22.856  1.00  0.00     0.016 A 
ATOM     14  C   UNL     1      20.271 -27.763 -23.759  1.00  0.00     0.051 A 
ATOM     15  C   UNL     1      19.573 -26.646 -24.226  1.00  0.00     0.157 A 
ATOM     16  C   UNL     1      17.657 -27.300 -22.885  1.00  0.00     0.062 A 
ATOM     17  C   UNL     1      18.258 -26.413 -23.791  1.00  0.00     0.158 A 
BRANCH  15  18
ATOM     18  O   UNL     1      20.199 -25.783 -25.125  1.00  0.00    -0.504 OA
ATOM     19  H   UNL     1      20.884 -26.108 -25.795  1.00  0.00     0.293 HD
ENDBRANCH  15  18
BRANCH  17  20
ATOM     20  O   UNL     1      17.553 -25.305 -24.259  1.00  0.00    -0.504 OA
ATOM     21  H   UNL     1      16.980 -25.354 -25.093  1.00  0.00     0.293 HD
ENDBRANCH  17  20
ENDBRANCH   1  12
BRANCH   2  22
ATOM     22  O   UNL     1      18.665 -28.252 -19.520  1.00  0.00    -0.502 OA
ATOM     23  H   UNL     1      18.463 -27.267 -19.650  1.00  0.00     0.293 HD
ENDBRANCH   2  22
BRANCH   6  24
ATOM     24  O   UNL     1      15.528 -32.141 -17.675  1.00  0.00    -0.507 OA
ATOM     25  H   UNL     1      14.977 -31.512 -17.114  1.00  0.00     0.293 HD
ENDBRANCH   6  24
BRANCH   8  26
ATOM     26  O   UNL     1      14.031 -34.077 -21.785  1.00  0.00    -0.508 OA
ATOM     27  H   UNL     1      14.415 -34.987 -22.010  1.00  0.00     0.293 HD
ENDBRANCH   8  26
TORSDOF 6
ENDMDL
MODEL 6
REMARK VINA RESULT:    -6.772      1.764      3.430
REMARK INTER + INTRA:          -8.471
REMARK INTER:                  -8.196
REMARK INTRA:                  -0.275
REMARK UNBOUND:                -0.314
REMARK SMILES O=c1c(O)c(-c2ccc(O)c(O)c2)oc2cc(O)cc(O)c12
REMARK SMILES IDX 5 1 3 2 2 3 1 4 22 5 20 6 19 7 17 8 16 9 15 10 14 11 6 12
REMARK SMILES IDX 7 13 8 14 9 15 13 16 11 17 10 18 12 20 4 22 21 24 18 26
REMARK H PARENT 10 19 12 21 4 23 21 25 18 27
REMARK Flexibility Score: inf
ROOT
ATOM      1  C   UNL     1      16.280 -32.002 -20.447  1.00  0.00     0.180 A 
ATOM      2  C   UNL     1      17.389 -32.623 -21.047  1.00  0.00     0.208 A 
ATOM      3  C   UNL     1      18.356 -31.826 -21.682  1.00  0.00     0.238 A 
ATOM      4  O   UNL     1      19.382 -32.382 -22.150  1.00  0.00    -0.285 OA
ATOM      5  C   UNL     1      18.173 -30.423 -21.758  1.00  0.00     0.111 A 
ATOM      6  C   UNL     1      19.066 -29.524 -22.416  1.00  0.00     0.134 A 
ATOM      7  C   UNL     1      18.838 -28.144 -22.336  1.00  0.00     0.093 A 
ATOM      8  C   UNL     1      17.719 -27.635 -21.678  1.00  0.00     0.123 A 
ATOM      9  C   UNL     1      16.811 -28.509 -21.080  1.00  0.00     0.094 A 
ATOM     10  C   UNL     1      17.030 -29.888 -21.109  1.00  0.00     0.146 A 
ATOM     11  O   UNL     1      16.152 -30.682 -20.508  1.00  0.00    -0.452 OA
ENDROOT
BRANCH   1  12
ATOM     12  C   UNL     1      15.227 -32.773 -19.748  1.00  0.00     0.025 A 
ATOM     13  C   UNL     1      15.444 -33.317 -18.471  1.00  0.00     0.016 A 
ATOM     14  C   UNL     1      14.427 -34.020 -17.819  1.00  0.00     0.051 A 
ATOM     15  C   UNL     1      13.178 -34.179 -18.426  1.00  0.00     0.157 A 
ATOM     16  C   UNL     1      13.965 -32.917 -20.346  1.00  0.00     0.062 A 
ATOM     17  C   UNL     1      12.942 -33.623 -19.695  1.00  0.00     0.158 A 
BRANCH  15  18
ATOM     18  O   UNL     1      12.182 -34.887 -17.753  1.00  0.00    -0.504 OA
ATOM     19  H   UNL     1      11.721 -35.689 -18.164  1.00  0.00     0.293 HD
ENDBRANCH  15  18
BRANCH  17  20
ATOM     20  O   UNL     1      11.696 -33.771 -20.302  1.00  0.00    -0.504 OA
ATOM     21  H   UNL     1      11.429 -34.633 -20.762  1.00  0.00     0.293 HD
ENDBRANCH  17  20
ENDBRANCH   1  12
BRANCH   2  22
ATOM     22  O   UNL     1      17.512 -34.015 -21.027  1.00  0.00    -0.502 OA
ATOM     23  H   UNL     1      17.325 -34.590 -21.841  1.00  0.00     0.293 HD
ENDBRANCH   2  22
BRANCH   6  24
ATOM     24  O   UNL     1      20.167 -29.929 -23.176  1.00  0.00    -0.507 OA
ATOM     25  H   UNL     1      20.697 -29.330 -23.790  1.00  0.00     0.293 HD
ENDBRANCH   6  24
BRANCH   8  26
ATOM     26  O   UNL     1      17.515 -26.258 -21.633  1.00  0.00    -0.508 OA
ATOM     27  H   UNL     1      16.710 -25.826 -22.072  1.00  0.00     0.293 HD
ENDBRANCH   8  26
TORSDOF 6
ENDMDL
MODEL 7
REMARK VINA RESULT:    -6.729      1.812      3.508
REMARK INTER + INTRA:          -8.420
REMARK INTER:                  -8.112
REMARK INTRA:                  -0.307
REMARK UNBOUND:                -0.314
REMARK SMILES O=c1c(O)c(-c2ccc(O)c(O)c2)oc2cc(O)cc(O)c12
REMARK SMILES IDX 5 1 3 2 2 3 1 4 22 5 20 6 19 7 17 8 16 9 15 10 14 11 6 12
REMARK SMILES IDX 7 13 8 14 9 15 13 16 11 17 10 18 12 20 4 22 21 24 18 26
REMARK H PARENT 10 19 12 21 4 23 21 25 18 27
REMARK Flexibility Score: inf
ROOT
ATOM      1  C   UNL     1      14.504 -32.346 -19.633  1.00  0.00     0.180 A 
ATOM      2  C   UNL     1      15.391 -32.726 -20.655  1.00  0.00     0.208 A 
ATOM      3  C   UNL     1      16.586 -32.008 -20.822  1.00  0.00     0.238 A 
ATOM      4  O   UNL     1      17.409 -32.399 -21.689  1.00  0.00    -0.285 OA
ATOM      5  C   UNL     1      16.854 -30.884 -20.001  1.00  0.00     0.111 A 
ATOM      6  C   UNL     1      18.012 -30.057 -20.110  1.00  0.00     0.134 A 
ATOM      7  C   UNL     1      18.222 -29.036 -19.175  1.00  0.00     0.093 A 
ATOM      8  C   UNL     1      17.289 -28.772 -18.174  1.00  0.00     0.123 A 
ATOM      9  C   UNL     1      16.126 -29.540 -18.092  1.00  0.00     0.094 A 
ATOM     10  C   UNL     1      15.906 -30.590 -18.987  1.00  0.00     0.146 A 
ATOM     11  O   UNL     1      14.797 -31.309 -18.859  1.00  0.00    -0.452 OA
ENDROOT
BRANCH   1  12
ATOM     12  C   UNL     1      13.232 -33.063 -19.387  1.00  0.00     0.025 A 
ATOM     13  C   UNL     1      12.022 -32.619 -19.947  1.00  0.00     0.016 A 
ATOM     14  C   UNL     1      10.837 -33.326 -19.721  1.00  0.00     0.051 A 
ATOM     15  C   UNL     1      10.845 -34.489 -18.946  1.00  0.00     0.157 A 
ATOM     16  C   UNL     1      13.241 -34.243 -18.626  1.00  0.00     0.062 A 
ATOM     17  C   UNL     1      12.053 -34.954 -18.398  1.00  0.00     0.158 A 
BRANCH  15  18
ATOM     18  O   UNL     1       9.648 -35.173 -18.736  1.00  0.00    -0.504 OA
ATOM     19  H   UNL     1       9.058 -35.473 -19.503  1.00  0.00     0.293 HD
ENDBRANCH  15  18
BRANCH  17  20
ATOM     20  O   UNL     1      12.070 -36.118 -17.631  1.00  0.00    -0.504 OA
ATOM     21  H   UNL     1      11.372 -36.843 -17.750  1.00  0.00     0.293 HD
ENDBRANCH  17  20
ENDBRANCH   1  12
BRANCH   2  22
ATOM     22  O   UNL     1      15.073 -33.790 -21.503  1.00  0.00    -0.502 OA
ATOM     23  H   UNL     1      15.752 -34.489 -21.778  1.00  0.00     0.293 HD
ENDBRANCH   2  22
BRANCH   6  24
ATOM     24  O   UNL     1      18.966 -30.175 -21.126  1.00  0.00    -0.507 OA
ATOM     25  H   UNL     1      18.763 -30.173 -22.112  1.00  0.00     0.293 HD
ENDBRANCH   6  24
BRANCH   8  26
ATOM     26  O   UNL     1      17.522 -27.738 -17.271  1.00  0.00    -0.508 OA
ATOM     27  H   UNL     1      17.987 -26.882 -17.552  1.00  0.00     0.293 HD
ENDBRANCH   8  26
TORSDOF 6
ENDMDL
MODEL 8
REMARK VINA RESULT:    -6.638      1.659      7.096
REMARK INTER + INTRA:          -8.311
REMARK INTER:                  -8.161
REMARK INTRA:                  -0.150
REMARK UNBOUND:                -0.314
REMARK SMILES O=c1c(O)c(-c2ccc(O)c(O)c2)oc2cc(O)cc(O)c12
REMARK SMILES IDX 5 1 3 2 2 3 1 4 22 5 20 6 19 7 17 8 16 9 15 10 14 11 6 12
REMARK SMILES IDX 7 13 8 14 9 15 13 16 11 17 10 18 12 20 4 22 21 24 18 26
REMARK H PARENT 10 19 12 21 4 23 21 25 18 27
REMARK Flexibility Score: inf
ROOT
ATOM      1  C   UNL     1      15.204 -32.850 -19.481  1.00  0.00     0.180 A 
ATOM      2  C   UNL     1      14.074 -33.421 -20.093  1.00  0.00     0.208 A 
ATOM      3  C   UNL     1      13.003 -33.841 -19.289  1.00  0.00     0.238 A 
ATOM      4  O   UNL     1      11.966 -34.281 -19.848  1.00  0.00    -0.285 OA
ATOM      5  C   UNL     1      13.095 -33.737 -17.879  1.00  0.00     0.111 A 
ATOM      6  C   UNL     1      12.089 -34.172 -16.965  1.00  0.00     0.134 A 
ATOM      7  C   UNL     1      12.245 -33.922 -15.595  1.00  0.00     0.093 A 
ATOM      8  C   UNL     1      13.396 -33.311 -15.102  1.00  0.00     0.123 A 
ATOM      9  C   UNL     1      14.411 -32.932 -15.981  1.00  0.00     0.094 A 
ATOM     10  C   UNL     1      14.269 -33.133 -17.356  1.00  0.00     0.146 A 
ATOM     11  O   UNL     1      15.249 -32.737 -18.159  1.00  0.00    -0.452 OA
ENDROOT
BRANCH   1  12
ATOM     12  C   UNL     1      16.367 -32.371 -20.262  1.00  0.00     0.025 A 
ATOM     13  C   UNL     1      16.749 -31.019 -20.251  1.00  0.00     0.016 A 
ATOM     14  C   UNL     1      17.866 -30.595 -20.977  1.00  0.00     0.051 A 
ATOM     15  C   UNL     1      18.622 -31.512 -21.711  1.00  0.00     0.157 A 
ATOM     16  C   UNL     1      17.141 -33.294 -20.983  1.00  0.00     0.062 A 
ATOM     17  C   UNL     1      18.262 -32.870 -21.713  1.00  0.00     0.158 A 
BRANCH  15  18
ATOM     18  O   UNL     1      19.730 -31.060 -22.426  1.00  0.00    -0.504 OA
ATOM     19  H   UNL     1      20.583 -30.762 -21.967  1.00  0.00     0.293 HD
ENDBRANCH  15  18
BRANCH  17  20
ATOM     20  O   UNL     1      19.017 -33.793 -22.436  1.00  0.00    -0.504 OA
ATOM     21  H   UNL     1      19.905 -34.138 -22.092  1.00  0.00     0.293 HD
ENDBRANCH  17  20
ENDBRANCH   1  12
BRANCH   2  22
ATOM     22  O   UNL     1      14.034 -33.584 -21.480  1.00  0.00    -0.502 OA
ATOM     23  H   UNL     1      13.793 -34.466 -21.917  1.00  0.00     0.293 HD
ENDBRANCH   2  22
BRANCH   6  24
ATOM     24  O   UNL     1      10.938 -34.872 -17.342  1.00  0.00    -0.507 OA
ATOM     25  H   UNL     1      10.404 -35.474 -16.736  1.00  0.00     0.293 HD
ENDBRANCH   6  24
BRANCH   8  26
ATOM     26  O   UNL     1      13.525 -33.093 -13.732  1.00  0.00    -0.508 OA
ATOM     27  H   UNL     1      12.732 -33.166 -13.105  1.00  0.00     0.293 HD
ENDBRANCH   8  26
TORSDOF 6
ENDMDL
MODEL 9
REMARK VINA RESULT:    -6.585      6.478      8.374
REMARK INTER + INTRA:          -8.246
REMARK INTER:                  -7.936
REMARK INTRA:                  -0.310
REMARK UNBOUND:                -0.314
REMARK SMILES O=c1c(O)c(-c2ccc(O)c(O)c2)oc2cc(O)cc(O)c12
REMARK SMILES IDX 5 1 3 2 2 3 1 4 22 5 20 6 19 7 17 8 16 9 15 10 14 11 6 12
REMARK SMILES IDX 7 13 8 14 9 15 13 16 11 17 10 18 12 20 4 22 21 24 18 26
REMARK H PARENT 10 19 12 21 4 23 21 25 18 27
REMARK Flexibility Score: inf
ROOT
ATOM      1  C   UNL     1      11.834 -34.155 -14.637  1.00  0.00     0.180 A 
ATOM      2  C   UNL     1      11.064 -34.556 -13.531  1.00  0.00     0.208 A 
ATOM      3  C   UNL     1      11.670 -34.620 -12.266  1.00  0.00     0.238 A 
ATOM      4  O   UNL     1      10.958 -34.907 -11.270  1.00  0.00    -0.285 OA
ATOM      5  C   UNL     1      13.052 -34.336 -12.131  1.00  0.00     0.111 A 
ATOM      6  C   UNL     1      13.780 -34.412 -10.905  1.00  0.00     0.134 A 
ATOM      7  C   UNL     1      15.120 -34.006 -10.872  1.00  0.00     0.093 A 
ATOM      8  C   UNL     1      15.775 -33.588 -12.029  1.00  0.00     0.123 A 
ATOM      9  C   UNL     1      15.088 -33.562 -13.243  1.00  0.00     0.094 A 
ATOM     10  C   UNL     1      13.740 -33.925 -13.302  1.00  0.00     0.146 A 
ATOM     11  O   UNL     1      13.119 -33.865 -14.474  1.00  0.00    -0.452 OA
ENDROOT
BRANCH   1  12
ATOM     12  C   UNL     1      11.263 -34.051 -15.999  1.00  0.00     0.025 A 
ATOM     13  C   UNL     1      10.511 -32.931 -16.393  1.00  0.00     0.016 A 
ATOM     14  C   UNL     1      10.002 -32.843 -17.693  1.00  0.00     0.051 A 
ATOM     15  C   UNL     1      10.247 -33.862 -18.618  1.00  0.00     0.157 A 
ATOM     16  C   UNL     1      11.524 -35.062 -16.936  1.00  0.00     0.062 A 
ATOM     17  C   UNL     1      11.015 -34.976 -18.241  1.00  0.00     0.158 A 
BRANCH  15  18
ATOM     18  O   UNL     1       9.726 -33.747 -19.906  1.00  0.00    -0.504 OA
ATOM     19  H   UNL     1      10.072 -34.304 -20.678  1.00  0.00     0.293 HD
ENDBRANCH  15  18
BRANCH  17  20
ATOM     20  O   UNL     1      11.270 -35.992 -19.161  1.00  0.00    -0.504 OA
ATOM     21  H   UNL     1      10.716 -36.097 -20.003  1.00  0.00     0.293 HD
ENDBRANCH  17  20
ENDBRANCH   1  12
BRANCH   2  22
ATOM     22  O   UNL     1       9.721 -34.906 -13.699  1.00  0.00    -0.502 OA
ATOM     23  H   UNL     1       9.004 -34.645 -13.032  1.00  0.00     0.293 HD
ENDBRANCH   2  22
BRANCH   6  24
ATOM     24  O   UNL     1      13.248 -34.900  -9.707  1.00  0.00    -0.507 OA
ATOM     25  H   UNL     1      13.673 -34.791  -8.800  1.00  0.00     0.293 HD
ENDBRANCH   6  24
BRANCH   8  26
ATOM     26  O   UNL     1      17.113 -33.207 -11.962  1.00  0.00    -0.508 OA
ATOM     27  H   UNL     1      17.394 -32.326 -11.547  1.00  0.00     0.293 HD
ENDBRANCH   8  26
TORSDOF 6
ENDMDL
