MODEL 1
REMARK VINA RESULT:    -4.730      0.000      0.000
REMARK INTER + INTRA:          -5.926
REMARK INTER:                  -5.698
REMARK INTRA:                  -0.228
REMARK UNBOUND:                -0.228
REMARK SMILES O=c1c(O)c(-c2ccc(O)c(O)c2)oc2cc(O)cc(O)c12
REMARK SMILES IDX 5 1 3 2 2 3 1 4 22 5 20 6 19 7 17 8 16 9 15 10 14 11 6 12
REMARK SMILES IDX 7 13 8 14 9 15 13 16 11 17 10 18 12 20 4 22 21 24 18 26
REMARK H PARENT 10 19 12 21 4 23 21 25 18 27
REMARK Flexibility Score: inf
ROOT
ATOM      1  C   UNL     1      -7.676  16.158  32.405  1.00  0.00     0.180 A 
ATOM      2  C   UNL     1      -6.529  16.601  33.091  1.00  0.00     0.208 A 
ATOM      3  C   UNL     1      -6.510  16.536  34.493  1.00  0.00     0.238 A 
ATOM      4  O   UNL     1      -5.484  16.920  35.118  1.00  0.00    -0.285 OA
ATOM      5  C   UNL     1      -7.639  16.051  35.183  1.00  0.00     0.111 A 
ATOM      6  C   UNL     1      -7.703  15.957  36.594  1.00  0.00     0.134 A 
ATOM      7  C   UNL     1      -8.867  15.471  37.208  1.00  0.00     0.093 A 
ATOM      8  C   UNL     1      -9.968  15.079  36.438  1.00  0.00     0.123 A 
ATOM      9  C   UNL     1      -9.910  15.170  35.046  1.00  0.00     0.094 A 
ATOM     10  C   UNL     1      -8.757  15.650  34.416  1.00  0.00     0.146 A 
ATOM     11  O   UNL     1      -8.728  15.720  33.090  1.00  0.00    -0.452 OA
ENDROOT
BRANCH   1  12
ATOM     12  C   UNL     1      -7.765  16.178  30.927  1.00  0.00     0.025 A 
ATOM     13  C   UNL     1      -8.693  17.025  30.302  1.00  0.00     0.016 A 
ATOM     14  C   UNL     1      -8.809  17.044  28.910  1.00  0.00     0.051 A 
ATOM     15  C   UNL     1      -8.012  16.208  28.123  1.00  0.00     0.157 A 
ATOM     16  C   UNL     1      -6.979  15.321  30.134  1.00  0.00     0.062 A 
ATOM     17  C   UNL     1      -7.095  15.338  28.736  1.00  0.00     0.158 A 
BRANCH  15  18
ATOM     18  O   UNL     1      -8.148  16.251  26.735  1.00  0.00    -0.504 OA
ATOM     19  H   UNL     1      -7.449  15.862  26.114  1.00  0.00     0.293 HD
ENDBRANCH  15  18
BRANCH  17  20
ATOM     20  O   UNL     1      -6.307  14.492  27.958  1.00  0.00    -0.504 OA
ATOM     21  H   UNL     1      -6.556  13.520  27.814  1.00  0.00     0.293 HD
ENDBRANCH  17  20
ENDBRANCH   1  12
BRANCH   2  22
ATOM     22  O   UNL     1      -5.442  17.125  32.385  1.00  0.00    -0.502 OA
ATOM     23  H   UNL     1      -4.507  17.155  32.773  1.00  0.00     0.293 HD
ENDBRANCH   2  22
BRANCH   6  24
ATOM     24  O   UNL     1      -6.622  16.341  37.390  1.00  0.00    -0.507 OA
ATOM     25  H   UNL     1      -5.685  15.992  37.221  1.00  0.00     0.293 HD
ENDBRANCH   6  24
BRANCH   8  26
ATOM     26  O   UNL     1     -11.125  14.598  37.046  1.00  0.00    -0.508 OA
ATOM     27  H   UNL     1     -11.441  14.955  37.941  1.00  0.00     0.293 HD
ENDBRANCH   8  26
TORSDOF 6
ENDMDL
MODEL 2
REMARK VINA RESULT:    -4.523      1.687      6.734
REMARK INTER + INTRA:          -5.677
REMARK INTER:                  -5.435
REMARK INTRA:                  -0.241
REMARK UNBOUND:                -0.228
REMARK SMILES O=c1c(O)c(-c2ccc(O)c(O)c2)oc2cc(O)cc(O)c12
REMARK SMILES IDX 5 1 3 2 2 3 1 4 22 5 20 6 19 7 17 8 16 9 15 10 14 11 6 12
REMARK SMILES IDX 7 13 8 14 9 15 13 16 11 17 10 18 12 20 4 22 21 24 18 26
REMARK H PARENT 10 19 12 21 4 23 21 25 18 27
REMARK Flexibility Score: inf
ROOT
ATOM      1  C   UNL     1      -8.137  16.274  32.098  1.00  0.00     0.180 A 
ATOM      2  C   UNL     1      -6.787  16.649  31.964  1.00  0.00     0.208 A 
ATOM      3  C   UNL     1      -6.244  16.779  30.675  1.00  0.00     0.238 A 
ATOM      4  O   UNL     1      -5.038  17.125  30.543  1.00  0.00    -0.285 OA
ATOM      5  C   UNL     1      -7.050  16.515  29.550  1.00  0.00     0.111 A 
ATOM      6  C   UNL     1      -6.580  16.618  28.219  1.00  0.00     0.134 A 
ATOM      7  C   UNL     1      -7.442  16.329  27.151  1.00  0.00     0.093 A 
ATOM      8  C   UNL     1      -8.764  15.937  27.389  1.00  0.00     0.123 A 
ATOM      9  C   UNL     1      -9.233  15.834  28.700  1.00  0.00     0.094 A 
ATOM     10  C   UNL     1      -8.389  16.120  29.778  1.00  0.00     0.146 A 
ATOM     11  O   UNL     1      -8.864  16.018  31.014  1.00  0.00    -0.452 OA
ENDROOT
BRANCH   1  12
ATOM     12  C   UNL     1      -8.787  16.134  33.422  1.00  0.00     0.025 A 
ATOM     13  C   UNL     1      -9.679  17.124  33.860  1.00  0.00     0.016 A 
ATOM     14  C   UNL     1     -10.287  17.024  35.115  1.00  0.00     0.051 A 
ATOM     15  C   UNL     1     -10.002  15.943  35.954  1.00  0.00     0.157 A 
ATOM     16  C   UNL     1      -8.484  15.059  34.276  1.00  0.00     0.062 A 
ATOM     17  C   UNL     1      -9.092  14.957  35.536  1.00  0.00     0.158 A 
BRANCH  15  18
ATOM     18  O   UNL     1     -10.626  15.868  37.199  1.00  0.00    -0.504 OA
ATOM     19  H   UNL     1     -10.115  15.989  38.065  1.00  0.00     0.293 HD
ENDBRANCH  15  18
BRANCH  17  20
ATOM     20  O   UNL     1      -8.792  13.884  36.374  1.00  0.00    -0.504 OA
ATOM     21  H   UNL     1      -7.835  13.608  36.560  1.00  0.00     0.293 HD
ENDBRANCH  17  20
ENDBRANCH   1  12
BRANCH   2  22
ATOM     22  O   UNL     1      -5.996  16.857  33.097  1.00  0.00    -0.502 OA
ATOM     23  H   UNL     1      -5.464  16.113  33.531  1.00  0.00     0.293 HD
ENDBRANCH   2  22
BRANCH   6  24
ATOM     24  O   UNL     1      -5.265  17.005  27.949  1.00  0.00    -0.507 OA
ATOM     25  H   UNL     1      -4.480  16.609  28.452  1.00  0.00     0.293 HD
ENDBRANCH   6  24
BRANCH   8  26
ATOM     26  O   UNL     1      -9.620  15.648  26.329  1.00  0.00    -0.508 OA
ATOM     27  H   UNL     1      -9.918  16.365  25.677  1.00  0.00     0.293 HD
ENDBRANCH   8  26
TORSDOF 6
ENDMDL
MODEL 3
REMARK VINA RESULT:    -4.508      1.725      7.299
REMARK INTER + INTRA:          -5.658
REMARK INTER:                  -5.734
REMARK INTRA:                   0.076
REMARK UNBOUND:                -0.228
REMARK SMILES O=c1c(O)c(-c2ccc(O)c(O)c2)oc2cc(O)cc(O)c12
REMARK SMILES IDX 5 1 3 2 2 3 1 4 22 5 20 6 19 7 17 8 16 9 15 10 14 11 6 12
REMARK SMILES IDX 7 13 8 14 9 15 13 16 11 17 10 18 12 20 4 22 21 24 18 26
REMARK H PARENT 10 19 12 21 4 23 21 25 18 27
REMARK Flexibility Score: inf
ROOT
ATOM      1  C   UNL     1      -8.449  15.669  32.450  1.00  0.00     0.180 A 
ATOM      2  C   UNL     1      -9.654  15.278  31.834  1.00  0.00     0.208 A 
ATOM      3  C   UNL     1      -9.719  15.246  30.432  1.00  0.00     0.238 A 
ATOM      4  O   UNL     1     -10.790  14.887  29.869  1.00  0.00    -0.285 OA
ATOM      5  C   UNL     1      -8.593  15.623  29.673  1.00  0.00     0.111 A 
ATOM      6  C   UNL     1      -8.577  15.622  28.257  1.00  0.00     0.134 A 
ATOM      7  C   UNL     1      -7.419  16.020  27.574  1.00  0.00     0.093 A 
ATOM      8  C   UNL     1      -6.277  16.418  28.278  1.00  0.00     0.123 A 
ATOM      9  C   UNL     1      -6.287  16.420  29.674  1.00  0.00     0.094 A 
ATOM     10  C   UNL     1      -7.432  16.025  30.374  1.00  0.00     0.146 A 
ATOM     11  O   UNL     1      -7.411  16.031  31.702  1.00  0.00    -0.452 OA
ENDROOT
BRANCH   1  12
ATOM     12  C   UNL     1      -8.296  15.710  33.922  1.00  0.00     0.025 A 
ATOM     13  C   UNL     1      -7.584  16.765  34.513  1.00  0.00     0.016 A 
ATOM     14  C   UNL     1      -7.409  16.812  35.898  1.00  0.00     0.051 A 
ATOM     15  C   UNL     1      -7.927  15.801  36.711  1.00  0.00     0.157 A 
ATOM     16  C   UNL     1      -8.799  14.681  34.740  1.00  0.00     0.062 A 
ATOM     17  C   UNL     1      -8.622  14.726  36.131  1.00  0.00     0.158 A 
BRANCH  15  18
ATOM     18  O   UNL     1      -7.739  15.877  38.092  1.00  0.00    -0.504 OA
ATOM     19  H   UNL     1      -8.233  16.549  38.666  1.00  0.00     0.293 HD
ENDBRANCH  15  18
BRANCH  17  20
ATOM     20  O   UNL     1      -9.129  13.707  36.935  1.00  0.00    -0.504 OA
ATOM     21  H   UNL     1      -9.959  13.841  37.500  1.00  0.00     0.293 HD
ENDBRANCH  17  20
ENDBRANCH   1  12
BRANCH   2  22
ATOM     22  O   UNL     1     -10.771  14.958  32.609  1.00  0.00    -0.502 OA
ATOM     23  H   UNL     1     -11.131  14.014  32.679  1.00  0.00     0.293 HD
ENDBRANCH   2  22
BRANCH   6  24
ATOM     24  O   UNL     1      -9.701  15.232  27.527  1.00  0.00    -0.507 OA
ATOM     25  H   UNL     1     -10.631  15.252  27.928  1.00  0.00     0.293 HD
ENDBRANCH   6  24
BRANCH   8  26
ATOM     26  O   UNL     1      -5.127  16.814  27.600  1.00  0.00    -0.508 OA
ATOM     27  H   UNL     1      -4.430  17.405  28.039  1.00  0.00     0.293 HD
ENDBRANCH   8  26
TORSDOF 6
ENDMDL
MODEL 4
REMARK VINA RESULT:    -4.262      1.252      2.897
REMARK INTER + INTRA:          -5.362
REMARK INTER:                  -5.218
REMARK INTRA:                  -0.144
REMARK UNBOUND:                -0.228
REMARK SMILES O=c1c(O)c(-c2ccc(O)c(O)c2)oc2cc(O)cc(O)c12
REMARK SMILES IDX 5 1 3 2 2 3 1 4 22 5 20 6 19 7 17 8 16 9 15 10 14 11 6 12
REMARK SMILES IDX 7 13 8 14 9 15 13 16 11 17 10 18 12 20 4 22 21 24 18 26
REMARK H PARENT 10 19 12 21 4 23 21 25 18 27
REMARK Flexibility Score: inf
ROOT
ATOM      1  C   UNL     1      -8.567  15.775  31.863  1.00  0.00     0.180 A 
ATOM      2  C   UNL     1      -9.775  15.156  32.239  1.00  0.00     0.208 A 
ATOM      3  C   UNL     1     -10.041  14.963  33.604  1.00  0.00     0.238 A 
ATOM      4  O   UNL     1     -11.125  14.419  33.953  1.00  0.00    -0.285 OA
ATOM      5  C   UNL     1      -9.094  15.371  34.564  1.00  0.00     0.111 A 
ATOM      6  C   UNL     1      -9.283  15.208  35.957  1.00  0.00     0.134 A 
ATOM      7  C   UNL     1      -8.288  15.632  36.849  1.00  0.00     0.093 A 
ATOM      8  C   UNL     1      -7.107  16.214  36.375  1.00  0.00     0.123 A 
ATOM      9  C   UNL     1      -6.915  16.377  35.002  1.00  0.00     0.094 A 
ATOM     10  C   UNL     1      -7.897  15.962  34.096  1.00  0.00     0.146 A 
ATOM     11  O   UNL     1      -7.690  16.134  32.796  1.00  0.00    -0.452 OA
ENDROOT
BRANCH   1  12
ATOM     12  C   UNL     1      -8.222  16.031  30.446  1.00  0.00     0.025 A 
ATOM     13  C   UNL     1      -9.032  16.886  29.682  1.00  0.00     0.016 A 
ATOM     14  C   UNL     1      -8.737  17.125  28.337  1.00  0.00     0.051 A 
ATOM     15  C   UNL     1      -7.641  16.503  27.732  1.00  0.00     0.157 A 
ATOM     16  C   UNL     1      -7.132  15.389  29.830  1.00  0.00     0.062 A 
ATOM     17  C   UNL     1      -6.836  15.627  28.479  1.00  0.00     0.158 A 
BRANCH  15  18
ATOM     18  O   UNL     1      -7.371  16.763  26.388  1.00  0.00    -0.504 OA
ATOM     19  H   UNL     1      -7.236  17.704  26.040  1.00  0.00     0.293 HD
ENDBRANCH  15  18
BRANCH  17  20
ATOM     20  O   UNL     1      -5.751  14.992  27.878  1.00  0.00    -0.504 OA
ATOM     21  H   UNL     1      -4.932  14.723  28.411  1.00  0.00     0.293 HD
ENDBRANCH  17  20
ENDBRANCH   1  12
BRANCH   2  22
ATOM     22  O   UNL     1     -10.675  14.716  31.265  1.00  0.00    -0.502 OA
ATOM     23  H   UNL     1     -11.450  14.102  31.482  1.00  0.00     0.293 HD
ENDBRANCH   2  22
BRANCH   6  24
ATOM     24  O   UNL     1     -10.450  14.630  36.461  1.00  0.00    -0.507 OA
ATOM     25  H   UNL     1     -10.438  14.028  37.276  1.00  0.00     0.293 HD
ENDBRANCH   6  24
BRANCH   8  26
ATOM     26  O   UNL     1      -6.117  16.634  37.260  1.00  0.00    -0.508 OA
ATOM     27  H   UNL     1      -6.346  16.989  38.182  1.00  0.00     0.293 HD
ENDBRANCH   8  26
TORSDOF 6
ENDMDL
MODEL 5
REMARK VINA RESULT:    -4.238      2.074      2.481
REMARK INTER + INTRA:          -5.333
REMARK INTER:                  -5.138
REMARK INTRA:                  -0.195
REMARK UNBOUND:                -0.228
REMARK SMILES O=c1c(O)c(-c2ccc(O)c(O)c2)oc2cc(O)cc(O)c12
REMARK SMILES IDX 5 1 3 2 2 3 1 4 22 5 20 6 19 7 17 8 16 9 15 10 14 11 6 12
REMARK SMILES IDX 7 13 8 14 9 15 13 16 11 17 10 18 12 20 4 22 21 24 18 26
REMARK H PARENT 10 19 12 21 4 23 21 25 18 27
REMARK Flexibility Score: inf
ROOT
ATOM      1  C   UNL     1      -8.950  15.378  33.408  1.00  0.00     0.180 A 
ATOM      2  C   UNL     1      -7.611  15.776  33.584  1.00  0.00     0.208 A 
ATOM      3  C   UNL     1      -7.123  15.956  34.888  1.00  0.00     0.238 A 
ATOM      4  O   UNL     1      -5.922  16.301  35.059  1.00  0.00    -0.285 OA
ATOM      5  C   UNL     1      -7.983  15.757  35.987  1.00  0.00     0.111 A 
ATOM      6  C   UNL     1      -7.572  15.922  37.332  1.00  0.00     0.134 A 
ATOM      7  C   UNL     1      -8.491  15.715  38.371  1.00  0.00     0.093 A 
ATOM      8  C   UNL     1      -9.811  15.346  38.092  1.00  0.00     0.123 A 
ATOM      9  C   UNL     1     -10.222  15.183  36.768  1.00  0.00     0.094 A 
ATOM     10  C   UNL     1      -9.320  15.383  35.718  1.00  0.00     0.146 A 
ATOM     11  O   UNL     1      -9.737  15.215  34.468  1.00  0.00    -0.452 OA
ENDROOT
BRANCH   1  12
ATOM     12  C   UNL     1      -9.533  15.150  32.065  1.00  0.00     0.025 A 
ATOM     13  C   UNL     1      -9.847  13.843  31.663  1.00  0.00     0.016 A 
ATOM     14  C   UNL     1     -10.378  13.601  30.393  1.00  0.00     0.051 A 
ATOM     15  C   UNL     1     -10.587  14.658  29.502  1.00  0.00     0.157 A 
ATOM     16  C   UNL     1      -9.723  16.209  31.159  1.00  0.00     0.062 A 
ATOM     17  C   UNL     1     -10.254  15.968  29.884  1.00  0.00     0.158 A 
BRANCH  15  18
ATOM     18  O   UNL     1     -11.120  14.386  28.242  1.00  0.00    -0.504 OA
ATOM     19  H   UNL     1     -12.118  14.394  28.067  1.00  0.00     0.293 HD
ENDBRANCH  15  18
BRANCH  17  20
ATOM     20  O   UNL     1     -10.447  17.024  28.994  1.00  0.00    -0.504 OA
ATOM     21  H   UNL     1     -10.556  16.866  27.999  1.00  0.00     0.293 HD
ENDBRANCH  17  20
ENDBRANCH   1  12
BRANCH   2  22
ATOM     22  O   UNL     1      -6.794  16.014  32.476  1.00  0.00    -0.502 OA
ATOM     23  H   UNL     1      -6.202  15.297  32.074  1.00  0.00     0.293 HD
ENDBRANCH   2  22
BRANCH   6  24
ATOM     24  O   UNL     1      -6.261  16.290  37.643  1.00  0.00    -0.507 OA
ATOM     25  H   UNL     1      -5.623  16.636  36.935  1.00  0.00     0.293 HD
ENDBRANCH   6  24
BRANCH   8  26
ATOM     26  O   UNL     1     -10.725  15.142  39.123  1.00  0.00    -0.508 OA
ATOM     27  H   UNL     1     -11.459  15.812  39.322  1.00  0.00     0.293 HD
ENDBRANCH   8  26
TORSDOF 6
ENDMDL
MODEL 6
REMARK VINA RESULT:    -3.839      1.921      7.163
REMARK INTER + INTRA:          -4.853
REMARK INTER:                  -4.689
REMARK INTRA:                  -0.164
REMARK UNBOUND:                -0.228
REMARK SMILES O=c1c(O)c(-c2ccc(O)c(O)c2)oc2cc(O)cc(O)c12
REMARK SMILES IDX 5 1 3 2 2 3 1 4 22 5 20 6 19 7 17 8 16 9 15 10 14 11 6 12
REMARK SMILES IDX 7 13 8 14 9 15 13 16 11 17 10 18 12 20 4 22 21 24 18 26
REMARK H PARENT 10 19 12 21 4 23 21 25 18 27
REMARK Flexibility Score: inf
ROOT
ATOM      1  C   UNL     1      -8.753  15.694  32.363  1.00  0.00     0.180 A 
ATOM      2  C   UNL     1      -9.825  14.818  32.108  1.00  0.00     0.208 A 
ATOM      3  C   UNL     1     -10.172  14.541  30.776  1.00  0.00     0.238 A 
ATOM      4  O   UNL     1     -11.124  13.748  30.536  1.00  0.00    -0.285 OA
ATOM      5  C   UNL     1      -9.460  15.157  29.728  1.00  0.00     0.111 A 
ATOM      6  C   UNL     1      -9.750  14.935  28.360  1.00  0.00     0.134 A 
ATOM      7  C   UNL     1      -9.001  15.594  27.374  1.00  0.00     0.093 A 
ATOM      8  C   UNL     1      -7.969  16.469  27.729  1.00  0.00     0.123 A 
ATOM      9  C   UNL     1      -7.680  16.691  29.076  1.00  0.00     0.094 A 
ATOM     10  C   UNL     1      -8.414  16.043  30.074  1.00  0.00     0.146 A 
ATOM     11  O   UNL     1      -8.113  16.269  31.348  1.00  0.00    -0.452 OA
ENDROOT
BRANCH   1  12
ATOM     12  C   UNL     1      -8.314  16.021  33.739  1.00  0.00     0.025 A 
ATOM     13  C   UNL     1      -9.169  16.749  34.581  1.00  0.00     0.016 A 
ATOM     14  C   UNL     1      -8.767  17.087  35.876  1.00  0.00     0.051 A 
ATOM     15  C   UNL     1      -7.502  16.717  36.343  1.00  0.00     0.157 A 
ATOM     16  C   UNL     1      -7.033  15.669  34.203  1.00  0.00     0.062 A 
ATOM     17  C   UNL     1      -6.627  16.009  35.501  1.00  0.00     0.158 A 
BRANCH  15  18
ATOM     18  O   UNL     1      -7.130  17.067  37.641  1.00  0.00    -0.504 OA
ATOM     19  H   UNL     1      -6.416  16.560  38.151  1.00  0.00     0.293 HD
ENDBRANCH  15  18
BRANCH  17  20
ATOM     20  O   UNL     1      -5.359  15.651  35.956  1.00  0.00    -0.504 OA
ATOM     21  H   UNL     1      -4.519  16.031  35.536  1.00  0.00     0.293 HD
ENDBRANCH  17  20
ENDBRANCH   1  12
BRANCH   2  22
ATOM     22  O   UNL     1     -10.546  14.259  33.166  1.00  0.00    -0.502 OA
ATOM     23  H   UNL     1     -10.094  13.843  33.971  1.00  0.00     0.293 HD
ENDBRANCH   2  22
BRANCH   6  24
ATOM     24  O   UNL     1     -10.774  14.067  27.974  1.00  0.00    -0.507 OA
ATOM     25  H   UNL     1     -10.581  13.130  27.639  1.00  0.00     0.293 HD
ENDBRANCH   6  24
BRANCH   8  26
ATOM     26  O   UNL     1      -7.226  17.125  26.751  1.00  0.00    -0.508 OA
ATOM     27  H   UNL     1      -6.559  17.851  26.989  1.00  0.00     0.293 HD
ENDBRANCH   8  26
TORSDOF 6
ENDMDL
MODEL 7
REMARK VINA RESULT:    -3.565      2.072      3.710
REMARK INTER + INTRA:          -4.522
REMARK INTER:                  -5.024
REMARK INTRA:                   0.501
REMARK UNBOUND:                -0.228
REMARK SMILES O=c1c(O)c(-c2ccc(O)c(O)c2)oc2cc(O)cc(O)c12
REMARK SMILES IDX 5 1 3 2 2 3 1 4 22 5 20 6 19 7 17 8 16 9 15 10 14 11 6 12
REMARK SMILES IDX 7 13 8 14 9 15 13 16 11 17 10 18 12 20 4 22 21 24 18 26
REMARK H PARENT 10 19 12 21 4 23 21 25 18 27
REMARK Flexibility Score: inf
ROOT
ATOM      1  C   UNL     1      -9.323  15.110  30.909  1.00  0.00     0.180 A 
ATOM      2  C   UNL     1     -10.103  14.240  31.696  1.00  0.00     0.208 A 
ATOM      3  C   UNL     1      -9.817  14.126  33.066  1.00  0.00     0.238 A 
ATOM      4  O   UNL     1     -10.516  13.359  33.783  1.00  0.00    -0.285 OA
ATOM      5  C   UNL     1      -8.750  14.862  33.619  1.00  0.00     0.111 A 
ATOM      6  C   UNL     1      -8.394  14.800  34.988  1.00  0.00     0.134 A 
ATOM      7  C   UNL     1      -7.311  15.557  35.460  1.00  0.00     0.093 A 
ATOM      8  C   UNL     1      -6.579  16.373  34.591  1.00  0.00     0.123 A 
ATOM      9  C   UNL     1      -6.927  16.438  33.241  1.00  0.00     0.094 A 
ATOM     10  C   UNL     1      -8.004  15.692  32.750  1.00  0.00     0.146 A 
ATOM     11  O   UNL     1      -8.315  15.777  31.462  1.00  0.00    -0.452 OA
ENDROOT
BRANCH   1  12
ATOM     12  C   UNL     1      -9.575  15.299  29.462  1.00  0.00     0.025 A 
ATOM     13  C   UNL     1     -10.752  14.790  28.894  1.00  0.00     0.016 A 
ATOM     14  C   UNL     1     -11.000  14.938  27.526  1.00  0.00     0.051 A 
ATOM     15  C   UNL     1     -10.070  15.582  26.706  1.00  0.00     0.157 A 
ATOM     16  C   UNL     1      -8.630  15.928  28.630  1.00  0.00     0.062 A 
ATOM     17  C   UNL     1      -8.877  16.076  27.258  1.00  0.00     0.158 A 
BRANCH  15  18
ATOM     18  O   UNL     1     -10.347  15.718  25.345  1.00  0.00    -0.504 OA
ATOM     19  H   UNL     1     -10.015  15.050  24.660  1.00  0.00     0.293 HD
ENDBRANCH  15  18
BRANCH  17  20
ATOM     20  O   UNL     1      -7.939  16.707  26.441  1.00  0.00    -0.504 OA
ATOM     21  H   UNL     1      -7.024  16.304  26.276  1.00  0.00     0.293 HD
ENDBRANCH  17  20
ENDBRANCH   1  12
BRANCH   2  22
ATOM     22  O   UNL     1     -11.123  13.484  31.113  1.00  0.00    -0.502 OA
ATOM     23  H   UNL     1     -11.724  13.853  30.387  1.00  0.00     0.293 HD
ENDBRANCH   2  22
BRANCH   6  24
ATOM     24  O   UNL     1      -9.104  13.995  35.879  1.00  0.00    -0.507 OA
ATOM     25  H   UNL     1     -10.042  13.669  35.673  1.00  0.00     0.293 HD
ENDBRANCH   6  24
BRANCH   8  26
ATOM     26  O   UNL     1      -5.504  17.124  35.059  1.00  0.00    -0.508 OA
ATOM     27  H   UNL     1      -5.058  17.829  34.482  1.00  0.00     0.293 HD
ENDBRANCH   8  26
TORSDOF 6
ENDMDL
MODEL 8
REMARK VINA RESULT:    -3.471      3.253      6.822
REMARK INTER + INTRA:          -4.409
REMARK INTER:                  -4.085
REMARK INTRA:                  -0.324
REMARK UNBOUND:                -0.228
REMARK SMILES O=c1c(O)c(-c2ccc(O)c(O)c2)oc2cc(O)cc(O)c12
REMARK SMILES IDX 5 1 3 2 2 3 1 4 22 5 20 6 19 7 17 8 16 9 15 10 14 11 6 12
REMARK SMILES IDX 7 13 8 14 9 15 13 16 11 17 10 18 12 20 4 22 21 24 18 26
REMARK H PARENT 10 19 12 21 4 23 21 25 18 27
REMARK Flexibility Score: inf
ROOT
ATOM      1  C   UNL     1      -9.385  14.831  32.980  1.00  0.00     0.180 A 
ATOM      2  C   UNL     1      -9.573  15.785  31.961  1.00  0.00     0.208 A 
ATOM      3  C   UNL     1     -10.077  15.363  30.721  1.00  0.00     0.238 A 
ATOM      4  O   UNL     1     -10.261  16.210  29.805  1.00  0.00    -0.285 OA
ATOM      5  C   UNL     1     -10.364  13.999  30.514  1.00  0.00     0.111 A 
ATOM      6  C   UNL     1     -10.871  13.490  29.293  1.00  0.00     0.134 A 
ATOM      7  C   UNL     1     -11.122  12.117  29.162  1.00  0.00     0.093 A 
ATOM      8  C   UNL     1     -10.877  11.243  30.226  1.00  0.00     0.123 A 
ATOM      9  C   UNL     1     -10.378  11.738  31.432  1.00  0.00     0.094 A 
ATOM     10  C   UNL     1     -10.122  13.105  31.583  1.00  0.00     0.146 A 
ATOM     11  O   UNL     1      -9.653  13.550  32.743  1.00  0.00    -0.452 OA
ENDROOT
BRANCH   1  12
ATOM     12  C   UNL     1      -8.875  15.201  34.320  1.00  0.00     0.025 A 
ATOM     13  C   UNL     1      -9.782  15.572  35.325  1.00  0.00     0.016 A 
ATOM     14  C   UNL     1      -9.321  15.946  36.590  1.00  0.00     0.051 A 
ATOM     15  C   UNL     1      -7.952  15.969  36.866  1.00  0.00     0.157 A 
ATOM     16  C   UNL     1      -7.496  15.245  34.593  1.00  0.00     0.062 A 
ATOM     17  C   UNL     1      -7.032  15.622  35.862  1.00  0.00     0.158 A 
BRANCH  15  18
ATOM     18  O   UNL     1      -7.522  16.343  38.140  1.00  0.00    -0.504 OA
ATOM     19  H   UNL     1      -8.121  16.267  38.953  1.00  0.00     0.293 HD
ENDBRANCH  15  18
BRANCH  17  20
ATOM     20  O   UNL     1      -5.664  15.656  36.126  1.00  0.00    -0.504 OA
ATOM     21  H   UNL     1      -4.979  15.460  35.405  1.00  0.00     0.293 HD
ENDBRANCH  17  20
ENDBRANCH   1  12
BRANCH   2  22
ATOM     22  O   UNL     1      -9.234  17.123  32.177  1.00  0.00    -0.502 OA
ATOM     23  H   UNL     1      -8.982  17.479  33.091  1.00  0.00     0.293 HD
ENDBRANCH   2  22
BRANCH   6  24
ATOM     24  O   UNL     1     -11.125  14.338  28.213  1.00  0.00    -0.507 OA
ATOM     25  H   UNL     1     -11.239  13.981  27.271  1.00  0.00     0.293 HD
ENDBRANCH   6  24
BRANCH   8  26
ATOM     26  O   UNL     1     -11.125   9.878  30.096  1.00  0.00    -0.508 OA
ATOM     27  H   UNL     1     -11.690   9.375  30.772  1.00  0.00     0.293 HD
ENDBRANCH   8  26
TORSDOF 6
ENDMDL
MODEL 9
REMARK VINA RESULT:    -3.149      1.723      2.163
REMARK INTER + INTRA:          -4.021
REMARK INTER:                  -4.310
REMARK INTRA:                   0.289
REMARK UNBOUND:                -0.228
REMARK SMILES O=c1c(O)c(-c2ccc(O)c(O)c2)oc2cc(O)cc(O)c12
REMARK SMILES IDX 5 1 3 2 2 3 1 4 22 5 20 6 19 7 17 8 16 9 15 10 14 11 6 12
REMARK SMILES IDX 7 13 8 14 9 15 13 16 11 17 10 18 12 20 4 22 21 24 18 26
REMARK H PARENT 10 19 12 21 4 23 21 25 18 27
REMARK Flexibility Score: inf
ROOT
ATOM      1  C   UNL     1      -9.050  15.649  31.408  1.00  0.00     0.180 A 
ATOM      2  C   UNL     1      -7.763  16.144  31.696  1.00  0.00     0.208 A 
ATOM      3  C   UNL     1      -7.370  16.270  33.038  1.00  0.00     0.238 A 
ATOM      4  O   UNL     1      -6.216  16.702  33.307  1.00  0.00    -0.285 OA
ATOM      5  C   UNL     1      -8.271  15.921  34.064  1.00  0.00     0.111 A 
ATOM      6  C   UNL     1      -7.955  16.023  35.440  1.00  0.00     0.134 A 
ATOM      7  C   UNL     1      -8.910  15.665  36.403  1.00  0.00     0.093 A 
ATOM      8  C   UNL     1     -10.175  15.208  36.015  1.00  0.00     0.123 A 
ATOM      9  C   UNL     1     -10.492  15.106  34.660  1.00  0.00     0.094 A 
ATOM     10  C   UNL     1      -9.552  15.456  33.685  1.00  0.00     0.146 A 
ATOM     11  O   UNL     1      -9.879  15.344  32.403  1.00  0.00    -0.452 OA
ENDROOT
BRANCH   1  12
ATOM     12  C   UNL     1      -9.531  15.469  30.019  1.00  0.00     0.025 A 
ATOM     13  C   UNL     1     -10.435  14.435  29.730  1.00  0.00     0.016 A 
ATOM     14  C   UNL     1     -10.885  14.234  28.423  1.00  0.00     0.051 A 
ATOM     15  C   UNL     1     -10.429  15.050  27.385  1.00  0.00     0.157 A 
ATOM     16  C   UNL     1      -9.057  16.277  28.969  1.00  0.00     0.062 A 
ATOM     17  C   UNL     1      -9.507  16.075  27.656  1.00  0.00     0.158 A 
BRANCH  15  18
ATOM     18  O   UNL     1     -10.899  14.827  26.090  1.00  0.00    -0.504 OA
ATOM     19  H   UNL     1     -10.907  13.905  25.673  1.00  0.00     0.293 HD
ENDBRANCH  15  18
BRANCH  17  20
ATOM     20  O   UNL     1      -9.037  16.883  26.623  1.00  0.00    -0.504 OA
ATOM     21  H   UNL     1      -8.342  16.552  25.964  1.00  0.00     0.293 HD
ENDBRANCH  17  20
ENDBRANCH   1  12
BRANCH   2  22
ATOM     22  O   UNL     1      -6.908  16.529  30.661  1.00  0.00    -0.502 OA
ATOM     23  H   UNL     1      -6.868  17.480  30.316  1.00  0.00     0.293 HD
ENDBRANCH   2  22
BRANCH   6  24
ATOM     24  O   UNL     1      -6.702  16.477  35.858  1.00  0.00    -0.507 OA
ATOM     25  H   UNL     1      -5.902  15.857  35.912  1.00  0.00     0.293 HD
ENDBRANCH   6  24
BRANCH   8  26
ATOM     26  O   UNL     1     -11.125  14.853  36.970  1.00  0.00    -0.508 OA
ATOM     27  H   UNL     1     -10.863  14.380  37.828  1.00  0.00     0.293 HD
ENDBRANCH   8  26
TORSDOF 6
ENDMDL
