MODEL 1
REMARK VINA RESULT:    -5.793      0.000      0.000
REMARK INTER + INTRA:          -7.099
REMARK INTER:                  -6.809
REMARK INTRA:                  -0.290
REMARK UNBOUND:                -0.290
REMARK SMILES O=c1c(O)c(-c2ccc(O)cc2)oc2cc(O)cc(O)c12
REMARK SMILES IDX 5 1 3 2 2 3 1 4 21 5 19 6 18 7 16 8 15 9 14 10 13 11 6 12
REMARK SMILES IDX 7 13 8 14 9 15 12 16 11 17 10 18 4 20 20 22 17 24
REMARK H PARENT 10 19 4 21 20 23 17 25
REMARK Flexibility Score: inf
ROOT
ATOM      1  C   UNL     1       0.994   4.332  -5.498  1.00  0.00     0.180 A 
ATOM      2  C   UNL     1       1.595   5.594  -5.669  1.00  0.00     0.208 A 
ATOM      3  C   UNL     1       2.130   5.925  -6.924  1.00  0.00     0.238 A 
ATOM      4  O   UNL     1       2.661   7.056  -7.093  1.00  0.00    -0.285 OA
ATOM      5  C   UNL     1       2.074   4.988  -7.975  1.00  0.00     0.111 A 
ATOM      6  C   UNL     1       2.593   5.241  -9.268  1.00  0.00     0.134 A 
ATOM      7  C   UNL     1       2.507   4.251 -10.259  1.00  0.00     0.093 A 
ATOM      8  C   UNL     1       1.913   3.015  -9.981  1.00  0.00     0.123 A 
ATOM      9  C   UNL     1       1.400   2.761  -8.709  1.00  0.00     0.094 A 
ATOM     10  C   UNL     1       1.474   3.734  -7.708  1.00  0.00     0.146 A 
ATOM     11  O   UNL     1       0.973   3.467  -6.508  1.00  0.00    -0.452 OA
ENDROOT
BRANCH   1  12
ATOM     12  C   UNL     1       0.391   3.916  -4.210  1.00  0.00     0.021 A 
ATOM     13  C   UNL     1      -0.947   4.249  -3.934  1.00  0.00     0.016 A 
ATOM     14  C   UNL     1      -1.529   3.887  -2.716  1.00  0.00     0.047 A 
ATOM     15  C   UNL     1      -0.777   3.201  -1.752  1.00  0.00     0.115 A 
ATOM     16  C   UNL     1       1.145   3.246  -3.230  1.00  0.00     0.016 A 
ATOM     17  C   UNL     1       0.560   2.886  -2.012  1.00  0.00     0.047 A 
BRANCH  15  18
ATOM     18  O   UNL     1      -1.347   2.836  -0.536  1.00  0.00    -0.508 OA
ATOM     19  H   UNL     1      -2.161   2.234  -0.491  1.00  0.00     0.293 HD
ENDBRANCH  15  18
ENDBRANCH   1  12
BRANCH   2  20
ATOM     20  O   UNL     1       1.682   6.487  -4.598  1.00  0.00    -0.502 OA
ATOM     21  H   UNL     1       2.569   6.784  -4.210  1.00  0.00     0.293 HD
ENDBRANCH   2  20
BRANCH   6  22
ATOM     22  O   UNL     1       3.192   6.464  -9.573  1.00  0.00    -0.507 OA
ATOM     23  H   UNL     1       3.480   7.111  -8.849  1.00  0.00     0.293 HD
ENDBRANCH   6  22
BRANCH   8  24
ATOM     24  O   UNL     1       1.828   2.032 -10.964  1.00  0.00    -0.508 OA
ATOM     25  H   UNL     1       1.611   1.069 -10.733  1.00  0.00     0.293 HD
ENDBRANCH   8  24
TORSDOF 5
ENDMDL
MODEL 2
REMARK VINA RESULT:    -5.752      0.127      1.062
REMARK INTER + INTRA:          -7.051
REMARK INTER:                  -6.756
REMARK INTRA:                  -0.295
REMARK UNBOUND:                -0.290
REMARK SMILES O=c1c(O)c(-c2ccc(O)cc2)oc2cc(O)cc(O)c12
REMARK SMILES IDX 5 1 3 2 2 3 1 4 21 5 19 6 18 7 16 8 15 9 14 10 13 11 6 12
REMARK SMILES IDX 7 13 8 14 9 15 12 16 11 17 10 18 4 20 20 22 17 24
REMARK H PARENT 10 19 4 21 20 23 17 25
REMARK Flexibility Score: inf
ROOT
ATOM      1  C   UNL     1       0.906   4.359  -5.524  1.00  0.00     0.180 A 
ATOM      2  C   UNL     1       1.553   5.599  -5.687  1.00  0.00     0.208 A 
ATOM      3  C   UNL     1       2.122   5.908  -6.932  1.00  0.00     0.238 A 
ATOM      4  O   UNL     1       2.695   7.020  -7.094  1.00  0.00    -0.285 OA
ATOM      5  C   UNL     1       2.055   4.969  -7.982  1.00  0.00     0.111 A 
ATOM      6  C   UNL     1       2.607   5.200  -9.264  1.00  0.00     0.134 A 
ATOM      7  C   UNL     1       2.506   4.210 -10.254  1.00  0.00     0.093 A 
ATOM      8  C   UNL     1       1.865   2.996  -9.985  1.00  0.00     0.123 A 
ATOM      9  C   UNL     1       1.320   2.764  -8.721  1.00  0.00     0.094 A 
ATOM     10  C   UNL     1       1.408   3.737  -7.723  1.00  0.00     0.146 A 
ATOM     11  O   UNL     1       0.875   3.492  -6.531  1.00  0.00    -0.452 OA
ENDROOT
BRANCH   1  12
ATOM     12  C   UNL     1       0.264   3.969  -4.247  1.00  0.00     0.021 A 
ATOM     13  C   UNL     1       0.962   3.145  -3.346  1.00  0.00     0.016 A 
ATOM     14  C   UNL     1       0.367   2.746  -2.146  1.00  0.00     0.047 A 
ATOM     15  C   UNL     1      -0.938   3.153  -1.837  1.00  0.00     0.115 A 
ATOM     16  C   UNL     1      -1.053   4.356  -3.939  1.00  0.00     0.016 A 
ATOM     17  C   UNL     1      -1.646   3.954  -2.739  1.00  0.00     0.047 A 
BRANCH  15  18
ATOM     18  O   UNL     1      -1.541   2.761  -0.645  1.00  0.00    -0.508 OA
ATOM     19  H   UNL     1      -1.424   3.295   0.208  1.00  0.00     0.293 HD
ENDBRANCH  15  18
ENDBRANCH   1  12
BRANCH   2  20
ATOM     20  O   UNL     1       1.649   6.493  -4.617  1.00  0.00    -0.502 OA
ATOM     21  H   UNL     1       0.872   7.068  -4.318  1.00  0.00     0.293 HD
ENDBRANCH   2  20
BRANCH   6  22
ATOM     22  O   UNL     1       3.252   6.401  -9.562  1.00  0.00    -0.507 OA
ATOM     23  H   UNL     1       2.861   7.067 -10.219  1.00  0.00     0.293 HD
ENDBRANCH   6  22
BRANCH   8  24
ATOM     24  O   UNL     1       1.767   2.012 -10.966  1.00  0.00    -0.508 OA
ATOM     25  H   UNL     1       2.400   1.988 -11.757  1.00  0.00     0.293 HD
ENDBRANCH   8  24
TORSDOF 5
ENDMDL
MODEL 3
REMARK VINA RESULT:    -5.566      1.469      6.498
REMARK INTER + INTRA:          -6.832
REMARK INTER:                  -7.179
REMARK INTRA:                   0.347
REMARK UNBOUND:                -0.290
REMARK SMILES O=c1c(O)c(-c2ccc(O)cc2)oc2cc(O)cc(O)c12
REMARK SMILES IDX 5 1 3 2 2 3 1 4 21 5 19 6 18 7 16 8 15 9 14 10 13 11 6 12
REMARK SMILES IDX 7 13 8 14 9 15 12 16 11 17 10 18 4 20 20 22 17 24
REMARK H PARENT 10 19 4 21 20 23 17 25
REMARK Flexibility Score: inf
ROOT
ATOM      1  C   UNL     1       1.503   4.541  -6.110  1.00  0.00     0.180 A 
ATOM      2  C   UNL     1       1.514   5.688  -5.293  1.00  0.00     0.208 A 
ATOM      3  C   UNL     1       1.158   5.560  -3.941  1.00  0.00     0.238 A 
ATOM      4  O   UNL     1       1.175   6.578  -3.196  1.00  0.00    -0.285 OA
ATOM      5  C   UNL     1       0.777   4.301  -3.436  1.00  0.00     0.111 A 
ATOM      6  C   UNL     1       0.399   4.088  -2.089  1.00  0.00     0.134 A 
ATOM      7  C   UNL     1       0.024   2.804  -1.666  1.00  0.00     0.093 A 
ATOM      8  C   UNL     1       0.018   1.731  -2.564  1.00  0.00     0.123 A 
ATOM      9  C   UNL     1       0.390   1.936  -3.893  1.00  0.00     0.094 A 
ATOM     10  C   UNL     1       0.769   3.207  -4.334  1.00  0.00     0.146 A 
ATOM     11  O   UNL     1       1.123   3.372  -5.603  1.00  0.00    -0.452 OA
ENDROOT
BRANCH   1  12
ATOM     12  C   UNL     1       1.884   4.591  -7.541  1.00  0.00     0.021 A 
ATOM     13  C   UNL     1       1.450   3.574  -8.408  1.00  0.00     0.016 A 
ATOM     14  C   UNL     1       1.817   3.589  -9.757  1.00  0.00     0.047 A 
ATOM     15  C   UNL     1       2.636   4.612 -10.252  1.00  0.00     0.115 A 
ATOM     16  C   UNL     1       2.723   5.604  -8.041  1.00  0.00     0.016 A 
ATOM     17  C   UNL     1       3.090   5.615  -9.390  1.00  0.00     0.047 A 
BRANCH  15  18
ATOM     18  O   UNL     1       3.009   4.637 -11.594  1.00  0.00    -0.508 OA
ATOM     19  H   UNL     1       3.565   5.393 -11.975  1.00  0.00     0.293 HD
ENDBRANCH  15  18
ENDBRANCH   1  12
BRANCH   2  20
ATOM     20  O   UNL     1       1.848   6.935  -5.829  1.00  0.00    -0.502 OA
ATOM     21  H   UNL     1       2.788   7.164  -6.124  1.00  0.00     0.293 HD
ENDBRANCH   2  20
BRANCH   6  22
ATOM     22  O   UNL     1       0.394   5.139  -1.170  1.00  0.00    -0.507 OA
ATOM     23  H   UNL     1       1.129   5.247  -0.481  1.00  0.00     0.293 HD
ENDBRANCH   6  22
BRANCH   8  24
ATOM     24  O   UNL     1      -0.356   0.456  -2.145  1.00  0.00    -0.508 OA
ATOM     25  H   UNL     1       0.316  -0.188  -1.744  1.00  0.00     0.293 HD
ENDBRANCH   8  24
TORSDOF 5
ENDMDL
MODEL 4
REMARK VINA RESULT:    -5.441      3.313      6.732
REMARK INTER + INTRA:          -6.686
REMARK INTER:                  -6.413
REMARK INTRA:                  -0.273
REMARK UNBOUND:                -0.290
REMARK SMILES O=c1c(O)c(-c2ccc(O)cc2)oc2cc(O)cc(O)c12
REMARK SMILES IDX 5 1 3 2 2 3 1 4 21 5 19 6 18 7 16 8 15 9 14 10 13 11 6 12
REMARK SMILES IDX 7 13 8 14 9 15 12 16 11 17 10 18 4 20 20 22 17 24
REMARK H PARENT 10 19 4 21 20 23 17 25
REMARK Flexibility Score: inf
ROOT
ATOM      1  C   UNL     1       0.797   3.268  -3.871  1.00  0.00     0.180 A 
ATOM      2  C   UNL     1       0.086   4.382  -4.358  1.00  0.00     0.208 A 
ATOM      3  C   UNL     1      -0.124   5.477  -3.506  1.00  0.00     0.238 A 
ATOM      4  O   UNL     1      -0.749   6.486  -3.934  1.00  0.00    -0.285 OA
ATOM      5  C   UNL     1       0.357   5.433  -2.182  1.00  0.00     0.111 A 
ATOM      6  C   UNL     1       0.183   6.491  -1.258  1.00  0.00     0.134 A 
ATOM      7  C   UNL     1       0.684   6.366   0.047  1.00  0.00     0.093 A 
ATOM      8  C   UNL     1       1.355   5.204   0.444  1.00  0.00     0.123 A 
ATOM      9  C   UNL     1       1.528   4.158  -0.463  1.00  0.00     0.094 A 
ATOM     10  C   UNL     1       1.038   4.264  -1.768  1.00  0.00     0.146 A 
ATOM     11  O   UNL     1       1.223   3.255  -2.612  1.00  0.00    -0.452 OA
ENDROOT
BRANCH   1  12
ATOM     12  C   UNL     1       1.076   2.083  -4.715  1.00  0.00     0.021 A 
ATOM     13  C   UNL     1       0.324   0.910  -4.530  1.00  0.00     0.016 A 
ATOM     14  C   UNL     1       0.585  -0.228  -5.299  1.00  0.00     0.047 A 
ATOM     15  C   UNL     1       1.612  -0.212  -6.253  1.00  0.00     0.115 A 
ATOM     16  C   UNL     1       2.118   2.084  -5.660  1.00  0.00     0.016 A 
ATOM     17  C   UNL     1       2.378   0.945  -6.427  1.00  0.00     0.047 A 
BRANCH  15  18
ATOM     18  O   UNL     1       1.882  -1.339  -7.025  1.00  0.00    -0.508 OA
ATOM     19  H   UNL     1       1.190  -2.067  -7.159  1.00  0.00     0.293 HD
ENDBRANCH  15  18
ENDBRANCH   1  12
BRANCH   2  20
ATOM     20  O   UNL     1      -0.424   4.382  -5.659  1.00  0.00    -0.502 OA
ATOM     21  H   UNL     1      -0.396   3.562  -6.252  1.00  0.00     0.293 HD
ENDBRANCH   2  20
BRANCH   6  22
ATOM     22  O   UNL     1      -0.482   7.662  -1.626  1.00  0.00    -0.507 OA
ATOM     23  H   UNL     1      -0.115   8.280  -2.341  1.00  0.00     0.293 HD
ENDBRANCH   6  22
BRANCH   8  24
ATOM     24  O   UNL     1       1.851   5.079   1.739  1.00  0.00    -0.508 OA
ATOM     25  H   UNL     1       2.293   5.857   2.215  1.00  0.00     0.293 HD
ENDBRANCH   8  24
TORSDOF 5
ENDMDL
MODEL 5
REMARK VINA RESULT:    -5.408      2.026      6.458
REMARK INTER + INTRA:          -6.647
REMARK INTER:                  -6.420
REMARK INTRA:                  -0.227
REMARK UNBOUND:                -0.290
REMARK SMILES O=c1c(O)c(-c2ccc(O)cc2)oc2cc(O)cc(O)c12
REMARK SMILES IDX 5 1 3 2 2 3 1 4 21 5 19 6 18 7 16 8 15 9 14 10 13 11 6 12
REMARK SMILES IDX 7 13 8 14 9 15 12 16 11 17 10 18 4 20 20 22 17 24
REMARK H PARENT 10 19 4 21 20 23 17 25
REMARK Flexibility Score: inf
ROOT
ATOM      1  C   UNL     1       1.634   5.505  -7.709  1.00  0.00     0.180 A 
ATOM      2  C   UNL     1       1.800   6.264  -6.534  1.00  0.00     0.208 A 
ATOM      3  C   UNL     1       1.506   5.670  -5.297  1.00  0.00     0.238 A 
ATOM      4  O   UNL     1       1.662   6.335  -4.236  1.00  0.00    -0.285 OA
ATOM      5  C   UNL     1       1.034   4.342  -5.255  1.00  0.00     0.111 A 
ATOM      6  C   UNL     1       0.711   3.672  -4.051  1.00  0.00     0.134 A 
ATOM      7  C   UNL     1       0.238   2.352  -4.094  1.00  0.00     0.093 A 
ATOM      8  C   UNL     1       0.081   1.691  -5.317  1.00  0.00     0.123 A 
ATOM      9  C   UNL     1       0.398   2.348  -6.507  1.00  0.00     0.094 A 
ATOM     10  C   UNL     1       0.872   3.662  -6.485  1.00  0.00     0.146 A 
ATOM     11  O   UNL     1       1.171   4.261  -7.633  1.00  0.00    -0.452 OA
ENDROOT
BRANCH   1  12
ATOM     12  C   UNL     1       1.940   6.055  -9.050  1.00  0.00     0.021 A 
ATOM     13  C   UNL     1       1.044   6.958  -9.648  1.00  0.00     0.016 A 
ATOM     14  C   UNL     1       1.303   7.472 -10.922  1.00  0.00     0.047 A 
ATOM     15  C   UNL     1       2.451   7.077 -11.621  1.00  0.00     0.115 A 
ATOM     16  C   UNL     1       3.081   5.648  -9.766  1.00  0.00     0.016 A 
ATOM     17  C   UNL     1       3.335   6.163 -11.041  1.00  0.00     0.047 A 
BRANCH  15  18
ATOM     18  O   UNL     1       2.718   7.582 -12.891  1.00  0.00    -0.508 OA
ATOM     19  H   UNL     1       3.164   8.483 -13.020  1.00  0.00     0.293 HD
ENDBRANCH  15  18
ENDBRANCH   1  12
BRANCH   2  20
ATOM     20  O   UNL     1       2.222   7.594  -6.605  1.00  0.00    -0.502 OA
ATOM     21  H   UNL     1       3.143   7.888  -6.306  1.00  0.00     0.293 HD
ENDBRANCH   2  20
BRANCH   6  22
ATOM     22  O   UNL     1       0.857   4.305  -2.816  1.00  0.00    -0.507 OA
ATOM     23  H   UNL     1       0.300   5.113  -2.563  1.00  0.00     0.293 HD
ENDBRANCH   6  22
BRANCH   8  24
ATOM     24  O   UNL     1      -0.391   0.381  -5.361  1.00  0.00    -0.508 OA
ATOM     25  H   UNL     1      -0.686  -0.104  -4.522  1.00  0.00     0.293 HD
ENDBRANCH   8  24
TORSDOF 5
ENDMDL
MODEL 6
REMARK VINA RESULT:    -5.293      3.283      5.772
REMARK INTER + INTRA:          -6.512
REMARK INTER:                  -6.350
REMARK INTRA:                  -0.162
REMARK UNBOUND:                -0.290
REMARK SMILES O=c1c(O)c(-c2ccc(O)cc2)oc2cc(O)cc(O)c12
REMARK SMILES IDX 5 1 3 2 2 3 1 4 21 5 19 6 18 7 16 8 15 9 14 10 13 11 6 12
REMARK SMILES IDX 7 13 8 14 9 15 12 16 11 17 10 18 4 20 20 22 17 24
REMARK H PARENT 10 19 4 21 20 23 17 25
REMARK Flexibility Score: inf
ROOT
ATOM      1  C   UNL     1       1.661   2.043  -7.284  1.00  0.00     0.180 A 
ATOM      2  C   UNL     1       1.917   1.132  -6.240  1.00  0.00     0.208 A 
ATOM      3  C   UNL     1       1.802  -0.242  -6.498  1.00  0.00     0.238 A 
ATOM      4  O   UNL     1       2.039  -1.068  -5.575  1.00  0.00    -0.285 OA
ATOM      5  C   UNL     1       1.416  -0.682  -7.780  1.00  0.00     0.111 A 
ATOM      6  C   UNL     1       1.272  -2.048  -8.121  1.00  0.00     0.134 A 
ATOM      7  C   UNL     1       0.874  -2.405  -9.418  1.00  0.00     0.093 A 
ATOM      8  C   UNL     1       0.617  -1.421 -10.380  1.00  0.00     0.123 A 
ATOM      9  C   UNL     1       0.757  -0.073 -10.048  1.00  0.00     0.094 A 
ATOM     10  C   UNL     1       1.154   0.303  -8.762  1.00  0.00     0.146 A 
ATOM     11  O   UNL     1       1.284   1.593  -8.477  1.00  0.00    -0.452 OA
ENDROOT
BRANCH   1  12
ATOM     12  C   UNL     1       1.780   3.508  -7.096  1.00  0.00     0.021 A 
ATOM     13  C   UNL     1       2.831   4.202  -7.720  1.00  0.00     0.016 A 
ATOM     14  C   UNL     1       2.975   5.581  -7.538  1.00  0.00     0.047 A 
ATOM     15  C   UNL     1       2.079   6.280  -6.717  1.00  0.00     0.115 A 
ATOM     16  C   UNL     1       0.897   4.214  -6.258  1.00  0.00     0.016 A 
ATOM     17  C   UNL     1       1.045   5.592  -6.076  1.00  0.00     0.047 A 
BRANCH  15  18
ATOM     18  O   UNL     1       2.213   7.653  -6.529  1.00  0.00    -0.508 OA
ATOM     19  H   UNL     1       3.039   8.050  -6.096  1.00  0.00     0.293 HD
ENDBRANCH  15  18
ENDBRANCH   1  12
BRANCH   2  20
ATOM     20  O   UNL     1       2.250   1.595  -4.964  1.00  0.00    -0.502 OA
ATOM     21  H   UNL     1       3.203   1.806  -4.696  1.00  0.00     0.293 HD
ENDBRANCH   2  20
BRANCH   6  22
ATOM     22  O   UNL     1       1.522  -3.051  -7.182  1.00  0.00    -0.507 OA
ATOM     23  H   UNL     1       1.116  -3.976  -7.271  1.00  0.00     0.293 HD
ENDBRANCH   6  22
BRANCH   8  24
ATOM     24  O   UNL     1       0.220  -1.774 -11.667  1.00  0.00    -0.508 OA
ATOM     25  H   UNL     1       0.430  -2.687 -12.054  1.00  0.00     0.293 HD
ENDBRANCH   8  24
TORSDOF 5
ENDMDL
MODEL 7
REMARK VINA RESULT:    -5.257      1.600      2.988
REMARK INTER + INTRA:          -6.469
REMARK INTER:                  -6.466
REMARK INTRA:                  -0.003
REMARK UNBOUND:                -0.290
REMARK SMILES O=c1c(O)c(-c2ccc(O)cc2)oc2cc(O)cc(O)c12
REMARK SMILES IDX 5 1 3 2 2 3 1 4 21 5 19 6 18 7 16 8 15 9 14 10 13 11 6 12
REMARK SMILES IDX 7 13 8 14 9 15 12 16 11 17 10 18 4 20 20 22 17 24
REMARK H PARENT 10 19 4 21 20 23 17 25
REMARK Flexibility Score: inf
ROOT
ATOM      1  C   UNL     1       1.131   4.077  -5.242  1.00  0.00     0.180 A 
ATOM      2  C   UNL     1       0.614   2.893  -5.804  1.00  0.00     0.208 A 
ATOM      3  C   UNL     1       0.866   2.620  -7.157  1.00  0.00     0.238 A 
ATOM      4  O   UNL     1       0.417   1.559  -7.670  1.00  0.00    -0.285 OA
ATOM      5  C   UNL     1       1.606   3.539  -7.929  1.00  0.00     0.111 A 
ATOM      6  C   UNL     1       1.899   3.341  -9.299  1.00  0.00     0.134 A 
ATOM      7  C   UNL     1       2.636   4.308 -10.000  1.00  0.00     0.093 A 
ATOM      8  C   UNL     1       3.083   5.467  -9.357  1.00  0.00     0.123 A 
ATOM      9  C   UNL     1       2.796   5.667  -8.006  1.00  0.00     0.094 A 
ATOM     10  C   UNL     1       2.066   4.715  -7.289  1.00  0.00     0.146 A 
ATOM     11  O   UNL     1       1.813   4.928  -6.003  1.00  0.00    -0.452 OA
ENDROOT
BRANCH   1  12
ATOM     12  C   UNL     1       0.926   4.426  -3.817  1.00  0.00     0.021 A 
ATOM     13  C   UNL     1       0.486   5.717  -3.478  1.00  0.00     0.016 A 
ATOM     14  C   UNL     1       0.307   6.075  -2.138  1.00  0.00     0.047 A 
ATOM     15  C   UNL     1       0.580   5.152  -1.120  1.00  0.00     0.115 A 
ATOM     16  C   UNL     1       1.217   3.511  -2.788  1.00  0.00     0.016 A 
ATOM     17  C   UNL     1       1.039   3.873  -1.450  1.00  0.00     0.047 A 
BRANCH  15  18
ATOM     18  O   UNL     1       0.406   5.498   0.217  1.00  0.00    -0.508 OA
ATOM     19  H   UNL     1       0.933   6.251   0.643  1.00  0.00     0.293 HD
ENDBRANCH  15  18
ENDBRANCH   1  12
BRANCH   2  20
ATOM     20  O   UNL     1      -0.159   2.023  -5.031  1.00  0.00    -0.502 OA
ATOM     21  H   UNL     1       0.092   1.769  -4.084  1.00  0.00     0.293 HD
ENDBRANCH   2  20
BRANCH   6  22
ATOM     22  O   UNL     1       1.466   2.195  -9.967  1.00  0.00    -0.507 OA
ATOM     23  H   UNL     1       1.066   1.408  -9.470  1.00  0.00     0.293 HD
ENDBRANCH   6  22
BRANCH   8  24
ATOM     24  O   UNL     1       3.813   6.429 -10.053  1.00  0.00    -0.508 OA
ATOM     25  H   UNL     1       4.372   7.122  -9.569  1.00  0.00     0.293 HD
ENDBRANCH   8  24
TORSDOF 5
ENDMDL
MODEL 8
REMARK VINA RESULT:    -5.206      2.479      3.751
REMARK INTER + INTRA:          -6.409
REMARK INTER:                  -6.112
REMARK INTRA:                  -0.297
REMARK UNBOUND:                -0.290
REMARK SMILES O=c1c(O)c(-c2ccc(O)cc2)oc2cc(O)cc(O)c12
REMARK SMILES IDX 5 1 3 2 2 3 1 4 21 5 19 6 18 7 16 8 15 9 14 10 13 11 6 12
REMARK SMILES IDX 7 13 8 14 9 15 12 16 11 17 10 18 4 20 20 22 17 24
REMARK H PARENT 10 19 4 21 20 23 17 25
REMARK Flexibility Score: inf
ROOT
ATOM      1  C   UNL     1       0.495   5.369  -3.788  1.00  0.00     0.180 A 
ATOM      2  C   UNL     1       0.518   3.962  -3.847  1.00  0.00     0.208 A 
ATOM      3  C   UNL     1       1.082   3.340  -4.972  1.00  0.00     0.238 A 
ATOM      4  O   UNL     1       1.118   2.081  -5.032  1.00  0.00    -0.285 OA
ATOM      5  C   UNL     1       1.592   4.129  -6.023  1.00  0.00     0.111 A 
ATOM      6  C   UNL     1       2.172   3.582  -7.192  1.00  0.00     0.134 A 
ATOM      7  C   UNL     1       2.649   4.436  -8.198  1.00  0.00     0.093 A 
ATOM      8  C   UNL     1       2.556   5.825  -8.057  1.00  0.00     0.123 A 
ATOM      9  C   UNL     1       1.985   6.369  -6.906  1.00  0.00     0.094 A 
ATOM     10  C   UNL     1       1.506   5.536  -5.891  1.00  0.00     0.146 A 
ATOM     11  O   UNL     1       0.972   6.081  -4.804  1.00  0.00    -0.452 OA
ENDROOT
BRANCH   1  12
ATOM     12  C   UNL     1      -0.065   6.098  -2.626  1.00  0.00     0.021 A 
ATOM     13  C   UNL     1      -1.419   6.475  -2.634  1.00  0.00     0.016 A 
ATOM     14  C   UNL     1      -1.963   7.183  -1.559  1.00  0.00     0.047 A 
ATOM     15  C   UNL     1      -1.157   7.538  -0.469  1.00  0.00     0.115 A 
ATOM     16  C   UNL     1       0.743   6.476  -1.538  1.00  0.00     0.016 A 
ATOM     17  C   UNL     1       0.196   7.185  -0.465  1.00  0.00     0.047 A 
BRANCH  15  18
ATOM     18  O   UNL     1      -1.688   8.244   0.607  1.00  0.00    -0.508 OA
ATOM     19  H   UNL     1      -2.479   8.866   0.493  1.00  0.00     0.293 HD
ENDBRANCH  15  18
ENDBRANCH   1  12
BRANCH   2  20
ATOM     20  O   UNL     1      -0.039   3.202  -2.815  1.00  0.00    -0.502 OA
ATOM     21  H   UNL     1       0.036   3.471  -1.842  1.00  0.00     0.293 HD
ENDBRANCH   2  20
BRANCH   6  22
ATOM     22  O   UNL     1       2.278   2.201  -7.361  1.00  0.00    -0.507 OA
ATOM     23  H   UNL     1       2.886   1.638  -6.777  1.00  0.00     0.293 HD
ENDBRANCH   6  22
BRANCH   8  24
ATOM     24  O   UNL     1       3.028   6.673  -9.056  1.00  0.00    -0.508 OA
ATOM     25  H   UNL     1       2.767   6.545 -10.026  1.00  0.00     0.293 HD
ENDBRANCH   8  24
TORSDOF 5
ENDMDL
MODEL 9
REMARK VINA RESULT:    -5.149      2.814      3.674
REMARK INTER + INTRA:          -6.342
REMARK INTER:                  -6.044
REMARK INTRA:                  -0.298
REMARK UNBOUND:                -0.290
REMARK SMILES O=c1c(O)c(-c2ccc(O)cc2)oc2cc(O)cc(O)c12
REMARK SMILES IDX 5 1 3 2 2 3 1 4 21 5 19 6 18 7 16 8 15 9 14 10 13 11 6 12
REMARK SMILES IDX 7 13 8 14 9 15 12 16 11 17 10 18 4 20 20 22 17 24
REMARK H PARENT 10 19 4 21 20 23 17 25
REMARK Flexibility Score: inf
ROOT
ATOM      1  C   UNL     1       1.416   2.741  -6.846  1.00  0.00     0.180 A 
ATOM      2  C   UNL     1       1.388   3.838  -5.963  1.00  0.00     0.208 A 
ATOM      3  C   UNL     1       1.704   5.113  -6.456  1.00  0.00     0.238 A 
ATOM      4  O   UNL     1       1.673   6.105  -5.678  1.00  0.00    -0.285 OA
ATOM      5  C   UNL     1       2.062   5.268  -7.811  1.00  0.00     0.111 A 
ATOM      6  C   UNL     1       2.400   6.517  -8.386  1.00  0.00     0.134 A 
ATOM      7  C   UNL     1       2.754   6.586  -9.742  1.00  0.00     0.093 A 
ATOM      8  C   UNL     1       2.778   5.431 -10.532  1.00  0.00     0.123 A 
ATOM      9  C   UNL     1       2.447   4.198  -9.969  1.00  0.00     0.094 A 
ATOM     10  C   UNL     1       2.089   4.108  -8.621  1.00  0.00     0.146 A 
ATOM     11  O   UNL     1       1.773   2.922  -8.114  1.00  0.00    -0.452 OA
ENDROOT
BRANCH   1  12
ATOM     12  C   UNL     1       1.076   1.368  -6.405  1.00  0.00     0.021 A 
ATOM     13  C   UNL     1       2.102   0.501  -5.992  1.00  0.00     0.016 A 
ATOM     14  C   UNL     1       1.806  -0.806  -5.594  1.00  0.00     0.047 A 
ATOM     15  C   UNL     1       0.483  -1.267  -5.619  1.00  0.00     0.115 A 
ATOM     16  C   UNL     1      -0.247   0.891  -6.447  1.00  0.00     0.016 A 
ATOM     17  C   UNL     1      -0.539  -0.417  -6.049  1.00  0.00     0.047 A 
BRANCH  15  18
ATOM     18  O   UNL     1       0.177  -2.568  -5.225  1.00  0.00    -0.508 OA
ATOM     19  H   UNL     1      -0.765  -2.834  -4.966  1.00  0.00     0.293 HD
ENDBRANCH  15  18
ENDBRANCH   1  12
BRANCH   2  20
ATOM     20  O   UNL     1       1.078   3.651  -4.613  1.00  0.00    -0.502 OA
ATOM     21  H   UNL     1       1.025   2.733  -4.191  1.00  0.00     0.293 HD
ENDBRANCH   2  20
BRANCH   6  22
ATOM     22  O   UNL     1       2.385   7.685  -7.623  1.00  0.00    -0.507 OA
ATOM     23  H   UNL     1       3.237   8.090  -7.253  1.00  0.00     0.293 HD
ENDBRANCH   6  22
BRANCH   8  24
ATOM     24  O   UNL     1       3.132   5.499 -11.877  1.00  0.00    -0.508 OA
ATOM     25  H   UNL     1       4.085   5.687 -12.166  1.00  0.00     0.293 HD
ENDBRANCH   8  24
TORSDOF 5
ENDMDL
