MODEL 1
REMARK VINA RESULT:    -3.977      0.000      0.000
REMARK INTER + INTRA:          -6.723
REMARK INTER:                  -6.302
REMARK INTRA:                  -0.421
REMARK UNBOUND:                -0.421
REMARK SMILES CCCCCCCCCCCC(=O)[O-]
REMARK SMILES IDX 7 1 8 2 9 3 10 4 11 5 12 6 13 7 14 8 6 9 5 10 4 11 3 12 2 13
REMARK SMILES IDX 1 14
REMARK H PARENT
REMARK Flexibility Score: inf
ROOT
ATOM      1  C   UNL     1      57.475  36.725  51.904  1.00  0.00     0.000 C 
ENDROOT
BRANCH   1   2
ATOM      2  C   UNL     1      58.597  35.746  51.514  1.00  0.00     0.000 C 
BRANCH   2   3
ATOM      3  C   UNL     1      58.850  35.694  49.999  1.00  0.00     0.000 C 
BRANCH   3   4
ATOM      4  C   UNL     1      60.349  35.566  49.695  1.00  0.00     0.006 C 
BRANCH   4   5
ATOM      5  C   UNL     1      60.672  35.878  48.227  1.00  0.00     0.053 C 
BRANCH   5   6
ATOM      6  C   UNL     1      60.662  37.351  47.957  1.00  0.00     0.041 C 
ATOM      7  O   UNL     1      61.654  38.060  48.272  1.00  0.00    -0.550 OA
ATOM      8  O   UNL     1      59.572  37.935  47.325  1.00  0.00    -0.550 OA
ENDBRANCH   5   6
ENDBRANCH   4   5
ENDBRANCH   3   4
ENDBRANCH   2   3
ENDBRANCH   1   2
BRANCH   1   9
ATOM      9  C   UNL     1      57.175  36.800  53.412  1.00  0.00     0.000 C 
BRANCH   9  10
ATOM     10  C   UNL     1      58.407  36.502  54.281  1.00  0.00    -0.000 C 
BRANCH  10  11
ATOM     11  C   UNL     1      58.790  37.677  55.200  1.00  0.00    -0.000 C 
BRANCH  11  12
ATOM     12  C   UNL     1      59.963  37.394  56.158  1.00  0.00    -0.000 C 
BRANCH  12  13
ATOM     13  C   UNL     1      59.671  37.816  57.605  1.00  0.00    -0.003 C 
ATOM     14  C   UNL     1      58.579  38.881  57.656  1.00  0.00     0.004 C 
ENDBRANCH  12  13
ENDBRANCH  11  12
ENDBRANCH  10  11
ENDBRANCH   9  10
ENDBRANCH   1   9
TORSDOF 10
ENDMDL
MODEL 2
REMARK VINA RESULT:    -3.928      4.143      7.465
REMARK INTER + INTRA:          -6.645
REMARK INTER:                  -6.143
REMARK INTRA:                  -0.502
REMARK UNBOUND:                -0.421
REMARK SMILES CCCCCCCCCCCC(=O)[O-]
REMARK SMILES IDX 7 1 8 2 9 3 10 4 11 5 12 6 13 7 14 8 6 9 5 10 4 11 3 12 2 13
REMARK SMILES IDX 1 14
REMARK H PARENT
REMARK Flexibility Score: inf
ROOT
ATOM      1  C   UNL     1      57.460  36.795  52.593  1.00  0.00     0.000 C 
ENDROOT
BRANCH   1   2
ATOM      2  C   UNL     1      57.773  37.176  54.051  1.00  0.00     0.000 C 
BRANCH   2   3
ATOM      3  C   UNL     1      59.053  36.514  54.583  1.00  0.00     0.000 C 
BRANCH   3   4
ATOM      4  C   UNL     1      59.695  37.365  55.689  1.00  0.00     0.006 C 
BRANCH   4   5
ATOM      5  C   UNL     1      58.749  38.459  56.202  1.00  0.00     0.053 C 
BRANCH   5   6
ATOM      6  C   UNL     1      58.780  38.566  57.695  1.00  0.00     0.041 C 
ATOM      7  O   UNL     1      58.985  37.542  58.400  1.00  0.00    -0.550 OA
ATOM      8  O   UNL     1      58.617  39.802  58.308  1.00  0.00    -0.550 OA
ENDBRANCH   5   6
ENDBRANCH   4   5
ENDBRANCH   3   4
ENDBRANCH   2   3
ENDBRANCH   1   2
BRANCH   1   9
ATOM      9  C   UNL     1      58.281  35.616  52.040  1.00  0.00     0.000 C 
BRANCH   9  10
ATOM     10  C   UNL     1      58.582  35.749  50.539  1.00  0.00    -0.000 C 
BRANCH  10  11
ATOM     11  C   UNL     1      59.888  35.046  50.125  1.00  0.00    -0.000 C 
BRANCH  11  12
ATOM     12  C   UNL     1      60.453  35.482  48.760  1.00  0.00    -0.000 C 
BRANCH  12  13
ATOM     13  C   UNL     1      60.065  36.919  48.381  1.00  0.00    -0.003 C 
ATOM     14  C   UNL     1      61.290  37.725  47.958  1.00  0.00     0.004 C 
ENDBRANCH  12  13
ENDBRANCH  11  12
ENDBRANCH  10  11
ENDBRANCH   9  10
ENDBRANCH   1   9
TORSDOF 10
ENDMDL
MODEL 3
REMARK VINA RESULT:    -3.622     15.592     18.123
REMARK INTER + INTRA:          -6.160
REMARK INTER:                  -5.600
REMARK INTRA:                  -0.560
REMARK UNBOUND:                -0.421
REMARK SMILES CCCCCCCCCCCC(=O)[O-]
REMARK SMILES IDX 7 1 8 2 9 3 10 4 11 5 12 6 13 7 14 8 6 9 5 10 4 11 3 12 2 13
REMARK SMILES IDX 1 14
REMARK H PARENT
REMARK Flexibility Score: inf
ROOT
ATOM      1  C   UNL     1      61.238  49.957  39.693  1.00  0.00     0.000 C 
ENDROOT
BRANCH   1   2
ATOM      2  C   UNL     1      62.585  50.068  38.955  1.00  0.00     0.000 C 
BRANCH   2   3
ATOM      3  C   UNL     1      63.593  48.988  39.379  1.00  0.00     0.000 C 
BRANCH   3   4
ATOM      4  C   UNL     1      62.930  47.941  40.285  1.00  0.00     0.006 C 
BRANCH   4   5
ATOM      5  C   UNL     1      63.299  46.507  39.881  1.00  0.00     0.053 C 
BRANCH   5   6
ATOM      6  C   UNL     1      64.244  45.879  40.858  1.00  0.00     0.041 C 
ATOM      7  O   UNL     1      64.337  46.330  42.030  1.00  0.00    -0.550 OA
ATOM      8  O   UNL     1      64.999  44.775  40.484  1.00  0.00    -0.550 OA
ENDBRANCH   5   6
ENDBRANCH   4   5
ENDBRANCH   3   4
ENDBRANCH   2   3
ENDBRANCH   1   2
BRANCH   1   9
ATOM      9  C   UNL     1      60.537  51.299  39.966  1.00  0.00     0.000 C 
BRANCH   9  10
ATOM     10  C   UNL     1      61.295  52.500  39.377  1.00  0.00    -0.000 C 
BRANCH  10  11
ATOM     11  C   UNL     1      61.322  53.714  40.324  1.00  0.00    -0.000 C 
BRANCH  11  12
ATOM     12  C   UNL     1      60.960  53.400  41.789  1.00  0.00    -0.000 C 
BRANCH  12  13
ATOM     13  C   UNL     1      61.368  54.518  42.759  1.00  0.00    -0.003 C 
ATOM     14  C   UNL     1      61.302  54.039  44.207  1.00  0.00     0.004 C 
ENDBRANCH  12  13
ENDBRANCH  11  12
ENDBRANCH  10  11
ENDBRANCH   9  10
ENDBRANCH   1   9
TORSDOF 10
ENDMDL
MODEL 4
REMARK VINA RESULT:    -3.601      3.745      7.469
REMARK INTER + INTRA:          -6.127
REMARK INTER:                  -5.377
REMARK INTRA:                  -0.751
REMARK UNBOUND:                -0.421
REMARK SMILES CCCCCCCCCCCC(=O)[O-]
REMARK SMILES IDX 7 1 8 2 9 3 10 4 11 5 12 6 13 7 14 8 6 9 5 10 4 11 3 12 2 13
REMARK SMILES IDX 1 14
REMARK H PARENT
REMARK Flexibility Score: inf
ROOT
ATOM      1  C   UNL     1      58.998  38.337  55.885  1.00  0.00     0.000 C 
ENDROOT
BRANCH   1   2
ATOM      2  C   UNL     1      58.787  38.454  57.405  1.00  0.00     0.000 C 
BRANCH   2   3
ATOM      3  C   UNL     1      59.706  37.526  58.214  1.00  0.00     0.000 C 
BRANCH   3   4
ATOM      4  C   UNL     1      60.815  38.322  58.915  1.00  0.00     0.006 C 
BRANCH   4   5
ATOM      5  C   UNL     1      62.203  37.707  58.690  1.00  0.00     0.053 C 
BRANCH   5   6
ATOM      6  C   UNL     1      63.008  38.498  57.706  1.00  0.00     0.041 C 
ATOM      7  O   UNL     1      63.672  39.498  58.088  1.00  0.00    -0.550 OA
ATOM      8  O   UNL     1      63.053  38.111  56.373  1.00  0.00    -0.550 OA
ENDBRANCH   5   6
ENDBRANCH   4   5
ENDBRANCH   3   4
ENDBRANCH   2   3
ENDBRANCH   1   2
BRANCH   1   9
ATOM      9  C   UNL     1      59.732  37.063  55.430  1.00  0.00     0.000 C 
BRANCH   9  10
ATOM     10  C   UNL     1      58.907  36.217  54.447  1.00  0.00    -0.000 C 
BRANCH  10  11
ATOM     11  C   UNL     1      57.709  36.983  53.856  1.00  0.00    -0.000 C 
BRANCH  11  12
ATOM     12  C   UNL     1      57.476  36.758  52.350  1.00  0.00    -0.000 C 
BRANCH  12  13
ATOM     13  C   UNL     1      58.427  35.714  51.746  1.00  0.00    -0.003 C 
ATOM     14  C   UNL     1      58.512  35.863  50.229  1.00  0.00     0.004 C 
ENDBRANCH  12  13
ENDBRANCH  11  12
ENDBRANCH  10  11
ENDBRANCH   9  10
ENDBRANCH   1   9
TORSDOF 10
ENDMDL
MODEL 5
REMARK VINA RESULT:    -3.568     18.134     19.723
REMARK INTER + INTRA:          -6.075
REMARK INTER:                  -4.780
REMARK INTRA:                  -1.294
REMARK UNBOUND:                -0.421
REMARK SMILES CCCCCCCCCCCC(=O)[O-]
REMARK SMILES IDX 7 1 8 2 9 3 10 4 11 5 12 6 13 7 14 8 6 9 5 10 4 11 3 12 2 13
REMARK SMILES IDX 1 14
REMARK H PARENT
REMARK Flexibility Score: inf
ROOT
ATOM      1  C   UNL     1      69.781  54.890  52.186  1.00  0.00     0.000 C 
ENDROOT
BRANCH   1   2
ATOM      2  C   UNL     1      70.297  53.792  53.134  1.00  0.00     0.000 C 
BRANCH   2   3
ATOM      3  C   UNL     1      71.059  52.676  52.402  1.00  0.00     0.000 C 
BRANCH   3   4
ATOM      4  C   UNL     1      70.996  51.359  53.189  1.00  0.00     0.006 C 
BRANCH   4   5
ATOM      5  C   UNL     1      69.581  51.055  53.700  1.00  0.00     0.053 C 
BRANCH   5   6
ATOM      6  C   UNL     1      69.584  50.661  55.145  1.00  0.00     0.041 C 
ATOM      7  O   UNL     1      70.637  50.766  55.828  1.00  0.00    -0.550 OA
ATOM      8  O   UNL     1      68.416  50.209  55.745  1.00  0.00    -0.550 OA
ENDBRANCH   5   6
ENDBRANCH   4   5
ENDBRANCH   3   4
ENDBRANCH   2   3
ENDBRANCH   1   2
BRANCH   1   9
ATOM      9  C   UNL     1      70.608  55.079  50.902  1.00  0.00     0.000 C 
BRANCH   9  10
ATOM     10  C   UNL     1      69.770  54.918  49.623  1.00  0.00    -0.000 C 
BRANCH  10  11
ATOM     11  C   UNL     1      68.281  54.654  49.912  1.00  0.00    -0.000 C 
BRANCH  11  12
ATOM     12  C   UNL     1      67.784  53.252  49.510  1.00  0.00    -0.000 C 
BRANCH  12  13
ATOM     13  C   UNL     1      68.912  52.213  49.437  1.00  0.00    -0.003 C 
ATOM     14  C   UNL     1      68.550  50.954  50.220  1.00  0.00     0.004 C 
ENDBRANCH  12  13
ENDBRANCH  11  12
ENDBRANCH  10  11
ENDBRANCH   9  10
ENDBRANCH   1   9
TORSDOF 10
ENDMDL
MODEL 6
REMARK VINA RESULT:    -3.506     17.827     19.369
REMARK INTER + INTRA:          -5.976
REMARK INTER:                  -4.752
REMARK INTRA:                  -1.223
REMARK UNBOUND:                -0.421
REMARK SMILES CCCCCCCCCCCC(=O)[O-]
REMARK SMILES IDX 7 1 8 2 9 3 10 4 11 5 12 6 13 7 14 8 6 9 5 10 4 11 3 12 2 13
REMARK SMILES IDX 1 14
REMARK H PARENT
REMARK Flexibility Score: inf
ROOT
ATOM      1  C   UNL     1      68.577  50.615  50.476  1.00  0.00     0.000 C 
ENDROOT
BRANCH   1   2
ATOM      2  C   UNL     1      68.767  50.677  52.002  1.00  0.00     0.000 C 
BRANCH   2   3
ATOM      3  C   UNL     1      70.186  51.101  52.414  1.00  0.00     0.000 C 
BRANCH   3   4
ATOM      4  C   UNL     1      70.155  51.976  53.675  1.00  0.00     0.006 C 
BRANCH   4   5
ATOM      5  C   UNL     1      71.139  51.487  54.746  1.00  0.00     0.053 C 
BRANCH   5   6
ATOM      6  C   UNL     1      70.493  50.528  55.699  1.00  0.00     0.041 C 
ATOM      7  O   UNL     1      69.238  50.432  55.747  1.00  0.00    -0.550 OA
ATOM      8  O   UNL     1      71.278  49.718  56.509  1.00  0.00    -0.550 OA
ENDBRANCH   5   6
ENDBRANCH   4   5
ENDBRANCH   3   4
ENDBRANCH   2   3
ENDBRANCH   1   2
BRANCH   1   9
ATOM      9  C   UNL     1      69.064  51.859  49.711  1.00  0.00     0.000 C 
BRANCH   9  10
ATOM     10  C   UNL     1      68.009  52.975  49.652  1.00  0.00    -0.000 C 
BRANCH  10  11
ATOM     11  C   UNL     1      68.605  54.375  49.887  1.00  0.00    -0.000 C 
BRANCH  11  12
ATOM     12  C   UNL     1      69.630  54.458  51.034  1.00  0.00    -0.000 C 
BRANCH  12  13
ATOM     13  C   UNL     1      71.025  54.890  50.561  1.00  0.00    -0.003 C 
ATOM     14  C   UNL     1      72.055  53.792  50.814  1.00  0.00     0.004 C 
ENDBRANCH  12  13
ENDBRANCH  11  12
ENDBRANCH  10  11
ENDBRANCH   9  10
ENDBRANCH   1   9
TORSDOF 10
ENDMDL
MODEL 7
REMARK VINA RESULT:    -3.481     16.944     18.083
REMARK INTER + INTRA:          -5.937
REMARK INTER:                  -5.053
REMARK INTRA:                  -0.884
REMARK UNBOUND:                -0.421
REMARK SMILES CCCCCCCCCCCC(=O)[O-]
REMARK SMILES IDX 7 1 8 2 9 3 10 4 11 5 12 6 13 7 14 8 6 9 5 10 4 11 3 12 2 13
REMARK SMILES IDX 1 14
REMARK H PARENT
REMARK Flexibility Score: inf
ROOT
ATOM      1  C   UNL     1      69.243  50.973  54.344  1.00  0.00     0.000 C 
ENDROOT
BRANCH   1   2
ATOM      2  C   UNL     1      70.325  52.068  54.348  1.00  0.00     0.000 C 
BRANCH   2   3
ATOM      3  C   UNL     1      70.630  52.615  52.945  1.00  0.00     0.000 C 
BRANCH   3   4
ATOM      4  C   UNL     1      70.963  51.477  51.970  1.00  0.00     0.006 C 
BRANCH   4   5
ATOM      5  C   UNL     1      70.469  51.768  50.546  1.00  0.00     0.053 C 
BRANCH   5   6
ATOM      6  C   UNL     1      69.024  51.414  50.376  1.00  0.00     0.041 C 
ATOM      7  O   UNL     1      68.265  52.157  49.699  1.00  0.00    -0.550 OA
ATOM      8  O   UNL     1      68.524  50.246  50.935  1.00  0.00    -0.550 OA
ENDBRANCH   5   6
ENDBRANCH   4   5
ENDBRANCH   3   4
ENDBRANCH   2   3
ENDBRANCH   1   2
BRANCH   1   9
ATOM      9  C   UNL     1      68.872  50.423  55.733  1.00  0.00     0.000 C 
BRANCH   9  10
ATOM     10  C   UNL     1      70.039  50.487  56.732  1.00  0.00    -0.000 C 
BRANCH  10  11
ATOM     11  C   UNL     1      70.507  49.095  57.196  1.00  0.00    -0.000 C 
BRANCH  11  12
ATOM     12  C   UNL     1      71.977  48.766  56.874  1.00  0.00    -0.000 C 
BRANCH  12  13
ATOM     13  C   UNL     1      72.708  49.916  56.165  1.00  0.00    -0.003 C 
ATOM     14  C   UNL     1      74.000  50.275  56.892  1.00  0.00     0.004 C 
ENDBRANCH  12  13
ENDBRANCH  11  12
ENDBRANCH  10  11
ENDBRANCH   9  10
ENDBRANCH   1   9
TORSDOF 10
ENDMDL
MODEL 8
REMARK VINA RESULT:    -3.447     17.380     19.151
REMARK INTER + INTRA:          -5.882
REMARK INTER:                  -4.637
REMARK INTRA:                  -1.245
REMARK UNBOUND:                -0.421
REMARK SMILES CCCCCCCCCCCC(=O)[O-]
REMARK SMILES IDX 7 1 8 2 9 3 10 4 11 5 12 6 13 7 14 8 6 9 5 10 4 11 3 12 2 13
REMARK SMILES IDX 1 14
REMARK H PARENT
REMARK Flexibility Score: inf
ROOT
ATOM      1  C   UNL     1      69.393  52.057  55.266  1.00  0.00     0.000 C 
ENDROOT
BRANCH   1   2
ATOM      2  C   UNL     1      68.819  50.644  55.051  1.00  0.00     0.000 C 
BRANCH   2   3
ATOM      3  C   UNL     1      69.180  49.670  56.184  1.00  0.00     0.000 C 
BRANCH   3   4
ATOM      4  C   UNL     1      70.322  50.226  57.046  1.00  0.00     0.006 C 
BRANCH   4   5
ATOM      5  C   UNL     1      71.658  49.527  56.761  1.00  0.00     0.053 C 
BRANCH   5   6
ATOM      6  C   UNL     1      72.795  50.500  56.705  1.00  0.00     0.041 C 
ATOM      7  O   UNL     1      72.570  51.739  56.721  1.00  0.00    -0.550 OA
ATOM      8  O   UNL     1      74.104  50.039  56.671  1.00  0.00    -0.550 OA
ENDBRANCH   5   6
ENDBRANCH   4   5
ENDBRANCH   3   4
ENDBRANCH   2   3
ENDBRANCH   1   2
BRANCH   1   9
ATOM      9  C   UNL     1      70.248  52.593  54.104  1.00  0.00     0.000 C 
BRANCH   9  10
ATOM     10  C   UNL     1      71.083  51.497  53.422  1.00  0.00    -0.000 C 
BRANCH  10  11
ATOM     11  C   UNL     1      71.069  51.602  51.886  1.00  0.00    -0.000 C 
BRANCH  11  12
ATOM     12  C   UNL     1      69.837  52.317  51.298  1.00  0.00    -0.000 C 
BRANCH  12  13
ATOM     13  C   UNL     1      69.008  51.416  50.370  1.00  0.00    -0.003 C 
ATOM     14  C   UNL     1      68.410  50.241  51.137  1.00  0.00     0.004 C 
ENDBRANCH  12  13
ENDBRANCH  11  12
ENDBRANCH  10  11
ENDBRANCH   9  10
ENDBRANCH   1   9
TORSDOF 10
ENDMDL
MODEL 9
REMARK VINA RESULT:    -3.425     17.323     19.179
REMARK INTER + INTRA:          -5.849
REMARK INTER:                  -4.894
REMARK INTRA:                  -0.955
REMARK UNBOUND:                -0.421
REMARK SMILES CCCCCCCCCCCC(=O)[O-]
REMARK SMILES IDX 7 1 8 2 9 3 10 4 11 5 12 6 13 7 14 8 6 9 5 10 4 11 3 12 2 13
REMARK SMILES IDX 1 14
REMARK H PARENT
REMARK Flexibility Score: inf
ROOT
ATOM      1  C   UNL     1      71.102  51.641  52.081  1.00  0.00     0.000 C 
ENDROOT
BRANCH   1   2
ATOM      2  C   UNL     1      70.733  52.874  52.925  1.00  0.00     0.000 C 
BRANCH   2   3
ATOM      3  C   UNL     1      70.014  52.513  54.234  1.00  0.00     0.000 C 
BRANCH   3   4
ATOM      4  C   UNL     1      69.622  51.029  54.257  1.00  0.00     0.006 C 
BRANCH   4   5
ATOM      5  C   UNL     1      68.408  50.763  55.157  1.00  0.00     0.053 C 
BRANCH   5   6
ATOM      6  C   UNL     1      68.713  49.749  56.216  1.00  0.00     0.041 C 
ATOM      7  O   UNL     1      69.897  49.365  56.403  1.00  0.00    -0.550 OA
ATOM      8  O   UNL     1      67.693  49.254  57.019  1.00  0.00    -0.550 OA
ENDBRANCH   5   6
ENDBRANCH   4   5
ENDBRANCH   3   4
ENDBRANCH   2   3
ENDBRANCH   1   2
BRANCH   1   9
ATOM      9  C   UNL     1      70.603  51.677  50.626  1.00  0.00     0.000 C 
BRANCH   9  10
ATOM     10  C   UNL     1      69.115  51.313  50.495  1.00  0.00    -0.000 C 
BRANCH  10  11
ATOM     11  C   UNL     1      68.320  52.335  49.661  1.00  0.00    -0.000 C 
BRANCH  11  12
ATOM     12  C   UNL     1      68.508  53.804  50.086  1.00  0.00    -0.000 C 
BRANCH  12  13
ATOM     13  C   UNL     1      69.131  54.672  48.983  1.00  0.00    -0.003 C 
ATOM     14  C   UNL     1      69.430  53.844  47.736  1.00  0.00     0.004 C 
ENDBRANCH  12  13
ENDBRANCH  11  12
ENDBRANCH  10  11
ENDBRANCH   9  10
ENDBRANCH   1   9
TORSDOF 10
ENDMDL
