MODEL 1
REMARK VINA RESULT:    -3.971      0.000      0.000
REMARK INTER + INTRA:         -10.430
REMARK INTER:                  -7.685
REMARK INTRA:                  -2.745
REMARK UNBOUND:                -2.745
REMARK SMILES CCCCCCCCCCCCCCCCCC(=O)[O-]
REMARK SMILES IDX 10 1 11 2 12 3 13 4 14 5 15 6 16 7 17 8 18 9 19 10 20 11
REMARK SMILES IDX 9 12 8 13 7 14 6 15 5 16 4 17 3 18 2 19 1 20
REMARK H PARENT
REMARK Flexibility Score: inf
ROOT
ATOM      1  C   UNL     1      37.807  35.068  25.126  1.00  0.00     0.000 C 
ENDROOT
BRANCH   1   2
ATOM      2  C   UNL     1      38.543  34.147  26.115  1.00  0.00     0.000 C 
BRANCH   2   3
ATOM      3  C   UNL     1      37.705  32.921  26.514  1.00  0.00     0.000 C 
BRANCH   3   4
ATOM      4  C   UNL     1      37.564  31.906  25.366  1.00  0.00     0.000 C 
BRANCH   4   5
ATOM      5  C   UNL     1      36.167  31.933  24.726  1.00  0.00     0.000 C 
BRANCH   5   6
ATOM      6  C   UNL     1      35.048  32.182  25.753  1.00  0.00     0.000 C 
BRANCH   6   7
ATOM      7  C   UNL     1      33.890  33.010  25.174  1.00  0.00     0.006 C 
BRANCH   7   8
ATOM      8  C   UNL     1      34.309  33.833  23.949  1.00  0.00     0.053 C 
BRANCH   8   9
ATOM      9  C   UNL     1      33.470  33.470  22.765  1.00  0.00     0.041 C 
ATOM     10  O   UNL     1      32.870  32.364  22.728  1.00  0.00    -0.550 OA
ATOM     11  O   UNL     1      33.311  34.374  21.722  1.00  0.00    -0.550 OA
ENDBRANCH   8   9
ENDBRANCH   7   8
ENDBRANCH   6   7
ENDBRANCH   5   6
ENDBRANCH   4   5
ENDBRANCH   3   4
ENDBRANCH   2   3
ENDBRANCH   1   2
BRANCH   1  12
ATOM     12  C   UNL     1      37.300  36.367  25.780  1.00  0.00     0.000 C 
BRANCH  12  13
ATOM     13  C   UNL     1      35.799  36.379  26.122  1.00  0.00    -0.000 C 
BRANCH  13  14
ATOM     14  C   UNL     1      35.455  35.505  27.340  1.00  0.00    -0.000 C 
BRANCH  14  15
ATOM     15  C   UNL     1      35.031  36.335  28.562  1.00  0.00    -0.000 C 
BRANCH  15  16
ATOM     16  C   UNL     1      35.994  36.176  29.750  1.00  0.00    -0.000 C 
BRANCH  16  17
ATOM     17  C   UNL     1      37.367  35.618  29.318  1.00  0.00    -0.000 C 
BRANCH  17  18
ATOM     18  C   UNL     1      38.472  36.689  29.236  1.00  0.00    -0.000 C 
BRANCH  18  19
ATOM     19  C   UNL     1      38.014  38.110  29.609  1.00  0.00    -0.003 C 
ATOM     20  C   UNL     1      37.833  39.013  28.388  1.00  0.00     0.004 C 
ENDBRANCH  18  19
ENDBRANCH  17  18
ENDBRANCH  16  17
ENDBRANCH  15  16
ENDBRANCH  14  15
ENDBRANCH  13  14
ENDBRANCH  12  13
ENDBRANCH   1  12
TORSDOF 16
ENDMDL
MODEL 2
REMARK VINA RESULT:    -3.907      3.011      4.636
REMARK INTER + INTRA:         -10.307
REMARK INTER:                  -8.064
REMARK INTRA:                  -2.243
REMARK UNBOUND:                -2.745
REMARK SMILES CCCCCCCCCCCCCCCCCC(=O)[O-]
REMARK SMILES IDX 10 1 11 2 12 3 13 4 14 5 15 6 16 7 17 8 18 9 19 10 20 11
REMARK SMILES IDX 9 12 8 13 7 14 6 15 5 16 4 17 3 18 2 19 1 20
REMARK H PARENT
REMARK Flexibility Score: inf
ROOT
ATOM      1  C   UNL     1      36.632  31.419  23.893  1.00  0.00     0.000 C 
ENDROOT
BRANCH   1   2
ATOM      2  C   UNL     1      36.590  32.295  22.630  1.00  0.00     0.000 C 
BRANCH   2   3
ATOM      3  C   UNL     1      35.561  31.798  21.601  1.00  0.00     0.000 C 
BRANCH   3   4
ATOM      4  C   UNL     1      34.204  32.511  21.734  1.00  0.00     0.000 C 
BRANCH   4   5
ATOM      5  C   UNL     1      33.024  31.527  21.776  1.00  0.00     0.000 C 
BRANCH   5   6
ATOM      6  C   UNL     1      33.372  30.212  22.496  1.00  0.00     0.000 C 
BRANCH   6   7
ATOM      7  C   UNL     1      33.005  28.971  21.668  1.00  0.00     0.006 C 
BRANCH   7   8
ATOM      8  C   UNL     1      32.551  29.325  20.246  1.00  0.00     0.053 C 
BRANCH   8   9
ATOM      9  C   UNL     1      33.577  28.889  19.248  1.00  0.00     0.041 C 
ATOM     10  O   UNL     1      34.770  29.277  19.355  1.00  0.00    -0.550 OA
ATOM     11  O   UNL     1      33.227  28.015  18.227  1.00  0.00    -0.550 OA
ENDBRANCH   8   9
ENDBRANCH   7   8
ENDBRANCH   6   7
ENDBRANCH   5   6
ENDBRANCH   4   5
ENDBRANCH   3   4
ENDBRANCH   2   3
ENDBRANCH   1   2
BRANCH   1  12
ATOM     12  C   UNL     1      36.140  32.157  25.152  1.00  0.00     0.000 C 
BRANCH  12  13
ATOM     13  C   UNL     1      34.624  32.073  25.405  1.00  0.00    -0.000 C 
BRANCH  13  14
ATOM     14  C   UNL     1      33.973  33.452  25.605  1.00  0.00    -0.000 C 
BRANCH  14  15
ATOM     15  C   UNL     1      34.635  34.548  24.755  1.00  0.00    -0.000 C 
BRANCH  15  16
ATOM     16  C   UNL     1      35.145  35.727  25.601  1.00  0.00    -0.000 C 
BRANCH  16  17
ATOM     17  C   UNL     1      35.248  35.369  27.099  1.00  0.00    -0.000 C 
BRANCH  17  18
ATOM     18  C   UNL     1      36.678  35.021  27.555  1.00  0.00    -0.000 C 
BRANCH  18  19
ATOM     19  C   UNL     1      36.983  35.361  29.023  1.00  0.00    -0.003 C 
ATOM     20  C   UNL     1      35.864  36.162  29.691  1.00  0.00     0.004 C 
ENDBRANCH  18  19
ENDBRANCH  17  18
ENDBRANCH  16  17
ENDBRANCH  15  16
ENDBRANCH  14  15
ENDBRANCH  13  14
ENDBRANCH  12  13
ENDBRANCH   1  12
TORSDOF 16
ENDMDL
MODEL 3
REMARK VINA RESULT:    -3.896      2.988      5.061
REMARK INTER + INTRA:         -10.284
REMARK INTER:                  -7.339
REMARK INTRA:                  -2.946
REMARK UNBOUND:                -2.745
REMARK SMILES CCCCCCCCCCCCCCCCCC(=O)[O-]
REMARK SMILES IDX 10 1 11 2 12 3 13 4 14 5 15 6 16 7 17 8 18 9 19 10 20 11
REMARK SMILES IDX 9 12 8 13 7 14 6 15 5 16 4 17 3 18 2 19 1 20
REMARK H PARENT
REMARK Flexibility Score: inf
ROOT
ATOM      1  C   UNL     1      37.533  32.697  23.948  1.00  0.00     0.000 C 
ENDROOT
BRANCH   1   2
ATOM      2  C   UNL     1      37.549  31.759  22.729  1.00  0.00     0.000 C 
BRANCH   2   3
ATOM      3  C   UNL     1      36.647  32.258  21.589  1.00  0.00     0.000 C 
BRANCH   3   4
ATOM      4  C   UNL     1      35.402  31.375  21.393  1.00  0.00     0.000 C 
BRANCH   4   5
ATOM      5  C   UNL     1      35.371  30.178  22.356  1.00  0.00     0.000 C 
BRANCH   5   6
ATOM      6  C   UNL     1      33.940  29.738  22.711  1.00  0.00     0.000 C 
BRANCH   6   7
ATOM      7  C   UNL     1      32.893  30.288  21.730  1.00  0.00     0.006 C 
BRANCH   7   8
ATOM      8  C   UNL     1      32.300  29.198  20.828  1.00  0.00     0.053 C 
BRANCH   8   9
ATOM      9  C   UNL     1      33.011  29.167  19.512  1.00  0.00     0.041 C 
ATOM     10  O   UNL     1      32.799  30.066  18.656  1.00  0.00    -0.550 OA
ATOM     11  O   UNL     1      33.944  28.172  19.249  1.00  0.00    -0.550 OA
ENDBRANCH   8   9
ENDBRANCH   7   8
ENDBRANCH   6   7
ENDBRANCH   5   6
ENDBRANCH   4   5
ENDBRANCH   3   4
ENDBRANCH   2   3
ENDBRANCH   1   2
BRANCH   1  12
ATOM     12  C   UNL     1      37.163  31.974  25.257  1.00  0.00     0.000 C 
BRANCH  12  13
ATOM     13  C   UNL     1      35.996  32.604  26.040  1.00  0.00    -0.000 C 
BRANCH  13  14
ATOM     14  C   UNL     1      34.623  32.062  25.605  1.00  0.00    -0.000 C 
BRANCH  14  15
ATOM     15  C   UNL     1      33.662  33.176  25.163  1.00  0.00    -0.000 C 
BRANCH  15  16
ATOM     16  C   UNL     1      33.661  33.388  23.640  1.00  0.00    -0.000 C 
BRANCH  16  17
ATOM     17  C   UNL     1      33.952  34.854  23.254  1.00  0.00    -0.000 C 
BRANCH  17  18
ATOM     18  C   UNL     1      35.194  35.442  23.952  1.00  0.00    -0.000 C 
BRANCH  18  19
ATOM     19  C   UNL     1      34.893  36.587  24.933  1.00  0.00    -0.003 C 
ATOM     20  C   UNL     1      35.548  36.384  26.300  1.00  0.00     0.004 C 
ENDBRANCH  18  19
ENDBRANCH  17  18
ENDBRANCH  16  17
ENDBRANCH  15  16
ENDBRANCH  14  15
ENDBRANCH  13  14
ENDBRANCH  12  13
ENDBRANCH   1  12
TORSDOF 16
ENDMDL
MODEL 4
REMARK VINA RESULT:    -3.851      3.989      8.268
REMARK INTER + INTRA:         -10.198
REMARK INTER:                  -7.776
REMARK INTRA:                  -2.422
REMARK UNBOUND:                -2.745
REMARK SMILES CCCCCCCCCCCCCCCCCC(=O)[O-]
REMARK SMILES IDX 10 1 11 2 12 3 13 4 14 5 15 6 16 7 17 8 18 9 19 10 20 11
REMARK SMILES IDX 9 12 8 13 7 14 6 15 5 16 4 17 3 18 2 19 1 20
REMARK H PARENT
REMARK Flexibility Score: inf
ROOT
ATOM      1  C   UNL     1      35.290  32.317  21.296  1.00  0.00     0.000 C 
ENDROOT
BRANCH   1   2
ATOM      2  C   UNL     1      36.180  32.745  22.476  1.00  0.00     0.000 C 
BRANCH   2   3
ATOM      3  C   UNL     1      36.443  31.595  23.463  1.00  0.00     0.000 C 
BRANCH   3   4
ATOM      4  C   UNL     1      36.219  32.013  24.927  1.00  0.00     0.000 C 
BRANCH   4   5
ATOM      5  C   UNL     1      34.733  32.014  25.318  1.00  0.00     0.000 C 
BRANCH   5   6
ATOM      6  C   UNL     1      34.199  33.426  25.619  1.00  0.00     0.000 C 
BRANCH   6   7
ATOM      7  C   UNL     1      35.323  34.465  25.752  1.00  0.00     0.006 C 
BRANCH   7   8
ATOM      8  C   UNL     1      35.179  35.332  27.009  1.00  0.00     0.053 C 
BRANCH   8   9
ATOM      9  C   UNL     1      36.166  34.909  28.050  1.00  0.00     0.041 C 
ATOM     10  O   UNL     1      36.853  33.866  27.886  1.00  0.00    -0.550 OA
ATOM     11  O   UNL     1      36.362  35.691  29.181  1.00  0.00    -0.550 OA
ENDBRANCH   8   9
ENDBRANCH   7   8
ENDBRANCH   6   7
ENDBRANCH   5   6
ENDBRANCH   4   5
ENDBRANCH   3   4
ENDBRANCH   2   3
ENDBRANCH   1   2
BRANCH   1  12
ATOM     12  C   UNL     1      33.883  32.941  21.348  1.00  0.00     0.000 C 
BRANCH  12  13
ATOM     13  C   UNL     1      32.868  32.183  22.224  1.00  0.00    -0.000 C 
BRANCH  13  14
ATOM     14  C   UNL     1      33.067  30.658  22.186  1.00  0.00    -0.000 C 
BRANCH  14  15
ATOM     15  C   UNL     1      32.227  29.979  21.094  1.00  0.00    -0.000 C 
BRANCH  15  16
ATOM     16  C   UNL     1      32.804  28.620  20.661  1.00  0.00    -0.000 C 
BRANCH  16  17
ATOM     17  C   UNL     1      33.298  28.634  19.199  1.00  0.00    -0.000 C 
BRANCH  17  18
ATOM     18  C   UNL     1      34.553  29.500  18.978  1.00  0.00    -0.000 C 
BRANCH  18  19
ATOM     19  C   UNL     1      34.469  30.454  17.774  1.00  0.00    -0.003 C 
ATOM     20  C   UNL     1      33.324  31.460  17.894  1.00  0.00     0.004 C 
ENDBRANCH  18  19
ENDBRANCH  17  18
ENDBRANCH  16  17
ENDBRANCH  15  16
ENDBRANCH  14  15
ENDBRANCH  13  14
ENDBRANCH  12  13
ENDBRANCH   1  12
TORSDOF 16
ENDMDL
MODEL 5
REMARK VINA RESULT:    -3.828      3.404      6.841
REMARK INTER + INTRA:         -10.154
REMARK INTER:                  -7.072
REMARK INTRA:                  -3.082
REMARK UNBOUND:                -2.745
REMARK SMILES CCCCCCCCCCCCCCCCCC(=O)[O-]
REMARK SMILES IDX 10 1 11 2 12 3 13 4 14 5 15 6 16 7 17 8 18 9 19 10 20 11
REMARK SMILES IDX 9 12 8 13 7 14 6 15 5 16 4 17 3 18 2 19 1 20
REMARK H PARENT
REMARK Flexibility Score: inf
ROOT
ATOM      1  C   UNL     1      33.941  34.243  22.568  1.00  0.00     0.000 C 
ENDROOT
BRANCH   1   2
ATOM      2  C   UNL     1      34.380  35.377  23.509  1.00  0.00     0.000 C 
BRANCH   2   3
ATOM      3  C   UNL     1      35.905  35.435  23.693  1.00  0.00     0.000 C 
BRANCH   3   4
ATOM      4  C   UNL     1      36.312  35.807  25.129  1.00  0.00     0.000 C 
BRANCH   4   5
ATOM      5  C   UNL     1      35.108  36.207  25.997  1.00  0.00     0.000 C 
BRANCH   5   6
ATOM      6  C   UNL     1      35.259  35.763  27.463  1.00  0.00     0.000 C 
BRANCH   6   7
ATOM      7  C   UNL     1      36.694  35.331  27.803  1.00  0.00     0.006 C 
BRANCH   7   8
ATOM      8  C   UNL     1      37.064  35.614  29.265  1.00  0.00     0.053 C 
BRANCH   8   9
ATOM      9  C   UNL     1      37.887  36.859  29.363  1.00  0.00     0.041 C 
ATOM     10  O   UNL     1      39.142  36.785  29.436  1.00  0.00    -0.550 OA
ATOM     11  O   UNL     1      37.273  38.105  29.324  1.00  0.00    -0.550 OA
ENDBRANCH   8   9
ENDBRANCH   7   8
ENDBRANCH   6   7
ENDBRANCH   5   6
ENDBRANCH   4   5
ENDBRANCH   3   4
ENDBRANCH   2   3
ENDBRANCH   1   2
BRANCH   1  12
ATOM     12  C   UNL     1      33.281  33.067  23.312  1.00  0.00     0.000 C 
BRANCH  12  13
ATOM     13  C   UNL     1      33.513  33.049  24.834  1.00  0.00    -0.000 C 
BRANCH  13  14
ATOM     14  C   UNL     1      34.419  31.891  25.287  1.00  0.00    -0.000 C 
BRANCH  14  15
ATOM     15  C   UNL     1      35.694  32.379  25.991  1.00  0.00    -0.000 C 
BRANCH  15  16
ATOM     16  C   UNL     1      36.971  32.051  25.197  1.00  0.00    -0.000 C 
BRANCH  16  17
ATOM     17  C   UNL     1      36.681  31.174  23.961  1.00  0.00    -0.000 C 
BRANCH  17  18
ATOM     18  C   UNL     1      36.879  31.908  22.621  1.00  0.00    -0.000 C 
BRANCH  18  19
ATOM     19  C   UNL     1      36.020  31.372  21.464  1.00  0.00    -0.003 C 
ATOM     20  C   UNL     1      35.137  30.194  21.877  1.00  0.00     0.004 C 
ENDBRANCH  18  19
ENDBRANCH  17  18
ENDBRANCH  16  17
ENDBRANCH  15  16
ENDBRANCH  14  15
ENDBRANCH  13  14
ENDBRANCH  12  13
ENDBRANCH   1  12
TORSDOF 16
ENDMDL
MODEL 6
REMARK VINA RESULT:    -3.815      3.561      7.361
REMARK INTER + INTRA:         -10.128
REMARK INTER:                  -8.142
REMARK INTRA:                  -1.986
REMARK UNBOUND:                -2.745
REMARK SMILES CCCCCCCCCCCCCCCCCC(=O)[O-]
REMARK SMILES IDX 10 1 11 2 12 3 13 4 14 5 15 6 16 7 17 8 18 9 19 10 20 11
REMARK SMILES IDX 9 12 8 13 7 14 6 15 5 16 4 17 3 18 2 19 1 20
REMARK H PARENT
REMARK Flexibility Score: inf
ROOT
ATOM      1  C   UNL     1      34.338  33.638  23.472  1.00  0.00     0.000 C 
ENDROOT
BRANCH   1   2
ATOM      2  C   UNL     1      33.608  33.179  24.745  1.00  0.00     0.000 C 
BRANCH   2   3
ATOM      3  C   UNL     1      34.437  32.185  25.574  1.00  0.00     0.000 C 
BRANCH   3   4
ATOM      4  C   UNL     1      35.923  32.578  25.652  1.00  0.00     0.000 C 
BRANCH   4   5
ATOM      5  C   UNL     1      36.248  33.407  26.904  1.00  0.00     0.000 C 
BRANCH   5   6
ATOM      6  C   UNL     1      36.600  34.869  26.573  1.00  0.00     0.000 C 
BRANCH   6   7
ATOM      7  C   UNL     1      35.419  35.826  26.803  1.00  0.00     0.006 C 
BRANCH   7   8
ATOM      8  C   UNL     1      35.133  36.061  28.292  1.00  0.00     0.053 C 
BRANCH   8   9
ATOM      9  C   UNL     1      36.376  36.500  28.999  1.00  0.00     0.041 C 
ATOM     10  O   UNL     1      36.796  37.680  28.871  1.00  0.00    -0.550 OA
ATOM     11  O   UNL     1      37.046  35.619  29.838  1.00  0.00    -0.550 OA
ENDBRANCH   8   9
ENDBRANCH   7   8
ENDBRANCH   6   7
ENDBRANCH   5   6
ENDBRANCH   4   5
ENDBRANCH   3   4
ENDBRANCH   2   3
ENDBRANCH   1   2
BRANCH   1  12
ATOM     12  C   UNL     1      33.591  33.257  22.180  1.00  0.00     0.000 C 
BRANCH  12  13
ATOM     13  C   UNL     1      32.714  31.995  22.285  1.00  0.00    -0.000 C 
BRANCH  13  14
ATOM     14  C   UNL     1      33.338  30.773  21.589  1.00  0.00    -0.000 C 
BRANCH  14  15
ATOM     15  C   UNL     1      34.026  29.818  22.577  1.00  0.00    -0.000 C 
BRANCH  15  16
ATOM     16  C   UNL     1      35.515  30.145  22.778  1.00  0.00    -0.000 C 
BRANCH  16  17
ATOM     17  C   UNL     1      36.293  30.169  21.446  1.00  0.00    -0.000 C 
BRANCH  17  18
ATOM     18  C   UNL     1      37.751  29.685  21.572  1.00  0.00    -0.000 C 
BRANCH  18  19
ATOM     19  C   UNL     1      38.152  29.226  22.984  1.00  0.00    -0.003 C 
ATOM     20  C   UNL     1      39.647  29.392  23.258  1.00  0.00     0.004 C 
ENDBRANCH  18  19
ENDBRANCH  17  18
ENDBRANCH  16  17
ENDBRANCH  15  16
ENDBRANCH  14  15
ENDBRANCH  13  14
ENDBRANCH  12  13
ENDBRANCH   1  12
TORSDOF 16
ENDMDL
MODEL 7
REMARK VINA RESULT:    -3.795      3.559      7.731
REMARK INTER + INTRA:         -10.090
REMARK INTER:                  -8.411
REMARK INTRA:                  -1.679
REMARK UNBOUND:                -2.745
REMARK SMILES CCCCCCCCCCCCCCCCCC(=O)[O-]
REMARK SMILES IDX 10 1 11 2 12 3 13 4 14 5 15 6 16 7 17 8 18 9 19 10 20 11
REMARK SMILES IDX 9 12 8 13 7 14 6 15 5 16 4 17 3 18 2 19 1 20
REMARK H PARENT
REMARK Flexibility Score: inf
ROOT
ATOM      1  C   UNL     1      36.342  33.365  25.513  1.00  0.00     0.000 C 
ENDROOT
BRANCH   1   2
ATOM      2  C   UNL     1      37.283  33.851  26.628  1.00  0.00     0.000 C 
BRANCH   2   3
ATOM      3  C   UNL     1      36.521  34.413  27.840  1.00  0.00     0.000 C 
BRANCH   3   4
ATOM      4  C   UNL     1      35.485  35.478  27.441  1.00  0.00     0.000 C 
BRANCH   4   5
ATOM      5  C   UNL     1      35.152  36.436  28.596  1.00  0.00     0.000 C 
BRANCH   5   6
ATOM      6  C   UNL     1      36.184  36.373  29.736  1.00  0.00     0.000 C 
BRANCH   6   7
ATOM      7  C   UNL     1      37.116  37.595  29.755  1.00  0.00     0.006 C 
BRANCH   7   8
ATOM      8  C   UNL     1      37.644  37.956  28.361  1.00  0.00     0.053 C 
BRANCH   8   9
ATOM      9  C   UNL     1      38.892  37.188  28.062  1.00  0.00     0.041 C 
ATOM     10  O   UNL     1      39.222  36.953  26.870  1.00  0.00    -0.550 OA
ATOM     11  O   UNL     1      39.719  36.773  29.099  1.00  0.00    -0.550 OA
ENDBRANCH   8   9
ENDBRANCH   7   8
ENDBRANCH   6   7
ENDBRANCH   5   6
ENDBRANCH   4   5
ENDBRANCH   3   4
ENDBRANCH   2   3
ENDBRANCH   1   2
BRANCH   1  12
ATOM     12  C   UNL     1      35.452  32.187  25.949  1.00  0.00     0.000 C 
BRANCH  12  13
ATOM     13  C   UNL     1      33.992  32.259  25.463  1.00  0.00    -0.000 C 
BRANCH  13  14
ATOM     14  C   UNL     1      33.796  33.254  24.307  1.00  0.00    -0.000 C 
BRANCH  14  15
ATOM     15  C   UNL     1      33.338  32.571  23.009  1.00  0.00    -0.000 C 
BRANCH  15  16
ATOM     16  C   UNL     1      34.485  32.380  22.003  1.00  0.00    -0.000 C 
BRANCH  16  17
ATOM     17  C   UNL     1      34.650  30.905  21.578  1.00  0.00    -0.000 C 
BRANCH  17  18
ATOM     18  C   UNL     1      33.960  29.908  22.528  1.00  0.00    -0.000 C 
BRANCH  18  19
ATOM     19  C   UNL     1      32.923  28.994  21.853  1.00  0.00    -0.003 C 
ATOM     20  C   UNL     1      32.870  29.177  20.335  1.00  0.00     0.004 C 
ENDBRANCH  18  19
ENDBRANCH  17  18
ENDBRANCH  16  17
ENDBRANCH  15  16
ENDBRANCH  14  15
ENDBRANCH  13  14
ENDBRANCH  12  13
ENDBRANCH   1  12
TORSDOF 16
ENDMDL
MODEL 8
REMARK VINA RESULT:    -3.792      4.409      5.993
REMARK INTER + INTRA:         -10.084
REMARK INTER:                  -8.597
REMARK INTRA:                  -1.487
REMARK UNBOUND:                -2.745
REMARK SMILES CCCCCCCCCCCCCCCCCC(=O)[O-]
REMARK SMILES IDX 10 1 11 2 12 3 13 4 14 5 15 6 16 7 17 8 18 9 19 10 20 11
REMARK SMILES IDX 9 12 8 13 7 14 6 15 5 16 4 17 3 18 2 19 1 20
REMARK H PARENT
REMARK Flexibility Score: inf
ROOT
ATOM      1  C   UNL     1      36.001  31.563  22.047  1.00  0.00     0.000 C 
ENDROOT
BRANCH   1   2
ATOM      2  C   UNL     1      35.537  30.134  22.378  1.00  0.00     0.000 C 
BRANCH   2   3
ATOM      3  C   UNL     1      34.087  30.089  22.887  1.00  0.00     0.000 C 
BRANCH   3   4
ATOM      4  C   UNL     1      33.260  28.982  22.210  1.00  0.00     0.000 C 
BRANCH   4   5
ATOM      5  C   UNL     1      32.128  29.545  21.336  1.00  0.00     0.000 C 
BRANCH   5   6
ATOM      6  C   UNL     1      32.558  29.760  19.873  1.00  0.00     0.000 C 
BRANCH   6   7
ATOM      7  C   UNL     1      33.402  28.597  19.330  1.00  0.00     0.006 C 
BRANCH   7   8
ATOM      8  C   UNL     1      33.660  28.710  17.823  1.00  0.00     0.053 C 
BRANCH   8   9
ATOM      9  C   UNL     1      33.465  27.383  17.160  1.00  0.00     0.041 C 
ATOM     10  O   UNL     1      32.337  27.063  16.701  1.00  0.00    -0.550 OA
ATOM     11  O   UNL     1      34.541  26.518  17.005  1.00  0.00    -0.550 OA
ENDBRANCH   8   9
ENDBRANCH   7   8
ENDBRANCH   6   7
ENDBRANCH   5   6
ENDBRANCH   4   5
ENDBRANCH   3   4
ENDBRANCH   2   3
ENDBRANCH   1   2
BRANCH   1  12
ATOM     12  C   UNL     1      34.855  32.590  22.084  1.00  0.00     0.000 C 
BRANCH  12  13
ATOM     13  C   UNL     1      34.938  33.615  23.231  1.00  0.00    -0.000 C 
BRANCH  13  14
ATOM     14  C   UNL     1      33.767  33.499  24.223  1.00  0.00    -0.000 C 
BRANCH  14  15
ATOM     15  C   UNL     1      34.103  32.613  25.432  1.00  0.00    -0.000 C 
BRANCH  15  16
ATOM     16  C   UNL     1      35.541  32.819  25.936  1.00  0.00    -0.000 C 
BRANCH  16  17
ATOM     17  C   UNL     1      35.672  34.070  26.831  1.00  0.00    -0.000 C 
BRANCH  17  18
ATOM     18  C   UNL     1      36.782  33.956  27.894  1.00  0.00    -0.000 C 
BRANCH  18  19
ATOM     19  C   UNL     1      37.006  35.231  28.725  1.00  0.00    -0.003 C 
ATOM     20  C   UNL     1      35.698  35.916  29.124  1.00  0.00     0.004 C 
ENDBRANCH  18  19
ENDBRANCH  17  18
ENDBRANCH  16  17
ENDBRANCH  15  16
ENDBRANCH  14  15
ENDBRANCH  13  14
ENDBRANCH  12  13
ENDBRANCH   1  12
TORSDOF 16
ENDMDL
MODEL 9
REMARK VINA RESULT:    -3.788      3.224      6.507
REMARK INTER + INTRA:         -10.075
REMARK INTER:                  -7.359
REMARK INTRA:                  -2.716
REMARK UNBOUND:                -2.745
REMARK SMILES CCCCCCCCCCCCCCCCCC(=O)[O-]
REMARK SMILES IDX 10 1 11 2 12 3 13 4 14 5 15 6 16 7 17 8 18 9 19 10 20 11
REMARK SMILES IDX 9 12 8 13 7 14 6 15 5 16 4 17 3 18 2 19 1 20
REMARK H PARENT
REMARK Flexibility Score: inf
ROOT
ATOM      1  C   UNL     1      34.426  36.612  24.013  1.00  0.00     0.000 C 
ENDROOT
BRANCH   1   2
ATOM      2  C   UNL     1      35.317  36.761  25.258  1.00  0.00     0.000 C 
BRANCH   2   3
ATOM      3  C   UNL     1      36.094  35.476  25.584  1.00  0.00     0.000 C 
BRANCH   3   4
ATOM      4  C   UNL     1      35.661  34.849  26.921  1.00  0.00     0.000 C 
BRANCH   4   5
ATOM      5  C   UNL     1      35.059  35.881  27.888  1.00  0.00     0.000 C 
BRANCH   5   6
ATOM      6  C   UNL     1      35.850  35.994  29.204  1.00  0.00     0.000 C 
BRANCH   6   7
ATOM      7  C   UNL     1      36.501  37.374  29.383  1.00  0.00     0.006 C 
BRANCH   7   8
ATOM      8  C   UNL     1      37.617  37.636  28.363  1.00  0.00     0.053 C 
BRANCH   8   9
ATOM      9  C   UNL     1      38.734  36.658  28.550  1.00  0.00     0.041 C 
ATOM     10  O   UNL     1      39.376  36.628  29.632  1.00  0.00    -0.550 OA
ATOM     11  O   UNL     1      39.035  35.747  27.546  1.00  0.00    -0.550 OA
ENDBRANCH   8   9
ENDBRANCH   7   8
ENDBRANCH   6   7
ENDBRANCH   5   6
ENDBRANCH   4   5
ENDBRANCH   3   4
ENDBRANCH   2   3
ENDBRANCH   1   2
BRANCH   1  12
ATOM     12  C   UNL     1      34.804  35.396  23.147  1.00  0.00     0.000 C 
BRANCH  12  13
ATOM     13  C   UNL     1      33.617  34.687  22.468  1.00  0.00    -0.000 C 
BRANCH  13  14
ATOM     14  C   UNL     1      33.461  33.223  22.913  1.00  0.00    -0.000 C 
BRANCH  14  15
ATOM     15  C   UNL     1      33.478  33.065  24.442  1.00  0.00    -0.000 C 
BRANCH  15  16
ATOM     16  C   UNL     1      34.444  31.965  24.913  1.00  0.00    -0.000 C 
BRANCH  16  17
ATOM     17  C   UNL     1      34.821  30.992  23.776  1.00  0.00    -0.000 C 
BRANCH  17  18
ATOM     18  C   UNL     1      36.340  30.866  23.548  1.00  0.00    -0.000 C 
BRANCH  18  19
ATOM     19  C   UNL     1      37.173  32.016  24.139  1.00  0.00    -0.003 C 
ATOM     20  C   UNL     1      37.608  33.035  23.085  1.00  0.00     0.004 C 
ENDBRANCH  18  19
ENDBRANCH  17  18
ENDBRANCH  16  17
ENDBRANCH  15  16
ENDBRANCH  14  15
ENDBRANCH  13  14
ENDBRANCH  12  13
ENDBRANCH   1  12
TORSDOF 16
ENDMDL
