MODEL 1
REMARK VINA RESULT:    -3.911      0.000      0.000
REMARK INTER + INTRA:         -10.328
REMARK INTER:                  -7.341
REMARK INTRA:                  -2.987
REMARK UNBOUND:                -2.987
REMARK SMILES CCCCCCCCC=CCCCCCCCC(=O)[O-]
REMARK SMILES IDX 10 1 9 2 11 3 12 4 13 5 14 6 15 7 16 8 17 9 18 10 19 11
REMARK SMILES IDX 20 12 8 13 7 14 6 15 5 16 4 17 3 18 2 19 1 20
REMARK H PARENT
REMARK Flexibility Score: inf
ROOT
ATOM      1  C   UNL     1      49.814  -3.384  72.249  1.00  0.00    -0.031 C 
ATOM      2  C   UNL     1      49.225  -2.193  72.438  1.00  0.00    -0.031 C 
ENDROOT
BRANCH   1   3
ATOM      3  C   UNL     1      49.225  -4.653  72.805  1.00  0.00     0.027 C 
BRANCH   3   4
ATOM      4  C   UNL     1      47.689  -4.654  72.761  1.00  0.00     0.004 C 
BRANCH   4   5
ATOM      5  C   UNL     1      47.072  -4.923  74.144  1.00  0.00     0.000 C 
BRANCH   5   6
ATOM      6  C   UNL     1      48.131  -5.019  75.254  1.00  0.00     0.000 C 
BRANCH   6   7
ATOM      7  C   UNL     1      47.895  -4.010  76.387  1.00  0.00     0.000 C 
BRANCH   7   8
ATOM      8  C   UNL     1      47.628  -2.606  75.826  1.00  0.00     0.006 C 
BRANCH   8   9
ATOM      9  C   UNL     1      48.842  -1.680  75.975  1.00  0.00     0.053 C 
BRANCH   9  10
ATOM     10  C   UNL     1      48.454  -0.235  75.886  1.00  0.00     0.041 C 
ATOM     11  O   UNL     1      48.568   0.515  76.890  1.00  0.00    -0.550 OA
ATOM     12  O   UNL     1      47.935   0.272  74.702  1.00  0.00    -0.550 OA
ENDBRANCH   9  10
ENDBRANCH   8   9
ENDBRANCH   7   8
ENDBRANCH   6   7
ENDBRANCH   5   6
ENDBRANCH   4   5
ENDBRANCH   3   4
ENDBRANCH   1   3
BRANCH   2  13
ATOM     13  C   UNL     1      49.814  -0.924  71.883  1.00  0.00     0.027 C 
BRANCH  13  14
ATOM     14  C   UNL     1      50.932  -0.359  72.773  1.00  0.00     0.004 C 
BRANCH  14  15
ATOM     15  C   UNL     1      52.329  -0.761  72.270  1.00  0.00     0.000 C 
BRANCH  15  16
ATOM     16  C   UNL     1      53.104  -1.612  73.290  1.00  0.00     0.000 C 
BRANCH  16  17
ATOM     17  C   UNL     1      53.374  -3.039  72.782  1.00  0.00    -0.000 C 
BRANCH  17  18
ATOM     18  C   UNL     1      53.062  -4.118  73.835  1.00  0.00    -0.000 C 
BRANCH  18  19
ATOM     19  C   UNL     1      52.284  -3.618  75.066  1.00  0.00    -0.003 C 
ATOM     20  C   UNL     1      51.664  -4.752  75.884  1.00  0.00     0.004 C 
ENDBRANCH  18  19
ENDBRANCH  17  18
ENDBRANCH  16  17
ENDBRANCH  15  16
ENDBRANCH  14  15
ENDBRANCH  13  14
ENDBRANCH   2  13
TORSDOF 15
ENDMDL
MODEL 2
REMARK VINA RESULT:    -3.856      9.229     12.093
REMARK INTER + INTRA:         -10.224
REMARK INTER:                  -9.380
REMARK INTRA:                  -0.844
REMARK UNBOUND:                -2.987
REMARK SMILES CCCCCCCCC=CCCCCCCCC(=O)[O-]
REMARK SMILES IDX 10 1 9 2 11 3 12 4 13 5 14 6 15 7 16 8 17 9 18 10 19 11
REMARK SMILES IDX 20 12 8 13 7 14 6 15 5 16 4 17 3 18 2 19 1 20
REMARK H PARENT
REMARK Flexibility Score: inf
ROOT
ATOM      1  C   UNL     1      53.159  -3.392  81.793  1.00  0.00    -0.031 C 
ATOM      2  C   UNL     1      52.134  -2.665  81.324  1.00  0.00    -0.031 C 
ENDROOT
BRANCH   1   3
ATOM      3  C   UNL     1      54.417  -2.743  82.306  1.00  0.00     0.027 C 
BRANCH   3   4
ATOM      4  C   UNL     1      55.567  -3.748  82.478  1.00  0.00     0.004 C 
BRANCH   4   5
ATOM      5  C   UNL     1      56.930  -3.049  82.613  1.00  0.00     0.000 C 
BRANCH   5   6
ATOM      6  C   UNL     1      56.960  -2.031  83.764  1.00  0.00     0.000 C 
BRANCH   6   7
ATOM      7  C   UNL     1      58.258  -1.212  83.797  1.00  0.00     0.000 C 
BRANCH   7   8
ATOM      8  C   UNL     1      59.231  -1.680  82.704  1.00  0.00     0.006 C 
BRANCH   8   9
ATOM      9  C   UNL     1      60.332  -2.593  83.260  1.00  0.00     0.053 C 
BRANCH   9  10
ATOM     10  C   UNL     1      60.972  -3.412  82.180  1.00  0.00     0.041 C 
ATOM     11  O   UNL     1      61.024  -2.975  81.000  1.00  0.00    -0.550 OA
ATOM     12  O   UNL     1      61.480  -4.671  82.471  1.00  0.00    -0.550 OA
ENDBRANCH   9  10
ENDBRANCH   8   9
ENDBRANCH   7   8
ENDBRANCH   6   7
ENDBRANCH   5   6
ENDBRANCH   4   5
ENDBRANCH   3   4
ENDBRANCH   1   3
BRANCH   2  13
ATOM     13  C   UNL     1      50.875  -3.314  80.812  1.00  0.00     0.027 C 
BRANCH  13  14
ATOM     14  C   UNL     1      49.755  -2.294  80.550  1.00  0.00     0.004 C 
BRANCH  14  15
ATOM     15  C   UNL     1      49.171  -1.731  81.857  1.00  0.00     0.000 C 
BRANCH  15  16
ATOM     16  C   UNL     1      48.808  -2.833  82.867  1.00  0.00     0.000 C 
BRANCH  16  17
ATOM     17  C   UNL     1      49.360  -2.548  84.274  1.00  0.00    -0.000 C 
BRANCH  17  18
ATOM     18  C   UNL     1      48.729  -3.442  85.357  1.00  0.00    -0.000 C 
BRANCH  18  19
ATOM     19  C   UNL     1      47.190  -3.432  85.392  1.00  0.00    -0.003 C 
ATOM     20  C   UNL     1      46.605  -2.035  85.601  1.00  0.00     0.004 C 
ENDBRANCH  18  19
ENDBRANCH  17  18
ENDBRANCH  16  17
ENDBRANCH  15  16
ENDBRANCH  14  15
ENDBRANCH  13  14
ENDBRANCH   2  13
TORSDOF 15
ENDMDL
MODEL 3
REMARK VINA RESULT:    -3.786      3.922      5.127
REMARK INTER + INTRA:         -10.093
REMARK INTER:                  -8.094
REMARK INTRA:                  -1.999
REMARK UNBOUND:                -2.987
REMARK SMILES CCCCCCCCC=CCCCCCCCC(=O)[O-]
REMARK SMILES IDX 10 1 9 2 11 3 12 4 13 5 14 6 15 7 16 8 17 9 18 10 19 11
REMARK SMILES IDX 20 12 8 13 7 14 6 15 5 16 4 17 3 18 2 19 1 20
REMARK H PARENT
REMARK Flexibility Score: inf
ROOT
ATOM      1  C   UNL     1      49.726  -3.012  72.044  1.00  0.00    -0.031 C 
ATOM      2  C   UNL     1      49.355  -1.873  72.649  1.00  0.00    -0.031 C 
ENDROOT
BRANCH   1   3
ATOM      3  C   UNL     1      49.400  -4.360  72.632  1.00  0.00     0.027 C 
BRANCH   3   4
ATOM      4  C   UNL     1      47.983  -4.413  73.224  1.00  0.00     0.004 C 
BRANCH   4   5
ATOM      5  C   UNL     1      47.200  -5.644  72.738  1.00  0.00     0.000 C 
BRANCH   5   6
ATOM      6  C   UNL     1      45.841  -5.795  73.438  1.00  0.00     0.000 C 
BRANCH   6   7
ATOM      7  C   UNL     1      45.709  -7.123  74.198  1.00  0.00     0.000 C 
BRANCH   7   8
ATOM      8  C   UNL     1      46.721  -8.155  73.679  1.00  0.00     0.006 C 
BRANCH   8   9
ATOM      9  C   UNL     1      46.036  -9.369  73.038  1.00  0.00     0.053 C 
BRANCH   9  10
ATOM     10  C   UNL     1      46.445  -9.547  71.608  1.00  0.00     0.041 C 
ATOM     11  O   UNL     1      46.421  -8.569  70.815  1.00  0.00    -0.550 OA
ATOM     12  O   UNL     1      46.821 -10.801  71.143  1.00  0.00    -0.550 OA
ENDBRANCH   9  10
ENDBRANCH   8   9
ENDBRANCH   7   8
ENDBRANCH   6   7
ENDBRANCH   5   6
ENDBRANCH   4   5
ENDBRANCH   3   4
ENDBRANCH   1   3
BRANCH   2  13
ATOM     13  C   UNL     1      49.681  -0.525  72.061  1.00  0.00     0.027 C 
BRANCH  13  14
ATOM     14  C   UNL     1      50.780   0.206  72.848  1.00  0.00     0.004 C 
BRANCH  14  15
ATOM     15  C   UNL     1      52.054   0.407  72.009  1.00  0.00     0.000 C 
BRANCH  15  16
ATOM     16  C   UNL     1      52.934  -0.853  71.957  1.00  0.00     0.000 C 
BRANCH  16  17
ATOM     17  C   UNL     1      53.126  -1.495  73.342  1.00  0.00    -0.000 C 
BRANCH  17  18
ATOM     18  C   UNL     1      53.106  -3.034  73.295  1.00  0.00    -0.000 C 
BRANCH  18  19
ATOM     19  C   UNL     1      52.694  -3.718  74.610  1.00  0.00    -0.003 C 
ATOM     20  C   UNL     1      51.611  -2.952  75.371  1.00  0.00     0.004 C 
ENDBRANCH  18  19
ENDBRANCH  17  18
ENDBRANCH  16  17
ENDBRANCH  15  16
ENDBRANCH  14  15
ENDBRANCH  13  14
ENDBRANCH   2  13
TORSDOF 15
ENDMDL
MODEL 4
REMARK VINA RESULT:    -3.744      3.653      5.181
REMARK INTER + INTRA:         -10.015
REMARK INTER:                  -7.367
REMARK INTRA:                  -2.648
REMARK UNBOUND:                -2.987
REMARK SMILES CCCCCCCCC=CCCCCCCCC(=O)[O-]
REMARK SMILES IDX 10 1 9 2 11 3 12 4 13 5 14 6 15 7 16 8 17 9 18 10 19 11
REMARK SMILES IDX 20 12 8 13 7 14 6 15 5 16 4 17 3 18 2 19 1 20
REMARK H PARENT
REMARK Flexibility Score: inf
ROOT
ATOM      1  C   UNL     1      49.803  -4.252  74.749  1.00  0.00    -0.031 C 
ATOM      2  C   UNL     1      50.017  -4.576  73.464  1.00  0.00    -0.031 C 
ENDROOT
BRANCH   1   3
ATOM      3  C   UNL     1      50.088  -5.223  75.864  1.00  0.00     0.027 C 
BRANCH   3   4
ATOM      4  C   UNL     1      49.307  -6.537  75.711  1.00  0.00     0.004 C 
BRANCH   4   5
ATOM      5  C   UNL     1      47.801  -6.346  75.955  1.00  0.00     0.000 C 
BRANCH   5   6
ATOM      6  C   UNL     1      46.940  -6.934  74.827  1.00  0.00     0.000 C 
BRANCH   6   7
ATOM      7  C   UNL     1      46.457  -5.868  73.832  1.00  0.00     0.000 C 
BRANCH   7   8
ATOM      8  C   UNL     1      46.934  -6.190  72.408  1.00  0.00     0.006 C 
BRANCH   8   9
ATOM      9  C   UNL     1      47.578  -7.580  72.311  1.00  0.00     0.053 C 
BRANCH   9  10
ATOM     10  C   UNL     1      46.740  -8.525  71.507  1.00  0.00     0.041 C 
ATOM     11  O   UNL     1      46.624  -9.728  71.860  1.00  0.00    -0.550 OA
ATOM     12  O   UNL     1      46.112  -8.084  70.348  1.00  0.00    -0.550 OA
ENDBRANCH   9  10
ENDBRANCH   8   9
ENDBRANCH   7   8
ENDBRANCH   6   7
ENDBRANCH   5   6
ENDBRANCH   4   5
ENDBRANCH   3   4
ENDBRANCH   1   3
BRANCH   2  13
ATOM     13  C   UNL     1      49.732  -3.605  72.348  1.00  0.00     0.027 C 
BRANCH  13  14
ATOM     14  C   UNL     1      48.539  -2.688  72.660  1.00  0.00     0.004 C 
BRANCH  14  15
ATOM     15  C   UNL     1      48.977  -1.232  72.897  1.00  0.00     0.000 C 
BRANCH  15  16
ATOM     16  C   UNL     1      50.062  -0.772  71.910  1.00  0.00     0.000 C 
BRANCH  16  17
ATOM     17  C   UNL     1      51.311  -0.224  72.621  1.00  0.00    -0.000 C 
BRANCH  17  18
ATOM     18  C   UNL     1      52.538  -1.142  72.469  1.00  0.00    -0.000 C 
BRANCH  18  19
ATOM     19  C   UNL     1      52.823  -2.051  73.678  1.00  0.00    -0.003 C 
ATOM     20  C   UNL     1      53.525  -3.354  73.295  1.00  0.00     0.004 C 
ENDBRANCH  18  19
ENDBRANCH  17  18
ENDBRANCH  16  17
ENDBRANCH  15  16
ENDBRANCH  14  15
ENDBRANCH  13  14
ENDBRANCH   2  13
TORSDOF 15
ENDMDL
MODEL 5
REMARK VINA RESULT:    -3.744      3.426      7.112
REMARK INTER + INTRA:         -10.014
REMARK INTER:                  -8.785
REMARK INTRA:                  -1.230
REMARK UNBOUND:                -2.987
REMARK SMILES CCCCCCCCC=CCCCCCCCC(=O)[O-]
REMARK SMILES IDX 10 1 9 2 11 3 12 4 13 5 14 6 15 7 16 8 17 9 18 10 19 11
REMARK SMILES IDX 20 12 8 13 7 14 6 15 5 16 4 17 3 18 2 19 1 20
REMARK H PARENT
REMARK Flexibility Score: inf
ROOT
ATOM      1  C   UNL     1      47.958  -3.915  73.329  1.00  0.00    -0.031 C 
ATOM      2  C   UNL     1      47.484  -5.070  72.839  1.00  0.00    -0.031 C 
ENDROOT
BRANCH   1   3
ATOM      3  C   UNL     1      49.118  -3.201  72.687  1.00  0.00     0.027 C 
BRANCH   3   4
ATOM      4  C   UNL     1      49.072  -1.683  72.918  1.00  0.00     0.004 C 
BRANCH   4   5
ATOM      5  C   UNL     1      49.939  -0.918  71.903  1.00  0.00     0.000 C 
BRANCH   5   6
ATOM      6  C   UNL     1      51.085  -0.143  72.572  1.00  0.00     0.000 C 
BRANCH   6   7
ATOM      7  C   UNL     1      52.467  -0.728  72.245  1.00  0.00     0.000 C 
BRANCH   7   8
ATOM      8  C   UNL     1      52.939  -1.676  73.356  1.00  0.00     0.006 C 
BRANCH   8   9
ATOM      9  C   UNL     1      52.884  -3.148  72.926  1.00  0.00     0.053 C 
BRANCH   9  10
ATOM     10  C   UNL     1      52.583  -4.054  74.081  1.00  0.00     0.041 C 
ATOM     11  O   UNL     1      51.783  -3.689  74.982  1.00  0.00    -0.550 OA
ATOM     12  O   UNL     1      53.214  -5.288  74.179  1.00  0.00    -0.550 OA
ENDBRANCH   9  10
ENDBRANCH   8   9
ENDBRANCH   7   8
ENDBRANCH   6   7
ENDBRANCH   5   6
ENDBRANCH   4   5
ENDBRANCH   3   4
ENDBRANCH   1   3
BRANCH   2  13
ATOM     13  C   UNL     1      46.324  -5.784  73.481  1.00  0.00     0.027 C 
BRANCH  13  14
ATOM     14  C   UNL     1      46.779  -6.880  74.458  1.00  0.00     0.004 C 
BRANCH  14  15
ATOM     15  C   UNL     1      45.732  -7.998  74.600  1.00  0.00     0.000 C 
BRANCH  15  16
ATOM     16  C   UNL     1      45.090  -8.383  73.256  1.00  0.00     0.000 C 
BRANCH  16  17
ATOM     17  C   UNL     1      46.031  -9.218  72.371  1.00  0.00    -0.000 C 
BRANCH  17  18
ATOM     18  C   UNL     1      46.391  -8.512  71.051  1.00  0.00    -0.000 C 
BRANCH  18  19
ATOM     19  C   UNL     1      45.702  -9.085  69.799  1.00  0.00    -0.003 C 
ATOM     20  C   UNL     1      45.917  -8.227  68.552  1.00  0.00     0.004 C 
ENDBRANCH  18  19
ENDBRANCH  17  18
ENDBRANCH  16  17
ENDBRANCH  15  16
ENDBRANCH  14  15
ENDBRANCH  13  14
ENDBRANCH   2  13
TORSDOF 15
ENDMDL
MODEL 6
REMARK VINA RESULT:    -3.720      3.366      6.768
REMARK INTER + INTRA:          -9.970
REMARK INTER:                  -8.377
REMARK INTRA:                  -1.593
REMARK UNBOUND:                -2.987
REMARK SMILES CCCCCCCCC=CCCCCCCCC(=O)[O-]
REMARK SMILES IDX 10 1 9 2 11 3 12 4 13 5 14 6 15 7 16 8 17 9 18 10 19 11
REMARK SMILES IDX 20 12 8 13 7 14 6 15 5 16 4 17 3 18 2 19 1 20
REMARK H PARENT
REMARK Flexibility Score: inf
ROOT
ATOM      1  C   UNL     1      48.975  -1.933  72.876  1.00  0.00    -0.031 C 
ATOM      2  C   UNL     1      49.308  -3.219  72.690  1.00  0.00    -0.031 C 
ENDROOT
BRANCH   1   3
ATOM      3  C   UNL     1      49.610  -0.829  72.072  1.00  0.00     0.027 C 
BRANCH   3   4
ATOM      4  C   UNL     1      50.779  -0.163  72.814  1.00  0.00     0.004 C 
BRANCH   4   5
ATOM      5  C   UNL     1      51.993   0.059  71.895  1.00  0.00     0.000 C 
BRANCH   5   6
ATOM      6  C   UNL     1      53.200  -0.807  72.290  1.00  0.00     0.000 C 
BRANCH   6   7
ATOM      7  C   UNL     1      52.873  -1.802  73.413  1.00  0.00     0.000 C 
BRANCH   7   8
ATOM      8  C   UNL     1      53.086  -3.249  72.943  1.00  0.00     0.006 C 
BRANCH   8   9
ATOM      9  C   UNL     1      52.685  -4.273  74.013  1.00  0.00     0.053 C 
BRANCH   9  10
ATOM     10  C   UNL     1      53.867  -4.740  74.806  1.00  0.00     0.041 C 
ATOM     11  O   UNL     1      53.778  -5.763  75.534  1.00  0.00    -0.550 OA
ATOM     12  O   UNL     1      55.058  -4.025  74.764  1.00  0.00    -0.550 OA
ENDBRANCH   9  10
ENDBRANCH   8   9
ENDBRANCH   7   8
ENDBRANCH   6   7
ENDBRANCH   5   6
ENDBRANCH   4   5
ENDBRANCH   3   4
ENDBRANCH   1   3
BRANCH   2  13
ATOM     13  C   UNL     1      48.672  -4.323  73.494  1.00  0.00     0.027 C 
BRANCH  13  14
ATOM     14  C   UNL     1      47.936  -5.342  72.611  1.00  0.00     0.004 C 
BRANCH  14  15
ATOM     15  C   UNL     1      46.518  -5.637  73.129  1.00  0.00     0.000 C 
BRANCH  15  16
ATOM     16  C   UNL     1      46.473  -6.846  74.077  1.00  0.00     0.000 C 
BRANCH  16  17
ATOM     17  C   UNL     1      47.201  -8.073  73.503  1.00  0.00    -0.000 C 
BRANCH  17  18
ATOM     18  C   UNL     1      46.235  -9.139  72.953  1.00  0.00    -0.000 C 
BRANCH  18  19
ATOM     19  C   UNL     1      46.474  -9.537  71.486  1.00  0.00    -0.003 C 
ATOM     20  C   UNL     1      46.202  -8.398  70.503  1.00  0.00     0.004 C 
ENDBRANCH  18  19
ENDBRANCH  17  18
ENDBRANCH  16  17
ENDBRANCH  15  16
ENDBRANCH  14  15
ENDBRANCH  13  14
ENDBRANCH   2  13
TORSDOF 15
ENDMDL
MODEL 7
REMARK VINA RESULT:    -3.676      3.769      5.581
REMARK INTER + INTRA:          -9.887
REMARK INTER:                  -7.724
REMARK INTRA:                  -2.163
REMARK UNBOUND:                -2.987
REMARK SMILES CCCCCCCCC=CCCCCCCCC(=O)[O-]
REMARK SMILES IDX 10 1 9 2 11 3 12 4 13 5 14 6 15 7 16 8 17 9 18 10 19 11
REMARK SMILES IDX 20 12 8 13 7 14 6 15 5 16 4 17 3 18 2 19 1 20
REMARK H PARENT
REMARK Flexibility Score: inf
ROOT
ATOM      1  C   UNL     1      48.869  -2.849  75.184  1.00  0.00    -0.031 C 
ATOM      2  C   UNL     1      49.519  -1.727  75.529  1.00  0.00    -0.031 C 
ENDROOT
BRANCH   1   3
ATOM      3  C   UNL     1      49.601  -4.146  74.955  1.00  0.00     0.027 C 
BRANCH   3   4
ATOM      4  C   UNL     1      49.338  -4.727  73.557  1.00  0.00     0.004 C 
BRANCH   4   5
ATOM      5  C   UNL     1      48.007  -4.230  72.967  1.00  0.00     0.000 C 
BRANCH   5   6
ATOM      6  C   UNL     1      46.795  -5.006  73.507  1.00  0.00     0.000 C 
BRANCH   6   7
ATOM      7  C   UNL     1      46.459  -6.244  72.662  1.00  0.00     0.000 C 
BRANCH   7   8
ATOM      8  C   UNL     1      46.181  -7.461  73.557  1.00  0.00     0.006 C 
BRANCH   8   9
ATOM      9  C   UNL     1      45.515  -8.608  72.787  1.00  0.00     0.053 C 
BRANCH   9  10
ATOM     10  C   UNL     1      46.383  -9.105  71.671  1.00  0.00     0.041 C 
ATOM     11  O   UNL     1      47.468  -9.691  71.924  1.00  0.00    -0.550 OA
ATOM     12  O   UNL     1      46.007  -8.891  70.351  1.00  0.00    -0.550 OA
ENDBRANCH   9  10
ENDBRANCH   8   9
ENDBRANCH   7   8
ENDBRANCH   6   7
ENDBRANCH   5   6
ENDBRANCH   4   5
ENDBRANCH   3   4
ENDBRANCH   1   3
BRANCH   2  13
ATOM     13  C   UNL     1      48.787  -0.431  75.759  1.00  0.00     0.027 C 
BRANCH  13  14
ATOM     14  C   UNL     1      47.857  -0.068  74.591  1.00  0.00     0.004 C 
BRANCH  14  15
ATOM     15  C   UNL     1      48.640   0.430  73.363  1.00  0.00     0.000 C 
BRANCH  15  16
ATOM     16  C   UNL     1      48.601  -0.565  72.192  1.00  0.00     0.000 C 
BRANCH  16  17
ATOM     17  C   UNL     1      49.971  -1.209  71.919  1.00  0.00    -0.000 C 
BRANCH  17  18
ATOM     18  C   UNL     1      51.142  -0.390  72.495  1.00  0.00    -0.000 C 
BRANCH  18  19
ATOM     19  C   UNL     1      52.495  -1.124  72.524  1.00  0.00    -0.003 C 
ATOM     20  C   UNL     1      52.400  -2.532  73.112  1.00  0.00     0.004 C 
ENDBRANCH  18  19
ENDBRANCH  17  18
ENDBRANCH  16  17
ENDBRANCH  15  16
ENDBRANCH  14  15
ENDBRANCH  13  14
ENDBRANCH   2  13
TORSDOF 15
ENDMDL
MODEL 8
REMARK VINA RESULT:    -3.640      2.446      5.223
REMARK INTER + INTRA:          -9.818
REMARK INTER:                  -7.233
REMARK INTRA:                  -2.585
REMARK UNBOUND:                -2.987
REMARK SMILES CCCCCCCCC=CCCCCCCCC(=O)[O-]
REMARK SMILES IDX 10 1 9 2 11 3 12 4 13 5 14 6 15 7 16 8 17 9 18 10 19 11
REMARK SMILES IDX 20 12 8 13 7 14 6 15 5 16 4 17 3 18 2 19 1 20
REMARK H PARENT
REMARK Flexibility Score: inf
ROOT
ATOM      1  C   UNL     1      53.127  -1.482  72.626  1.00  0.00    -0.031 C 
ATOM      2  C   UNL     1      52.854  -2.335  73.625  1.00  0.00    -0.031 C 
ENDROOT
BRANCH   1   3
ATOM      3  C   UNL     1      52.162  -0.395  72.230  1.00  0.00     0.027 C 
BRANCH   3   4
ATOM      4  C   UNL     1      50.833  -0.485  72.996  1.00  0.00     0.004 C 
BRANCH   4   5
ATOM      5  C   UNL     1      49.678  -0.952  72.094  1.00  0.00     0.000 C 
BRANCH   5   6
ATOM      6  C   UNL     1      49.003  -2.232  72.613  1.00  0.00     0.000 C 
BRANCH   6   7
ATOM      7  C   UNL     1      49.807  -3.499  72.290  1.00  0.00     0.000 C 
BRANCH   7   8
ATOM      8  C   UNL     1      49.132  -4.744  72.884  1.00  0.00     0.006 C 
BRANCH   8   9
ATOM      9  C   UNL     1      47.606  -4.599  72.957  1.00  0.00     0.053 C 
BRANCH   9  10
ATOM     10  C   UNL     1      46.927  -5.929  73.077  1.00  0.00     0.041 C 
ATOM     11  O   UNL     1      46.586  -6.562  72.043  1.00  0.00    -0.550 OA
ATOM     12  O   UNL     1      46.642  -6.454  74.331  1.00  0.00    -0.550 OA
ENDBRANCH   9  10
ENDBRANCH   8   9
ENDBRANCH   7   8
ENDBRANCH   6   7
ENDBRANCH   5   6
ENDBRANCH   4   5
ENDBRANCH   3   4
ENDBRANCH   1   3
BRANCH   2  13
ATOM     13  C   UNL     1      53.819  -3.421  74.021  1.00  0.00     0.027 C 
BRANCH  13  14
ATOM     14  C   UNL     1      53.173  -4.474  74.934  1.00  0.00     0.004 C 
BRANCH  14  15
ATOM     15  C   UNL     1      51.778  -4.041  75.419  1.00  0.00     0.000 C 
BRANCH  15  16
ATOM     16  C   UNL     1      51.166  -5.031  76.424  1.00  0.00     0.000 C 
BRANCH  16  17
ATOM     17  C   UNL     1      50.034  -4.403  77.254  1.00  0.00    -0.000 C 
BRANCH  17  18
ATOM     18  C   UNL     1      48.651  -4.565  76.598  1.00  0.00    -0.000 C 
BRANCH  18  19
ATOM     19  C   UNL     1      47.880  -3.252  76.374  1.00  0.00    -0.003 C 
ATOM     20  C   UNL     1      48.796  -2.039  76.217  1.00  0.00     0.004 C 
ENDBRANCH  18  19
ENDBRANCH  17  18
ENDBRANCH  16  17
ENDBRANCH  15  16
ENDBRANCH  14  15
ENDBRANCH  13  14
ENDBRANCH   2  13
TORSDOF 15
ENDMDL
MODEL 9
REMARK VINA RESULT:    -3.565      2.452      4.165
REMARK INTER + INTRA:          -9.678
REMARK INTER:                  -7.142
REMARK INTRA:                  -2.536
REMARK UNBOUND:                -2.987
REMARK SMILES CCCCCCCCC=CCCCCCCCC(=O)[O-]
REMARK SMILES IDX 10 1 9 2 11 3 12 4 13 5 14 6 15 7 16 8 17 9 18 10 19 11
REMARK SMILES IDX 20 12 8 13 7 14 6 15 5 16 4 17 3 18 2 19 1 20
REMARK H PARENT
REMARK Flexibility Score: inf
ROOT
ATOM      1  C   UNL     1      50.270   0.177  73.086  1.00  0.00    -0.031 C 
ATOM      2  C   UNL     1      51.012  -0.553  72.239  1.00  0.00    -0.031 C 
ENDROOT
BRANCH   1   3
ATOM      3  C   UNL     1      48.765   0.117  73.068  1.00  0.00     0.027 C 
BRANCH   3   4
ATOM      4  C   UNL     1      48.171  -0.108  74.467  1.00  0.00     0.004 C 
BRANCH   4   5
ATOM      5  C   UNL     1      48.937  -1.186  75.253  1.00  0.00     0.000 C 
BRANCH   5   6
ATOM      6  C   UNL     1      48.171  -1.669  76.494  1.00  0.00     0.000 C 
BRANCH   6   7
ATOM      7  C   UNL     1      47.584  -3.077  76.320  1.00  0.00     0.000 C 
BRANCH   7   8
ATOM      8  C   UNL     1      48.471  -4.130  77.001  1.00  0.00     0.006 C 
BRANCH   8   9
ATOM      9  C   UNL     1      48.475  -3.985  78.529  1.00  0.00     0.053 C 
BRANCH   9  10
ATOM     10  C   UNL     1      49.428  -4.943  79.175  1.00  0.00     0.041 C 
ATOM     11  O   UNL     1      48.998  -5.984  79.738  1.00  0.00    -0.550 OA
ATOM     12  O   UNL     1      50.790  -4.669  79.183  1.00  0.00    -0.550 OA
ENDBRANCH   9  10
ENDBRANCH   8   9
ENDBRANCH   7   8
ENDBRANCH   6   7
ENDBRANCH   5   6
ENDBRANCH   4   5
ENDBRANCH   3   4
ENDBRANCH   1   3
BRANCH   2  13
ATOM     13  C   UNL     1      52.517  -0.493  72.257  1.00  0.00     0.027 C 
BRANCH  13  14
ATOM     14  C   UNL     1      53.139  -1.639  73.071  1.00  0.00     0.004 C 
BRANCH  14  15
ATOM     15  C   UNL     1      52.422  -2.978  72.824  1.00  0.00     0.000 C 
BRANCH  15  16
ATOM     16  C   UNL     1      51.875  -3.604  74.117  1.00  0.00     0.000 C 
BRANCH  16  17
ATOM     17  C   UNL     1      50.512  -4.286  73.911  1.00  0.00    -0.000 C 
BRANCH  17  18
ATOM     18  C   UNL     1      49.846  -3.901  72.577  1.00  0.00    -0.000 C 
BRANCH  18  19
ATOM     19  C   UNL     1      48.328  -3.658  72.655  1.00  0.00    -0.003 C 
ATOM     20  C   UNL     1      47.548  -4.886  73.125  1.00  0.00     0.004 C 
ENDBRANCH  18  19
ENDBRANCH  17  18
ENDBRANCH  16  17
ENDBRANCH  15  16
ENDBRANCH  14  15
ENDBRANCH  13  14
ENDBRANCH   2  13
TORSDOF 15
ENDMDL
