MODEL 1
REMARK VINA RESULT:    -7.477      0.000      0.000
REMARK INTER + INTRA:          -9.062
REMARK INTER:                  -8.788
REMARK INTRA:                  -0.274
REMARK UNBOUND:                -0.274
REMARK SMILES O=c1cc(-c2ccc(O)c(O)c2)oc2cc(O)cc(O)c12
REMARK SMILES IDX 4 1 3 2 2 3 1 4 21 5 19 6 18 7 16 8 15 9 14 10 13 11 5 12
REMARK SMILES IDX 6 13 7 14 8 15 12 16 10 17 9 18 11 20 20 22 17 24
REMARK H PARENT 9 19 11 21 20 23 17 25
REMARK Flexibility Score: inf
ROOT
ATOM      1  C   UNL     1       7.021  -0.593  35.748  1.00  0.00     0.138 A 
ATOM      2  C   UNL     1       5.982   0.155  36.327  1.00  0.00     0.100 A 
ATOM      3  C   UNL     1       4.859  -0.504  36.829  1.00  0.00     0.197 A 
ATOM      4  O   UNL     1       3.932   0.176  37.348  1.00  0.00    -0.289 OA
ATOM      5  C   UNL     1       4.784  -1.908  36.751  1.00  0.00     0.107 A 
ATOM      6  C   UNL     1       3.682  -2.654  37.234  1.00  0.00     0.134 A 
ATOM      7  C   UNL     1       3.687  -4.052  37.123  1.00  0.00     0.093 A 
ATOM      8  C   UNL     1       4.772  -4.718  36.540  1.00  0.00     0.123 A 
ATOM      9  C   UNL     1       5.861  -3.987  36.064  1.00  0.00     0.094 A 
ATOM     10  C   UNL     1       5.875  -2.592  36.163  1.00  0.00     0.146 A 
ATOM     11  O   UNL     1       6.923  -1.919  35.699  1.00  0.00    -0.456 OA
ENDROOT
BRANCH   1  12
ATOM     12  C   UNL     1       8.240   0.055  35.200  1.00  0.00     0.021 A 
ATOM     13  C   UNL     1       8.755  -0.289  33.936  1.00  0.00     0.016 A 
ATOM     14  C   UNL     1       9.910   0.331  33.450  1.00  0.00     0.051 A 
ATOM     15  C   UNL     1      10.572   1.296  34.218  1.00  0.00     0.157 A 
ATOM     16  C   UNL     1       8.918   1.016  35.971  1.00  0.00     0.062 A 
ATOM     17  C   UNL     1      10.074   1.638  35.486  1.00  0.00     0.158 A 
BRANCH  15  18
ATOM     18  O   UNL     1      11.723   1.913  33.729  1.00  0.00    -0.504 OA
ATOM     19  H   UNL     1      12.345   1.441  33.083  1.00  0.00     0.293 HD
ENDBRANCH  15  18
BRANCH  17  20
ATOM     20  O   UNL     1      10.712   2.593  36.277  1.00  0.00    -0.504 OA
ATOM     21  H   UNL     1      10.609   3.587  36.110  1.00  0.00     0.293 HD
ENDBRANCH  17  20
ENDBRANCH   1  12
BRANCH   6  22
ATOM     22  O   UNL     1       2.587  -2.017  37.820  1.00  0.00    -0.507 OA
ATOM     23  H   UNL     1       2.581  -1.763  38.801  1.00  0.00     0.293 HD
ENDBRANCH   6  22
BRANCH   8  24
ATOM     24  O   UNL     1       4.777  -6.106  36.431  1.00  0.00    -0.508 OA
ATOM     25  H   UNL     1       4.653  -6.569  35.538  1.00  0.00     0.293 HD
ENDBRANCH   8  24
TORSDOF 5
ENDMDL
MODEL 2
REMARK VINA RESULT:    -7.123      4.510      8.141
REMARK INTER + INTRA:          -8.647
REMARK INTER:                  -8.361
REMARK INTRA:                  -0.285
REMARK UNBOUND:                -0.274
REMARK SMILES O=c1cc(-c2ccc(O)c(O)c2)oc2cc(O)cc(O)c12
REMARK SMILES IDX 4 1 3 2 2 3 1 4 21 5 19 6 18 7 16 8 15 9 14 10 13 11 5 12
REMARK SMILES IDX 6 13 7 14 8 15 12 16 10 17 9 18 11 20 20 22 17 24
REMARK H PARENT 9 19 11 21 20 23 17 25
REMARK Flexibility Score: inf
ROOT
ATOM      1  C   UNL     1       3.358  -4.481  38.345  1.00  0.00     0.138 A 
ATOM      2  C   UNL     1       3.771  -3.301  37.705  1.00  0.00     0.100 A 
ATOM      3  C   UNL     1       4.733  -3.368  36.696  1.00  0.00     0.197 A 
ATOM      4  O   UNL     1       5.096  -2.303  36.125  1.00  0.00    -0.289 OA
ATOM      5  C   UNL     1       5.275  -4.616  36.333  1.00  0.00     0.107 A 
ATOM      6  C   UNL     1       6.256  -4.772  35.324  1.00  0.00     0.134 A 
ATOM      7  C   UNL     1       6.741  -6.053  35.019  1.00  0.00     0.093 A 
ATOM      8  C   UNL     1       6.264  -7.177  35.702  1.00  0.00     0.123 A 
ATOM      9  C   UNL     1       5.298  -7.028  36.698  1.00  0.00     0.094 A 
ATOM     10  C   UNL     1       4.802  -5.761  37.018  1.00  0.00     0.146 A 
ATOM     11  O   UNL     1       3.884  -5.646  37.972  1.00  0.00    -0.456 OA
ENDROOT
BRANCH   1  12
ATOM     12  C   UNL     1       2.337  -4.471  39.424  1.00  0.00     0.021 A 
ATOM     13  C   UNL     1       1.456  -5.550  39.619  1.00  0.00     0.016 A 
ATOM     14  C   UNL     1       0.498  -5.507  40.636  1.00  0.00     0.051 A 
ATOM     15  C   UNL     1       0.399  -4.386  41.468  1.00  0.00     0.157 A 
ATOM     16  C   UNL     1       2.222  -3.342  40.255  1.00  0.00     0.062 A 
ATOM     17  C   UNL     1       1.265  -3.297  41.275  1.00  0.00     0.158 A 
BRANCH  15  18
ATOM     18  O   UNL     1      -0.557  -4.347  42.483  1.00  0.00    -0.504 OA
ATOM     19  H   UNL     1      -0.401  -4.802  43.376  1.00  0.00     0.293 HD
ENDBRANCH  15  18
BRANCH  17  20
ATOM     20  O   UNL     1       1.190  -2.164  42.084  1.00  0.00    -0.504 OA
ATOM     21  H   UNL     1       2.001  -1.788  42.562  1.00  0.00     0.293 HD
ENDBRANCH  17  20
ENDBRANCH   1  12
BRANCH   6  22
ATOM     22  O   UNL     1       6.748  -3.668  34.626  1.00  0.00    -0.507 OA
ATOM     23  H   UNL     1       7.742  -3.516  34.504  1.00  0.00     0.293 HD
ENDBRANCH   6  22
BRANCH   8  24
ATOM     24  O   UNL     1       6.746  -8.449  35.398  1.00  0.00    -0.508 OA
ATOM     25  H   UNL     1       7.072  -8.684  34.467  1.00  0.00     0.293 HD
ENDBRANCH   8  24
TORSDOF 5
ENDMDL
MODEL 3
REMARK VINA RESULT:    -7.090      3.149      6.850
REMARK INTER + INTRA:          -8.608
REMARK INTER:                  -8.293
REMARK INTRA:                  -0.315
REMARK UNBOUND:                -0.274
REMARK SMILES O=c1cc(-c2ccc(O)c(O)c2)oc2cc(O)cc(O)c12
REMARK SMILES IDX 4 1 3 2 2 3 1 4 21 5 19 6 18 7 16 8 15 9 14 10 13 11 5 12
REMARK SMILES IDX 6 13 7 14 8 15 12 16 10 17 9 18 11 20 20 22 17 24
REMARK H PARENT 9 19 11 21 20 23 17 25
REMARK Flexibility Score: inf
ROOT
ATOM      1  C   UNL     1       5.628  -4.350  36.094  1.00  0.00     0.138 A 
ATOM      2  C   UNL     1       6.504  -3.361  35.618  1.00  0.00     0.100 A 
ATOM      3  C   UNL     1       6.232  -2.018  35.882  1.00  0.00     0.197 A 
ATOM      4  O   UNL     1       7.025  -1.136  35.452  1.00  0.00    -0.289 OA
ATOM      5  C   UNL     1       5.085  -1.674  36.624  1.00  0.00     0.107 A 
ATOM      6  C   UNL     1       4.735  -0.338  36.935  1.00  0.00     0.134 A 
ATOM      7  C   UNL     1       3.577  -0.080  37.684  1.00  0.00     0.093 A 
ATOM      8  C   UNL     1       2.766  -1.130  38.128  1.00  0.00     0.123 A 
ATOM      9  C   UNL     1       3.108  -2.449  37.824  1.00  0.00     0.094 A 
ATOM     10  C   UNL     1       4.257  -2.728  37.077  1.00  0.00     0.146 A 
ATOM     11  O   UNL     1       4.559  -3.992  36.800  1.00  0.00    -0.456 OA
ENDROOT
BRANCH   1  12
ATOM     12  C   UNL     1       5.869  -5.794  35.844  1.00  0.00     0.021 A 
ATOM     13  C   UNL     1       6.749  -6.235  34.838  1.00  0.00     0.016 A 
ATOM     14  C   UNL     1       6.948  -7.601  34.619  1.00  0.00     0.051 A 
ATOM     15  C   UNL     1       6.267  -8.548  35.392  1.00  0.00     0.157 A 
ATOM     16  C   UNL     1       5.178  -6.752  36.607  1.00  0.00     0.062 A 
ATOM     17  C   UNL     1       5.376  -8.120  36.391  1.00  0.00     0.158 A 
BRANCH  15  18
ATOM     18  O   UNL     1       6.469  -9.910  35.172  1.00  0.00    -0.504 OA
ATOM     19  H   UNL     1       6.043 -10.612  35.766  1.00  0.00     0.293 HD
ENDBRANCH  15  18
BRANCH  17  20
ATOM     20  O   UNL     1       4.679  -9.038  37.176  1.00  0.00    -0.504 OA
ATOM     21  H   UNL     1       4.903  -9.191  38.153  1.00  0.00     0.293 HD
ENDBRANCH  17  20
ENDBRANCH   1  12
BRANCH   6  22
ATOM     22  O   UNL     1       5.526   0.729  36.506  1.00  0.00    -0.507 OA
ATOM     23  H   UNL     1       6.452   0.584  36.121  1.00  0.00     0.293 HD
ENDBRANCH   6  22
BRANCH   8  24
ATOM     24  O   UNL     1       1.617  -0.874  38.873  1.00  0.00    -0.508 OA
ATOM     25  H   UNL     1       0.963  -0.147  38.605  1.00  0.00     0.293 HD
ENDBRANCH   8  24
TORSDOF 5
ENDMDL
MODEL 4
REMARK VINA RESULT:    -7.067      3.659      7.045
REMARK INTER + INTRA:          -8.580
REMARK INTER:                  -8.285
REMARK INTRA:                  -0.295
REMARK UNBOUND:                -0.274
REMARK SMILES O=c1cc(-c2ccc(O)c(O)c2)oc2cc(O)cc(O)c12
REMARK SMILES IDX 4 1 3 2 2 3 1 4 21 5 19 6 18 7 16 8 15 9 14 10 13 11 5 12
REMARK SMILES IDX 6 13 7 14 8 15 12 16 10 17 9 18 11 20 20 22 17 24
REMARK H PARENT 9 19 11 21 20 23 17 25
REMARK Flexibility Score: inf
ROOT
ATOM      1  C   UNL     1       4.623  -4.850  36.939  1.00  0.00     0.138 A 
ATOM      2  C   UNL     1       3.527  -4.898  37.816  1.00  0.00     0.100 A 
ATOM      3  C   UNL     1       2.952  -3.708  38.263  1.00  0.00     0.197 A 
ATOM      4  O   UNL     1       1.967  -3.761  39.049  1.00  0.00    -0.289 OA
ATOM      5  C   UNL     1       3.476  -2.476  37.826  1.00  0.00     0.107 A 
ATOM      6  C   UNL     1       2.954  -1.223  38.231  1.00  0.00     0.134 A 
ATOM      7  C   UNL     1       3.531  -0.041  37.745  1.00  0.00     0.093 A 
ATOM      8  C   UNL     1       4.617  -0.086  36.864  1.00  0.00     0.123 A 
ATOM      9  C   UNL     1       5.134  -1.318  36.462  1.00  0.00     0.094 A 
ATOM     10  C   UNL     1       4.575  -2.509  36.935  1.00  0.00     0.146 A 
ATOM     11  O   UNL     1       5.088  -3.669  36.538  1.00  0.00    -0.456 OA
ENDROOT
BRANCH   1  12
ATOM     12  C   UNL     1       5.274  -6.084  36.431  1.00  0.00     0.021 A 
ATOM     13  C   UNL     1       6.328  -6.036  35.500  1.00  0.00     0.016 A 
ATOM     14  C   UNL     1       6.915  -7.215  35.032  1.00  0.00     0.051 A 
ATOM     15  C   UNL     1       6.456  -8.460  35.479  1.00  0.00     0.157 A 
ATOM     16  C   UNL     1       4.810  -7.339  36.866  1.00  0.00     0.062 A 
ATOM     17  C   UNL     1       5.397  -8.521  36.400  1.00  0.00     0.158 A 
BRANCH  15  18
ATOM     18  O   UNL     1       7.045  -9.634  35.012  1.00  0.00    -0.504 OA
ATOM     19  H   UNL     1       7.766 -10.113  35.540  1.00  0.00     0.293 HD
ENDBRANCH  15  18
BRANCH  17  20
ATOM     20  O   UNL     1       4.914  -9.745  36.862  1.00  0.00    -0.504 OA
ATOM     21  H   UNL     1       5.347 -10.626  36.608  1.00  0.00     0.293 HD
ENDBRANCH  17  20
ENDBRANCH   1  12
BRANCH   6  22
ATOM     22  O   UNL     1       1.871  -1.149  39.108  1.00  0.00    -0.507 OA
ATOM     23  H   UNL     1       1.563  -1.952  39.644  1.00  0.00     0.293 HD
ENDBRANCH   6  22
BRANCH   8  24
ATOM     24  O   UNL     1       5.188   1.089  36.381  1.00  0.00    -0.508 OA
ATOM     25  H   UNL     1       4.688   1.700  35.746  1.00  0.00     0.293 HD
ENDBRANCH   8  24
TORSDOF 5
ENDMDL
MODEL 5
REMARK VINA RESULT:    -7.042      3.675      5.750
REMARK INTER + INTRA:          -8.551
REMARK INTER:                  -8.260
REMARK INTRA:                  -0.291
REMARK UNBOUND:                -0.274
REMARK SMILES O=c1cc(-c2ccc(O)c(O)c2)oc2cc(O)cc(O)c12
REMARK SMILES IDX 4 1 3 2 2 3 1 4 21 5 19 6 18 7 16 8 15 9 14 10 13 11 5 12
REMARK SMILES IDX 6 13 7 14 8 15 12 16 10 17 9 18 11 20 20 22 17 24
REMARK H PARENT 9 19 11 21 20 23 17 25
REMARK Flexibility Score: inf
ROOT
ATOM      1  C   UNL     1       3.474  -3.434  37.896  1.00  0.00     0.138 A 
ATOM      2  C   UNL     1       3.490  -2.227  38.616  1.00  0.00     0.100 A 
ATOM      3  C   UNL     1       2.676  -2.088  39.741  1.00  0.00     0.197 A 
ATOM      4  O   UNL     1       2.699  -1.001  40.381  1.00  0.00    -0.289 OA
ATOM      5  C   UNL     1       1.853  -3.158  40.141  1.00  0.00     0.107 A 
ATOM      6  C   UNL     1       0.997  -3.099  41.267  1.00  0.00     0.134 A 
ATOM      7  C   UNL     1       0.211  -4.213  41.601  1.00  0.00     0.093 A 
ATOM      8  C   UNL     1       0.267  -5.381  40.833  1.00  0.00     0.123 A 
ATOM      9  C   UNL     1       1.109  -5.443  39.722  1.00  0.00     0.094 A 
ATOM     10  C   UNL     1       1.899  -4.344  39.370  1.00  0.00     0.146 A 
ATOM     11  O   UNL     1       2.691  -4.429  38.306  1.00  0.00    -0.456 OA
ENDROOT
BRANCH   1  12
ATOM     12  C   UNL     1       4.319  -3.639  36.693  1.00  0.00     0.021 A 
ATOM     13  C   UNL     1       4.055  -4.667  35.769  1.00  0.00     0.016 A 
ATOM     14  C   UNL     1       4.875  -4.842  34.650  1.00  0.00     0.051 A 
ATOM     15  C   UNL     1       5.973  -4.001  34.440  1.00  0.00     0.157 A 
ATOM     16  C   UNL     1       5.433  -2.806  36.481  1.00  0.00     0.062 A 
ATOM     17  C   UNL     1       6.254  -2.979  35.362  1.00  0.00     0.158 A 
BRANCH  15  18
ATOM     18  O   UNL     1       6.788  -4.177  33.321  1.00  0.00    -0.504 OA
ATOM     19  H   UNL     1       7.797  -4.231  33.403  1.00  0.00     0.293 HD
ENDBRANCH  15  18
BRANCH  17  20
ATOM     20  O   UNL     1       7.344  -2.127  35.183  1.00  0.00    -0.504 OA
ATOM     21  H   UNL     1       7.241  -1.194  34.799  1.00  0.00     0.293 HD
ENDBRANCH  17  20
ENDBRANCH   1  12
BRANCH   6  22
ATOM     22  O   UNL     1       0.922  -1.947  42.051  1.00  0.00    -0.507 OA
ATOM     23  H   UNL     1       0.214  -1.836  42.768  1.00  0.00     0.293 HD
ENDBRANCH   6  22
BRANCH   8  24
ATOM     24  O   UNL     1      -0.513  -6.487  41.166  1.00  0.00    -0.508 OA
ATOM     25  H   UNL     1      -0.505  -6.879  42.101  1.00  0.00     0.293 HD
ENDBRANCH   8  24
TORSDOF 5
ENDMDL
MODEL 6
REMARK VINA RESULT:    -7.007      4.798      7.342
REMARK INTER + INTRA:          -8.510
REMARK INTER:                  -8.191
REMARK INTRA:                  -0.318
REMARK UNBOUND:                -0.274
REMARK SMILES O=c1cc(-c2ccc(O)c(O)c2)oc2cc(O)cc(O)c12
REMARK SMILES IDX 4 1 3 2 2 3 1 4 21 5 19 6 18 7 16 8 15 9 14 10 13 11 5 12
REMARK SMILES IDX 6 13 7 14 8 15 12 16 10 17 9 18 11 20 20 22 17 24
REMARK H PARENT 9 19 11 21 20 23 17 25
REMARK Flexibility Score: inf
ROOT
ATOM      1  C   UNL     1       4.139  -4.138  37.647  1.00  0.00     0.138 A 
ATOM      2  C   UNL     1       4.799  -3.552  36.555  1.00  0.00     0.100 A 
ATOM      3  C   UNL     1       5.483  -4.365  35.649  1.00  0.00     0.197 A 
ATOM      4  O   UNL     1       6.072  -3.830  34.671  1.00  0.00    -0.289 OA
ATOM      5  C   UNL     1       5.499  -5.760  35.842  1.00  0.00     0.107 A 
ATOM      6  C   UNL     1       6.169  -6.655  34.974  1.00  0.00     0.134 A 
ATOM      7  C   UNL     1       6.133  -8.033  35.233  1.00  0.00     0.093 A 
ATOM      8  C   UNL     1       5.439  -8.532  36.342  1.00  0.00     0.123 A 
ATOM      9  C   UNL     1       4.777  -7.653  37.200  1.00  0.00     0.094 A 
ATOM     10  C   UNL     1       4.802  -6.276  36.961  1.00  0.00     0.146 A 
ATOM     11  O   UNL     1       4.166  -5.460  37.795  1.00  0.00    -0.456 OA
ENDROOT
BRANCH   1  12
ATOM     12  C   UNL     1       3.395  -3.323  38.641  1.00  0.00     0.021 A 
ATOM     13  C   UNL     1       3.288  -1.925  38.520  1.00  0.00     0.016 A 
ATOM     14  C   UNL     1       2.589  -1.182  39.476  1.00  0.00     0.051 A 
ATOM     15  C   UNL     1       1.994  -1.820  40.571  1.00  0.00     0.157 A 
ATOM     16  C   UNL     1       2.805  -3.955  39.750  1.00  0.00     0.062 A 
ATOM     17  C   UNL     1       2.105  -3.214  40.708  1.00  0.00     0.158 A 
BRANCH  15  18
ATOM     18  O   UNL     1       1.296  -1.076  41.522  1.00  0.00    -0.504 OA
ATOM     19  H   UNL     1       1.770  -0.634  42.301  1.00  0.00     0.293 HD
ENDBRANCH  15  18
BRANCH  17  20
ATOM     20  O   UNL     1       1.526  -3.879  41.789  1.00  0.00    -0.504 OA
ATOM     21  H   UNL     1       1.376  -4.881  41.787  1.00  0.00     0.293 HD
ENDBRANCH  17  20
ENDBRANCH   1  12
BRANCH   6  22
ATOM     22  O   UNL     1       6.868  -6.186  33.860  1.00  0.00    -0.507 OA
ATOM     23  H   UNL     1       7.002  -5.195  33.695  1.00  0.00     0.293 HD
ENDBRANCH   6  22
BRANCH   8  24
ATOM     24  O   UNL     1       5.402  -9.900  36.599  1.00  0.00    -0.508 OA
ATOM     25  H   UNL     1       5.856 -10.568  35.985  1.00  0.00     0.293 HD
ENDBRANCH   8  24
TORSDOF 5
ENDMDL
MODEL 7
REMARK VINA RESULT:    -6.927      4.381      8.062
REMARK INTER + INTRA:          -8.416
REMARK INTER:                  -8.116
REMARK INTRA:                  -0.301
REMARK UNBOUND:                -0.274
REMARK SMILES O=c1cc(-c2ccc(O)c(O)c2)oc2cc(O)cc(O)c12
REMARK SMILES IDX 4 1 3 2 2 3 1 4 21 5 19 6 18 7 16 8 15 9 14 10 13 11 5 12
REMARK SMILES IDX 6 13 7 14 8 15 12 16 10 17 9 18 11 20 20 22 17 24
REMARK H PARENT 9 19 11 21 20 23 17 25
REMARK Flexibility Score: inf
ROOT
ATOM      1  C   UNL     1       3.435  -4.909  38.346  1.00  0.00     0.138 A 
ATOM      2  C   UNL     1       3.587  -6.303  38.270  1.00  0.00     0.100 A 
ATOM      3  C   UNL     1       4.404  -6.852  37.281  1.00  0.00     0.197 A 
ATOM      4  O   UNL     1       4.536  -8.105  37.221  1.00  0.00    -0.289 OA
ATOM      5  C   UNL     1       5.066  -6.000  36.374  1.00  0.00     0.107 A 
ATOM      6  C   UNL     1       5.910  -6.474  35.341  1.00  0.00     0.134 A 
ATOM      7  C   UNL     1       6.537  -5.558  34.482  1.00  0.00     0.093 A 
ATOM      8  C   UNL     1       6.337  -4.182  34.638  1.00  0.00     0.123 A 
ATOM      9  C   UNL     1       5.506  -3.711  35.655  1.00  0.00     0.094 A 
ATOM     10  C   UNL     1       4.870  -4.607  36.521  1.00  0.00     0.146 A 
ATOM     11  O   UNL     1       4.082  -4.132  37.481  1.00  0.00    -0.456 OA
ENDROOT
BRANCH   1  12
ATOM     12  C   UNL     1       2.580  -4.270  39.379  1.00  0.00     0.021 A 
ATOM     13  C   UNL     1       1.355  -4.835  39.779  1.00  0.00     0.016 A 
ATOM     14  C   UNL     1       0.566  -4.206  40.747  1.00  0.00     0.051 A 
ATOM     15  C   UNL     1       0.983  -3.001  41.324  1.00  0.00     0.157 A 
ATOM     16  C   UNL     1       2.985  -3.052  39.955  1.00  0.00     0.062 A 
ATOM     17  C   UNL     1       2.198  -2.421  40.925  1.00  0.00     0.158 A 
BRANCH  15  18
ATOM     18  O   UNL     1       0.195  -2.377  42.291  1.00  0.00    -0.504 OA
ATOM     19  H   UNL     1       0.393  -1.436  42.610  1.00  0.00     0.293 HD
ENDBRANCH  15  18
BRANCH  17  20
ATOM     20  O   UNL     1       2.640  -1.220  41.478  1.00  0.00    -0.504 OA
ATOM     21  H   UNL     1       2.135  -0.751  42.222  1.00  0.00     0.293 HD
ENDBRANCH  17  20
ENDBRANCH   1  12
BRANCH   6  22
ATOM     22  O   UNL     1       6.128  -7.841  35.163  1.00  0.00    -0.507 OA
ATOM     23  H   UNL     1       5.771  -8.526  35.819  1.00  0.00     0.293 HD
ENDBRANCH   6  22
BRANCH   8  24
ATOM     24  O   UNL     1       6.960  -3.274  33.786  1.00  0.00    -0.508 OA
ATOM     25  H   UNL     1       7.733  -2.696  34.099  1.00  0.00     0.293 HD
ENDBRANCH   8  24
TORSDOF 5
ENDMDL
MODEL 8
REMARK VINA RESULT:    -6.927      1.175      2.664
REMARK INTER + INTRA:          -8.416
REMARK INTER:                  -8.136
REMARK INTRA:                  -0.280
REMARK UNBOUND:                -0.274
REMARK SMILES O=c1cc(-c2ccc(O)c(O)c2)oc2cc(O)cc(O)c12
REMARK SMILES IDX 4 1 3 2 2 3 1 4 21 5 19 6 18 7 16 8 15 9 14 10 13 11 5 12
REMARK SMILES IDX 6 13 7 14 8 15 12 16 10 17 9 18 11 20 20 22 17 24
REMARK H PARENT 9 19 11 21 20 23 17 25
REMARK Flexibility Score: inf
ROOT
ATOM      1  C   UNL     1       6.875  -0.953  35.746  1.00  0.00     0.138 A 
ATOM      2  C   UNL     1       6.992  -2.338  35.544  1.00  0.00     0.100 A 
ATOM      3  C   UNL     1       5.995  -3.188  36.023  1.00  0.00     0.197 A 
ATOM      4  O   UNL     1       6.107  -4.431  35.835  1.00  0.00    -0.289 OA
ATOM      5  C   UNL     1       4.885  -2.646  36.700  1.00  0.00     0.107 A 
ATOM      6  C   UNL     1       3.831  -3.437  37.219  1.00  0.00     0.134 A 
ATOM      7  C   UNL     1       2.757  -2.818  37.876  1.00  0.00     0.093 A 
ATOM      8  C   UNL     1       2.717  -1.427  38.023  1.00  0.00     0.123 A 
ATOM      9  C   UNL     1       3.754  -0.644  37.514  1.00  0.00     0.094 A 
ATOM     10  C   UNL     1       4.834  -1.241  36.856  1.00  0.00     0.146 A 
ATOM     11  O   UNL     1       5.809  -0.472  36.382  1.00  0.00    -0.456 OA
ENDROOT
BRANCH   1  12
ATOM     12  C   UNL     1       7.905  -0.001  35.257  1.00  0.00     0.021 A 
ATOM     13  C   UNL     1       8.269   0.063  33.899  1.00  0.00     0.016 A 
ATOM     14  C   UNL     1       9.249   0.962  33.470  1.00  0.00     0.051 A 
ATOM     15  C   UNL     1       9.886   1.805  34.388  1.00  0.00     0.157 A 
ATOM     16  C   UNL     1       8.560   0.840  36.175  1.00  0.00     0.062 A 
ATOM     17  C   UNL     1       9.540   1.742  35.747  1.00  0.00     0.158 A 
BRANCH  15  18
ATOM     18  O   UNL     1      10.863   2.703  33.955  1.00  0.00    -0.504 OA
ATOM     19  H   UNL     1      11.153   2.744  32.985  1.00  0.00     0.293 HD
ENDBRANCH  15  18
BRANCH  17  20
ATOM     20  O   UNL     1      10.159   2.566  36.687  1.00  0.00    -0.504 OA
ATOM     21  H   UNL     1       9.781   2.700  37.618  1.00  0.00     0.293 HD
ENDBRANCH  17  20
ENDBRANCH   1  12
BRANCH   6  22
ATOM     22  O   UNL     1       3.845  -4.826  37.085  1.00  0.00    -0.507 OA
ATOM     23  H   UNL     1       4.561  -5.302  36.549  1.00  0.00     0.293 HD
ENDBRANCH   6  22
BRANCH   8  24
ATOM     24  O   UNL     1       1.650  -0.813  38.676  1.00  0.00    -0.508 OA
ATOM     25  H   UNL     1       1.797  -0.184  39.457  1.00  0.00     0.293 HD
ENDBRANCH   8  24
TORSDOF 5
ENDMDL
MODEL 9
REMARK VINA RESULT:    -6.811      4.251      7.547
REMARK INTER + INTRA:          -8.280
REMARK INTER:                  -7.996
REMARK INTRA:                  -0.283
REMARK UNBOUND:                -0.274
REMARK SMILES O=c1cc(-c2ccc(O)c(O)c2)oc2cc(O)cc(O)c12
REMARK SMILES IDX 4 1 3 2 2 3 1 4 21 5 19 6 18 7 16 8 15 9 14 10 13 11 5 12
REMARK SMILES IDX 6 13 7 14 8 15 12 16 10 17 9 18 11 20 20 22 17 24
REMARK H PARENT 9 19 11 21 20 23 17 25
REMARK Flexibility Score: inf
ROOT
ATOM      1  C   UNL     1       3.589  -3.437  37.324  1.00  0.00     0.138 A 
ATOM      2  C   UNL     1       4.918  -3.042  37.097  1.00  0.00     0.100 A 
ATOM      3  C   UNL     1       5.534  -3.368  35.888  1.00  0.00     0.197 A 
ATOM      4  O   UNL     1       6.727  -3.008  35.692  1.00  0.00    -0.289 OA
ATOM      5  C   UNL     1       4.815  -4.086  34.912  1.00  0.00     0.107 A 
ATOM      6  C   UNL     1       5.364  -4.458  33.661  1.00  0.00     0.134 A 
ATOM      7  C   UNL     1       4.579  -5.168  32.742  1.00  0.00     0.093 A 
ATOM      8  C   UNL     1       3.257  -5.512  33.048  1.00  0.00     0.123 A 
ATOM      9  C   UNL     1       2.711  -5.147  34.279  1.00  0.00     0.094 A 
ATOM     10  C   UNL     1       3.478  -4.440  35.211  1.00  0.00     0.146 A 
ATOM     11  O   UNL     1       2.935  -4.106  36.378  1.00  0.00    -0.456 OA
ENDROOT
BRANCH   1  12
ATOM     12  C   UNL     1       2.883  -3.117  38.591  1.00  0.00     0.021 A 
ATOM     13  C   UNL     1       2.787  -1.797  39.071  1.00  0.00     0.016 A 
ATOM     14  C   UNL     1       2.125  -1.528  40.272  1.00  0.00     0.051 A 
ATOM     15  C   UNL     1       1.556  -2.568  41.016  1.00  0.00     0.157 A 
ATOM     16  C   UNL     1       2.321  -4.158  39.351  1.00  0.00     0.062 A 
ATOM     17  C   UNL     1       1.656  -3.890  40.553  1.00  0.00     0.158 A 
BRANCH  15  18
ATOM     18  O   UNL     1       0.894  -2.295  42.213  1.00  0.00    -0.504 OA
ATOM     19  H   UNL     1      -0.113  -2.372  42.291  1.00  0.00     0.293 HD
ENDBRANCH  15  18
BRANCH  17  20
ATOM     20  O   UNL     1       1.104  -4.950  41.272  1.00  0.00    -0.504 OA
ATOM     21  H   UNL     1       1.507  -5.879  41.258  1.00  0.00     0.293 HD
ENDBRANCH  17  20
ENDBRANCH   1  12
BRANCH   6  22
ATOM     22  O   UNL     1       6.679  -4.128  33.329  1.00  0.00    -0.507 OA
ATOM     23  H   UNL     1       6.990  -4.087  32.366  1.00  0.00     0.293 HD
ENDBRANCH   6  22
BRANCH   8  24
ATOM     24  O   UNL     1       2.477  -6.216  32.134  1.00  0.00    -0.508 OA
ATOM     25  H   UNL     1       2.711  -7.162  31.855  1.00  0.00     0.293 HD
ENDBRANCH   8  24
TORSDOF 5
ENDMDL
