MODEL 1
REMARK VINA RESULT:    -9.496      0.000      0.000
REMARK INTER + INTRA:         -14.661
REMARK INTER:                 -13.938
REMARK INTRA:                  -0.723
REMARK UNBOUND:                -0.723
REMARK SMILES O=c1c(O[C@H]2O[C@H](CO)[C@H](O)[C@@H](O)[C@H]2O)c(-c2ccc(O)c(O)c2)oc2cc(O)cc(O)c12
REMARK SMILES IDX 4 1 3 2 16 3 25 4 2 5 26 6 1 7 33 8 27 9 31 10 28 11 30 12
REMARK SMILES IDX 17 13 18 14 19 15 20 16 24 17 22 18 21 19 23 21 32 23 29 25
REMARK SMILES IDX 5 27 14 28 6 29 12 30 7 31 10 32 15 33 13 35 8 37 9 38 11 40
REMARK H PARENT 21 20 23 22 32 24 29 26 15 34 13 36 9 39 11 41
REMARK Flexibility Score: inf
ROOT
ATOM      1  O   UNL     1      -2.756 -29.868 -51.946  1.00  0.00    -0.454 OA
ENDROOT
BRANCH   1   2
ATOM      2  C   UNL     1      -3.431 -28.750 -52.447  1.00  0.00     0.214 A 
ATOM      3  C   UNL     1      -4.795 -28.523 -52.172  1.00  0.00     0.180 A 
ATOM      4  O   UNL     1      -5.416 -27.488 -52.731  1.00  0.00    -0.452 OA
ATOM      5  C   UNL     1      -2.741 -27.840 -53.255  1.00  0.00     0.239 A 
ATOM      6  C   UNL     1      -4.807 -26.615 -53.526  1.00  0.00     0.146 A 
ATOM      7  O   UNL     1      -1.513 -28.023 -53.477  1.00  0.00    -0.285 OA
ATOM      8  C   UNL     1      -3.428 -26.747 -53.819  1.00  0.00     0.111 A 
ATOM      9  C   UNL     1      -5.544 -25.558 -54.067  1.00  0.00     0.094 A 
ATOM     10  C   UNL     1      -2.809 -25.795 -54.662  1.00  0.00     0.134 A 
ATOM     11  C   UNL     1      -4.929 -24.621 -54.899  1.00  0.00     0.123 A 
ATOM     12  C   UNL     1      -3.566 -24.740 -55.195  1.00  0.00     0.093 A 
BRANCH   3  13
ATOM     13  C   UNL     1      -5.576 -29.401 -51.270  1.00  0.00     0.025 A 
ATOM     14  C   UNL     1      -5.703 -30.777 -51.521  1.00  0.00     0.016 A 
ATOM     15  C   UNL     1      -6.443 -31.585 -50.658  1.00  0.00     0.051 A 
ATOM     16  C   UNL     1      -7.055 -31.044 -49.522  1.00  0.00     0.157 A 
ATOM     17  C   UNL     1      -6.170 -28.860 -50.121  1.00  0.00     0.062 A 
ATOM     18  C   UNL     1      -6.913 -29.664 -49.247  1.00  0.00     0.158 A 
BRANCH  16  19
ATOM     19  O   UNL     1      -7.786 -31.907 -48.701  1.00  0.00    -0.504 OA
ATOM     20  H   UNL     1      -7.484 -32.836 -48.449  1.00  0.00     0.293 HD
ENDBRANCH  16  19
BRANCH  18  21
ATOM     21  O   UNL     1      -7.488 -29.054 -48.129  1.00  0.00    -0.504 OA
ATOM     22  H   UNL     1      -7.303 -28.103 -47.848  1.00  0.00     0.293 HD
ENDBRANCH  18  21
ENDBRANCH   3  13
BRANCH  10  23
ATOM     23  O   UNL     1      -1.453 -25.889 -54.977  1.00  0.00    -0.507 OA
ATOM     24  H   UNL     1      -0.768 -25.258 -54.580  1.00  0.00     0.293 HD
ENDBRANCH  10  23
BRANCH  11  25
ATOM     25  O   UNL     1      -5.681 -23.575 -55.428  1.00  0.00    -0.508 OA
ATOM     26  H   UNL     1      -6.607 -23.728 -55.811  1.00  0.00     0.293 HD
ENDBRANCH  11  25
ENDBRANCH   1   2
BRANCH   1  27
ATOM     27  C   UNL     1      -2.675 -31.095 -52.673  1.00  0.00     0.339 C 
ATOM     28  C   UNL     1      -2.797 -32.315 -51.711  1.00  0.00     0.214 C 
ATOM     29  O   UNL     1      -1.497 -31.106 -53.472  1.00  0.00    -0.332 OA
ATOM     30  C   UNL     1      -1.928 -33.474 -52.224  1.00  0.00     0.180 C 
ATOM     31  C   UNL     1      -0.372 -31.505 -52.713  1.00  0.00     0.179 C 
ATOM     32  C   UNL     1      -0.454 -33.030 -52.421  1.00  0.00     0.177 C 
BRANCH  28  33
ATOM     33  O   UNL     1      -2.394 -31.973 -50.407  1.00  0.00    -0.384 OA
ATOM     34  H   UNL     1      -1.491 -32.362 -50.272  1.00  0.00     0.211 HD
ENDBRANCH  28  33
BRANCH  30  35
ATOM     35  O   UNL     1      -1.999 -34.550 -51.324  1.00  0.00    -0.387 OA
ATOM     36  H   UNL     1      -2.153 -34.160 -50.423  1.00  0.00     0.211 HD
ENDBRANCH  30  35
BRANCH  31  37
ATOM     37  C   UNL     1       0.908 -31.093 -53.457  1.00  0.00     0.191 C 
BRANCH  37  38
ATOM     38  O   UNL     1       2.044 -31.587 -52.800  1.00  0.00    -0.394 OA
ATOM     39  H   UNL     1       2.239 -32.479 -53.189  1.00  0.00     0.210 HD
ENDBRANCH  37  38
ENDBRANCH  31  37
BRANCH  32  40
ATOM     40  O   UNL     1       0.110 -33.767 -53.478  1.00  0.00    -0.387 OA
ATOM     41  H   UNL     1       0.035 -33.206 -54.293  1.00  0.00     0.211 HD
ENDBRANCH  32  40
ENDBRANCH   1  27
TORSDOF 12
ENDMDL
MODEL 2
REMARK VINA RESULT:    -9.389      0.496      1.182
REMARK INTER + INTRA:         -14.503
REMARK INTER:                 -13.551
REMARK INTRA:                  -0.952
REMARK UNBOUND:                -0.723
REMARK SMILES O=c1c(O[C@H]2O[C@H](CO)[C@H](O)[C@@H](O)[C@H]2O)c(-c2ccc(O)c(O)c2)oc2cc(O)cc(O)c12
REMARK SMILES IDX 4 1 3 2 16 3 25 4 2 5 26 6 1 7 33 8 27 9 31 10 28 11 30 12
REMARK SMILES IDX 17 13 18 14 19 15 20 16 24 17 22 18 21 19 23 21 32 23 29 25
REMARK SMILES IDX 5 27 14 28 6 29 12 30 7 31 10 32 15 33 13 35 8 37 9 38 11 40
REMARK H PARENT 21 20 23 22 32 24 29 26 15 34 13 36 9 39 11 41
REMARK Flexibility Score: inf
ROOT
ATOM      1  O   UNL     1      -2.828 -29.831 -51.832  1.00  0.00    -0.454 OA
ENDROOT
BRANCH   1   2
ATOM      2  C   UNL     1      -3.490 -28.701 -52.325  1.00  0.00     0.214 A 
ATOM      3  C   UNL     1      -4.833 -28.426 -51.994  1.00  0.00     0.180 A 
ATOM      4  O   UNL     1      -5.445 -27.382 -52.546  1.00  0.00    -0.452 OA
ATOM      5  C   UNL     1      -2.808 -27.829 -53.181  1.00  0.00     0.239 A 
ATOM      6  C   UNL     1      -4.846 -26.543 -53.385  1.00  0.00     0.146 A 
ATOM      7  O   UNL     1      -1.598 -28.055 -53.453  1.00  0.00    -0.285 OA
ATOM      8  C   UNL     1      -3.486 -26.725 -53.736  1.00  0.00     0.111 A 
ATOM      9  C   UNL     1      -5.573 -25.474 -53.914  1.00  0.00     0.094 A 
ATOM     10  C   UNL     1      -2.876 -25.809 -54.625  1.00  0.00     0.134 A 
ATOM     11  C   UNL     1      -4.967 -24.573 -54.791  1.00  0.00     0.123 A 
ATOM     12  C   UNL     1      -3.623 -24.741 -55.145  1.00  0.00     0.093 A 
BRANCH   3  13
ATOM     13  C   UNL     1      -5.599 -29.262 -51.042  1.00  0.00     0.025 A 
ATOM     14  C   UNL     1      -6.068 -28.740 -49.826  1.00  0.00     0.016 A 
ATOM     15  C   UNL     1      -6.788 -29.546 -48.944  1.00  0.00     0.051 A 
ATOM     16  C   UNL     1      -7.069 -30.879 -49.262  1.00  0.00     0.157 A 
ATOM     17  C   UNL     1      -5.898 -30.591 -51.374  1.00  0.00     0.062 A 
ATOM     18  C   UNL     1      -6.622 -31.407 -50.496  1.00  0.00     0.158 A 
BRANCH  16  19
ATOM     19  O   UNL     1      -7.791 -31.633 -48.334  1.00  0.00    -0.504 OA
ATOM     20  H   UNL     1      -7.603 -31.637 -47.342  1.00  0.00     0.293 HD
ENDBRANCH  16  19
BRANCH  18  21
ATOM     21  O   UNL     1      -6.871 -32.725 -50.886  1.00  0.00    -0.504 OA
ATOM     22  H   UNL     1      -7.575 -33.315 -50.467  1.00  0.00     0.293 HD
ENDBRANCH  18  21
ENDBRANCH   3  13
BRANCH  10  23
ATOM     23  O   UNL     1      -1.539 -25.953 -54.997  1.00  0.00    -0.507 OA
ATOM     24  H   UNL     1      -1.210 -25.689 -55.918  1.00  0.00     0.293 HD
ENDBRANCH  10  23
BRANCH  11  25
ATOM     25  O   UNL     1      -5.709 -23.513 -55.307  1.00  0.00    -0.508 OA
ATOM     26  H   UNL     1      -6.102 -22.799 -54.705  1.00  0.00     0.293 HD
ENDBRANCH  11  25
ENDBRANCH   1   2
BRANCH   1  27
ATOM     27  C   UNL     1      -2.783 -31.061 -52.557  1.00  0.00     0.339 C 
ATOM     28  C   UNL     1      -2.900 -32.277 -51.589  1.00  0.00     0.214 C 
ATOM     29  O   UNL     1      -1.623 -31.092 -53.383  1.00  0.00    -0.332 OA
ATOM     30  C   UNL     1      -2.061 -33.450 -52.118  1.00  0.00     0.180 C 
ATOM     31  C   UNL     1      -0.488 -31.506 -52.649  1.00  0.00     0.179 C 
ATOM     32  C   UNL     1      -0.586 -33.028 -52.350  1.00  0.00     0.177 C 
BRANCH  28  33
ATOM     33  O   UNL     1      -2.463 -31.937 -50.295  1.00  0.00    -0.384 OA
ATOM     34  H   UNL     1      -1.553 -31.552 -50.390  1.00  0.00     0.211 HD
ENDBRANCH  28  33
BRANCH  30  35
ATOM     35  O   UNL     1      -2.128 -34.522 -51.213  1.00  0.00    -0.387 OA
ATOM     36  H   UNL     1      -1.214 -34.906 -51.156  1.00  0.00     0.211 HD
ENDBRANCH  30  35
BRANCH  31  37
ATOM     37  C   UNL     1       0.781 -31.116 -53.423  1.00  0.00     0.191 C 
BRANCH  37  38
ATOM     38  O   UNL     1       1.931 -31.512 -52.724  1.00  0.00    -0.394 OA
ATOM     39  H   UNL     1       1.761 -32.429 -52.386  1.00  0.00     0.210 HD
ENDBRANCH  37  38
ENDBRANCH  31  37
BRANCH  32  40
ATOM     40  O   UNL     1      -0.057 -33.777 -53.418  1.00  0.00    -0.387 OA
ATOM     41  H   UNL     1       0.576 -33.184 -53.899  1.00  0.00     0.211 HD
ENDBRANCH  32  40
ENDBRANCH   1  27
TORSDOF 12
ENDMDL
MODEL 3
REMARK VINA RESULT:    -8.197      2.585      8.423
REMARK INTER + INTRA:         -12.753
REMARK INTER:                 -11.358
REMARK INTRA:                  -1.395
REMARK UNBOUND:                -0.723
REMARK SMILES O=c1c(O[C@H]2O[C@H](CO)[C@H](O)[C@@H](O)[C@H]2O)c(-c2ccc(O)c(O)c2)oc2cc(O)cc(O)c12
REMARK SMILES IDX 4 1 3 2 16 3 25 4 2 5 26 6 1 7 33 8 27 9 31 10 28 11 30 12
REMARK SMILES IDX 17 13 18 14 19 15 20 16 24 17 22 18 21 19 23 21 32 23 29 25
REMARK SMILES IDX 5 27 14 28 6 29 12 30 7 31 10 32 15 33 13 35 8 37 9 38 11 40
REMARK H PARENT 21 20 23 22 32 24 29 26 15 34 13 36 9 39 11 41
REMARK Flexibility Score: inf
ROOT
ATOM      1  O   UNL     1      -2.993 -26.293 -53.255  1.00  0.00    -0.454 OA
ENDROOT
BRANCH   1   2
ATOM      2  C   UNL     1      -2.264 -27.437 -52.916  1.00  0.00     0.214 A 
ATOM      3  C   UNL     1      -0.853 -27.440 -52.906  1.00  0.00     0.180 A 
ATOM      4  O   UNL     1      -0.200 -28.571 -52.653  1.00  0.00    -0.452 OA
ATOM      5  C   UNL     1      -2.948 -28.614 -52.594  1.00  0.00     0.239 A 
ATOM      6  C   UNL     1      -0.809 -29.718 -52.369  1.00  0.00     0.146 A 
ATOM      7  O   UNL     1      -4.209 -28.606 -52.571  1.00  0.00    -0.285 OA
ATOM      8  C   UNL     1      -2.222 -29.790 -52.317  1.00  0.00     0.111 A 
ATOM      9  C   UNL     1      -0.036 -30.854 -52.116  1.00  0.00     0.094 A 
ATOM     10  C   UNL     1      -2.838 -31.024 -52.004  1.00  0.00     0.134 A 
ATOM     11  C   UNL     1      -0.648 -32.071 -51.808  1.00  0.00     0.123 A 
ATOM     12  C   UNL     1      -2.044 -32.154 -51.752  1.00  0.00     0.093 A 
BRANCH   3  13
ATOM     13  C   UNL     1      -0.059 -26.219 -53.168  1.00  0.00     0.025 A 
ATOM     14  C   UNL     1       0.337 -25.869 -54.468  1.00  0.00     0.016 A 
ATOM     15  C   UNL     1       1.085 -24.713 -54.691  1.00  0.00     0.051 A 
ATOM     16  C   UNL     1       1.439 -23.875 -53.628  1.00  0.00     0.157 A 
ATOM     17  C   UNL     1       0.275 -25.370 -52.102  1.00  0.00     0.062 A 
ATOM     18  C   UNL     1       1.024 -24.206 -52.316  1.00  0.00     0.158 A 
BRANCH  16  19
ATOM     19  O   UNL     1       2.192 -22.735 -53.917  1.00  0.00    -0.504 OA
ATOM     20  H   UNL     1       1.849 -21.954 -54.457  1.00  0.00     0.293 HD
ENDBRANCH  16  19
BRANCH  18  21
ATOM     21  O   UNL     1       1.332 -23.415 -51.206  1.00  0.00    -0.504 OA
ATOM     22  H   UNL     1       0.640 -22.987 -50.609  1.00  0.00     0.293 HD
ENDBRANCH  18  21
ENDBRANCH   3  13
BRANCH  10  23
ATOM     23  O   UNL     1      -4.227 -31.139 -51.944  1.00  0.00    -0.507 OA
ATOM     24  H   UNL     1      -4.680 -32.000 -51.663  1.00  0.00     0.293 HD
ENDBRANCH  10  23
BRANCH  11  25
ATOM     25  O   UNL     1       0.141 -33.191 -51.558  1.00  0.00    -0.508 OA
ATOM     26  H   UNL     1       0.524 -33.375 -50.638  1.00  0.00     0.293 HD
ENDBRANCH  11  25
ENDBRANCH   1   2
BRANCH   1  27
ATOM     27  C   UNL     1      -3.328 -25.978 -54.607  1.00  0.00     0.339 C 
ATOM     28  C   UNL     1      -3.574 -24.448 -54.773  1.00  0.00     0.214 C 
ATOM     29  O   UNL     1      -4.420 -26.787 -55.035  1.00  0.00    -0.332 OA
ATOM     30  C   UNL     1      -4.668 -24.205 -55.824  1.00  0.00     0.180 C 
ATOM     31  C   UNL     1      -5.654 -26.235 -54.622  1.00  0.00     0.179 C 
ATOM     32  C   UNL     1      -5.970 -24.971 -55.471  1.00  0.00     0.177 C 
BRANCH  28  33
ATOM     33  O   UNL     1      -3.962 -23.863 -53.554  1.00  0.00    -0.384 OA
ATOM     34  H   UNL     1      -3.801 -22.888 -53.637  1.00  0.00     0.211 HD
ENDBRANCH  28  33
BRANCH  30  35
ATOM     35  O   UNL     1      -4.922 -22.828 -55.929  1.00  0.00    -0.387 OA
ATOM     36  H   UNL     1      -5.371 -22.685 -56.804  1.00  0.00     0.211 HD
ENDBRANCH  30  35
BRANCH  31  37
ATOM     37  C   UNL     1      -6.742 -27.316 -54.707  1.00  0.00     0.191 C 
BRANCH  37  38
ATOM     38  O   UNL     1      -6.168 -28.586 -54.869  1.00  0.00    -0.394 OA
ATOM     39  H   UNL     1      -5.917 -28.669 -55.825  1.00  0.00     0.210 HD
ENDBRANCH  37  38
ENDBRANCH  31  37
BRANCH  32  40
ATOM     40  O   UNL     1      -6.630 -25.327 -56.661  1.00  0.00    -0.387 OA
ATOM     41  H   UNL     1      -6.041 -25.052 -57.411  1.00  0.00     0.211 HD
ENDBRANCH  32  40
ENDBRANCH   1  27
TORSDOF 12
ENDMDL
MODEL 4
REMARK VINA RESULT:    -8.134      2.618      7.998
REMARK INTER + INTRA:         -12.661
REMARK INTER:                 -11.918
REMARK INTRA:                  -0.742
REMARK UNBOUND:                -0.723
REMARK SMILES O=c1c(O[C@H]2O[C@H](CO)[C@H](O)[C@@H](O)[C@H]2O)c(-c2ccc(O)c(O)c2)oc2cc(O)cc(O)c12
REMARK SMILES IDX 4 1 3 2 16 3 25 4 2 5 26 6 1 7 33 8 27 9 31 10 28 11 30 12
REMARK SMILES IDX 17 13 18 14 19 15 20 16 24 17 22 18 21 19 23 21 32 23 29 25
REMARK SMILES IDX 5 27 14 28 6 29 12 30 7 31 10 32 15 33 13 35 8 37 9 38 11 40
REMARK H PARENT 21 20 23 22 32 24 29 26 15 34 13 36 9 39 11 41
REMARK Flexibility Score: inf
ROOT
ATOM      1  O   UNL     1      -3.343 -27.996 -54.032  1.00  0.00    -0.454 OA
ENDROOT
BRANCH   1   2
ATOM      2  C   UNL     1      -2.888 -29.009 -53.182  1.00  0.00     0.214 A 
ATOM      3  C   UNL     1      -1.591 -28.985 -52.629  1.00  0.00     0.180 A 
ATOM      4  O   UNL     1      -1.173 -30.007 -51.887  1.00  0.00    -0.452 OA
ATOM      5  C   UNL     1      -3.734 -30.082 -52.882  1.00  0.00     0.239 A 
ATOM      6  C   UNL     1      -1.933 -31.059 -51.600  1.00  0.00     0.146 A 
ATOM      7  O   UNL     1      -4.906 -30.090 -53.349  1.00  0.00    -0.285 OA
ATOM      8  C   UNL     1      -3.261 -31.140 -52.081  1.00  0.00     0.111 A 
ATOM      9  C   UNL     1      -1.404 -32.084 -50.811  1.00  0.00     0.094 A 
ATOM     10  C   UNL     1      -4.046 -32.271 -51.750  1.00  0.00     0.134 A 
ATOM     11  C   UNL     1      -2.182 -33.198 -50.488  1.00  0.00     0.123 A 
ATOM     12  C   UNL     1      -3.498 -33.290 -50.956  1.00  0.00     0.093 A 
BRANCH   3  13
ATOM     13  C   UNL     1      -0.662 -27.851 -52.841  1.00  0.00     0.025 A 
ATOM     14  C   UNL     1       0.264 -27.854 -53.896  1.00  0.00     0.016 A 
ATOM     15  C   UNL     1       1.129 -26.775 -54.077  1.00  0.00     0.051 A 
ATOM     16  C   UNL     1       1.077 -25.666 -53.225  1.00  0.00     0.157 A 
ATOM     17  C   UNL     1      -0.732 -26.732 -51.998  1.00  0.00     0.062 A 
ATOM     18  C   UNL     1       0.130 -25.643 -52.174  1.00  0.00     0.158 A 
BRANCH  16  19
ATOM     19  O   UNL     1       1.974 -24.621 -53.458  1.00  0.00    -0.504 OA
ATOM     20  H   UNL     1       2.298 -24.350 -54.374  1.00  0.00     0.293 HD
ENDBRANCH  16  19
BRANCH  18  21
ATOM     21  O   UNL     1       0.014 -24.569 -51.288  1.00  0.00    -0.504 OA
ATOM     22  H   UNL     1       0.288 -24.605 -50.318  1.00  0.00     0.293 HD
ENDBRANCH  18  21
ENDBRANCH   3  13
BRANCH  10  23
ATOM     23  O   UNL     1      -5.359 -32.391 -52.205  1.00  0.00    -0.507 OA
ATOM     24  H   UNL     1      -5.888 -31.590 -52.528  1.00  0.00     0.293 HD
ENDBRANCH  10  23
BRANCH  11  25
ATOM     25  O   UNL     1      -1.637 -34.209 -49.700  1.00  0.00    -0.508 OA
ATOM     26  H   UNL     1      -1.645 -34.155 -48.688  1.00  0.00     0.293 HD
ENDBRANCH  11  25
ENDBRANCH   1   2
BRANCH   1  27
ATOM     27  C   UNL     1      -4.433 -27.142 -53.680  1.00  0.00     0.339 C 
ATOM     28  C   UNL     1      -5.751 -27.621 -54.358  1.00  0.00     0.214 C 
ATOM     29  O   UNL     1      -4.097 -25.788 -53.966  1.00  0.00    -0.332 OA
ATOM     30  C   UNL     1      -6.628 -26.410 -54.712  1.00  0.00     0.180 C 
ATOM     31  C   UNL     1      -4.326 -25.484 -55.328  1.00  0.00     0.179 C 
ATOM     32  C   UNL     1      -5.855 -25.393 -55.593  1.00  0.00     0.177 C 
BRANCH  28  33
ATOM     33  O   UNL     1      -5.480 -28.357 -55.526  1.00  0.00    -0.384 OA
ATOM     34  H   UNL     1      -4.887 -27.796 -56.090  1.00  0.00     0.211 HD
ENDBRANCH  28  33
BRANCH  30  35
ATOM     35  O   UNL     1      -7.788 -26.846 -55.372  1.00  0.00    -0.387 OA
ATOM     36  H   UNL     1      -8.187 -26.049 -55.810  1.00  0.00     0.211 HD
ENDBRANCH  30  35
BRANCH  31  37
ATOM     37  C   UNL     1      -3.564 -24.200 -55.692  1.00  0.00     0.191 C 
BRANCH  37  38
ATOM     38  O   UNL     1      -3.565 -23.301 -54.615  1.00  0.00    -0.394 OA
ATOM     39  H   UNL     1      -2.971 -23.685 -53.918  1.00  0.00     0.210 HD
ENDBRANCH  37  38
ENDBRANCH  31  37
BRANCH  32  40
ATOM     40  O   UNL     1      -6.327 -24.096 -55.318  1.00  0.00    -0.387 OA
ATOM     41  H   UNL     1      -6.302 -23.984 -54.332  1.00  0.00     0.211 HD
ENDBRANCH  32  40
ENDBRANCH   1  27
TORSDOF 12
ENDMDL
MODEL 5
REMARK VINA RESULT:    -8.110      1.010      2.155
REMARK INTER + INTRA:         -12.625
REMARK INTER:                 -11.559
REMARK INTRA:                  -1.067
REMARK UNBOUND:                -0.723
REMARK SMILES O=c1c(O[C@H]2O[C@H](CO)[C@H](O)[C@@H](O)[C@H]2O)c(-c2ccc(O)c(O)c2)oc2cc(O)cc(O)c12
REMARK SMILES IDX 4 1 3 2 16 3 25 4 2 5 26 6 1 7 33 8 27 9 31 10 28 11 30 12
REMARK SMILES IDX 17 13 18 14 19 15 20 16 24 17 22 18 21 19 23 21 32 23 29 25
REMARK SMILES IDX 5 27 14 28 6 29 12 30 7 31 10 32 15 33 13 35 8 37 9 38 11 40
REMARK H PARENT 21 20 23 22 32 24 29 26 15 34 13 36 9 39 11 41
REMARK Flexibility Score: inf
ROOT
ATOM      1  O   UNL     1      -2.811 -29.873 -52.997  1.00  0.00    -0.454 OA
ENDROOT
BRANCH   1   2
ATOM      2  C   UNL     1      -3.395 -28.605 -53.084  1.00  0.00     0.214 A 
ATOM      3  C   UNL     1      -4.644 -28.322 -52.494  1.00  0.00     0.180 A 
ATOM      4  O   UNL     1      -5.197 -27.125 -52.667  1.00  0.00    -0.452 OA
ATOM      5  C   UNL     1      -2.731 -27.594 -53.788  1.00  0.00     0.239 A 
ATOM      6  C   UNL     1      -4.615 -26.144 -53.350  1.00  0.00     0.146 A 
ATOM      7  O   UNL     1      -1.599 -27.835 -54.289  1.00  0.00    -0.285 OA
ATOM      8  C   UNL     1      -3.341 -26.333 -53.938  1.00  0.00     0.111 A 
ATOM      9  C   UNL     1      -5.275 -24.919 -53.477  1.00  0.00     0.094 A 
ATOM     10  C   UNL     1      -2.747 -25.266 -54.652  1.00  0.00     0.134 A 
ATOM     11  C   UNL     1      -4.685 -23.868 -54.182  1.00  0.00     0.123 A 
ATOM     12  C   UNL     1      -3.425 -24.042 -54.767  1.00  0.00     0.093 A 
BRANCH   3  13
ATOM     13  C   UNL     1      -5.375 -29.317 -51.676  1.00  0.00     0.025 A 
ATOM     14  C   UNL     1      -5.402 -30.675 -52.031  1.00  0.00     0.016 A 
ATOM     15  C   UNL     1      -6.097 -31.594 -51.245  1.00  0.00     0.051 A 
ATOM     16  C   UNL     1      -6.762 -31.184 -50.085  1.00  0.00     0.157 A 
ATOM     17  C   UNL     1      -6.022 -28.905 -50.502  1.00  0.00     0.062 A 
ATOM     18  C   UNL     1      -6.720 -29.821 -49.706  1.00  0.00     0.158 A 
BRANCH  16  19
ATOM     19  O   UNL     1      -7.443 -32.153 -49.345  1.00  0.00    -0.504 OA
ATOM     20  H   UNL     1      -7.999 -32.889 -49.755  1.00  0.00     0.293 HD
ENDBRANCH  16  19
BRANCH  18  21
ATOM     21  O   UNL     1      -7.353 -29.338 -48.558  1.00  0.00    -0.504 OA
ATOM     22  H   UNL     1      -6.965 -29.407 -47.628  1.00  0.00     0.293 HD
ENDBRANCH  18  21
ENDBRANCH   3  13
BRANCH  10  23
ATOM     23  O   UNL     1      -1.494 -25.410 -55.248  1.00  0.00    -0.507 OA
ATOM     24  H   UNL     1      -0.642 -25.139 -54.772  1.00  0.00     0.293 HD
ENDBRANCH  10  23
BRANCH  11  25
ATOM     25  O   UNL     1      -5.359 -22.655 -54.297  1.00  0.00    -0.508 OA
ATOM     26  H   UNL     1      -5.672 -22.305 -55.195  1.00  0.00     0.293 HD
ENDBRANCH  11  25
ENDBRANCH   1   2
BRANCH   1  27
ATOM     27  C   UNL     1      -1.846 -30.198 -51.995  1.00  0.00     0.339 C 
ATOM     28  C   UNL     1      -0.417 -30.282 -52.611  1.00  0.00     0.214 C 
ATOM     29  O   UNL     1      -2.246 -31.376 -51.303  1.00  0.00    -0.332 OA
ATOM     30  C   UNL     1       0.401 -31.363 -51.888  1.00  0.00     0.180 C 
ATOM     31  C   UNL     1      -1.867 -32.537 -52.016  1.00  0.00     0.179 C 
ATOM     32  C   UNL     1      -0.328 -32.733 -51.912  1.00  0.00     0.177 C 
BRANCH  28  33
ATOM     33  O   UNL     1      -0.476 -30.584 -53.984  1.00  0.00    -0.384 OA
ATOM     34  H   UNL     1      -1.080 -31.365 -54.083  1.00  0.00     0.211 HD
ENDBRANCH  28  33
BRANCH  30  35
ATOM     35  O   UNL     1       1.668 -31.471 -52.485  1.00  0.00    -0.387 OA
ATOM     36  H   UNL     1       2.301 -31.737 -51.767  1.00  0.00     0.211 HD
ENDBRANCH  30  35
BRANCH  31  37
ATOM     37  C   UNL     1      -2.672 -33.736 -51.490  1.00  0.00     0.191 C 
BRANCH  37  38
ATOM     38  O   UNL     1      -2.877 -33.627 -50.106  1.00  0.00    -0.394 OA
ATOM     39  H   UNL     1      -3.715 -33.110 -49.979  1.00  0.00     0.210 HD
ENDBRANCH  37  38
ENDBRANCH  31  37
BRANCH  32  40
ATOM     40  O   UNL     1       0.003 -33.449 -50.747  1.00  0.00    -0.387 OA
ATOM     41  H   UNL     1      -0.236 -32.871 -49.977  1.00  0.00     0.211 HD
ENDBRANCH  32  40
ENDBRANCH   1  27
TORSDOF 12
ENDMDL
MODEL 6
REMARK VINA RESULT:    -7.848      2.538      8.310
REMARK INTER + INTRA:         -12.241
REMARK INTER:                 -10.524
REMARK INTRA:                  -1.717
REMARK UNBOUND:                -0.723
REMARK SMILES O=c1c(O[C@H]2O[C@H](CO)[C@H](O)[C@@H](O)[C@H]2O)c(-c2ccc(O)c(O)c2)oc2cc(O)cc(O)c12
REMARK SMILES IDX 4 1 3 2 16 3 25 4 2 5 26 6 1 7 33 8 27 9 31 10 28 11 30 12
REMARK SMILES IDX 17 13 18 14 19 15 20 16 24 17 22 18 21 19 23 21 32 23 29 25
REMARK SMILES IDX 5 27 14 28 6 29 12 30 7 31 10 32 15 33 13 35 8 37 9 38 11 40
REMARK H PARENT 21 20 23 22 32 24 29 26 15 34 13 36 9 39 11 41
REMARK Flexibility Score: inf
ROOT
ATOM      1  O   UNL     1      -3.051 -26.912 -54.264  1.00  0.00    -0.454 OA
ENDROOT
BRANCH   1   2
ATOM      2  C   UNL     1      -2.651 -27.987 -53.463  1.00  0.00     0.214 A 
ATOM      3  C   UNL     1      -1.355 -28.058 -52.912  1.00  0.00     0.180 A 
ATOM      4  O   UNL     1      -0.993 -29.135 -52.220  1.00  0.00    -0.452 OA
ATOM      5  C   UNL     1      -3.553 -29.027 -53.214  1.00  0.00     0.239 A 
ATOM      6  C   UNL     1      -1.808 -30.158 -51.982  1.00  0.00     0.146 A 
ATOM      7  O   UNL     1      -4.723 -28.951 -53.680  1.00  0.00    -0.285 OA
ATOM      8  C   UNL     1      -3.139 -30.146 -52.465  1.00  0.00     0.111 A 
ATOM      9  C   UNL     1      -1.336 -31.246 -51.243  1.00  0.00     0.094 A 
ATOM     10  C   UNL     1      -3.982 -31.247 -52.186  1.00  0.00     0.134 A 
ATOM     11  C   UNL     1      -2.172 -32.331 -50.972  1.00  0.00     0.123 A 
ATOM     12  C   UNL     1      -3.490 -32.330 -51.442  1.00  0.00     0.093 A 
BRANCH   3  13
ATOM     13  C   UNL     1      -0.367 -26.967 -53.072  1.00  0.00     0.025 A 
ATOM     14  C   UNL     1       0.526 -26.944 -54.154  1.00  0.00     0.016 A 
ATOM     15  C   UNL     1       1.449 -25.905 -54.285  1.00  0.00     0.051 A 
ATOM     16  C   UNL     1       1.487 -24.863 -53.352  1.00  0.00     0.157 A 
ATOM     17  C   UNL     1      -0.346 -25.913 -52.147  1.00  0.00     0.062 A 
ATOM     18  C   UNL     1       0.574 -24.864 -52.271  1.00  0.00     0.158 A 
BRANCH  16  19
ATOM     19  O   UNL     1       2.437 -23.856 -53.538  1.00  0.00    -0.504 OA
ATOM     20  H   UNL     1       2.639 -23.138 -52.857  1.00  0.00     0.293 HD
ENDBRANCH  16  19
BRANCH  18  21
ATOM     21  O   UNL     1       0.548 -23.855 -51.306  1.00  0.00    -0.504 OA
ATOM     22  H   UNL     1      -0.268 -23.615 -50.762  1.00  0.00     0.293 HD
ENDBRANCH  18  21
ENDBRANCH   3  13
BRANCH  10  23
ATOM     23  O   UNL     1      -5.300 -31.276 -52.644  1.00  0.00    -0.507 OA
ATOM     24  H   UNL     1      -5.813 -32.144 -52.739  1.00  0.00     0.293 HD
ENDBRANCH  10  23
BRANCH  11  25
ATOM     25  O   UNL     1      -1.683 -33.406 -50.233  1.00  0.00    -0.508 OA
ATOM     26  H   UNL     1      -0.690 -33.525 -50.065  1.00  0.00     0.293 HD
ENDBRANCH  11  25
ENDBRANCH   1   2
BRANCH   1  27
ATOM     27  C   UNL     1      -3.914 -25.883 -53.778  1.00  0.00     0.339 C 
ATOM     28  C   UNL     1      -5.089 -25.633 -54.772  1.00  0.00     0.214 C 
ATOM     29  O   UNL     1      -3.154 -24.717 -53.479  1.00  0.00    -0.332 OA
ATOM     30  C   UNL     1      -5.471 -24.145 -54.765  1.00  0.00     0.180 C 
ATOM     31  C   UNL     1      -2.925 -23.947 -54.643  1.00  0.00     0.179 C 
ATOM     32  C   UNL     1      -4.245 -23.246 -55.073  1.00  0.00     0.177 C 
BRANCH  28  33
ATOM     33  O   UNL     1      -4.736 -26.018 -56.079  1.00  0.00    -0.384 OA
ATOM     34  H   UNL     1      -3.753 -26.154 -56.084  1.00  0.00     0.211 HD
ENDBRANCH  28  33
BRANCH  30  35
ATOM     35  O   UNL     1      -6.493 -23.919 -55.702  1.00  0.00    -0.387 OA
ATOM     36  H   UNL     1      -7.093 -24.710 -55.670  1.00  0.00     0.211 HD
ENDBRANCH  30  35
BRANCH  31  37
ATOM     37  C   UNL     1      -1.771 -22.968 -54.379  1.00  0.00     0.191 C 
BRANCH  37  38
ATOM     38  O   UNL     1      -1.782 -22.536 -53.045  1.00  0.00    -0.394 OA
ATOM     39  H   UNL     1      -2.532 -23.006 -52.595  1.00  0.00     0.210 HD
ENDBRANCH  37  38
ENDBRANCH  31  37
BRANCH  32  40
ATOM     40  O   UNL     1      -4.395 -22.019 -54.400  1.00  0.00    -0.387 OA
ATOM     41  H   UNL     1      -4.489 -21.319 -55.097  1.00  0.00     0.211 HD
ENDBRANCH  32  40
ENDBRANCH   1  27
TORSDOF 12
ENDMDL
MODEL 7
REMARK VINA RESULT:    -7.746      2.974      8.855
REMARK INTER + INTRA:         -12.092
REMARK INTER:                 -10.829
REMARK INTRA:                  -1.263
REMARK UNBOUND:                -0.723
REMARK SMILES O=c1c(O[C@H]2O[C@H](CO)[C@H](O)[C@@H](O)[C@H]2O)c(-c2ccc(O)c(O)c2)oc2cc(O)cc(O)c12
REMARK SMILES IDX 4 1 3 2 16 3 25 4 2 5 26 6 1 7 33 8 27 9 31 10 28 11 30 12
REMARK SMILES IDX 17 13 18 14 19 15 20 16 24 17 22 18 21 19 23 21 32 23 29 25
REMARK SMILES IDX 5 27 14 28 6 29 12 30 7 31 10 32 15 33 13 35 8 37 9 38 11 40
REMARK H PARENT 21 20 23 22 32 24 29 26 15 34 13 36 9 39 11 41
REMARK Flexibility Score: inf
ROOT
ATOM      1  O   UNL     1      -2.221 -25.919 -53.365  1.00  0.00    -0.454 OA
ENDROOT
BRANCH   1   2
ATOM      2  C   UNL     1      -1.663 -27.142 -52.978  1.00  0.00     0.214 A 
ATOM      3  C   UNL     1      -0.270 -27.308 -52.835  1.00  0.00     0.180 A 
ATOM      4  O   UNL     1       0.222 -28.509 -52.539  1.00  0.00    -0.452 OA
ATOM      5  C   UNL     1      -2.506 -28.233 -52.741  1.00  0.00     0.239 A 
ATOM      6  C   UNL     1      -0.539 -29.579 -52.333  1.00  0.00     0.146 A 
ATOM      7  O   UNL     1      -3.754 -28.078 -52.837  1.00  0.00    -0.285 OA
ATOM      8  C   UNL     1      -1.949 -29.486 -52.416  1.00  0.00     0.111 A 
ATOM      9  C   UNL     1       0.070 -30.798 -52.026  1.00  0.00     0.094 A 
ATOM     10  C   UNL     1      -2.730 -30.643 -52.182  1.00  0.00     0.134 A 
ATOM     11  C   UNL     1      -0.704 -31.937 -51.797  1.00  0.00     0.123 A 
ATOM     12  C   UNL     1      -2.100 -31.858 -51.875  1.00  0.00     0.093 A 
BRANCH   3  13
ATOM     13  C   UNL     1       0.681 -26.186 -53.000  1.00  0.00     0.025 A 
ATOM     14  C   UNL     1       1.473 -26.063 -54.153  1.00  0.00     0.016 A 
ATOM     15  C   UNL     1       2.362 -24.997 -54.287  1.00  0.00     0.051 A 
ATOM     16  C   UNL     1       2.468 -24.025 -53.286  1.00  0.00     0.157 A 
ATOM     17  C   UNL     1       0.769 -25.202 -52.005  1.00  0.00     0.062 A 
ATOM     18  C   UNL     1       1.657 -24.126 -52.131  1.00  0.00     0.158 A 
BRANCH  16  19
ATOM     19  O   UNL     1       3.381 -22.985 -53.480  1.00  0.00    -0.504 OA
ATOM     20  H   UNL     1       3.539 -22.531 -54.368  1.00  0.00     0.293 HD
ENDBRANCH  16  19
BRANCH  18  21
ATOM     21  O   UNL     1       1.701 -23.191 -51.095  1.00  0.00    -0.504 OA
ATOM     22  H   UNL     1       1.318 -23.349 -50.175  1.00  0.00     0.293 HD
ENDBRANCH  18  21
ENDBRANCH   3  13
BRANCH  10  23
ATOM     23  O   UNL     1      -4.123 -30.595 -52.255  1.00  0.00    -0.507 OA
ATOM     24  H   UNL     1      -4.613 -30.657 -53.140  1.00  0.00     0.293 HD
ENDBRANCH  10  23
BRANCH  11  25
ATOM     25  O   UNL     1      -0.077 -33.143 -51.493  1.00  0.00    -0.508 OA
ATOM     26  H   UNL     1       0.483 -33.637 -52.178  1.00  0.00     0.293 HD
ENDBRANCH  11  25
ENDBRANCH   1   2
BRANCH   1  27
ATOM     27  C   UNL     1      -2.679 -25.681 -54.697  1.00  0.00     0.339 C 
ATOM     28  C   UNL     1      -1.787 -24.618 -55.406  1.00  0.00     0.214 C 
ATOM     29  O   UNL     1      -4.065 -25.351 -54.678  1.00  0.00    -0.332 OA
ATOM     30  C   UNL     1      -2.642 -23.770 -56.360  1.00  0.00     0.180 C 
ATOM     31  C   UNL     1      -4.256 -23.980 -54.389  1.00  0.00     0.179 C 
ATOM     32  C   UNL     1      -3.842 -23.124 -55.619  1.00  0.00     0.177 C 
BRANCH  28  33
ATOM     33  O   UNL     1      -1.162 -23.776 -54.469  1.00  0.00    -0.384 OA
ATOM     34  H   UNL     1      -0.523 -23.207 -54.972  1.00  0.00     0.211 HD
ENDBRANCH  28  33
BRANCH  30  35
ATOM     35  O   UNL     1      -1.843 -22.780 -56.954  1.00  0.00    -0.387 OA
ATOM     36  H   UNL     1      -1.731 -23.035 -57.908  1.00  0.00     0.211 HD
ENDBRANCH  30  35
BRANCH  31  37
ATOM     37  C   UNL     1      -5.713 -23.758 -53.952  1.00  0.00     0.191 C 
BRANCH  37  38
ATOM     38  O   UNL     1      -5.776 -22.866 -52.871  1.00  0.00    -0.394 OA
ATOM     39  H   UNL     1      -6.388 -22.132 -53.137  1.00  0.00     0.210 HD
ENDBRANCH  37  38
ENDBRANCH  31  37
BRANCH  32  40
ATOM     40  O   UNL     1      -4.919 -22.993 -56.515  1.00  0.00    -0.387 OA
ATOM     41  H   UNL     1      -4.978 -23.845 -57.021  1.00  0.00     0.211 HD
ENDBRANCH  32  40
ENDBRANCH   1  27
TORSDOF 12
ENDMDL
MODEL 8
REMARK VINA RESULT:    -7.558      2.348      7.015
REMARK INTER + INTRA:         -11.816
REMARK INTER:                 -10.266
REMARK INTRA:                  -1.550
REMARK UNBOUND:                -0.723
REMARK SMILES O=c1c(O[C@H]2O[C@H](CO)[C@H](O)[C@@H](O)[C@H]2O)c(-c2ccc(O)c(O)c2)oc2cc(O)cc(O)c12
REMARK SMILES IDX 4 1 3 2 16 3 25 4 2 5 26 6 1 7 33 8 27 9 31 10 28 11 30 12
REMARK SMILES IDX 17 13 18 14 19 15 20 16 24 17 22 18 21 19 23 21 32 23 29 25
REMARK SMILES IDX 5 27 14 28 6 29 12 30 7 31 10 32 15 33 13 35 8 37 9 38 11 40
REMARK H PARENT 21 20 23 22 32 24 29 26 15 34 13 36 9 39 11 41
REMARK Flexibility Score: inf
ROOT
ATOM      1  O   UNL     1      -1.900 -26.860 -54.032  1.00  0.00    -0.454 OA
ENDROOT
BRANCH   1   2
ATOM      2  C   UNL     1      -2.827 -27.785 -53.541  1.00  0.00     0.214 A 
ATOM      3  C   UNL     1      -4.213 -27.524 -53.555  1.00  0.00     0.180 A 
ATOM      4  O   UNL     1      -5.052 -28.400 -53.009  1.00  0.00    -0.452 OA
ATOM      5  C   UNL     1      -2.369 -28.994 -53.007  1.00  0.00     0.239 A 
ATOM      6  C   UNL     1      -4.659 -29.547 -52.466  1.00  0.00     0.146 A 
ATOM      7  O   UNL     1      -1.132 -29.244 -53.022  1.00  0.00    -0.285 OA
ATOM      8  C   UNL     1      -3.289 -29.904 -52.449  1.00  0.00     0.111 A 
ATOM      9  C   UNL     1      -5.617 -30.403 -51.916  1.00  0.00     0.094 A 
ATOM     10  C   UNL     1      -2.905 -31.137 -51.871  1.00  0.00     0.134 A 
ATOM     11  C   UNL     1      -5.233 -31.619 -51.346  1.00  0.00     0.123 A 
ATOM     12  C   UNL     1      -3.882 -31.983 -51.324  1.00  0.00     0.093 A 
BRANCH   3  13
ATOM     13  C   UNL     1      -4.780 -26.300 -54.166  1.00  0.00     0.025 A 
ATOM     14  C   UNL     1      -5.065 -26.233 -55.538  1.00  0.00     0.016 A 
ATOM     15  C   UNL     1      -5.599 -25.069 -56.092  1.00  0.00     0.051 A 
ATOM     16  C   UNL     1      -5.876 -23.958 -55.288  1.00  0.00     0.157 A 
ATOM     17  C   UNL     1      -5.076 -25.196 -53.353  1.00  0.00     0.062 A 
ATOM     18  C   UNL     1      -5.615 -24.024 -53.899  1.00  0.00     0.158 A 
BRANCH  16  19
ATOM     19  O   UNL     1      -6.406 -22.822 -55.904  1.00  0.00    -0.504 OA
ATOM     20  H   UNL     1      -5.847 -22.058 -56.254  1.00  0.00     0.293 HD
ENDBRANCH  16  19
BRANCH  18  21
ATOM     21  O   UNL     1      -5.872 -22.959 -53.032  1.00  0.00    -0.504 OA
ATOM     22  H   UNL     1      -5.187 -22.562 -52.407  1.00  0.00     0.293 HD
ENDBRANCH  18  21
ENDBRANCH   3  13
BRANCH  10  23
ATOM     23  O   UNL     1      -1.566 -31.525 -51.832  1.00  0.00    -0.507 OA
ATOM     24  H   UNL     1      -1.041 -31.545 -50.966  1.00  0.00     0.293 HD
ENDBRANCH  10  23
BRANCH  11  25
ATOM     25  O   UNL     1      -6.203 -32.458 -50.803  1.00  0.00    -0.508 OA
ATOM     26  H   UNL     1      -6.601 -33.223 -51.337  1.00  0.00     0.293 HD
ENDBRANCH  11  25
ENDBRANCH   1   2
BRANCH   1  27
ATOM     27  C   UNL     1      -1.210 -25.948 -53.176  1.00  0.00     0.339 C 
ATOM     28  C   UNL     1      -1.500 -24.474 -53.591  1.00  0.00     0.214 C 
ATOM     29  O   UNL     1       0.176 -26.275 -53.140  1.00  0.00    -0.332 OA
ATOM     30  C   UNL     1      -0.258 -23.606 -53.338  1.00  0.00     0.180 C 
ATOM     31  C   UNL     1       0.858 -25.719 -54.247  1.00  0.00     0.179 C 
ATOM     32  C   UNL     1       0.989 -24.182 -54.061  1.00  0.00     0.177 C 
BRANCH  28  33
ATOM     33  O   UNL     1      -1.857 -24.392 -54.949  1.00  0.00    -0.384 OA
ATOM     34  H   UNL     1      -2.542 -23.677 -55.025  1.00  0.00     0.211 HD
ENDBRANCH  28  33
BRANCH  30  35
ATOM     35  O   UNL     1      -0.508 -22.292 -53.765  1.00  0.00    -0.387 OA
ATOM     36  H   UNL     1       0.375 -21.841 -53.840  1.00  0.00     0.211 HD
ENDBRANCH  30  35
BRANCH  31  37
ATOM     37  C   UNL     1       2.208 -26.432 -54.414  1.00  0.00     0.191 C 
BRANCH  37  38
ATOM     38  O   UNL     1       3.011 -25.763 -55.350  1.00  0.00    -0.394 OA
ATOM     39  H   UNL     1       3.676 -26.420 -55.683  1.00  0.00     0.210 HD
ENDBRANCH  37  38
ENDBRANCH  31  37
BRANCH  32  40
ATOM     40  O   UNL     1       2.138 -23.871 -53.311  1.00  0.00    -0.387 OA
ATOM     41  H   UNL     1       1.883 -23.150 -52.679  1.00  0.00     0.211 HD
ENDBRANCH  32  40
ENDBRANCH   1  27
TORSDOF 12
ENDMDL
MODEL 9
REMARK VINA RESULT:    -7.421      2.529      7.359
REMARK INTER + INTRA:         -11.614
REMARK INTER:                 -10.020
REMARK INTRA:                  -1.594
REMARK UNBOUND:                -0.723
REMARK SMILES O=c1c(O[C@H]2O[C@H](CO)[C@H](O)[C@@H](O)[C@H]2O)c(-c2ccc(O)c(O)c2)oc2cc(O)cc(O)c12
REMARK SMILES IDX 4 1 3 2 16 3 25 4 2 5 26 6 1 7 33 8 27 9 31 10 28 11 30 12
REMARK SMILES IDX 17 13 18 14 19 15 20 16 24 17 22 18 21 19 23 21 32 23 29 25
REMARK SMILES IDX 5 27 14 28 6 29 12 30 7 31 10 32 15 33 13 35 8 37 9 38 11 40
REMARK H PARENT 21 20 23 22 32 24 29 26 15 34 13 36 9 39 11 41
REMARK Flexibility Score: inf
ROOT
ATOM      1  O   UNL     1      -1.955 -26.118 -53.501  1.00  0.00    -0.454 OA
ENDROOT
BRANCH   1   2
ATOM      2  C   UNL     1      -2.763 -27.255 -53.396  1.00  0.00     0.214 A 
ATOM      3  C   UNL     1      -4.127 -27.231 -53.754  1.00  0.00     0.180 A 
ATOM      4  O   UNL     1      -4.875 -28.314 -53.567  1.00  0.00    -0.452 OA
ATOM      5  C   UNL     1      -2.209 -28.445 -52.910  1.00  0.00     0.239 A 
ATOM      6  C   UNL     1      -4.398 -29.456 -53.082  1.00  0.00     0.146 A 
ATOM      7  O   UNL     1      -0.982 -28.478 -52.619  1.00  0.00    -0.285 OA
ATOM      8  C   UNL     1      -3.030 -29.577 -52.738  1.00  0.00     0.111 A 
ATOM      9  C   UNL     1      -5.264 -30.541 -52.921  1.00  0.00     0.094 A 
ATOM     10  C   UNL     1      -2.553 -30.809 -52.233  1.00  0.00     0.134 A 
ATOM     11  C   UNL     1      -4.789 -31.755 -52.422  1.00  0.00     0.123 A 
ATOM     12  C   UNL     1      -3.438 -31.888 -52.079  1.00  0.00     0.093 A 
BRANCH   3  13
ATOM     13  C   UNL     1      -4.768 -26.032 -54.341  1.00  0.00     0.025 A 
ATOM     14  C   UNL     1      -5.241 -26.030 -55.663  1.00  0.00     0.016 A 
ATOM     15  C   UNL     1      -5.841 -24.889 -56.195  1.00  0.00     0.051 A 
ATOM     16  C   UNL     1      -5.999 -23.736 -55.418  1.00  0.00     0.157 A 
ATOM     17  C   UNL     1      -4.943 -24.886 -53.552  1.00  0.00     0.062 A 
ATOM     18  C   UNL     1      -5.548 -23.736 -54.077  1.00  0.00     0.158 A 
BRANCH  16  19
ATOM     19  O   UNL     1      -6.604 -22.626 -56.011  1.00  0.00    -0.504 OA
ATOM     20  H   UNL     1      -7.603 -22.516 -56.114  1.00  0.00     0.293 HD
ENDBRANCH  16  19
BRANCH  18  21
ATOM     21  O   UNL     1      -5.677 -22.627 -53.238  1.00  0.00    -0.504 OA
ATOM     22  H   UNL     1      -5.440 -22.629 -52.257  1.00  0.00     0.293 HD
ENDBRANCH  18  21
ENDBRANCH   3  13
BRANCH  10  23
ATOM     23  O   UNL     1      -1.213 -30.970 -51.880  1.00  0.00    -0.507 OA
ATOM     24  H   UNL     1      -0.494 -30.338 -52.211  1.00  0.00     0.293 HD
ENDBRANCH  10  23
BRANCH  11  25
ATOM     25  O   UNL     1      -5.668 -32.825 -52.269  1.00  0.00    -0.508 OA
ATOM     26  H   UNL     1      -6.636 -32.682 -52.004  1.00  0.00     0.293 HD
ENDBRANCH  11  25
ENDBRANCH   1   2
BRANCH   1  27
ATOM     27  C   UNL     1      -1.411 -25.685 -54.749  1.00  0.00     0.339 C 
ATOM     28  C   UNL     1       0.106 -26.029 -54.839  1.00  0.00     0.214 C 
ATOM     29  O   UNL     1      -1.702 -24.306 -54.950  1.00  0.00    -0.332 OA
ATOM     30  C   UNL     1       0.843 -24.941 -55.634  1.00  0.00     0.180 C 
ATOM     31  C   UNL     1      -0.765 -23.486 -54.280  1.00  0.00     0.179 C 
ATOM     32  C   UNL     1       0.598 -23.534 -55.027  1.00  0.00     0.177 C 
BRANCH  28  33
ATOM     33  O   UNL     1       0.677 -26.136 -53.557  1.00  0.00    -0.384 OA
ATOM     34  H   UNL     1       1.611 -26.447 -53.682  1.00  0.00     0.211 HD
ENDBRANCH  28  33
BRANCH  30  35
ATOM     35  O   UNL     1       2.217 -25.229 -55.664  1.00  0.00    -0.387 OA
ATOM     36  H   UNL     1       2.303 -26.219 -55.638  1.00  0.00     0.211 HD
ENDBRANCH  30  35
BRANCH  31  37
ATOM     37  C   UNL     1      -1.340 -22.067 -54.150  1.00  0.00     0.191 C 
BRANCH  37  38
ATOM     38  O   UNL     1      -2.615 -22.100 -53.565  1.00  0.00    -0.394 OA
ATOM     39  H   UNL     1      -3.270 -22.192 -54.305  1.00  0.00     0.210 HD
ENDBRANCH  37  38
ENDBRANCH  31  37
BRANCH  32  40
ATOM     40  O   UNL     1       0.632 -22.577 -56.057  1.00  0.00    -0.387 OA
ATOM     41  H   UNL     1       0.182 -21.764 -55.709  1.00  0.00     0.211 HD
ENDBRANCH  32  40
ENDBRANCH   1  27
TORSDOF 12
ENDMDL
