MODEL 1
REMARK VINA RESULT:    -3.409      0.000      0.000
REMARK INTER + INTRA:          -3.409
REMARK INTER:                  -3.409
REMARK INTRA:                   0.000
REMARK UNBOUND:                 0.000
REMARK SMILES CC1(C)C(=O)[C@]2(C)CC[C@H]1C2
REMARK SMILES IDX 1 1 2 2 10 3 9 4 8 5 6 6 11 7 4 8 5 9 7 10 3 11
REMARK H PARENT
REMARK Flexibility Score: inf
ROOT
ATOM      1  C   UNL     1     109.981 107.390 103.875  1.00  0.00     0.020 C 
ATOM      2  C   UNL     1     110.429 108.248 105.078  1.00  0.00     0.027 C 
ATOM      3  C   UNL     1     111.916 108.007 105.524  1.00  0.00     0.003 C 
ATOM      4  C   UNL     1     112.877 108.044 104.309  1.00  0.00     0.005 C 
ATOM      5  C   UNL     1     112.836 109.526 103.875  1.00  0.00     0.015 C 
ATOM      6  C   UNL     1     111.940 110.167 104.953  1.00  0.00     0.027 C 
ATOM      7  C   UNL     1     112.291 109.339 106.172  1.00  0.00     0.019 C 
ATOM      8  C   UNL     1     110.531 109.700 104.711  1.00  0.00     0.144 C 
ATOM      9  O   UNL     1     109.634 110.371 104.222  1.00  0.00    -0.298 OA
ATOM     10  C   UNL     1     112.108 111.677 105.133  1.00  0.00     0.020 C 
ATOM     11  C   UNL     1     109.443 108.035 106.247  1.00  0.00     0.020 C 
ENDROOT
TORSDOF 0
ENDMDL
MODEL 2
REMARK VINA RESULT:    -3.404      1.725      3.276
REMARK INTER + INTRA:          -3.404
REMARK INTER:                  -3.404
REMARK INTRA:                   0.000
REMARK UNBOUND:                 0.000
REMARK SMILES CC1(C)C(=O)[C@]2(C)CC[C@H]1C2
REMARK SMILES IDX 1 1 2 2 10 3 9 4 8 5 6 6 11 7 4 8 5 9 7 10 3 11
REMARK H PARENT
REMARK Flexibility Score: inf
ROOT
ATOM      1  C   UNL     1     112.751 110.001 103.875  1.00  0.00     0.020 C 
ATOM      2  C   UNL     1     111.852 110.435 105.053  1.00  0.00     0.027 C 
ATOM      3  C   UNL     1     112.112 111.899 105.558  1.00  0.00     0.003 C 
ATOM      4  C   UNL     1     112.155 112.900 104.375  1.00  0.00     0.005 C 
ATOM      5  C   UNL     1     110.693 112.912 103.875  1.00  0.00     0.015 C 
ATOM      6  C   UNL     1     109.981 112.001 104.894  1.00  0.00     0.027 C 
ATOM      7  C   UNL     1     110.762 112.291 106.159  1.00  0.00     0.019 C 
ATOM      8  C   UNL     1     110.421 110.588 104.626  1.00  0.00     0.144 C 
ATOM      9  O   UNL     1     109.749 109.726 104.080  1.00  0.00    -0.298 OA
ATOM     10  C   UNL     1     108.469 112.205 105.013  1.00  0.00     0.020 C 
ATOM     11  C   UNL     1     111.987 109.407 106.197  1.00  0.00     0.020 C 
ENDROOT
TORSDOF 0
ENDMDL
MODEL 3
REMARK VINA RESULT:    -3.361      1.738      3.266
REMARK INTER + INTRA:          -3.361
REMARK INTER:                  -3.361
REMARK INTRA:                   0.000
REMARK UNBOUND:                 0.000
REMARK SMILES CC1(C)C(=O)[C@]2(C)CC[C@H]1C2
REMARK SMILES IDX 1 1 2 2 10 3 9 4 8 5 6 6 11 7 4 8 5 9 7 10 3 11
REMARK H PARENT
REMARK Flexibility Score: inf
ROOT
ATOM      1  C   UNL     1     107.391 110.266 103.875  1.00  0.00     0.020 C 
ATOM      2  C   UNL     1     108.350 109.874 105.019  1.00  0.00     0.027 C 
ATOM      3  C   UNL     1     108.115 108.430 105.592  1.00  0.00     0.003 C 
ATOM      4  C   UNL     1     108.006 107.386 104.452  1.00  0.00     0.005 C 
ATOM      5  C   UNL     1     109.439 107.348 103.876  1.00  0.00     0.015 C 
ATOM      6  C   UNL     1     110.207 108.294 104.819  1.00  0.00     0.027 C 
ATOM      7  C   UNL     1     109.494 108.056 106.135  1.00  0.00     0.019 C 
ATOM      8  C   UNL     1     109.756 109.698 104.522  1.00  0.00     0.144 C 
ATOM      9  O   UNL     1     110.400 110.536 103.908  1.00  0.00    -0.298 OA
ATOM     10  C   UNL     1     111.722 108.088 104.865  1.00  0.00     0.020 C 
ATOM     11  C   UNL     1     108.280 110.945 106.129  1.00  0.00     0.020 C 
ENDROOT
TORSDOF 0
ENDMDL
MODEL 4
REMARK VINA RESULT:    -3.207      2.710      3.824
REMARK INTER + INTRA:          -3.207
REMARK INTER:                  -3.207
REMARK INTRA:                   0.000
REMARK UNBOUND:                 0.000
REMARK SMILES CC1(C)C(=O)[C@]2(C)CC[C@H]1C2
REMARK SMILES IDX 1 1 2 2 10 3 9 4 8 5 6 6 11 7 4 8 5 9 7 10 3 11
REMARK H PARENT
REMARK Flexibility Score: inf
ROOT
ATOM      1  C   UNL     1     108.438 108.804 106.083  1.00  0.00     0.020 C 
ATOM      2  C   UNL     1     108.262 109.932 105.044  1.00  0.00     0.027 C 
ATOM      3  C   UNL     1     107.691 111.271 105.635  1.00  0.00     0.003 C 
ATOM      4  C   UNL     1     108.455 111.687 106.918  1.00  0.00     0.005 C 
ATOM      5  C   UNL     1     109.855 112.062 106.384  1.00  0.00     0.015 C 
ATOM      6  C   UNL     1     109.686 111.912 104.859  1.00  0.00     0.027 C 
ATOM      7  C   UNL     1     108.240 112.323 104.672  1.00  0.00     0.019 C 
ATOM      8  C   UNL     1     109.586 110.442 104.555  1.00  0.00     0.144 C 
ATOM      9  O   UNL     1     110.470 109.758 104.060  1.00  0.00    -0.298 OA
ATOM     10  C   UNL     1     110.689 112.691 104.007  1.00  0.00     0.020 C 
ATOM     11  C   UNL     1     107.397 109.412 103.875  1.00  0.00     0.020 C 
ENDROOT
TORSDOF 0
ENDMDL
MODEL 5
REMARK VINA RESULT:    -3.204      2.227      3.654
REMARK INTER + INTRA:          -3.204
REMARK INTER:                  -3.204
REMARK INTRA:                   0.000
REMARK UNBOUND:                 0.000
REMARK SMILES CC1(C)C(=O)[C@]2(C)CC[C@H]1C2
REMARK SMILES IDX 1 1 2 2 10 3 9 4 8 5 6 6 11 7 4 8 5 9 7 10 3 11
REMARK H PARENT
REMARK Flexibility Score: inf
ROOT
ATOM      1  C   UNL     1     108.019 109.509 106.986  1.00  0.00     0.020 C 
ATOM      2  C   UNL     1     108.295 108.265 106.114  1.00  0.00     0.027 C 
ATOM      3  C   UNL     1     107.787 108.389 104.633  1.00  0.00     0.003 C 
ATOM      4  C   UNL     1     108.229 109.733 104.000  1.00  0.00     0.005 C 
ATOM      5  C   UNL     1     109.761 109.573 103.875  1.00  0.00     0.015 C 
ATOM      6  C   UNL     1     109.988 108.126 104.355  1.00  0.00     0.027 C 
ATOM      7  C   UNL     1     108.722 107.445 103.877  1.00  0.00     0.019 C 
ATOM      8  C   UNL     1     109.762 108.098 105.841  1.00  0.00     0.144 C 
ATOM      9  O   UNL     1     110.637 108.028 106.691  1.00  0.00    -0.298 OA
ATOM     10  C   UNL     1     111.287 107.472 103.877  1.00  0.00     0.020 C 
ATOM     11  C   UNL     1     107.712 107.017 106.813  1.00  0.00     0.020 C 
ENDROOT
TORSDOF 0
ENDMDL
MODEL 6
REMARK VINA RESULT:    -3.202      1.792      3.436
REMARK INTER + INTRA:          -3.202
REMARK INTER:                  -3.202
REMARK INTRA:                   0.000
REMARK UNBOUND:                 0.000
REMARK SMILES CC1(C)C(=O)[C@]2(C)CC[C@H]1C2
REMARK SMILES IDX 1 1 2 2 10 3 9 4 8 5 6 6 11 7 4 8 5 9 7 10 3 11
REMARK H PARENT
REMARK Flexibility Score: inf
ROOT
ATOM      1  C   UNL     1     108.832 111.641 106.088  1.00  0.00     0.020 C 
ATOM      2  C   UNL     1     109.963 111.825 105.052  1.00  0.00     0.027 C 
ATOM      3  C   UNL     1     111.292 112.415 105.646  1.00  0.00     0.003 C 
ATOM      4  C   UNL     1     111.711 111.664 106.935  1.00  0.00     0.005 C 
ATOM      5  C   UNL     1     112.105 110.265 106.412  1.00  0.00     0.015 C 
ATOM      6  C   UNL     1     111.960 110.423 104.886  1.00  0.00     0.027 C 
ATOM      7  C   UNL     1     112.355 111.873 104.692  1.00  0.00     0.019 C 
ATOM      8  C   UNL     1     110.491 110.503 104.574  1.00  0.00     0.144 C 
ATOM      9  O   UNL     1     109.820 109.609 104.082  1.00  0.00    -0.298 OA
ATOM     10  C   UNL     1     112.755 109.424 104.043  1.00  0.00     0.020 C 
ATOM     11  C   UNL     1     109.438 112.676 103.876  1.00  0.00     0.020 C 
ENDROOT
TORSDOF 0
ENDMDL
MODEL 7
REMARK VINA RESULT:    -3.197      1.754      3.636
REMARK INTER + INTRA:          -3.197
REMARK INTER:                  -3.197
REMARK INTRA:                   0.000
REMARK UNBOUND:                 0.000
REMARK SMILES CC1(C)C(=O)[C@]2(C)CC[C@H]1C2
REMARK SMILES IDX 1 1 2 2 10 3 9 4 8 5 6 6 11 7 4 8 5 9 7 10 3 11
REMARK H PARENT
REMARK Flexibility Score: inf
ROOT
ATOM      1  C   UNL     1     111.302 108.582 106.030  1.00  0.00     0.020 C 
ATOM      2  C   UNL     1     110.170 108.343 105.008  1.00  0.00     0.027 C 
ATOM      3  C   UNL     1     108.842 107.784 105.634  1.00  0.00     0.003 C 
ATOM      4  C   UNL     1     108.424 108.603 106.882  1.00  0.00     0.005 C 
ATOM      5  C   UNL     1     108.029 109.972 106.285  1.00  0.00     0.015 C 
ATOM      6  C   UNL     1     108.172 109.733 104.769  1.00  0.00     0.027 C 
ATOM      7  C   UNL     1     107.777 108.275 104.654  1.00  0.00     0.019 C 
ATOM      8  C   UNL     1     109.641 109.637 104.460  1.00  0.00     0.144 C 
ATOM      9  O   UNL     1     110.311 110.504 103.920  1.00  0.00    -0.298 OA
ATOM     10  C   UNL     1     107.375 110.685 103.876  1.00  0.00     0.020 C 
ATOM     11  C   UNL     1     110.693 107.430 103.878  1.00  0.00     0.020 C 
ENDROOT
TORSDOF 0
ENDMDL
MODEL 8
REMARK VINA RESULT:    -3.185      0.813      3.227
REMARK INTER + INTRA:          -3.185
REMARK INTER:                  -3.185
REMARK INTRA:                   0.000
REMARK UNBOUND:                 0.000
REMARK SMILES CC1(C)C(=O)[C@]2(C)CC[C@H]1C2
REMARK SMILES IDX 1 1 2 2 10 3 9 4 8 5 6 6 11 7 4 8 5 9 7 10 3 11
REMARK H PARENT
REMARK Flexibility Score: inf
ROOT
ATOM      1  C   UNL     1     111.335 111.462 106.018  1.00  0.00     0.020 C 
ATOM      2  C   UNL     1     111.685 110.342 105.015  1.00  0.00     0.027 C 
ATOM      3  C   UNL     1     112.338 109.072 105.668  1.00  0.00     0.003 C 
ATOM      4  C   UNL     1     111.531 108.602 106.906  1.00  0.00     0.005 C 
ATOM      5  C   UNL     1     110.211 108.090 106.289  1.00  0.00     0.015 C 
ATOM      6  C   UNL     1     110.468 108.235 104.776  1.00  0.00     0.027 C 
ATOM      7  C   UNL     1     111.955 107.959 104.693  1.00  0.00     0.019 C 
ATOM      8  C   UNL     1     110.450 109.703 104.450  1.00  0.00     0.144 C 
ATOM      9  O   UNL     1     109.542 110.294 103.885  1.00  0.00    -0.298 OA
ATOM     10  C   UNL     1     109.601 107.353 103.875  1.00  0.00     0.020 C 
ATOM     11  C   UNL     1     112.574 110.925 103.895  1.00  0.00     0.020 C 
ENDROOT
TORSDOF 0
ENDMDL
