MODEL 1
REMARK VINA RESULT:    -5.667      0.000      0.000
REMARK INTER + INTRA:          -7.020
REMARK INTER:                  -6.826
REMARK INTRA:                  -0.193
REMARK UNBOUND:                -0.193
REMARK SMILES O=c1c(O)c(-c2ccc(O)c(O)c2)oc2cc(O)cc(O)c12
REMARK SMILES IDX 5 1 3 2 2 3 1 4 22 5 20 6 19 7 17 8 16 9 15 10 14 11 6 12
REMARK SMILES IDX 7 13 8 14 9 15 13 16 11 17 10 18 12 20 4 22 21 24 18 26
REMARK H PARENT 10 19 12 21 4 23 21 25 18 27
REMARK Flexibility Score: inf
ROOT
ATOM      1  C   UNL     1       2.448  -5.332   5.626  1.00  0.00     0.180 A 
ATOM      2  C   UNL     1       1.163  -5.835   5.356  1.00  0.00     0.208 A 
ATOM      3  C   UNL     1       1.038  -7.114   4.790  1.00  0.00     0.238 A 
ATOM      4  O   UNL     1      -0.113  -7.537   4.501  1.00  0.00    -0.285 OA
ATOM      5  C   UNL     1       2.195  -7.880   4.516  1.00  0.00     0.111 A 
ATOM      6  C   UNL     1       2.184  -9.203   3.981  1.00  0.00     0.134 A 
ATOM      7  C   UNL     1       3.393  -9.815   3.627  1.00  0.00     0.093 A 
ATOM      8  C   UNL     1       4.615  -9.179   3.852  1.00  0.00     0.123 A 
ATOM      9  C   UNL     1       4.640  -7.911   4.429  1.00  0.00     0.094 A 
ATOM     10  C   UNL     1       3.449  -7.259   4.757  1.00  0.00     0.146 A 
ATOM     11  O   UNL     1       3.517  -6.049   5.297  1.00  0.00    -0.452 OA
ENDROOT
BRANCH   1  12
ATOM     12  C   UNL     1       2.660  -4.004   6.244  1.00  0.00     0.025 A 
ATOM     13  C   UNL     1       2.226  -3.728   7.553  1.00  0.00     0.016 A 
ATOM     14  C   UNL     1       2.459  -2.474   8.125  1.00  0.00     0.051 A 
ATOM     15  C   UNL     1       3.139  -1.484   7.404  1.00  0.00     0.157 A 
ATOM     16  C   UNL     1       3.359  -3.013   5.533  1.00  0.00     0.062 A 
ATOM     17  C   UNL     1       3.592  -1.756   6.107  1.00  0.00     0.158 A 
BRANCH  15  18
ATOM     18  O   UNL     1       3.371  -0.233   7.970  1.00  0.00    -0.504 OA
ATOM     19  H   UNL     1       2.626   0.444   8.085  1.00  0.00     0.293 HD
ENDBRANCH  15  18
BRANCH  17  20
ATOM     20  O   UNL     1       4.275  -0.771   5.394  1.00  0.00    -0.504 OA
ATOM     21  H   UNL     1       4.992  -1.007   4.719  1.00  0.00     0.293 HD
ENDBRANCH  17  20
ENDBRANCH   1  12
BRANCH   2  22
ATOM     22  O   UNL     1       0.033  -5.053   5.614  1.00  0.00    -0.502 OA
ATOM     23  H   UNL     1      -0.579  -4.721   4.878  1.00  0.00     0.293 HD
ENDBRANCH   2  22
BRANCH   6  24
ATOM     24  O   UNL     1       1.024  -9.964   3.803  1.00  0.00    -0.507 OA
ATOM     25  H   UNL     1       0.709 -10.686   4.433  1.00  0.00     0.293 HD
ENDBRANCH   6  24
BRANCH   8  26
ATOM     26  O   UNL     1       5.815  -9.801   3.512  1.00  0.00    -0.508 OA
ATOM     27  H   UNL     1       6.709  -9.359   3.689  1.00  0.00     0.293 HD
ENDBRANCH   8  26
TORSDOF 6
ENDMDL
MODEL 2
REMARK VINA RESULT:    -5.590      3.138      4.816
REMARK INTER + INTRA:          -6.927
REMARK INTER:                  -6.639
REMARK INTRA:                  -0.287
REMARK UNBOUND:                -0.193
REMARK SMILES O=c1c(O)c(-c2ccc(O)c(O)c2)oc2cc(O)cc(O)c12
REMARK SMILES IDX 5 1 3 2 2 3 1 4 22 5 20 6 19 7 17 8 16 9 15 10 14 11 6 12
REMARK SMILES IDX 7 13 8 14 9 15 13 16 11 17 10 18 12 20 4 22 21 24 18 26
REMARK H PARENT 10 19 12 21 4 23 21 25 18 27
REMARK Flexibility Score: inf
ROOT
ATOM      1  C   UNL     1       4.964  -6.971   4.816  1.00  0.00     0.180 A 
ATOM      2  C   UNL     1       5.041  -8.253   4.242  1.00  0.00     0.208 A 
ATOM      3  C   UNL     1       3.852  -8.946   3.965  1.00  0.00     0.238 A 
ATOM      4  O   UNL     1       3.929 -10.114   3.501  1.00  0.00    -0.285 OA
ATOM      5  C   UNL     1       2.603  -8.346   4.249  1.00  0.00     0.111 A 
ATOM      6  C   UNL     1       1.335  -8.941   3.972  1.00  0.00     0.134 A 
ATOM      7  C   UNL     1       0.166  -8.312   4.416  1.00  0.00     0.093 A 
ATOM      8  C   UNL     1       0.213  -7.078   5.067  1.00  0.00     0.123 A 
ATOM      9  C   UNL     1       1.442  -6.460   5.290  1.00  0.00     0.094 A 
ATOM     10  C   UNL     1       2.629  -7.080   4.892  1.00  0.00     0.146 A 
ATOM     11  O   UNL     1       3.779  -6.462   5.132  1.00  0.00    -0.452 OA
ENDROOT
BRANCH   1  12
ATOM     12  C   UNL     1       6.171  -6.168   5.114  1.00  0.00     0.025 A 
ATOM     13  C   UNL     1       6.702  -6.098   6.415  1.00  0.00     0.016 A 
ATOM     14  C   UNL     1       7.857  -5.353   6.668  1.00  0.00     0.051 A 
ATOM     15  C   UNL     1       8.505  -4.679   5.625  1.00  0.00     0.157 A 
ATOM     16  C   UNL     1       6.838  -5.506   4.069  1.00  0.00     0.062 A 
ATOM     17  C   UNL     1       7.996  -4.759   4.323  1.00  0.00     0.158 A 
BRANCH  15  18
ATOM     18  O   UNL     1       9.656  -3.934   5.875  1.00  0.00    -0.504 OA
ATOM     19  H   UNL     1      10.531  -4.377   6.129  1.00  0.00     0.293 HD
ENDBRANCH  15  18
BRANCH  17  20
ATOM     20  O   UNL     1       8.649  -4.093   3.286  1.00  0.00    -0.504 OA
ATOM     21  H   UNL     1       9.598  -4.327   3.021  1.00  0.00     0.293 HD
ENDBRANCH  17  20
ENDBRANCH   1  12
BRANCH   2  22
ATOM     22  O   UNL     1       6.286  -8.836   3.989  1.00  0.00    -0.502 OA
ATOM     23  H   UNL     1       7.139  -8.505   4.423  1.00  0.00     0.293 HD
ENDBRANCH   2  22
BRANCH   6  24
ATOM     24  O   UNL     1       1.171 -10.125   3.247  1.00  0.00    -0.507 OA
ATOM     25  H   UNL     1       1.412 -11.044   3.585  1.00  0.00     0.293 HD
ENDBRANCH   6  24
BRANCH   8  26
ATOM     26  O   UNL     1      -0.956  -6.451   5.492  1.00  0.00    -0.508 OA
ATOM     27  H   UNL     1      -1.725  -6.978   5.890  1.00  0.00     0.293 HD
ENDBRANCH   8  26
TORSDOF 6
ENDMDL
MODEL 3
REMARK VINA RESULT:    -5.472      3.822      5.311
REMARK INTER + INTRA:          -6.784
REMARK INTER:                  -6.705
REMARK INTRA:                  -0.079
REMARK UNBOUND:                -0.193
REMARK SMILES O=c1c(O)c(-c2ccc(O)c(O)c2)oc2cc(O)cc(O)c12
REMARK SMILES IDX 5 1 3 2 2 3 1 4 22 5 20 6 19 7 17 8 16 9 15 10 14 11 6 12
REMARK SMILES IDX 7 13 8 14 9 15 13 16 11 17 10 18 12 20 4 22 21 24 18 26
REMARK H PARENT 10 19 12 21 4 23 21 25 18 27
REMARK Flexibility Score: inf
ROOT
ATOM      1  C   UNL     1      -1.041  -4.692   6.467  1.00  0.00     0.180 A 
ATOM      2  C   UNL     1       0.200  -4.094   6.746  1.00  0.00     0.208 A 
ATOM      3  C   UNL     1       1.375  -4.738   6.328  1.00  0.00     0.238 A 
ATOM      4  O   UNL     1       2.485  -4.225   6.628  1.00  0.00    -0.285 OA
ATOM      5  C   UNL     1       1.295  -5.963   5.623  1.00  0.00     0.111 A 
ATOM      6  C   UNL     1       2.419  -6.682   5.117  1.00  0.00     0.134 A 
ATOM      7  C   UNL     1       2.231  -7.948   4.549  1.00  0.00     0.093 A 
ATOM      8  C   UNL     1       0.952  -8.492   4.409  1.00  0.00     0.123 A 
ATOM      9  C   UNL     1      -0.158  -7.771   4.846  1.00  0.00     0.094 A 
ATOM     10  C   UNL     1       0.002  -6.522   5.451  1.00  0.00     0.146 A 
ATOM     11  O   UNL     1      -1.081  -5.873   5.861  1.00  0.00    -0.452 OA
ENDROOT
BRANCH   1  12
ATOM     12  C   UNL     1      -2.324  -4.062   6.853  1.00  0.00     0.025 A 
ATOM     13  C   UNL     1      -3.228  -4.709   7.716  1.00  0.00     0.016 A 
ATOM     14  C   UNL     1      -4.422  -4.083   8.086  1.00  0.00     0.051 A 
ATOM     15  C   UNL     1      -4.724  -2.801   7.611  1.00  0.00     0.157 A 
ATOM     16  C   UNL     1      -2.624  -2.767   6.397  1.00  0.00     0.062 A 
ATOM     17  C   UNL     1      -3.822  -2.140   6.768  1.00  0.00     0.158 A 
BRANCH  15  18
ATOM     18  O   UNL     1      -5.915  -2.176   7.977  1.00  0.00    -0.504 OA
ATOM     19  H   UNL     1      -5.988  -1.167   8.039  1.00  0.00     0.293 HD
ENDBRANCH  15  18
BRANCH  17  20
ATOM     20  O   UNL     1      -4.123  -0.861   6.303  1.00  0.00    -0.504 OA
ATOM     21  H   UNL     1      -3.585  -0.052   6.592  1.00  0.00     0.293 HD
ENDBRANCH  17  20
ENDBRANCH   1  12
BRANCH   2  22
ATOM     22  O   UNL     1       0.257  -2.895   7.463  1.00  0.00    -0.502 OA
ATOM     23  H   UNL     1       0.734  -2.074   7.111  1.00  0.00     0.293 HD
ENDBRANCH   2  22
BRANCH   6  24
ATOM     24  O   UNL     1       3.728  -6.189   5.122  1.00  0.00    -0.507 OA
ATOM     25  H   UNL     1       4.072  -5.479   5.751  1.00  0.00     0.293 HD
ENDBRANCH   6  24
BRANCH   8  26
ATOM     26  O   UNL     1       0.771  -9.745   3.829  1.00  0.00    -0.508 OA
ATOM     27  H   UNL     1       0.588  -9.848   2.837  1.00  0.00     0.293 HD
ENDBRANCH   8  26
TORSDOF 6
ENDMDL
MODEL 4
REMARK VINA RESULT:    -5.349      1.224      3.005
REMARK INTER + INTRA:          -6.637
REMARK INTER:                  -6.487
REMARK INTRA:                  -0.150
REMARK UNBOUND:                -0.193
REMARK SMILES O=c1c(O)c(-c2ccc(O)c(O)c2)oc2cc(O)cc(O)c12
REMARK SMILES IDX 5 1 3 2 2 3 1 4 22 5 20 6 19 7 17 8 16 9 15 10 14 11 6 12
REMARK SMILES IDX 7 13 8 14 9 15 13 16 11 17 10 18 12 20 4 22 21 24 18 26
REMARK H PARENT 10 19 12 21 4 23 21 25 18 27
REMARK Flexibility Score: inf
ROOT
ATOM      1  C   UNL     1       3.929  -5.299   5.668  1.00  0.00     0.180 A 
ATOM      2  C   UNL     1       5.263  -5.736   5.587  1.00  0.00     0.208 A 
ATOM      3  C   UNL     1       5.534  -6.993   5.023  1.00  0.00     0.238 A 
ATOM      4  O   UNL     1       6.725  -7.401   5.003  1.00  0.00    -0.285 OA
ATOM      5  C   UNL     1       4.473  -7.790   4.534  1.00  0.00     0.111 A 
ATOM      6  C   UNL     1       4.636  -9.062   3.907  1.00  0.00     0.134 A 
ATOM      7  C   UNL     1       3.506  -9.821   3.581  1.00  0.00     0.093 A 
ATOM      8  C   UNL     1       2.218  -9.326   3.797  1.00  0.00     0.123 A 
ATOM      9  C   UNL     1       2.048  -8.060   4.354  1.00  0.00     0.094 A 
ATOM     10  C   UNL     1       3.156  -7.295   4.725  1.00  0.00     0.146 A 
ATOM     11  O   UNL     1       2.949  -6.098   5.260  1.00  0.00    -0.452 OA
ENDROOT
BRANCH   1  12
ATOM     12  C   UNL     1       3.565  -3.977   6.226  1.00  0.00     0.025 A 
ATOM     13  C   UNL     1       2.820  -3.862   7.413  1.00  0.00     0.016 A 
ATOM     14  C   UNL     1       2.509  -2.603   7.933  1.00  0.00     0.051 A 
ATOM     15  C   UNL     1       2.949  -1.442   7.284  1.00  0.00     0.157 A 
ATOM     16  C   UNL     1       4.020  -2.808   5.590  1.00  0.00     0.062 A 
ATOM     17  C   UNL     1       3.708  -1.546   6.112  1.00  0.00     0.158 A 
BRANCH  15  18
ATOM     18  O   UNL     1       2.639  -0.185   7.800  1.00  0.00    -0.504 OA
ATOM     19  H   UNL     1       2.207  -0.077   8.710  1.00  0.00     0.293 HD
ENDBRANCH  15  18
BRANCH  17  20
ATOM     20  O   UNL     1       4.151  -0.388   5.473  1.00  0.00    -0.504 OA
ATOM     21  H   UNL     1       3.788  -0.112   4.568  1.00  0.00     0.293 HD
ENDBRANCH  17  20
ENDBRANCH   1  12
BRANCH   2  22
ATOM     22  O   UNL     1       6.294  -4.941   6.096  1.00  0.00    -0.502 OA
ATOM     23  H   UNL     1       6.660  -5.060   7.033  1.00  0.00     0.293 HD
ENDBRANCH   2  22
BRANCH   6  24
ATOM     24  O   UNL     1       5.876  -9.609   3.563  1.00  0.00    -0.507 OA
ATOM     25  H   UNL     1       6.409  -9.354   2.745  1.00  0.00     0.293 HD
ENDBRANCH   6  24
BRANCH   8  26
ATOM     26  O   UNL     1       1.098 -10.080   3.454  1.00  0.00    -0.508 OA
ATOM     27  H   UNL     1       1.016 -11.056   3.717  1.00  0.00     0.293 HD
ENDBRANCH   8  26
TORSDOF 6
ENDMDL
MODEL 5
REMARK VINA RESULT:    -5.341      4.912      8.398
REMARK INTER + INTRA:          -6.627
REMARK INTER:                  -6.344
REMARK INTRA:                  -0.283
REMARK UNBOUND:                -0.193
REMARK SMILES O=c1c(O)c(-c2ccc(O)c(O)c2)oc2cc(O)cc(O)c12
REMARK SMILES IDX 5 1 3 2 2 3 1 4 22 5 20 6 19 7 17 8 16 9 15 10 14 11 6 12
REMARK SMILES IDX 7 13 8 14 9 15 13 16 11 17 10 18 12 20 4 22 21 24 18 26
REMARK H PARENT 10 19 12 21 4 23 21 25 18 27
REMARK Flexibility Score: inf
ROOT
ATOM      1  C   UNL     1       5.464   2.050   5.629  1.00  0.00     0.180 A 
ATOM      2  C   UNL     1       6.769   1.714   5.227  1.00  0.00     0.208 A 
ATOM      3  C   UNL     1       7.121   0.358   5.125  1.00  0.00     0.238 A 
ATOM      4  O   UNL     1       8.306   0.064   4.817  1.00  0.00    -0.285 OA
ATOM      5  C   UNL     1       6.163  -0.643   5.410  1.00  0.00     0.111 A 
ATOM      6  C   UNL     1       6.399  -2.046   5.300  1.00  0.00     0.134 A 
ATOM      7  C   UNL     1       5.419  -2.947   5.734  1.00  0.00     0.093 A 
ATOM      8  C   UNL     1       4.186  -2.497   6.211  1.00  0.00     0.123 A 
ATOM      9  C   UNL     1       3.923  -1.129   6.266  1.00  0.00     0.094 A 
ATOM     10  C   UNL     1       4.895  -0.205   5.875  1.00  0.00     0.146 A 
ATOM     11  O   UNL     1       4.608   1.088   5.953  1.00  0.00    -0.452 OA
ENDROOT
BRANCH   1  12
ATOM     12  C   UNL     1       5.011   3.455   5.735  1.00  0.00     0.025 A 
ATOM     13  C   UNL     1       4.192   4.037   4.751  1.00  0.00     0.016 A 
ATOM     14  C   UNL     1       3.756   5.358   4.885  1.00  0.00     0.051 A 
ATOM     15  C   UNL     1       4.120   6.111   6.009  1.00  0.00     0.157 A 
ATOM     16  C   UNL     1       5.355   4.210   6.870  1.00  0.00     0.062 A 
ATOM     17  C   UNL     1       4.919   5.535   7.004  1.00  0.00     0.158 A 
BRANCH  15  18
ATOM     18  O   UNL     1       3.689   7.429   6.144  1.00  0.00    -0.504 OA
ATOM     19  H   UNL     1       4.142   8.189   5.651  1.00  0.00     0.293 HD
ENDBRANCH  15  18
BRANCH  17  20
ATOM     20  O   UNL     1       5.272   6.285   8.125  1.00  0.00    -0.504 OA
ATOM     21  H   UNL     1       5.812   7.138   8.042  1.00  0.00     0.293 HD
ENDBRANCH  17  20
ENDBRANCH   1  12
BRANCH   2  22
ATOM     22  O   UNL     1       7.707   2.718   4.971  1.00  0.00    -0.502 OA
ATOM     23  H   UNL     1       8.703   2.573   5.081  1.00  0.00     0.293 HD
ENDBRANCH   2  22
BRANCH   6  24
ATOM     24  O   UNL     1       7.559  -2.602   4.752  1.00  0.00    -0.507 OA
ATOM     25  H   UNL     1       8.091  -2.194   3.999  1.00  0.00     0.293 HD
ENDBRANCH   6  24
BRANCH   8  26
ATOM     26  O   UNL     1       3.209  -3.400   6.626  1.00  0.00    -0.508 OA
ATOM     27  H   UNL     1       2.238  -3.289   6.359  1.00  0.00     0.293 HD
ENDBRANCH   8  26
TORSDOF 6
ENDMDL
MODEL 6
REMARK VINA RESULT:    -5.264      2.540      3.478
REMARK INTER + INTRA:          -6.534
REMARK INTER:                  -6.218
REMARK INTRA:                  -0.316
REMARK UNBOUND:                -0.193
REMARK SMILES O=c1c(O)c(-c2ccc(O)c(O)c2)oc2cc(O)cc(O)c12
REMARK SMILES IDX 5 1 3 2 2 3 1 4 22 5 20 6 19 7 17 8 16 9 15 10 14 11 6 12
REMARK SMILES IDX 7 13 8 14 9 15 13 16 11 17 10 18 12 20 4 22 21 24 18 26
REMARK H PARENT 10 19 12 21 4 23 21 25 18 27
REMARK Flexibility Score: inf
ROOT
ATOM      1  C   UNL     1       3.524  -5.200   5.852  1.00  0.00     0.180 A 
ATOM      2  C   UNL     1       2.355  -4.467   6.119  1.00  0.00     0.208 A 
ATOM      3  C   UNL     1       1.108  -5.046   5.829  1.00  0.00     0.238 A 
ATOM      4  O   UNL     1       0.067  -4.364   6.020  1.00  0.00    -0.285 OA
ATOM      5  C   UNL     1       1.046  -6.353   5.291  1.00  0.00     0.111 A 
ATOM      6  C   UNL     1      -0.163  -7.052   4.998  1.00  0.00     0.134 A 
ATOM      7  C   UNL     1      -0.104  -8.290   4.346  1.00  0.00     0.093 A 
ATOM      8  C   UNL     1       1.121  -8.885   4.039  1.00  0.00     0.123 A 
ATOM      9  C   UNL     1       2.308  -8.238   4.375  1.00  0.00     0.094 A 
ATOM     10  C   UNL     1       2.282  -6.984   4.992  1.00  0.00     0.146 A 
ATOM     11  O   UNL     1       3.435  -6.398   5.287  1.00  0.00    -0.452 OA
ENDROOT
BRANCH   1  12
ATOM     12  C   UNL     1       4.873  -4.668   6.153  1.00  0.00     0.025 A 
ATOM     13  C   UNL     1       5.411  -4.728   7.452  1.00  0.00     0.016 A 
ATOM     14  C   UNL     1       6.696  -4.241   7.707  1.00  0.00     0.051 A 
ATOM     15  C   UNL     1       7.466  -3.701   6.669  1.00  0.00     0.157 A 
ATOM     16  C   UNL     1       5.659  -4.144   5.113  1.00  0.00     0.062 A 
ATOM     17  C   UNL     1       6.947  -3.655   5.369  1.00  0.00     0.158 A 
BRANCH  15  18
ATOM     18  O   UNL     1       8.746  -3.214   6.922  1.00  0.00    -0.504 OA
ATOM     19  H   UNL     1       9.056  -2.997   7.862  1.00  0.00     0.293 HD
ENDBRANCH  15  18
BRANCH  17  20
ATOM     20  O   UNL     1       7.719  -3.124   4.337  1.00  0.00    -0.504 OA
ATOM     21  H   UNL     1       8.228  -2.255   4.450  1.00  0.00     0.293 HD
ENDBRANCH  17  20
ENDBRANCH   1  12
BRANCH   2  22
ATOM     22  O   UNL     1       2.440  -3.169   6.630  1.00  0.00    -0.502 OA
ATOM     23  H   UNL     1       2.498  -2.352   6.033  1.00  0.00     0.293 HD
ENDBRANCH   2  22
BRANCH   6  24
ATOM     24  O   UNL     1      -1.436  -6.590   5.346  1.00  0.00    -0.507 OA
ATOM     25  H   UNL     1      -2.181  -7.171   5.700  1.00  0.00     0.293 HD
ENDBRANCH   6  24
BRANCH   8  26
ATOM     26  O   UNL     1       1.172 -10.125   3.405  1.00  0.00    -0.508 OA
ATOM     27  H   UNL     1       0.522 -10.368   2.666  1.00  0.00     0.293 HD
ENDBRANCH   8  26
TORSDOF 6
ENDMDL
MODEL 7
REMARK VINA RESULT:    -5.241      2.404      6.203
REMARK INTER + INTRA:          -6.506
REMARK INTER:                  -6.173
REMARK INTRA:                  -0.333
REMARK UNBOUND:                -0.193
REMARK SMILES O=c1c(O)c(-c2ccc(O)c(O)c2)oc2cc(O)cc(O)c12
REMARK SMILES IDX 5 1 3 2 2 3 1 4 22 5 20 6 19 7 17 8 16 9 15 10 14 11 6 12
REMARK SMILES IDX 7 13 8 14 9 15 13 16 11 17 10 18 12 20 4 22 21 24 18 26
REMARK H PARENT 10 19 12 21 4 23 21 25 18 27
REMARK Flexibility Score: inf
ROOT
ATOM      1  C   UNL     1       2.589  -7.838   4.972  1.00  0.00     0.180 A 
ATOM      2  C   UNL     1       3.534  -8.668   4.343  1.00  0.00     0.208 A 
ATOM      3  C   UNL     1       4.862  -8.225   4.234  1.00  0.00     0.238 A 
ATOM      4  O   UNL     1       5.691  -8.948   3.622  1.00  0.00    -0.285 OA
ATOM      5  C   UNL     1       5.232  -6.967   4.767  1.00  0.00     0.111 A 
ATOM      6  C   UNL     1       6.557  -6.437   4.748  1.00  0.00     0.134 A 
ATOM      7  C   UNL     1       6.782  -5.127   5.188  1.00  0.00     0.093 A 
ATOM      8  C   UNL     1       5.743  -4.352   5.708  1.00  0.00     0.123 A 
ATOM      9  C   UNL     1       4.457  -4.882   5.786  1.00  0.00     0.094 A 
ATOM     10  C   UNL     1       4.193  -6.173   5.320  1.00  0.00     0.146 A 
ATOM     11  O   UNL     1       2.953  -6.636   5.404  1.00  0.00    -0.452 OA
ENDROOT
BRANCH   1  12
ATOM     12  C   UNL     1       1.176  -8.246   5.148  1.00  0.00     0.025 A 
ATOM     13  C   UNL     1       0.756  -8.962   6.284  1.00  0.00     0.016 A 
ATOM     14  C   UNL     1      -0.587  -9.314   6.439  1.00  0.00     0.051 A 
ATOM     15  C   UNL     1      -1.531  -8.946   5.472  1.00  0.00     0.157 A 
ATOM     16  C   UNL     1       0.221  -7.862   4.191  1.00  0.00     0.062 A 
ATOM     17  C   UNL     1      -1.126  -8.217   4.347  1.00  0.00     0.158 A 
BRANCH  15  18
ATOM     18  O   UNL     1      -2.870  -9.299   5.624  1.00  0.00    -0.504 OA
ATOM     19  H   UNL     1      -3.542  -8.664   6.038  1.00  0.00     0.293 HD
ENDBRANCH  15  18
BRANCH  17  20
ATOM     20  O   UNL     1      -2.069  -7.846   3.390  1.00  0.00    -0.504 OA
ATOM     21  H   UNL     1      -1.914  -7.059   2.771  1.00  0.00     0.293 HD
ENDBRANCH  17  20
ENDBRANCH   1  12
BRANCH   2  22
ATOM     22  O   UNL     1       3.142  -9.896   3.804  1.00  0.00    -0.502 OA
ATOM     23  H   UNL     1       2.405 -10.459   4.212  1.00  0.00     0.293 HD
ENDBRANCH   2  22
BRANCH   6  24
ATOM     24  O   UNL     1       7.681  -7.159   4.336  1.00  0.00    -0.507 OA
ATOM     25  H   UNL     1       8.222  -7.769   4.930  1.00  0.00     0.293 HD
ENDBRANCH   6  24
BRANCH   8  26
ATOM     26  O   UNL     1       5.978  -3.055   6.158  1.00  0.00    -0.508 OA
ATOM     27  H   UNL     1       5.453  -2.659   6.930  1.00  0.00     0.293 HD
ENDBRANCH   8  26
TORSDOF 6
ENDMDL
MODEL 8
REMARK VINA RESULT:    -5.201      4.310      6.934
REMARK INTER + INTRA:          -6.459
REMARK INTER:                  -6.136
REMARK INTRA:                  -0.323
REMARK UNBOUND:                -0.193
REMARK SMILES O=c1c(O)c(-c2ccc(O)c(O)c2)oc2cc(O)cc(O)c12
REMARK SMILES IDX 5 1 3 2 2 3 1 4 22 5 20 6 19 7 17 8 16 9 15 10 14 11 6 12
REMARK SMILES IDX 7 13 8 14 9 15 13 16 11 17 10 18 12 20 4 22 21 24 18 26
REMARK H PARENT 10 19 12 21 4 23 21 25 18 27
REMARK Flexibility Score: inf
ROOT
ATOM      1  C   UNL     1       4.058   1.138   6.369  1.00  0.00     0.180 A 
ATOM      2  C   UNL     1       3.140   0.547   7.255  1.00  0.00     0.208 A 
ATOM      3  C   UNL     1       3.110  -0.852   7.370  1.00  0.00     0.238 A 
ATOM      4  O   UNL     1       2.250  -1.378   8.125  1.00  0.00    -0.285 OA
ATOM      5  C   UNL     1       4.006  -1.642   6.611  1.00  0.00     0.111 A 
ATOM      6  C   UNL     1       4.090  -3.065   6.679  1.00  0.00     0.134 A 
ATOM      7  C   UNL     1       4.922  -3.751   5.786  1.00  0.00     0.093 A 
ATOM      8  C   UNL     1       5.725  -3.062   4.874  1.00  0.00     0.123 A 
ATOM      9  C   UNL     1       5.694  -1.669   4.841  1.00  0.00     0.094 A 
ATOM     10  C   UNL     1       4.846  -0.958   5.693  1.00  0.00     0.146 A 
ATOM     11  O   UNL     1       4.841   0.367   5.622  1.00  0.00    -0.452 OA
ENDROOT
BRANCH   1  12
ATOM     12  C   UNL     1       4.168   2.605   6.212  1.00  0.00     0.025 A 
ATOM     13  C   UNL     1       3.407   3.298   5.252  1.00  0.00     0.016 A 
ATOM     14  C   UNL     1       3.509   4.687   5.138  1.00  0.00     0.051 A 
ATOM     15  C   UNL     1       4.360   5.405   5.988  1.00  0.00     0.157 A 
ATOM     16  C   UNL     1       5.005   3.334   7.074  1.00  0.00     0.062 A 
ATOM     17  C   UNL     1       5.107   4.727   6.959  1.00  0.00     0.158 A 
BRANCH  15  18
ATOM     18  O   UNL     1       4.466   6.790   5.875  1.00  0.00    -0.504 OA
ATOM     19  H   UNL     1       5.138   7.222   5.252  1.00  0.00     0.293 HD
ENDBRANCH  15  18
BRANCH  17  20
ATOM     20  O   UNL     1       5.948   5.446   7.808  1.00  0.00    -0.504 OA
ATOM     21  H   UNL     1       6.341   6.338   7.533  1.00  0.00     0.293 HD
ENDBRANCH  17  20
ENDBRANCH   1  12
BRANCH   2  22
ATOM     22  O   UNL     1       2.250   1.344   7.980  1.00  0.00    -0.502 OA
ATOM     23  H   UNL     1       2.014   2.288   7.698  1.00  0.00     0.293 HD
ENDBRANCH   2  22
BRANCH   6  24
ATOM     24  O   UNL     1       3.402  -3.844   7.614  1.00  0.00    -0.507 OA
ATOM     25  H   UNL     1       2.645  -3.512   8.193  1.00  0.00     0.293 HD
ENDBRANCH   6  24
BRANCH   8  26
ATOM     26  O   UNL     1       6.562  -3.750   4.000  1.00  0.00    -0.508 OA
ATOM     27  H   UNL     1       7.017  -3.283   3.223  1.00  0.00     0.293 HD
ENDBRANCH   8  26
TORSDOF 6
ENDMDL
MODEL 9
REMARK VINA RESULT:    -5.147      2.202      3.146
REMARK INTER + INTRA:          -6.393
REMARK INTER:                  -6.174
REMARK INTRA:                  -0.219
REMARK UNBOUND:                -0.193
REMARK SMILES O=c1c(O)c(-c2ccc(O)c(O)c2)oc2cc(O)cc(O)c12
REMARK SMILES IDX 5 1 3 2 2 3 1 4 22 5 20 6 19 7 17 8 16 9 15 10 14 11 6 12
REMARK SMILES IDX 7 13 8 14 9 15 13 16 11 17 10 18 12 20 4 22 21 24 18 26
REMARK H PARENT 10 19 12 21 4 23 21 25 18 27
REMARK Flexibility Score: inf
ROOT
ATOM      1  C   UNL     1       1.962  -4.170   6.253  1.00  0.00     0.180 A 
ATOM      2  C   UNL     1       0.688  -3.850   6.756  1.00  0.00     0.208 A 
ATOM      3  C   UNL     1      -0.357  -4.774   6.599  1.00  0.00     0.238 A 
ATOM      4  O   UNL     1      -1.507  -4.459   7.003  1.00  0.00    -0.285 OA
ATOM      5  C   UNL     1      -0.115  -6.011   5.956  1.00  0.00     0.111 A 
ATOM      6  C   UNL     1      -1.090  -7.038   5.778  1.00  0.00     0.134 A 
ATOM      7  C   UNL     1      -0.773  -8.166   5.012  1.00  0.00     0.093 A 
ATOM      8  C   UNL     1       0.504  -8.336   4.473  1.00  0.00     0.123 A 
ATOM      9  C   UNL     1       1.482  -7.367   4.692  1.00  0.00     0.094 A 
ATOM     10  C   UNL     1       1.185  -6.213   5.420  1.00  0.00     0.146 A 
ATOM     11  O   UNL     1       2.142  -5.311   5.597  1.00  0.00    -0.452 OA
ENDROOT
BRANCH   1  12
ATOM     12  C   UNL     1       3.119  -3.260   6.402  1.00  0.00     0.025 A 
ATOM     13  C   UNL     1       3.681  -2.989   7.663  1.00  0.00     0.016 A 
ATOM     14  C   UNL     1       4.789  -2.145   7.776  1.00  0.00     0.051 A 
ATOM     15  C   UNL     1       5.359  -1.570   6.633  1.00  0.00     0.157 A 
ATOM     16  C   UNL     1       3.708  -2.696   5.257  1.00  0.00     0.062 A 
ATOM     17  C   UNL     1       4.819  -1.849   5.371  1.00  0.00     0.158 A 
BRANCH  15  18
ATOM     18  O   UNL     1       6.462  -0.726   6.744  1.00  0.00    -0.504 OA
ATOM     19  H   UNL     1       7.152  -0.655   6.005  1.00  0.00     0.293 HD
ENDBRANCH  15  18
BRANCH  17  20
ATOM     20  O   UNL     1       5.394  -1.281   4.235  1.00  0.00    -0.504 OA
ATOM     21  H   UNL     1       5.434  -0.277   4.108  1.00  0.00     0.293 HD
ENDBRANCH  17  20
ENDBRANCH   1  12
BRANCH   2  22
ATOM     22  O   UNL     1       0.465  -2.614   7.369  1.00  0.00    -0.502 OA
ATOM     23  H   UNL     1       1.131  -2.196   8.007  1.00  0.00     0.293 HD
ENDBRANCH   2  22
BRANCH   6  24
ATOM     24  O   UNL     1      -2.365  -7.010   6.351  1.00  0.00    -0.507 OA
ATOM     25  H   UNL     1      -2.623  -7.484   7.204  1.00  0.00     0.293 HD
ENDBRANCH   6  24
BRANCH   8  26
ATOM     26  O   UNL     1       0.816  -9.469   3.725  1.00  0.00    -0.508 OA
ATOM     27  H   UNL     1       1.776  -9.707   3.501  1.00  0.00     0.293 HD
ENDBRANCH   8  26
TORSDOF 6
ENDMDL
