MODEL 1
REMARK VINA RESULT:    -4.253      0.000      0.000
REMARK INTER + INTRA:          -5.045
REMARK INTER:                  -4.874
REMARK INTRA:                  -0.171
REMARK UNBOUND:                -0.171
REMARK SMILES O=C([O-])C=Cc1ccc(O)cc1
REMARK SMILES IDX 6 1 7 2 12 3 8 4 11 5 9 6 5 7 4 8 2 9 1 10 3 11 10 12
REMARK H PARENT 10 13
REMARK Flexibility Score: inf
ROOT
ATOM      1  C   UNL     1       4.517 -15.647  16.097  1.00  0.00    -0.025 A 
ATOM      2  C   UNL     1       3.962 -16.071  14.876  1.00  0.00     0.012 A 
ATOM      3  C   UNL     1       3.820 -14.716  16.881  1.00  0.00     0.012 A 
ATOM      4  C   UNL     1       2.752 -15.530  14.426  1.00  0.00     0.047 A 
ATOM      5  C   UNL     1       2.611 -14.176  16.429  1.00  0.00     0.047 A 
ATOM      6  C   UNL     1       2.076 -14.578  15.201  1.00  0.00     0.115 A 
ENDROOT
BRANCH   1   7
ATOM      7  C   UNL     1       5.764 -16.242  16.618  1.00  0.00     0.010 C 
ATOM      8  C   UNL     1       6.972 -16.141  16.044  1.00  0.00     0.025 C 
BRANCH   8   9
ATOM      9  C   UNL     1       7.308 -15.266  14.905  1.00  0.00     0.064 C 
ATOM     10  O   UNL     1       7.434 -14.028  15.095  1.00  0.00    -0.545 OA
ATOM     11  O   UNL     1       7.417 -15.766  13.613  1.00  0.00    -0.545 OA
ENDBRANCH   8   9
ENDBRANCH   1   7
BRANCH   6  12
ATOM     12  O   UNL     1       0.872 -14.031  14.763  1.00  0.00    -0.508 OA
ATOM     13  H   UNL     1       0.719 -13.030  14.750  1.00  0.00     0.293 HD
ENDBRANCH   6  12
TORSDOF 3
ENDMDL
MODEL 2
REMARK VINA RESULT:    -4.224      0.158      1.688
REMARK INTER + INTRA:          -5.012
REMARK INTER:                  -4.871
REMARK INTRA:                  -0.141
REMARK UNBOUND:                -0.171
REMARK SMILES O=C([O-])C=Cc1ccc(O)cc1
REMARK SMILES IDX 6 1 7 2 12 3 8 4 11 5 9 6 5 7 4 8 2 9 1 10 3 11 10 12
REMARK H PARENT 10 13
REMARK Flexibility Score: inf
ROOT
ATOM      1  C   UNL     1       4.522 -15.874  16.102  1.00  0.00    -0.025 A 
ATOM      2  C   UNL     1       3.884 -14.907  16.900  1.00  0.00     0.012 A 
ATOM      3  C   UNL     1       3.988 -16.186  14.843  1.00  0.00     0.012 A 
ATOM      4  C   UNL     1       2.701 -14.301  16.464  1.00  0.00     0.047 A 
ATOM      5  C   UNL     1       2.804 -15.580  14.409  1.00  0.00     0.047 A 
ATOM      6  C   UNL     1       2.156 -14.640  15.217  1.00  0.00     0.115 A 
ENDROOT
BRANCH   1   7
ATOM      7  C   UNL     1       5.801 -16.486  16.517  1.00  0.00     0.010 C 
ATOM      8  C   UNL     1       6.980 -16.313  15.902  1.00  0.00     0.025 C 
BRANCH   8   9
ATOM      9  C   UNL     1       7.251 -15.339  14.827  1.00  0.00     0.064 C 
ATOM     10  O   UNL     1       7.379 -15.748  13.644  1.00  0.00    -0.545 OA
ATOM     11  O   UNL     1       7.439 -13.990  15.101  1.00  0.00    -0.545 OA
ENDBRANCH   8   9
ENDBRANCH   1   7
BRANCH   6  12
ATOM     12  O   UNL     1       0.978 -14.046  14.773  1.00  0.00    -0.508 OA
ATOM     13  H   UNL     1       0.982 -13.340  14.046  1.00  0.00     0.293 HD
ENDBRANCH   6  12
TORSDOF 3
ENDMDL
MODEL 3
REMARK VINA RESULT:    -4.190      1.415      1.807
REMARK INTER + INTRA:          -4.973
REMARK INTER:                  -4.695
REMARK INTRA:                  -0.278
REMARK UNBOUND:                -0.171
REMARK SMILES O=C([O-])C=Cc1ccc(O)cc1
REMARK SMILES IDX 6 1 7 2 12 3 8 4 11 5 9 6 5 7 4 8 2 9 1 10 3 11 10 12
REMARK H PARENT 10 13
REMARK Flexibility Score: inf
ROOT
ATOM      1  C   UNL     1       5.162 -15.350  15.634  1.00  0.00    -0.025 A 
ATOM      2  C   UNL     1       4.896 -14.160  14.934  1.00  0.00     0.012 A 
ATOM      3  C   UNL     1       4.147 -16.309  15.767  1.00  0.00     0.012 A 
ATOM      4  C   UNL     1       3.618 -13.914  14.421  1.00  0.00     0.047 A 
ATOM      5  C   UNL     1       2.870 -16.061  15.255  1.00  0.00     0.047 A 
ATOM      6  C   UNL     1       2.600 -14.863  14.584  1.00  0.00     0.115 A 
ENDROOT
BRANCH   1   7
ATOM      7  C   UNL     1       6.517 -15.656  16.137  1.00  0.00     0.010 C 
ATOM      8  C   UNL     1       7.424 -16.419  15.508  1.00  0.00     0.025 C 
BRANCH   8   9
ATOM      9  C   UNL     1       7.308 -16.927  14.128  1.00  0.00     0.064 C 
ATOM     10  O   UNL     1       7.778 -16.246  13.180  1.00  0.00    -0.545 OA
ATOM     11  O   UNL     1       6.626 -18.104  13.843  1.00  0.00    -0.545 OA
ENDBRANCH   8   9
ENDBRANCH   1   7
BRANCH   6  12
ATOM     12  O   UNL     1       1.323 -14.629  14.080  1.00  0.00    -0.508 OA
ATOM     13  H   UNL     1       0.695 -15.391  13.856  1.00  0.00     0.293 HD
ENDBRANCH   6  12
TORSDOF 3
ENDMDL
MODEL 4
REMARK VINA RESULT:    -4.130      1.853      4.821
REMARK INTER + INTRA:          -4.905
REMARK INTER:                  -4.683
REMARK INTRA:                  -0.221
REMARK UNBOUND:                -0.171
REMARK SMILES O=C([O-])C=Cc1ccc(O)cc1
REMARK SMILES IDX 6 1 7 2 12 3 8 4 11 5 9 6 5 7 4 8 2 9 1 10 3 11 10 12
REMARK H PARENT 10 13
REMARK Flexibility Score: inf
ROOT
ATOM      1  C   UNL     1       4.984 -16.533  15.162  1.00  0.00    -0.025 A 
ATOM      2  C   UNL     1       6.132 -15.722  15.095  1.00  0.00     0.012 A 
ATOM      3  C   UNL     1       4.921 -17.699  14.384  1.00  0.00     0.012 A 
ATOM      4  C   UNL     1       7.176 -16.049  14.223  1.00  0.00     0.047 A 
ATOM      5  C   UNL     1       5.966 -18.022  13.512  1.00  0.00     0.047 A 
ATOM      6  C   UNL     1       7.093 -17.199  13.426  1.00  0.00     0.115 A 
ENDROOT
BRANCH   1   7
ATOM      7  C   UNL     1       3.894 -16.239  16.114  1.00  0.00     0.010 C 
ATOM      8  C   UNL     1       2.956 -15.293  15.953  1.00  0.00     0.025 C 
BRANCH   8   9
ATOM      9  C   UNL     1       2.730 -14.513  14.721  1.00  0.00     0.064 C 
ATOM     10  O   UNL     1       1.775 -14.824  13.962  1.00  0.00    -0.545 OA
ATOM     11  O   UNL     1       3.590 -13.489  14.343  1.00  0.00    -0.545 OA
ENDBRANCH   8   9
ENDBRANCH   1   7
BRANCH   6  12
ATOM     12  O   UNL     1       8.125 -17.533  12.553  1.00  0.00    -0.508 OA
ATOM     13  H   UNL     1       9.085 -17.600  12.869  1.00  0.00     0.293 HD
ENDBRANCH   6  12
TORSDOF 3
ENDMDL
MODEL 5
REMARK VINA RESULT:    -4.004      1.490      1.973
REMARK INTER + INTRA:          -4.760
REMARK INTER:                  -4.575
REMARK INTRA:                  -0.185
REMARK UNBOUND:                -0.171
REMARK SMILES O=C([O-])C=Cc1ccc(O)cc1
REMARK SMILES IDX 6 1 7 2 12 3 8 4 11 5 9 6 5 7 4 8 2 9 1 10 3 11 10 12
REMARK H PARENT 10 13
REMARK Flexibility Score: inf
ROOT
ATOM      1  C   UNL     1       4.115 -16.414  15.058  1.00  0.00    -0.025 A 
ATOM      2  C   UNL     1       3.198 -15.568  14.411  1.00  0.00     0.012 A 
ATOM      3  C   UNL     1       4.323 -16.274  16.438  1.00  0.00     0.012 A 
ATOM      4  C   UNL     1       2.538 -14.563  15.127  1.00  0.00     0.047 A 
ATOM      5  C   UNL     1       3.663 -15.268  17.152  1.00  0.00     0.047 A 
ATOM      6  C   UNL     1       2.773 -14.409  16.500  1.00  0.00     0.115 A 
ENDROOT
BRANCH   1   7
ATOM      7  C   UNL     1       4.782 -17.516  14.334  1.00  0.00     0.010 C 
ATOM      8  C   UNL     1       6.073 -17.536  13.968  1.00  0.00     0.025 C 
BRANCH   8   9
ATOM      9  C   UNL     1       7.096 -16.558  14.385  1.00  0.00     0.064 C 
ATOM     10  O   UNL     1       7.391 -15.609  13.613  1.00  0.00    -0.545 OA
ATOM     11  O   UNL     1       7.794 -16.702  15.579  1.00  0.00    -0.545 OA
ENDBRANCH   8   9
ENDBRANCH   1   7
BRANCH   6  12
ATOM     12  O   UNL     1       2.124 -13.412  17.223  1.00  0.00    -0.508 OA
ATOM     13  H   UNL     1       2.629 -12.803  17.856  1.00  0.00     0.293 HD
ENDBRANCH   6  12
TORSDOF 3
ENDMDL
MODEL 6
REMARK VINA RESULT:    -3.995      2.889      3.762
REMARK INTER + INTRA:          -4.750
REMARK INTER:                  -4.530
REMARK INTRA:                  -0.220
REMARK UNBOUND:                -0.171
REMARK SMILES O=C([O-])C=Cc1ccc(O)cc1
REMARK SMILES IDX 6 1 7 2 12 3 8 4 11 5 9 6 5 7 4 8 2 9 1 10 3 11 10 12
REMARK H PARENT 10 13
REMARK Flexibility Score: inf
ROOT
ATOM      1  C   UNL     1       4.188 -13.365  15.303  1.00  0.00    -0.025 A 
ATOM      2  C   UNL     1       5.290 -14.216  15.499  1.00  0.00     0.012 A 
ATOM      3  C   UNL     1       3.003 -13.891  14.766  1.00  0.00     0.012 A 
ATOM      4  C   UNL     1       5.222 -15.559  15.116  1.00  0.00     0.047 A 
ATOM      5  C   UNL     1       2.937 -15.234  14.382  1.00  0.00     0.047 A 
ATOM      6  C   UNL     1       4.045 -16.071  14.552  1.00  0.00     0.115 A 
ENDROOT
BRANCH   1   7
ATOM      7  C   UNL     1       4.217 -11.957  15.750  1.00  0.00     0.010 C 
ATOM      8  C   UNL     1       4.948 -10.981  15.192  1.00  0.00     0.025 C 
BRANCH   8   9
ATOM      9  C   UNL     1       5.698 -11.089  13.926  1.00  0.00     0.064 C 
ATOM     10  O   UNL     1       5.123 -10.808  12.843  1.00  0.00    -0.545 OA
ATOM     11  O   UNL     1       7.004 -11.565  13.895  1.00  0.00    -0.545 OA
ENDBRANCH   8   9
ENDBRANCH   1   7
BRANCH   6  12
ATOM     12  O   UNL     1       3.966 -17.406  14.164  1.00  0.00    -0.508 OA
ATOM     13  H   UNL     1       4.510 -18.124  14.626  1.00  0.00     0.293 HD
ENDBRANCH   6  12
TORSDOF 3
ENDMDL
MODEL 7
REMARK VINA RESULT:    -3.946      2.273      3.024
REMARK INTER + INTRA:          -4.693
REMARK INTER:                  -4.466
REMARK INTRA:                  -0.227
REMARK UNBOUND:                -0.171
REMARK SMILES O=C([O-])C=Cc1ccc(O)cc1
REMARK SMILES IDX 6 1 7 2 12 3 8 4 11 5 9 6 5 7 4 8 2 9 1 10 3 11 10 12
REMARK H PARENT 10 13
REMARK Flexibility Score: inf
ROOT
ATOM      1  C   UNL     1       4.459 -15.585  16.170  1.00  0.00    -0.025 A 
ATOM      2  C   UNL     1       3.562 -14.922  17.026  1.00  0.00     0.012 A 
ATOM      3  C   UNL     1       4.150 -15.700  14.807  1.00  0.00     0.012 A 
ATOM      4  C   UNL     1       2.351 -14.427  16.531  1.00  0.00     0.047 A 
ATOM      5  C   UNL     1       2.938 -15.205  14.314  1.00  0.00     0.047 A 
ATOM      6  C   UNL     1       2.035 -14.572  15.173  1.00  0.00     0.115 A 
ENDROOT
BRANCH   1   7
ATOM      7  C   UNL     1       5.768 -16.068  16.658  1.00  0.00     0.010 C 
ATOM      8  C   UNL     1       6.068 -17.344  16.943  1.00  0.00     0.025 C 
BRANCH   8   9
ATOM      9  C   UNL     1       5.218 -18.511  16.640  1.00  0.00     0.064 C 
ATOM     10  O   UNL     1       5.416 -19.159  15.579  1.00  0.00    -0.545 OA
ATOM     11  O   UNL     1       4.157 -18.870  17.464  1.00  0.00    -0.545 OA
ENDBRANCH   8   9
ENDBRANCH   1   7
BRANCH   6  12
ATOM     12  O   UNL     1       0.831 -14.085  14.668  1.00  0.00    -0.508 OA
ATOM     13  H   UNL     1      -0.035 -14.175  15.187  1.00  0.00     0.293 HD
ENDBRANCH   6  12
TORSDOF 3
ENDMDL
MODEL 8
REMARK VINA RESULT:    -3.926      3.167      4.609
REMARK INTER + INTRA:          -4.671
REMARK INTER:                  -4.463
REMARK INTRA:                  -0.208
REMARK UNBOUND:                -0.171
REMARK SMILES O=C([O-])C=Cc1ccc(O)cc1
REMARK SMILES IDX 6 1 7 2 12 3 8 4 11 5 9 6 5 7 4 8 2 9 1 10 3 11 10 12
REMARK H PARENT 10 13
REMARK Flexibility Score: inf
ROOT
ATOM      1  C   UNL     1       4.209 -12.830  15.590  1.00  0.00    -0.025 A 
ATOM      2  C   UNL     1       3.552 -11.587  15.562  1.00  0.00     0.012 A 
ATOM      3  C   UNL     1       5.361 -13.016  14.811  1.00  0.00     0.012 A 
ATOM      4  C   UNL     1       4.014 -10.564  14.726  1.00  0.00     0.047 A 
ATOM      5  C   UNL     1       5.820 -11.992  13.975  1.00  0.00     0.047 A 
ATOM      6  C   UNL     1       5.148 -10.767  13.927  1.00  0.00     0.115 A 
ENDROOT
BRANCH   1   7
ATOM      7  C   UNL     1       3.773 -13.906  16.504  1.00  0.00     0.010 C 
ATOM      8  C   UNL     1       3.085 -14.999  16.144  1.00  0.00     0.025 C 
BRANCH   8   9
ATOM      9  C   UNL     1       2.809 -15.419  14.757  1.00  0.00     0.064 C 
ATOM     10  O   UNL     1       3.507 -16.328  14.238  1.00  0.00    -0.545 OA
ATOM     11  O   UNL     1       1.843 -14.783  13.985  1.00  0.00    -0.545 OA
ENDBRANCH   8   9
ENDBRANCH   1   7
BRANCH   6  12
ATOM     12  O   UNL     1       5.616  -9.757  13.090  1.00  0.00    -0.508 OA
ATOM     13  H   UNL     1       6.567  -9.756  12.743  1.00  0.00     0.293 HD
ENDBRANCH   6  12
TORSDOF 3
ENDMDL
MODEL 9
REMARK VINA RESULT:    -3.897      2.565      3.145
REMARK INTER + INTRA:          -4.638
REMARK INTER:                  -4.341
REMARK INTRA:                  -0.297
REMARK UNBOUND:                -0.171
REMARK SMILES O=C([O-])C=Cc1ccc(O)cc1
REMARK SMILES IDX 6 1 7 2 12 3 8 4 11 5 9 6 5 7 4 8 2 9 1 10 3 11 10 12
REMARK H PARENT 10 13
REMARK Flexibility Score: inf
ROOT
ATOM      1  C   UNL     1       4.009 -15.799  14.772  1.00  0.00    -0.025 A 
ATOM      2  C   UNL     1       4.836 -14.673  14.932  1.00  0.00     0.012 A 
ATOM      3  C   UNL     1       2.617 -15.648  14.869  1.00  0.00     0.012 A 
ATOM      4  C   UNL     1       4.280 -13.427  15.237  1.00  0.00     0.047 A 
ATOM      5  C   UNL     1       2.063 -14.400  15.175  1.00  0.00     0.047 A 
ATOM      6  C   UNL     1       2.890 -13.289  15.363  1.00  0.00     0.115 A 
ENDROOT
BRANCH   1   7
ATOM      7  C   UNL     1       4.569 -17.113  14.396  1.00  0.00     0.010 C 
ATOM      8  C   UNL     1       5.037 -18.032  15.254  1.00  0.00     0.025 C 
BRANCH   8   9
ATOM      9  C   UNL     1       4.903 -17.979  16.722  1.00  0.00     0.064 C 
ATOM     10  O   UNL     1       3.935 -18.563  17.274  1.00  0.00    -0.545 OA
ATOM     11  O   UNL     1       5.781 -17.238  17.505  1.00  0.00    -0.545 OA
ENDBRANCH   8   9
ENDBRANCH   1   7
BRANCH   6  12
ATOM     12  O   UNL     1       2.325 -12.053  15.669  1.00  0.00    -0.508 OA
ATOM     13  H   UNL     1       2.819 -11.187  15.493  1.00  0.00     0.293 HD
ENDBRANCH   6  12
TORSDOF 3
ENDMDL
