MODEL 1
REMARK VINA RESULT:    -6.128      0.000      0.000
REMARK INTER + INTRA:          -6.486
REMARK INTER:                  -6.486
REMARK INTRA:                   0.000
REMARK UNBOUND:                 0.000
REMARK SMILES O=c1ccc2cc(O)c(O)cc2o1
REMARK SMILES IDX 4 1 3 2 2 3 1 4 13 5 12 6 11 7 9 8 7 9 6 10 5 11 8 12 10 14
REMARK H PARENT 8 13 10 15
REMARK Flexibility Score: inf
ROOT
ATOM      1  C   UNL     1     -32.601   9.206 -36.414  1.00  0.00     0.019 A 
ATOM      2  C   UNL     1     -32.229   9.586 -35.125  1.00  0.00     0.094 A 
ATOM      3  C   UNL     1     -32.376  10.924 -34.744  1.00  0.00     0.336 A 
ATOM      4  O   UNL     1     -32.047  11.287 -33.585  1.00  0.00    -0.246 OA
ATOM      5  O   UNL     1     -32.862  11.819 -35.601  1.00  0.00    -0.423 OA
ATOM      6  C   UNL     1     -33.227  11.499 -36.840  1.00  0.00     0.142 A 
ATOM      7  C   UNL     1     -33.731  12.483 -37.697  1.00  0.00     0.098 A 
ATOM      8  C   UNL     1     -34.118  12.151 -39.003  1.00  0.00     0.161 A 
ATOM      9  C   UNL     1     -34.000  10.828 -39.454  1.00  0.00     0.158 A 
ATOM     10  C   UNL     1     -33.495   9.837 -38.600  1.00  0.00     0.062 A 
ATOM     11  C   UNL     1     -33.108  10.168 -37.294  1.00  0.00     0.022 A 
ENDROOT
BRANCH   9  12
ATOM     12  O   UNL     1     -34.387  10.507 -40.755  1.00  0.00    -0.504 OA
ATOM     13  H   UNL     1     -35.014   9.733 -40.946  1.00  0.00     0.293 HD
ENDBRANCH   9  12
BRANCH   8  14
ATOM     14  O   UNL     1     -34.620  13.129 -39.859  1.00  0.00    -0.504 OA
ATOM     15  H   UNL     1     -35.108  12.886 -40.714  1.00  0.00     0.293 HD
ENDBRANCH   8  14
TORSDOF 2
ENDMDL
MODEL 2
REMARK VINA RESULT:    -6.108      1.432      4.406
REMARK INTER + INTRA:          -6.465
REMARK INTER:                  -6.465
REMARK INTRA:                   0.000
REMARK UNBOUND:                 0.000
REMARK SMILES O=c1ccc2cc(O)c(O)cc2o1
REMARK SMILES IDX 4 1 3 2 2 3 1 4 13 5 12 6 11 7 9 8 7 9 6 10 5 11 8 12 10 14
REMARK H PARENT 8 13 10 15
REMARK Flexibility Score: inf
ROOT
ATOM      1  C   UNL     1     -31.712   8.919 -37.569  1.00  0.00     0.019 A 
ATOM      2  C   UNL     1     -32.031   8.875 -38.926  1.00  0.00     0.094 A 
ATOM      3  C   UNL     1     -32.900   9.838 -39.449  1.00  0.00     0.336 A 
ATOM      4  O   UNL     1     -33.200   9.816 -40.671  1.00  0.00    -0.246 OA
ATOM      5  O   UNL     1     -33.416  10.779 -38.662  1.00  0.00    -0.423 OA
ATOM      6  C   UNL     1     -33.139  10.856 -37.363  1.00  0.00     0.142 A 
ATOM      7  C   UNL     1     -33.711  11.868 -36.585  1.00  0.00     0.098 A 
ATOM      8  C   UNL     1     -33.422  11.954 -35.215  1.00  0.00     0.161 A 
ATOM      9  C   UNL     1     -32.557  11.023 -34.621  1.00  0.00     0.158 A 
ATOM     10  C   UNL     1     -31.981  10.007 -35.396  1.00  0.00     0.062 A 
ATOM     11  C   UNL     1     -32.268   9.919 -36.765  1.00  0.00     0.022 A 
ENDROOT
BRANCH   9  12
ATOM     12  O   UNL     1     -32.276  11.117 -33.259  1.00  0.00    -0.504 OA
ATOM     13  H   UNL     1     -32.788  10.573 -32.573  1.00  0.00     0.293 HD
ENDBRANCH   9  12
BRANCH   8  14
ATOM     14  O   UNL     1     -33.990  12.961 -34.438  1.00  0.00    -0.504 OA
ATOM     15  H   UNL     1     -34.033  12.891 -33.427  1.00  0.00     0.293 HD
ENDBRANCH   8  14
TORSDOF 2
ENDMDL
MODEL 3
REMARK VINA RESULT:    -5.898      1.472      4.936
REMARK INTER + INTRA:          -6.243
REMARK INTER:                  -6.243
REMARK INTRA:                   0.000
REMARK UNBOUND:                 0.000
REMARK SMILES O=c1ccc2cc(O)c(O)cc2o1
REMARK SMILES IDX 4 1 3 2 2 3 1 4 13 5 12 6 11 7 9 8 7 9 6 10 5 11 8 12 10 14
REMARK H PARENT 8 13 10 15
REMARK Flexibility Score: inf
ROOT
ATOM      1  C   UNL     1     -33.995  12.375 -38.473  1.00  0.00     0.019 A 
ATOM      2  C   UNL     1     -33.981  11.592 -39.626  1.00  0.00     0.094 A 
ATOM      3  C   UNL     1     -33.603  10.249 -39.529  1.00  0.00     0.336 A 
ATOM      4  O   UNL     1     -33.584   9.525 -40.559  1.00  0.00    -0.246 OA
ATOM      5  O   UNL     1     -33.262   9.728 -38.352  1.00  0.00    -0.423 OA
ATOM      6  C   UNL     1     -33.262  10.441 -37.228  1.00  0.00     0.142 A 
ATOM      7  C   UNL     1     -32.893   9.840 -36.020  1.00  0.00     0.098 A 
ATOM      8  C   UNL     1     -32.892  10.585 -34.832  1.00  0.00     0.161 A 
ATOM      9  C   UNL     1     -33.260  11.938 -34.853  1.00  0.00     0.158 A 
ATOM     10  C   UNL     1     -33.630  12.546 -36.061  1.00  0.00     0.062 A 
ATOM     11  C   UNL     1     -33.632  11.803 -37.249  1.00  0.00     0.022 A 
ENDROOT
BRANCH   9  12
ATOM     12  O   UNL     1     -33.255  12.672 -33.668  1.00  0.00    -0.504 OA
ATOM     13  H   UNL     1     -34.101  12.812 -33.127  1.00  0.00     0.293 HD
ENDBRANCH   9  12
BRANCH   8  14
ATOM     14  O   UNL     1     -32.525   9.989 -33.627  1.00  0.00    -0.504 OA
ATOM     15  H   UNL     1     -31.573   9.690 -33.452  1.00  0.00     0.293 HD
ENDBRANCH   8  14
TORSDOF 2
ENDMDL
MODEL 4
REMARK VINA RESULT:    -5.720      1.055      4.507
REMARK INTER + INTRA:          -6.054
REMARK INTER:                  -6.054
REMARK INTRA:                   0.000
REMARK UNBOUND:                 0.000
REMARK SMILES O=c1ccc2cc(O)c(O)cc2o1
REMARK SMILES IDX 4 1 3 2 2 3 1 4 13 5 12 6 11 7 9 8 7 9 6 10 5 11 8 12 10 14
REMARK H PARENT 8 13 10 15
REMARK Flexibility Score: inf
ROOT
ATOM      1  C   UNL     1     -33.518   9.859 -39.159  1.00  0.00     0.019 A 
ATOM      2  C   UNL     1     -34.097  10.781 -40.030  1.00  0.00     0.094 A 
ATOM      3  C   UNL     1     -34.391  12.065 -39.560  1.00  0.00     0.336 A 
ATOM      4  O   UNL     1     -34.914  12.913 -40.330  1.00  0.00    -0.246 OA
ATOM      5  O   UNL     1     -34.122  12.400 -38.300  1.00  0.00    -0.423 OA
ATOM      6  C   UNL     1     -33.571  11.550 -37.436  1.00  0.00     0.142 A 
ATOM      7  C   UNL     1     -33.312  11.957 -36.123  1.00  0.00     0.098 A 
ATOM      8  C   UNL     1     -32.731  11.066 -35.210  1.00  0.00     0.161 A 
ATOM      9  C   UNL     1     -32.408   9.761 -35.611  1.00  0.00     0.158 A 
ATOM     10  C   UNL     1     -32.666   9.347 -36.926  1.00  0.00     0.062 A 
ATOM     11  C   UNL     1     -33.246  10.237 -37.840  1.00  0.00     0.022 A 
ENDROOT
BRANCH   9  12
ATOM     12  O   UNL     1     -31.831   8.882 -34.696  1.00  0.00    -0.504 OA
ATOM     13  H   UNL     1     -32.360   8.504 -33.918  1.00  0.00     0.293 HD
ENDBRANCH   9  12
BRANCH   8  14
ATOM     14  O   UNL     1     -32.471  11.469 -33.901  1.00  0.00    -0.504 OA
ATOM     15  H   UNL     1     -33.045  12.163 -33.436  1.00  0.00     0.293 HD
ENDBRANCH   8  14
TORSDOF 2
ENDMDL
MODEL 5
REMARK VINA RESULT:    -5.557      1.805      2.885
REMARK INTER + INTRA:          -5.881
REMARK INTER:                  -5.881
REMARK INTRA:                   0.000
REMARK UNBOUND:                 0.000
REMARK SMILES O=c1ccc2cc(O)c(O)cc2o1
REMARK SMILES IDX 4 1 3 2 2 3 1 4 13 5 12 6 11 7 9 8 7 9 6 10 5 11 8 12 10 14
REMARK H PARENT 8 13 10 15
REMARK Flexibility Score: inf
ROOT
ATOM      1  C   UNL     1     -33.662  12.666 -35.520  1.00  0.00     0.019 A 
ATOM      2  C   UNL     1     -33.361  12.724 -34.160  1.00  0.00     0.094 A 
ATOM      3  C   UNL     1     -32.412  11.840 -33.637  1.00  0.00     0.336 A 
ATOM      4  O   UNL     1     -32.126  11.876 -32.412  1.00  0.00    -0.246 OA
ATOM      5  O   UNL     1     -31.807  10.956 -34.428  1.00  0.00    -0.423 OA
ATOM      6  C   UNL     1     -32.065  10.867 -35.730  1.00  0.00     0.142 A 
ATOM      7  C   UNL     1     -31.399   9.918 -36.512  1.00  0.00     0.098 A 
ATOM      8  C   UNL     1     -31.667   9.820 -37.885  1.00  0.00     0.161 A 
ATOM      9  C   UNL     1     -32.607  10.675 -38.479  1.00  0.00     0.158 A 
ATOM     10  C   UNL     1     -33.278  11.628 -37.700  1.00  0.00     0.062 A 
ATOM     11  C   UNL     1     -33.012  11.728 -36.328  1.00  0.00     0.022 A 
ENDROOT
BRANCH   9  12
ATOM     12  O   UNL     1     -32.867  10.570 -39.844  1.00  0.00    -0.504 OA
ATOM     13  H   UNL     1     -33.460  11.238 -40.324  1.00  0.00     0.293 HD
ENDBRANCH   9  12
BRANCH   8  14
ATOM     14  O   UNL     1     -31.004   8.875 -38.666  1.00  0.00    -0.504 OA
ATOM     15  H   UNL     1     -29.996   8.894 -38.780  1.00  0.00     0.293 HD
ENDBRANCH   8  14
TORSDOF 2
ENDMDL
MODEL 6
REMARK VINA RESULT:    -5.234      1.014      2.235
REMARK INTER + INTRA:          -5.540
REMARK INTER:                  -5.540
REMARK INTRA:                   0.000
REMARK UNBOUND:                 0.000
REMARK SMILES O=c1ccc2cc(O)c(O)cc2o1
REMARK SMILES IDX 4 1 3 2 2 3 1 4 13 5 12 6 11 7 9 8 7 9 6 10 5 11 8 12 10 14
REMARK H PARENT 8 13 10 15
REMARK Flexibility Score: inf
ROOT
ATOM      1  C   UNL     1     -33.264  12.562 -35.749  1.00  0.00     0.019 A 
ATOM      2  C   UNL     1     -32.783  11.723 -34.745  1.00  0.00     0.094 A 
ATOM      3  C   UNL     1     -32.586  10.368 -35.031  1.00  0.00     0.336 A 
ATOM      4  O   UNL     1     -32.153   9.594 -34.138  1.00  0.00    -0.246 OA
ATOM      5  O   UNL     1     -32.856   9.889 -36.243  1.00  0.00    -0.423 OA
ATOM      6  C   UNL     1     -33.317  10.655 -37.229  1.00  0.00     0.142 A 
ATOM      7  C   UNL     1     -33.583  10.095 -38.483  1.00  0.00     0.098 A 
ATOM      8  C   UNL     1     -34.068  10.898 -39.525  1.00  0.00     0.161 A 
ATOM      9  C   UNL     1     -34.289  12.267 -39.312  1.00  0.00     0.158 A 
ATOM     10  C   UNL     1     -34.024  12.833 -38.057  1.00  0.00     0.062 A 
ATOM     11  C   UNL     1     -33.539  12.032 -37.014  1.00  0.00     0.022 A 
ENDROOT
BRANCH   9  12
ATOM     12  O   UNL     1     -34.772  13.057 -40.354  1.00  0.00    -0.504 OA
ATOM     13  H   UNL     1     -35.087  14.008 -40.197  1.00  0.00     0.293 HD
ENDBRANCH   9  12
BRANCH   8  14
ATOM     14  O   UNL     1     -34.334  10.343 -40.776  1.00  0.00    -0.504 OA
ATOM     15  H   UNL     1     -34.426   9.342 -40.903  1.00  0.00     0.293 HD
ENDBRANCH   8  14
TORSDOF 2
ENDMDL
MODEL 7
REMARK VINA RESULT:    -4.810      2.100      3.464
REMARK INTER + INTRA:          -5.092
REMARK INTER:                  -5.092
REMARK INTRA:                   0.000
REMARK UNBOUND:                 0.000
REMARK SMILES O=c1ccc2cc(O)c(O)cc2o1
REMARK SMILES IDX 4 1 3 2 2 3 1 4 13 5 12 6 11 7 9 8 7 9 6 10 5 11 8 12 10 14
REMARK H PARENT 8 13 10 15
REMARK Flexibility Score: inf
ROOT
ATOM      1  C   UNL     1     -33.953  12.575 -38.469  1.00  0.00     0.019 A 
ATOM      2  C   UNL     1     -33.053  12.199 -37.473  1.00  0.00     0.094 A 
ATOM      3  C   UNL     1     -32.487  10.921 -37.519  1.00  0.00     0.336 A 
ATOM      4  O   UNL     1     -31.672  10.562 -36.629  1.00  0.00    -0.246 OA
ATOM      5  O   UNL     1     -32.805  10.077 -38.497  1.00  0.00    -0.423 OA
ATOM      6  C   UNL     1     -33.660  10.396 -39.466  1.00  0.00     0.142 A 
ATOM      7  C   UNL     1     -33.957   9.467 -40.469  1.00  0.00     0.098 A 
ATOM      8  C   UNL     1     -34.857   9.798 -41.494  1.00  0.00     0.161 A 
ATOM      9  C   UNL     1     -35.463  11.063 -41.513  1.00  0.00     0.158 A 
ATOM     10  C   UNL     1     -35.169  11.997 -40.510  1.00  0.00     0.062 A 
ATOM     11  C   UNL     1     -34.270  11.669 -39.486  1.00  0.00     0.022 A 
ENDROOT
BRANCH   9  12
ATOM     12  O   UNL     1     -36.356  11.382 -42.535  1.00  0.00    -0.504 OA
ATOM     13  H   UNL     1     -36.108  12.032 -43.272  1.00  0.00     0.293 HD
ENDBRANCH   9  12
BRANCH   8  14
ATOM     14  O   UNL     1     -35.154   8.875 -42.495  1.00  0.00    -0.504 OA
ATOM     15  H   UNL     1     -34.610   8.028 -42.614  1.00  0.00     0.293 HD
ENDBRANCH   8  14
TORSDOF 2
ENDMDL
MODEL 8
REMARK VINA RESULT:    -4.468      1.842      5.034
REMARK INTER + INTRA:          -4.730
REMARK INTER:                  -4.730
REMARK INTRA:                   0.000
REMARK UNBOUND:                 0.000
REMARK SMILES O=c1ccc2cc(O)c(O)cc2o1
REMARK SMILES IDX 4 1 3 2 2 3 1 4 13 5 12 6 11 7 9 8 7 9 6 10 5 11 8 12 10 14
REMARK H PARENT 8 13 10 15
REMARK Flexibility Score: inf
ROOT
ATOM      1  C   UNL     1     -33.805   8.940 -40.963  1.00  0.00     0.019 A 
ATOM      2  C   UNL     1     -34.768   9.339 -41.890  1.00  0.00     0.094 A 
ATOM      3  C   UNL     1     -35.408  10.570 -41.715  1.00  0.00     0.336 A 
ATOM      4  O   UNL     1     -36.281  10.948 -42.540  1.00  0.00    -0.246 OA
ATOM      5  O   UNL     1     -35.103  11.347 -40.678  1.00  0.00    -0.423 OA
ATOM      6  C   UNL     1     -34.192  11.004 -39.771  1.00  0.00     0.142 A 
ATOM      7  C   UNL     1     -33.912  11.861 -38.702  1.00  0.00     0.098 A 
ATOM      8  C   UNL     1     -32.952  11.505 -37.744  1.00  0.00     0.161 A 
ATOM      9  C   UNL     1     -32.269  10.285 -37.855  1.00  0.00     0.158 A 
ATOM     10  C   UNL     1     -32.545   9.421 -38.925  1.00  0.00     0.062 A 
ATOM     11  C   UNL     1     -33.504   9.776 -39.884  1.00  0.00     0.022 A 
ENDROOT
BRANCH   9  12
ATOM     12  O   UNL     1     -31.316   9.939 -36.898  1.00  0.00    -0.504 OA
ATOM     13  H   UNL     1     -31.129   8.971 -36.662  1.00  0.00     0.293 HD
ENDBRANCH   9  12
BRANCH   8  14
ATOM     14  O   UNL     1     -32.671  12.357 -36.677  1.00  0.00    -0.504 OA
ATOM     15  H   UNL     1     -31.733  12.449 -36.305  1.00  0.00     0.293 HD
ENDBRANCH   8  14
TORSDOF 2
ENDMDL
MODEL 9
REMARK VINA RESULT:    -4.264      2.123      5.555
REMARK INTER + INTRA:          -4.513
REMARK INTER:                  -4.513
REMARK INTRA:                   0.000
REMARK UNBOUND:                 0.000
REMARK SMILES O=c1ccc2cc(O)c(O)cc2o1
REMARK SMILES IDX 4 1 3 2 2 3 1 4 13 5 12 6 11 7 9 8 7 9 6 10 5 11 8 12 10 14
REMARK H PARENT 8 13 10 15
REMARK Flexibility Score: inf
ROOT
ATOM      1  C   UNL     1     -35.157  11.814 -40.633  1.00  0.00     0.019 A 
ATOM      2  C   UNL     1     -35.846  11.124 -41.630  1.00  0.00     0.094 A 
ATOM      3  C   UNL     1     -35.720   9.733 -41.702  1.00  0.00     0.336 A 
ATOM      4  O   UNL     1     -36.334   9.091 -42.594  1.00  0.00    -0.246 OA
ATOM      5  O   UNL     1     -34.952   9.079 -40.833  1.00  0.00    -0.423 OA
ATOM      6  C   UNL     1     -34.277   9.699 -39.868  1.00  0.00     0.142 A 
ATOM      7  C   UNL     1     -33.485   8.961 -38.983  1.00  0.00     0.098 A 
ATOM      8  C   UNL     1     -32.773   9.609 -37.963  1.00  0.00     0.161 A 
ATOM      9  C   UNL     1     -32.852  11.003 -37.829  1.00  0.00     0.158 A 
ATOM     10  C   UNL     1     -33.644  11.748 -38.714  1.00  0.00     0.062 A 
ATOM     11  C   UNL     1     -34.357  11.103 -39.733  1.00  0.00     0.022 A 
ENDROOT
BRANCH   9  12
ATOM     12  O   UNL     1     -32.140  11.639 -36.813  1.00  0.00    -0.504 OA
ATOM     13  H   UNL     1     -32.603  12.001 -35.988  1.00  0.00     0.293 HD
ENDBRANCH   9  12
BRANCH   8  14
ATOM     14  O   UNL     1     -31.983   8.875 -37.080  1.00  0.00    -0.504 OA
ATOM     15  H   UNL     1     -32.392   8.224 -36.419  1.00  0.00     0.293 HD
ENDBRANCH   8  14
TORSDOF 2
ENDMDL
