MODEL 1
REMARK VINA RESULT:    -5.027      0.000      0.000
REMARK INTER + INTRA:         -10.019
REMARK INTER:                  -8.553
REMARK INTRA:                  -1.466
REMARK UNBOUND:                -1.466
REMARK SMILES CCCCCCCCCCCCCC(=O)[O-]
REMARK SMILES IDX 8 1 9 2 10 3 11 4 12 5 13 6 14 7 15 8 16 9 7 10 6 11 5 12
REMARK SMILES IDX 4 13 3 14 2 15 1 16
REMARK H PARENT
REMARK Flexibility Score: inf
ROOT
ATOM      1  C   UNL     1       4.168  44.427  11.039  1.00  0.00     0.000 C 
ENDROOT
BRANCH   1   2
ATOM      2  C   UNL     1       3.827  43.575   9.803  1.00  0.00     0.000 C 
BRANCH   2   3
ATOM      3  C   UNL     1       2.727  42.540  10.085  1.00  0.00     0.000 C 
BRANCH   3   4
ATOM      4  C   UNL     1       2.209  42.601  11.529  1.00  0.00     0.000 C 
BRANCH   4   5
ATOM      5  C   UNL     1       2.424  41.259  12.246  1.00  0.00     0.006 C 
BRANCH   5   6
ATOM      6  C   UNL     1       3.842  40.711  12.041  1.00  0.00     0.053 C 
BRANCH   6   7
ATOM      7  C   UNL     1       4.034  39.393  12.727  1.00  0.00     0.041 C 
ATOM      8  O   UNL     1       3.303  38.412  12.428  1.00  0.00    -0.550 OA
ATOM      9  O   UNL     1       5.043  39.238  13.669  1.00  0.00    -0.550 OA
ENDBRANCH   6   7
ENDBRANCH   5   6
ENDBRANCH   4   5
ENDBRANCH   3   4
ENDBRANCH   2   3
ENDBRANCH   1   2
BRANCH   1  10
ATOM     10  C   UNL     1       4.550  45.871  10.674  1.00  0.00     0.000 C 
BRANCH  10  11
ATOM     11  C   UNL     1       4.610  46.101   9.154  1.00  0.00    -0.000 C 
BRANCH  11  12
ATOM     12  C   UNL     1       4.191  47.526   8.755  1.00  0.00    -0.000 C 
BRANCH  12  13
ATOM     13  C   UNL     1       2.838  47.563   8.024  1.00  0.00    -0.000 C 
BRANCH  13  14
ATOM     14  C   UNL     1       1.648  47.371   8.977  1.00  0.00    -0.000 C 
BRANCH  14  15
ATOM     15  C   UNL     1       1.076  45.946   8.933  1.00  0.00    -0.003 C 
ATOM     16  C   UNL     1       0.402  45.584  10.253  1.00  0.00     0.004 C 
ENDBRANCH  14  15
ENDBRANCH  13  14
ENDBRANCH  12  13
ENDBRANCH  11  12
ENDBRANCH  10  11
ENDBRANCH   1  10
TORSDOF 12
ENDMDL
MODEL 2
REMARK VINA RESULT:    -5.006      1.186      2.916
REMARK INTER + INTRA:          -9.984
REMARK INTER:                  -8.796
REMARK INTRA:                  -1.188
REMARK UNBOUND:                -1.466
REMARK SMILES CCCCCCCCCCCCCC(=O)[O-]
REMARK SMILES IDX 8 1 9 2 10 3 11 4 12 5 13 6 14 7 15 8 16 9 7 10 6 11 5 12
REMARK SMILES IDX 4 13 3 14 2 15 1 16
REMARK H PARENT
REMARK Flexibility Score: inf
ROOT
ATOM      1  C   UNL     1       1.112  44.729   9.969  1.00  0.00     0.000 C 
ENDROOT
BRANCH   1   2
ATOM      2  C   UNL     1       1.593  43.581   9.063  1.00  0.00     0.000 C 
BRANCH   2   3
ATOM      3  C   UNL     1       2.959  43.023   9.492  1.00  0.00     0.000 C 
BRANCH   3   4
ATOM      4  C   UNL     1       3.406  43.540  10.868  1.00  0.00     0.000 C 
BRANCH   4   5
ATOM      5  C   UNL     1       3.969  42.396  11.726  1.00  0.00     0.006 C 
BRANCH   5   6
ATOM      6  C   UNL     1       3.048  41.169  11.736  1.00  0.00     0.053 C 
BRANCH   6   7
ATOM      7  C   UNL     1       3.681  40.004  12.434  1.00  0.00     0.041 C 
ATOM      8  O   UNL     1       3.067  38.907  12.518  1.00  0.00    -0.550 OA
ATOM      9  O   UNL     1       4.962  40.118  12.959  1.00  0.00    -0.550 OA
ENDBRANCH   6   7
ENDBRANCH   5   6
ENDBRANCH   4   5
ENDBRANCH   3   4
ENDBRANCH   2   3
ENDBRANCH   1   2
BRANCH   1  10
ATOM     10  C   UNL     1       0.768  46.002   9.177  1.00  0.00     0.000 C 
BRANCH  10  11
ATOM     11  C   UNL     1       1.797  47.126   9.388  1.00  0.00    -0.000 C 
BRANCH  11  12
ATOM     12  C   UNL     1       2.400  47.631   8.066  1.00  0.00    -0.000 C 
BRANCH  12  13
ATOM     13  C   UNL     1       3.938  47.674   8.094  1.00  0.00    -0.000 C 
BRANCH  13  14
ATOM     14  C   UNL     1       4.535  46.709   9.130  1.00  0.00    -0.000 C 
BRANCH  14  15
ATOM     15  C   UNL     1       5.936  47.131   9.596  1.00  0.00    -0.003 C 
ATOM     16  C   UNL     1       6.296  48.519   9.071  1.00  0.00     0.004 C 
ENDBRANCH  14  15
ENDBRANCH  13  14
ENDBRANCH  12  13
ENDBRANCH  11  12
ENDBRANCH  10  11
ENDBRANCH   1  10
TORSDOF 12
ENDMDL
MODEL 3
REMARK VINA RESULT:    -4.957      3.835      5.840
REMARK INTER + INTRA:          -9.900
REMARK INTER:                  -8.284
REMARK INTRA:                  -1.616
REMARK UNBOUND:                -1.466
REMARK SMILES CCCCCCCCCCCCCC(=O)[O-]
REMARK SMILES IDX 8 1 9 2 10 3 11 4 12 5 13 6 14 7 15 8 16 9 7 10 6 11 5 12
REMARK SMILES IDX 4 13 3 14 2 15 1 16
REMARK H PARENT
REMARK Flexibility Score: inf
ROOT
ATOM      1  C   UNL     1       3.819  42.614  11.563  1.00  0.00     0.000 C 
ENDROOT
BRANCH   1   2
ATOM      2  C   UNL     1       3.852  44.047  12.125  1.00  0.00     0.000 C 
BRANCH   2   3
ATOM      3  C   UNL     1       4.825  44.958  11.361  1.00  0.00     0.000 C 
BRANCH   3   4
ATOM      4  C   UNL     1       4.115  46.112  10.637  1.00  0.00     0.000 C 
BRANCH   4   5
ATOM      5  C   UNL     1       4.607  46.234   9.187  1.00  0.00     0.006 C 
BRANCH   5   6
ATOM      6  C   UNL     1       4.791  47.695   8.756  1.00  0.00     0.053 C 
BRANCH   6   7
ATOM      7  C   UNL     1       6.170  48.195   9.060  1.00  0.00     0.041 C 
ATOM      8  O   UNL     1       6.416  49.430   9.031  1.00  0.00    -0.550 OA
ATOM      9  O   UNL     1       7.174  47.301   9.408  1.00  0.00    -0.550 OA
ENDBRANCH   6   7
ENDBRANCH   5   6
ENDBRANCH   4   5
ENDBRANCH   3   4
ENDBRANCH   2   3
ENDBRANCH   1   2
BRANCH   1  10
ATOM     10  C   UNL     1       2.579  42.350  10.691  1.00  0.00     0.000 C 
BRANCH  10  11
ATOM     11  C   UNL     1       2.740  42.886   9.258  1.00  0.00    -0.000 C 
BRANCH  11  12
ATOM     12  C   UNL     1       1.487  43.627   8.760  1.00  0.00    -0.000 C 
BRANCH  12  13
ATOM     13  C   UNL     1       1.031  44.734   9.726  1.00  0.00    -0.000 C 
BRANCH  13  14
ATOM     14  C   UNL     1       0.043  45.715   9.075  1.00  0.00    -0.000 C 
BRANCH  14  15
ATOM     15  C   UNL     1       0.692  46.569   7.976  1.00  0.00    -0.003 C 
ATOM     16  C   UNL     1       1.160  47.912   8.530  1.00  0.00     0.004 C 
ENDBRANCH  14  15
ENDBRANCH  13  14
ENDBRANCH  12  13
ENDBRANCH  11  12
ENDBRANCH  10  11
ENDBRANCH   1  10
TORSDOF 12
ENDMDL
MODEL 4
REMARK VINA RESULT:    -4.951      3.925      5.882
REMARK INTER + INTRA:          -9.890
REMARK INTER:                  -8.461
REMARK INTRA:                  -1.428
REMARK UNBOUND:                -1.466
REMARK SMILES CCCCCCCCCCCCCC(=O)[O-]
REMARK SMILES IDX 8 1 9 2 10 3 11 4 12 5 13 6 14 7 15 8 16 9 7 10 6 11 5 12
REMARK SMILES IDX 4 13 3 14 2 15 1 16
REMARK H PARENT
REMARK Flexibility Score: inf
ROOT
ATOM      1  C   UNL     1       2.785  42.480  10.897  1.00  0.00     0.000 C 
ENDROOT
BRANCH   1   2
ATOM      2  C   UNL     1       2.029  43.193  12.033  1.00  0.00     0.000 C 
BRANCH   2   3
ATOM      3  C   UNL     1       0.773  43.927  11.536  1.00  0.00     0.000 C 
BRANCH   3   4
ATOM      4  C   UNL     1       0.932  44.480  10.112  1.00  0.00     0.000 C 
BRANCH   4   5
ATOM      5  C   UNL     1       0.210  45.828   9.964  1.00  0.00     0.006 C 
BRANCH   5   6
ATOM      6  C   UNL     1       1.178  46.974   9.643  1.00  0.00     0.053 C 
BRANCH   6   7
ATOM      7  C   UNL     1       1.213  47.278   8.176  1.00  0.00     0.041 C 
ATOM      8  O   UNL     1       0.547  46.579   7.368  1.00  0.00    -0.550 OA
ATOM      9  O   UNL     1       1.954  48.355   7.706  1.00  0.00    -0.550 OA
ENDBRANCH   6   7
ENDBRANCH   5   6
ENDBRANCH   4   5
ENDBRANCH   3   4
ENDBRANCH   2   3
ENDBRANCH   1   2
BRANCH   1  10
ATOM     10  C   UNL     1       4.124  43.158  10.562  1.00  0.00     0.000 C 
BRANCH  10  11
ATOM     11  C   UNL     1       4.503  44.251  11.575  1.00  0.00    -0.000 C 
BRANCH  11  12
ATOM     12  C   UNL     1       4.476  45.662  10.962  1.00  0.00    -0.000 C 
BRANCH  12  13
ATOM     13  C   UNL     1       4.395  45.638   9.426  1.00  0.00    -0.000 C 
BRANCH  13  14
ATOM     14  C   UNL     1       4.964  46.914   8.786  1.00  0.00    -0.000 C 
BRANCH  14  15
ATOM     15  C   UNL     1       6.190  47.458   9.533  1.00  0.00    -0.003 C 
ATOM     16  C   UNL     1       6.468  48.909   9.150  1.00  0.00     0.004 C 
ENDBRANCH  14  15
ENDBRANCH  13  14
ENDBRANCH  12  13
ENDBRANCH  11  12
ENDBRANCH  10  11
ENDBRANCH   1  10
TORSDOF 12
ENDMDL
MODEL 5
REMARK VINA RESULT:    -4.938      3.832      7.074
REMARK INTER + INTRA:          -9.868
REMARK INTER:                  -8.911
REMARK INTRA:                  -0.957
REMARK UNBOUND:                -1.466
REMARK SMILES CCCCCCCCCCCCCC(=O)[O-]
REMARK SMILES IDX 8 1 9 2 10 3 11 4 12 5 13 6 14 7 15 8 16 9 7 10 6 11 5 12
REMARK SMILES IDX 4 13 3 14 2 15 1 16
REMARK H PARENT
REMARK Flexibility Score: inf
ROOT
ATOM      1  C   UNL     1       1.931  43.858   9.500  1.00  0.00     0.000 C 
ENDROOT
BRANCH   1   2
ATOM      2  C   UNL     1       1.440  45.315   9.567  1.00  0.00     0.000 C 
BRANCH   2   3
ATOM      3  C   UNL     1       2.555  46.296   9.963  1.00  0.00     0.000 C 
BRANCH   3   4
ATOM      4  C   UNL     1       2.855  47.328   8.865  1.00  0.00     0.000 C 
BRANCH   4   5
ATOM      5  C   UNL     1       4.305  47.198   8.373  1.00  0.00     0.006 C 
BRANCH   5   6
ATOM      6  C   UNL     1       5.298  47.024   9.529  1.00  0.00     0.053 C 
BRANCH   6   7
ATOM      7  C   UNL     1       6.497  47.909   9.373  1.00  0.00     0.041 C 
ATOM      8  O   UNL     1       7.656  47.431   9.485  1.00  0.00    -0.550 OA
ATOM      9  O   UNL     1       6.333  49.254   9.067  1.00  0.00    -0.550 OA
ENDBRANCH   6   7
ENDBRANCH   5   6
ENDBRANCH   4   5
ENDBRANCH   3   4
ENDBRANCH   2   3
ENDBRANCH   1   2
BRANCH   1  10
ATOM     10  C   UNL     1       3.461  43.744   9.610  1.00  0.00     0.000 C 
BRANCH  10  11
ATOM     11  C   UNL     1       3.920  43.256  10.995  1.00  0.00    -0.000 C 
BRANCH  11  12
ATOM     12  C   UNL     1       2.825  42.473  11.739  1.00  0.00    -0.000 C 
BRANCH  12  13
ATOM     13  C   UNL     1       3.076  40.955  11.733  1.00  0.00    -0.000 C 
BRANCH  13  14
ATOM     14  C   UNL     1       4.401  40.574  12.413  1.00  0.00    -0.000 C 
BRANCH  14  15
ATOM     15  C   UNL     1       4.428  39.112  12.883  1.00  0.00    -0.003 C 
ATOM     16  C   UNL     1       3.164  38.373  12.454  1.00  0.00     0.004 C 
ENDBRANCH  14  15
ENDBRANCH  13  14
ENDBRANCH  12  13
ENDBRANCH  11  12
ENDBRANCH  10  11
ENDBRANCH   1  10
TORSDOF 12
ENDMDL
MODEL 6
REMARK VINA RESULT:    -4.932      3.891      7.052
REMARK INTER + INTRA:          -9.858
REMARK INTER:                  -8.976
REMARK INTRA:                  -0.882
REMARK UNBOUND:                -1.466
REMARK SMILES CCCCCCCCCCCCCC(=O)[O-]
REMARK SMILES IDX 8 1 9 2 10 3 11 4 12 5 13 6 14 7 15 8 16 9 7 10 6 11 5 12
REMARK SMILES IDX 4 13 3 14 2 15 1 16
REMARK H PARENT
REMARK Flexibility Score: inf
ROOT
ATOM      1  C   UNL     1       1.135  44.784   9.803  1.00  0.00     0.000 C 
ENDROOT
BRANCH   1   2
ATOM      2  C   UNL     1       1.023  46.100   9.013  1.00  0.00     0.000 C 
BRANCH   2   3
ATOM      3  C   UNL     1       2.316  46.929   9.060  1.00  0.00     0.000 C 
BRANCH   3   4
ATOM      4  C   UNL     1       3.301  46.433  10.130  1.00  0.00     0.000 C 
BRANCH   4   5
ATOM      5  C   UNL     1       4.744  46.468   9.604  1.00  0.00     0.006 C 
BRANCH   5   6
ATOM      6  C   UNL     1       5.027  47.721   8.764  1.00  0.00     0.053 C 
BRANCH   6   7
ATOM      7  C   UNL     1       6.363  48.318   9.087  1.00  0.00     0.041 C 
ATOM      8  O   UNL     1       6.545  49.559   8.976  1.00  0.00    -0.550 OA
ATOM      9  O   UNL     1       7.395  47.508   9.543  1.00  0.00    -0.550 OA
ENDBRANCH   6   7
ENDBRANCH   5   6
ENDBRANCH   4   5
ENDBRANCH   3   4
ENDBRANCH   2   3
ENDBRANCH   1   2
BRANCH   1  10
ATOM     10  C   UNL     1       1.553  43.597   8.918  1.00  0.00     0.000 C 
BRANCH  10  11
ATOM     11  C   UNL     1       2.757  42.829   9.488  1.00  0.00    -0.000 C 
BRANCH  11  12
ATOM     12  C   UNL     1       2.832  42.901  11.023  1.00  0.00    -0.000 C 
BRANCH  12  13
ATOM     13  C   UNL     1       3.745  41.818  11.622  1.00  0.00    -0.000 C 
BRANCH  13  14
ATOM     14  C   UNL     1       2.954  40.637  12.206  1.00  0.00    -0.000 C 
BRANCH  14  15
ATOM     15  C   UNL     1       3.855  39.461  12.610  1.00  0.00    -0.003 C 
ATOM     16  C   UNL     1       3.199  38.125  12.273  1.00  0.00     0.004 C 
ENDBRANCH  14  15
ENDBRANCH  13  14
ENDBRANCH  12  13
ENDBRANCH  11  12
ENDBRANCH  10  11
ENDBRANCH   1  10
TORSDOF 12
ENDMDL
MODEL 7
REMARK VINA RESULT:    -4.922      0.747      1.667
REMARK INTER + INTRA:          -9.841
REMARK INTER:                  -8.450
REMARK INTRA:                  -1.391
REMARK UNBOUND:                -1.466
REMARK SMILES CCCCCCCCCCCCCC(=O)[O-]
REMARK SMILES IDX 8 1 9 2 10 3 11 4 12 5 13 6 14 7 15 8 16 9 7 10 6 11 5 12
REMARK SMILES IDX 4 13 3 14 2 15 1 16
REMARK H PARENT
REMARK Flexibility Score: inf
ROOT
ATOM      1  C   UNL     1       4.285  46.104  10.757  1.00  0.00     0.000 C 
ENDROOT
BRANCH   1   2
ATOM      2  C   UNL     1       4.218  44.682  11.342  1.00  0.00     0.000 C 
BRANCH   2   3
ATOM      3  C   UNL     1       4.146  43.599  10.254  1.00  0.00     0.000 C 
BRANCH   3   4
ATOM      4  C   UNL     1       3.211  42.440  10.631  1.00  0.00     0.000 C 
BRANCH   4   5
ATOM      5  C   UNL     1       3.779  41.639  11.812  1.00  0.00     0.006 C 
BRANCH   5   6
ATOM      6  C   UNL     1       2.881  40.456  12.199  1.00  0.00     0.053 C 
BRANCH   6   7
ATOM      7  C   UNL     1       3.680  39.284  12.680  1.00  0.00     0.041 C 
ATOM      8  O   UNL     1       3.264  38.111  12.487  1.00  0.00    -0.550 OA
ATOM      9  O   UNL     1       4.902  39.486  13.310  1.00  0.00    -0.550 OA
ENDBRANCH   6   7
ENDBRANCH   5   6
ENDBRANCH   4   5
ENDBRANCH   3   4
ENDBRANCH   2   3
ENDBRANCH   1   2
BRANCH   1  10
ATOM     10  C   UNL     1       4.264  46.112   9.220  1.00  0.00     0.000 C 
BRANCH  10  11
ATOM     11  C   UNL     1       3.327  47.188   8.646  1.00  0.00    -0.000 C 
BRANCH  11  12
ATOM     12  C   UNL     1       2.014  47.313   9.438  1.00  0.00    -0.000 C 
BRANCH  12  13
ATOM     13  C   UNL     1       0.849  46.558   8.775  1.00  0.00    -0.000 C 
BRANCH  13  14
ATOM     14  C   UNL     1       0.746  45.099   9.248  1.00  0.00    -0.000 C 
BRANCH  14  15
ATOM     15  C   UNL     1       0.418  44.981  10.743  1.00  0.00    -0.003 C 
ATOM     16  C   UNL     1      -0.886  45.700  11.078  1.00  0.00     0.004 C 
ENDBRANCH  14  15
ENDBRANCH  13  14
ENDBRANCH  12  13
ENDBRANCH  11  12
ENDBRANCH  10  11
ENDBRANCH   1  10
TORSDOF 12
ENDMDL
MODEL 8
REMARK VINA RESULT:    -4.787      1.982      3.963
REMARK INTER + INTRA:          -9.611
REMARK INTER:                  -8.292
REMARK INTRA:                  -1.318
REMARK UNBOUND:                -1.466
REMARK SMILES CCCCCCCCCCCCCC(=O)[O-]
REMARK SMILES IDX 8 1 9 2 10 3 11 4 12 5 13 6 14 7 15 8 16 9 7 10 6 11 5 12
REMARK SMILES IDX 4 13 3 14 2 15 1 16
REMARK H PARENT
REMARK Flexibility Score: inf
ROOT
ATOM      1  C   UNL     1       0.238  46.472   9.258  1.00  0.00     0.000 C 
ENDROOT
BRANCH   1   2
ATOM      2  C   UNL     1       0.220  45.754  10.620  1.00  0.00     0.000 C 
BRANCH   2   3
ATOM      3  C   UNL     1       0.841  44.350  10.555  1.00  0.00     0.000 C 
BRANCH   3   4
ATOM      4  C   UNL     1       1.428  44.023   9.174  1.00  0.00     0.000 C 
BRANCH   4   5
ATOM      5  C   UNL     1       2.752  43.254   9.309  1.00  0.00     0.006 C 
BRANCH   5   6
ATOM      6  C   UNL     1       2.730  42.260  10.478  1.00  0.00     0.053 C 
BRANCH   6   7
ATOM      7  C   UNL     1       3.898  42.453  11.396  1.00  0.00     0.041 C 
ATOM      8  O   UNL     1       4.346  41.484  12.064  1.00  0.00    -0.550 OA
ATOM      9  O   UNL     1       4.514  43.695  11.486  1.00  0.00    -0.550 OA
ENDBRANCH   6   7
ENDBRANCH   5   6
ENDBRANCH   4   5
ENDBRANCH   3   4
ENDBRANCH   2   3
ENDBRANCH   1   2
BRANCH   1  10
ATOM     10  C   UNL     1       1.185  47.683   9.242  1.00  0.00     0.000 C 
BRANCH  10  11
ATOM     11  C   UNL     1       2.028  47.757   7.957  1.00  0.00    -0.000 C 
BRANCH  11  12
ATOM     12  C   UNL     1       3.504  47.399   8.197  1.00  0.00    -0.000 C 
BRANCH  12  13
ATOM     13  C   UNL     1       3.732  46.702   9.549  1.00  0.00    -0.000 C 
BRANCH  13  14
ATOM     14  C   UNL     1       5.197  46.771  10.009  1.00  0.00    -0.000 C 
BRANCH  14  15
ATOM     15  C   UNL     1       6.002  47.848   9.268  1.00  0.00    -0.003 C 
ATOM     16  C   UNL     1       7.502  47.589   9.382  1.00  0.00     0.004 C 
ENDBRANCH  14  15
ENDBRANCH  13  14
ENDBRANCH  12  13
ENDBRANCH  11  12
ENDBRANCH  10  11
ENDBRANCH   1  10
TORSDOF 12
ENDMDL
MODEL 9
REMARK VINA RESULT:    -4.745      3.826      6.438
REMARK INTER + INTRA:          -9.539
REMARK INTER:                  -8.122
REMARK INTRA:                  -1.417
REMARK UNBOUND:                -1.466
REMARK SMILES CCCCCCCCCCCCCC(=O)[O-]
REMARK SMILES IDX 8 1 9 2 10 3 11 4 12 5 13 6 14 7 15 8 16 9 7 10 6 11 5 12
REMARK SMILES IDX 4 13 3 14 2 15 1 16
REMARK H PARENT
REMARK Flexibility Score: inf
ROOT
ATOM      1  C   UNL     1       0.347  46.030   9.621  1.00  0.00     0.000 C 
ENDROOT
BRANCH   1   2
ATOM      2  C   UNL     1       0.658  46.364   8.151  1.00  0.00     0.000 C 
BRANCH   2   3
ATOM      3  C   UNL     1       1.747  47.439   8.008  1.00  0.00     0.000 C 
BRANCH   3   4
ATOM      4  C   UNL     1       2.822  47.345   9.101  1.00  0.00     0.000 C 
BRANCH   4   5
ATOM      5  C   UNL     1       4.218  47.175   8.484  1.00  0.00     0.006 C 
BRANCH   5   6
ATOM      6  C   UNL     1       5.304  46.969   9.548  1.00  0.00     0.053 C 
BRANCH   6   7
ATOM      7  C   UNL     1       6.495  47.844   9.305  1.00  0.00     0.041 C 
ATOM      8  O   UNL     1       6.340  49.029   8.907  1.00  0.00    -0.550 OA
ATOM      9  O   UNL     1       7.775  47.362   9.551  1.00  0.00    -0.550 OA
ENDBRANCH   6   7
ENDBRANCH   5   6
ENDBRANCH   4   5
ENDBRANCH   3   4
ENDBRANCH   2   3
ENDBRANCH   1   2
BRANCH   1  10
ATOM     10  C   UNL     1       0.997  44.713  10.078  1.00  0.00     0.000 C 
BRANCH  10  11
ATOM     11  C   UNL     1       1.416  43.820   8.897  1.00  0.00    -0.000 C 
BRANCH  11  12
ATOM     12  C   UNL     1       2.803  43.186   9.098  1.00  0.00    -0.000 C 
BRANCH  12  13
ATOM     13  C   UNL     1       3.552  43.771  10.308  1.00  0.00    -0.000 C 
BRANCH  13  14
ATOM     14  C   UNL     1       3.946  42.697  11.334  1.00  0.00    -0.000 C 
BRANCH  14  15
ATOM     15  C   UNL     1       2.885  41.596  11.479  1.00  0.00    -0.003 C 
ATOM     16  C   UNL     1       1.776  42.024  12.436  1.00  0.00     0.004 C 
ENDBRANCH  14  15
ENDBRANCH  13  14
ENDBRANCH  12  13
ENDBRANCH  11  12
ENDBRANCH  10  11
ENDBRANCH   1  10
TORSDOF 12
ENDMDL
