MODEL 1
REMARK VINA RESULT:    -4.913      0.000      0.000
REMARK INTER + INTRA:         -17.966
REMARK INTER:                 -12.954
REMARK INTRA:                  -5.012
REMARK UNBOUND:                -5.012
REMARK SMILES CCCCCCCCCCCCCCCCCCCCCCCCCCCCCC(=O)[O-]
REMARK SMILES IDX 16 1 17 2 18 3 19 4 20 5 21 6 22 7 23 8 24 9 25 10 26 11
REMARK SMILES IDX 27 12 28 13 29 14 30 15 31 16 32 17 15 18 14 19 13 20 12 21
REMARK SMILES IDX 11 22 10 23 9 24 8 25 7 26 6 27 5 28 4 29 3 30 2 31 1 32
REMARK H PARENT
REMARK Flexibility Score: inf
ROOT
ATOM      1  C   UNL     1      10.969 -18.623 -12.041  1.00  0.00     0.000 C 
ENDROOT
BRANCH   1   2
ATOM      2  C   UNL     1      10.686 -19.471 -10.787  1.00  0.00     0.000 C 
BRANCH   2   3
ATOM      3  C   UNL     1      10.905 -18.747  -9.443  1.00  0.00     0.000 C 
BRANCH   3   4
ATOM      4  C   UNL     1      11.420 -17.299  -9.555  1.00  0.00     0.000 C 
BRANCH   4   5
ATOM      5  C   UNL     1      12.683 -16.994  -8.731  1.00  0.00     0.000 C 
BRANCH   5   6
ATOM      6  C   UNL     1      12.956 -15.489  -8.592  1.00  0.00     0.000 C 
BRANCH   6   7
ATOM      7  C   UNL     1      13.018 -15.077  -7.113  1.00  0.00     0.000 C 
BRANCH   7   8
ATOM      8  C   UNL     1      11.758 -14.329  -6.650  1.00  0.00     0.000 C 
BRANCH   8   9
ATOM      9  C   UNL     1      10.836 -13.944  -7.817  1.00  0.00     0.000 C 
BRANCH   9  10
ATOM     10  C   UNL     1       9.411 -14.465  -7.586  1.00  0.00     0.000 C 
BRANCH  10  11
ATOM     11  C   UNL     1       9.261 -15.051  -6.174  1.00  0.00     0.000 C 
BRANCH  11  12
ATOM     12  C   UNL     1       8.420 -16.340  -6.145  1.00  0.00     0.000 C 
BRANCH  12  13
ATOM     13  C   UNL     1       9.203 -17.637  -6.436  1.00  0.00     0.006 C 
BRANCH  13  14
ATOM     14  C   UNL     1      10.539 -17.756  -5.685  1.00  0.00     0.053 C 
BRANCH  14  15
ATOM     15  C   UNL     1      10.434 -18.659  -4.495  1.00  0.00     0.041 C 
ATOM     16  O   UNL     1      10.891 -18.291  -3.380  1.00  0.00    -0.550 OA
ATOM     17  O   UNL     1       9.800 -19.890  -4.606  1.00  0.00    -0.550 OA
ENDBRANCH  14  15
ENDBRANCH  13  14
ENDBRANCH  12  13
ENDBRANCH  11  12
ENDBRANCH  10  11
ENDBRANCH   9  10
ENDBRANCH   8   9
ENDBRANCH   7   8
ENDBRANCH   6   7
ENDBRANCH   5   6
ENDBRANCH   4   5
ENDBRANCH   3   4
ENDBRANCH   2   3
ENDBRANCH   1   2
BRANCH   1  18
ATOM     18  C   UNL     1      11.458 -19.463 -13.232  1.00  0.00     0.000 C 
BRANCH  18  19
ATOM     19  C   UNL     1      11.644 -18.628 -14.509  1.00  0.00     0.000 C 
BRANCH  19  20
ATOM     20  C   UNL     1      12.830 -19.106 -15.362  1.00  0.00     0.000 C 
BRANCH  20  21
ATOM     21  C   UNL     1      13.750 -17.936 -15.733  1.00  0.00     0.000 C 
BRANCH  21  22
ATOM     22  C   UNL     1      13.613 -16.790 -14.720  1.00  0.00     0.000 C 
BRANCH  22  23
ATOM     23  C   UNL     1      14.811 -16.700 -13.762  1.00  0.00     0.000 C 
BRANCH  23  24
ATOM     24  C   UNL     1      14.451 -17.120 -12.325  1.00  0.00    -0.000 C 
BRANCH  24  25
ATOM     25  C   UNL     1      14.824 -18.591 -12.040  1.00  0.00    -0.000 C 
BRANCH  25  26
ATOM     26  C   UNL     1      15.938 -19.135 -12.950  1.00  0.00    -0.000 C 
BRANCH  26  27
ATOM     27  C   UNL     1      15.936 -20.668 -13.043  1.00  0.00    -0.000 C 
BRANCH  27  28
ATOM     28  C   UNL     1      14.520 -21.267 -13.008  1.00  0.00    -0.000 C 
BRANCH  28  29
ATOM     29  C   UNL     1      14.242 -22.266 -14.152  1.00  0.00    -0.000 C 
BRANCH  29  30
ATOM     30  C   UNL     1      13.976 -23.686 -13.624  1.00  0.00    -0.000 C 
BRANCH  30  31
ATOM     31  C   UNL     1      12.562 -24.187 -13.959  1.00  0.00    -0.003 C 
ATOM     32  C   UNL     1      11.571 -23.045 -14.180  1.00  0.00     0.004 C 
ENDBRANCH  30  31
ENDBRANCH  29  30
ENDBRANCH  28  29
ENDBRANCH  27  28
ENDBRANCH  26  27
ENDBRANCH  25  26
ENDBRANCH  24  25
ENDBRANCH  23  24
ENDBRANCH  22  23
ENDBRANCH  21  22
ENDBRANCH  20  21
ENDBRANCH  19  20
ENDBRANCH  18  19
ENDBRANCH   1  18
TORSDOF 28
ENDMDL
MODEL 2
REMARK VINA RESULT:    -4.885      5.018      8.384
REMARK INTER + INTRA:         -17.893
REMARK INTER:                 -13.011
REMARK INTRA:                  -4.882
REMARK UNBOUND:                -5.012
REMARK SMILES CCCCCCCCCCCCCCCCCCCCCCCCCCCCCC(=O)[O-]
REMARK SMILES IDX 16 1 17 2 18 3 19 4 20 5 21 6 22 7 23 8 24 9 25 10 26 11
REMARK SMILES IDX 27 12 28 13 29 14 30 15 31 16 32 17 15 18 14 19 13 20 12 21
REMARK SMILES IDX 11 22 10 23 9 24 8 25 7 26 6 27 5 28 4 29 3 30 2 31 1 32
REMARK H PARENT
REMARK Flexibility Score: inf
ROOT
ATOM      1  C   UNL     1      11.322 -24.817 -14.112  1.00  0.00     0.000 C 
ENDROOT
BRANCH   1   2
ATOM      2  C   UNL     1      11.435 -23.281 -14.123  1.00  0.00     0.000 C 
BRANCH   2   3
ATOM      3  C   UNL     1      12.867 -22.728 -13.977  1.00  0.00     0.000 C 
BRANCH   3   4
ATOM      4  C   UNL     1      12.968 -21.192 -13.885  1.00  0.00     0.000 C 
BRANCH   4   5
ATOM      5  C   UNL     1      11.619 -20.452 -13.889  1.00  0.00     0.000 C 
BRANCH   5   6
ATOM      6  C   UNL     1      11.485 -19.462 -15.057  1.00  0.00     0.000 C 
BRANCH   6   7
ATOM      7  C   UNL     1      12.442 -19.831 -16.201  1.00  0.00     0.000 C 
BRANCH   7   8
ATOM      8  C   UNL     1      13.357 -18.667 -16.611  1.00  0.00     0.000 C 
BRANCH   8   9
ATOM      9  C   UNL     1      14.414 -18.340 -15.545  1.00  0.00     0.000 C 
BRANCH   9  10
ATOM     10  C   UNL     1      14.503 -16.827 -15.305  1.00  0.00     0.000 C 
BRANCH  10  11
ATOM     11  C   UNL     1      13.603 -16.401 -14.136  1.00  0.00     0.000 C 
BRANCH  11  12
ATOM     12  C   UNL     1      13.688 -17.358 -12.933  1.00  0.00     0.000 C 
BRANCH  12  13
ATOM     13  C   UNL     1      14.949 -17.198 -12.060  1.00  0.00     0.006 C 
BRANCH  13  14
ATOM     14  C   UNL     1      15.303 -18.436 -11.220  1.00  0.00     0.053 C 
BRANCH  14  15
ATOM     15  C   UNL     1      15.865 -19.542 -12.058  1.00  0.00     0.041 C 
ATOM     16  O   UNL     1      16.580 -19.276 -13.060  1.00  0.00    -0.550 OA
ATOM     17  O   UNL     1      15.630 -20.867 -11.712  1.00  0.00    -0.550 OA
ENDBRANCH  14  15
ENDBRANCH  13  14
ENDBRANCH  12  13
ENDBRANCH  11  12
ENDBRANCH  10  11
ENDBRANCH   9  10
ENDBRANCH   8   9
ENDBRANCH   7   8
ENDBRANCH   6   7
ENDBRANCH   5   6
ENDBRANCH   4   5
ENDBRANCH   3   4
ENDBRANCH   2   3
ENDBRANCH   1   2
BRANCH   1  18
ATOM     18  C   UNL     1      12.691 -25.515 -14.085  1.00  0.00     0.000 C 
BRANCH  18  19
ATOM     19  C   UNL     1      12.616 -26.984 -14.536  1.00  0.00     0.000 C 
BRANCH  19  20
ATOM     20  C   UNL     1      13.967 -27.708 -14.425  1.00  0.00     0.000 C 
BRANCH  20  21
ATOM     21  C   UNL     1      14.797 -27.526 -15.702  1.00  0.00     0.000 C 
BRANCH  21  22
ATOM     22  C   UNL     1      16.123 -28.295 -15.606  1.00  0.00     0.000 C 
BRANCH  22  23
ATOM     23  C   UNL     1      16.345 -28.923 -14.221  1.00  0.00     0.000 C 
BRANCH  23  24
ATOM     24  C   UNL     1      17.366 -28.142 -13.375  1.00  0.00    -0.000 C 
BRANCH  24  25
ATOM     25  C   UNL     1      16.853 -27.876 -11.942  1.00  0.00    -0.000 C 
BRANCH  25  26
ATOM     26  C   UNL     1      16.880 -26.392 -11.541  1.00  0.00    -0.000 C 
BRANCH  26  27
ATOM     27  C   UNL     1      15.747 -25.579 -12.185  1.00  0.00    -0.000 C 
BRANCH  27  28
ATOM     28  C   UNL     1      16.240 -24.270 -12.824  1.00  0.00    -0.000 C 
BRANCH  28  29
ATOM     29  C   UNL     1      16.119 -24.250 -14.363  1.00  0.00    -0.000 C 
BRANCH  29  30
ATOM     30  C   UNL     1      17.367 -24.833 -15.046  1.00  0.00    -0.000 C 
BRANCH  30  31
ATOM     31  C   UNL     1      18.654 -24.574 -14.246  1.00  0.00    -0.003 C 
ATOM     32  C   UNL     1      19.795 -25.507 -14.651  1.00  0.00     0.004 C 
ENDBRANCH  30  31
ENDBRANCH  29  30
ENDBRANCH  28  29
ENDBRANCH  27  28
ENDBRANCH  26  27
ENDBRANCH  25  26
ENDBRANCH  24  25
ENDBRANCH  23  24
ENDBRANCH  22  23
ENDBRANCH  21  22
ENDBRANCH  20  21
ENDBRANCH  19  20
ENDBRANCH  18  19
ENDBRANCH   1  18
TORSDOF 28
ENDMDL
MODEL 3
REMARK VINA RESULT:    -4.883      4.563      9.901
REMARK INTER + INTRA:         -17.887
REMARK INTER:                 -13.828
REMARK INTRA:                  -4.059
REMARK UNBOUND:                -5.012
REMARK SMILES CCCCCCCCCCCCCCCCCCCCCCCCCCCCCC(=O)[O-]
REMARK SMILES IDX 16 1 17 2 18 3 19 4 20 5 21 6 22 7 23 8 24 9 25 10 26 11
REMARK SMILES IDX 27 12 28 13 29 14 30 15 31 16 32 17 15 18 14 19 13 20 12 21
REMARK SMILES IDX 11 22 10 23 9 24 8 25 7 26 6 27 5 28 4 29 3 30 2 31 1 32
REMARK H PARENT
REMARK Flexibility Score: inf
ROOT
ATOM      1  C   UNL     1      11.382 -23.502 -14.231  1.00  0.00     0.000 C 
ENDROOT
BRANCH   1   2
ATOM      2  C   UNL     1      11.531 -25.030 -14.122  1.00  0.00     0.000 C 
BRANCH   2   3
ATOM      3  C   UNL     1      12.979 -25.538 -13.969  1.00  0.00     0.000 C 
BRANCH   3   4
ATOM      4  C   UNL     1      13.230 -26.966 -14.495  1.00  0.00     0.000 C 
BRANCH   4   5
ATOM      5  C   UNL     1      14.702 -27.293 -14.801  1.00  0.00     0.000 C 
BRANCH   5   6
ATOM      6  C   UNL     1      15.138 -28.657 -14.246  1.00  0.00     0.000 C 
BRANCH   6   7
ATOM      7  C   UNL     1      16.575 -28.596 -13.705  1.00  0.00     0.000 C 
BRANCH   7   8
ATOM      8  C   UNL     1      16.644 -28.101 -12.252  1.00  0.00     0.000 C 
BRANCH   8   9
ATOM      9  C   UNL     1      17.686 -26.990 -12.053  1.00  0.00     0.000 C 
BRANCH   9  10
ATOM     10  C   UNL     1      17.141 -25.880 -11.145  1.00  0.00     0.000 C 
BRANCH  10  11
ATOM     11  C   UNL     1      15.755 -25.415 -11.617  1.00  0.00     0.000 C 
BRANCH  11  12
ATOM     12  C   UNL     1      15.731 -23.936 -12.040  1.00  0.00     0.000 C 
BRANCH  12  13
ATOM     13  C   UNL     1      16.109 -23.672 -13.512  1.00  0.00     0.006 C 
BRANCH  13  14
ATOM     14  C   UNL     1      17.614 -23.487 -13.760  1.00  0.00     0.053 C 
BRANCH  14  15
ATOM     15  C   UNL     1      18.075 -24.213 -14.985  1.00  0.00     0.041 C 
ATOM     16  O   UNL     1      17.697 -25.395 -15.201  1.00  0.00    -0.550 OA
ATOM     17  O   UNL     1      18.892 -23.573 -15.909  1.00  0.00    -0.550 OA
ENDBRANCH  14  15
ENDBRANCH  13  14
ENDBRANCH  12  13
ENDBRANCH  11  12
ENDBRANCH  10  11
ENDBRANCH   9  10
ENDBRANCH   8   9
ENDBRANCH   7   8
ENDBRANCH   6   7
ENDBRANCH   5   6
ENDBRANCH   4   5
ENDBRANCH   3   4
ENDBRANCH   2   3
ENDBRANCH   1   2
BRANCH   1  18
ATOM     18  C   UNL     1      12.666 -22.748 -13.848  1.00  0.00     0.000 C 
BRANCH  18  19
ATOM     19  C   UNL     1      12.771 -21.372 -14.528  1.00  0.00     0.000 C 
BRANCH  19  20
ATOM     20  C   UNL     1      11.397 -20.777 -14.874  1.00  0.00     0.000 C 
BRANCH  20  21
ATOM     21  C   UNL     1      11.516 -19.716 -15.975  1.00  0.00     0.000 C 
BRANCH  21  22
ATOM     22  C   UNL     1      12.893 -19.784 -16.653  1.00  0.00     0.000 C 
BRANCH  22  23
ATOM     23  C   UNL     1      13.631 -18.436 -16.631  1.00  0.00     0.000 C 
BRANCH  23  24
ATOM     24  C   UNL     1      14.305 -18.153 -15.276  1.00  0.00    -0.000 C 
BRANCH  24  25
ATOM     25  C   UNL     1      14.148 -16.679 -14.845  1.00  0.00    -0.000 C 
BRANCH  25  26
ATOM     26  C   UNL     1      13.491 -16.504 -13.466  1.00  0.00    -0.000 C 
BRANCH  26  27
ATOM     27  C   UNL     1      12.173 -17.282 -13.331  1.00  0.00    -0.000 C 
BRANCH  27  28
ATOM     28  C   UNL     1      12.200 -18.308 -12.186  1.00  0.00    -0.000 C 
BRANCH  28  29
ATOM     29  C   UNL     1      10.824 -18.941 -11.891  1.00  0.00    -0.000 C 
BRANCH  29  30
ATOM     30  C   UNL     1      10.595 -19.143 -10.383  1.00  0.00    -0.000 C 
BRANCH  30  31
ATOM     31  C   UNL     1      11.205 -18.014  -9.536  1.00  0.00    -0.003 C 
ATOM     32  C   UNL     1      10.989 -18.222  -8.037  1.00  0.00     0.004 C 
ENDBRANCH  30  31
ENDBRANCH  29  30
ENDBRANCH  28  29
ENDBRANCH  27  28
ENDBRANCH  26  27
ENDBRANCH  25  26
ENDBRANCH  24  25
ENDBRANCH  23  24
ENDBRANCH  22  23
ENDBRANCH  21  22
ENDBRANCH  20  21
ENDBRANCH  19  20
ENDBRANCH  18  19
ENDBRANCH   1  18
TORSDOF 28
ENDMDL
MODEL 4
REMARK VINA RESULT:    -4.840      3.034      8.368
REMARK INTER + INTRA:         -17.774
REMARK INTER:                 -12.715
REMARK INTRA:                  -5.059
REMARK UNBOUND:                -5.012
REMARK SMILES CCCCCCCCCCCCCCCCCCCCCCCCCCCCCC(=O)[O-]
REMARK SMILES IDX 16 1 17 2 18 3 19 4 20 5 21 6 22 7 23 8 24 9 25 10 26 11
REMARK SMILES IDX 27 12 28 13 29 14 30 15 31 16 32 17 15 18 14 19 13 20 12 21
REMARK SMILES IDX 11 22 10 23 9 24 8 25 7 26 6 27 5 28 4 29 3 30 2 31 1 32
REMARK H PARENT
REMARK Flexibility Score: inf
ROOT
ATOM      1  C   UNL     1      11.593 -19.836 -13.790  1.00  0.00     0.000 C 
ENDROOT
BRANCH   1   2
ATOM      2  C   UNL     1      11.302 -19.608 -15.284  1.00  0.00     0.000 C 
BRANCH   2   3
ATOM      3  C   UNL     1      12.458 -19.962 -16.240  1.00  0.00     0.000 C 
BRANCH   3   4
ATOM      4  C   UNL     1      13.299 -18.764 -16.724  1.00  0.00     0.000 C 
BRANCH   4   5
ATOM      5  C   UNL     1      14.332 -18.246 -15.709  1.00  0.00     0.000 C 
BRANCH   5   6
ATOM      6  C   UNL     1      13.876 -16.964 -14.994  1.00  0.00     0.000 C 
BRANCH   6   7
ATOM      7  C   UNL     1      14.833 -16.606 -13.846  1.00  0.00     0.000 C 
BRANCH   7   8
ATOM      8  C   UNL     1      14.142 -16.606 -12.474  1.00  0.00     0.000 C 
BRANCH   8   9
ATOM      9  C   UNL     1      14.655 -17.723 -11.552  1.00  0.00     0.000 C 
BRANCH   9  10
ATOM     10  C   UNL     1      15.432 -18.780 -12.348  1.00  0.00     0.000 C 
BRANCH  10  11
ATOM     11  C   UNL     1      14.838 -20.180 -12.129  1.00  0.00     0.000 C 
BRANCH  11  12
ATOM     12  C   UNL     1      15.168 -21.157 -13.272  1.00  0.00     0.000 C 
BRANCH  12  13
ATOM     13  C   UNL     1      14.573 -22.571 -13.114  1.00  0.00     0.006 C 
BRANCH  13  14
ATOM     14  C   UNL     1      13.501 -22.931 -14.156  1.00  0.00     0.053 C 
BRANCH  14  15
ATOM     15  C   UNL     1      12.930 -24.296 -13.924  1.00  0.00     0.041 C 
ATOM     16  O   UNL     1      13.693 -25.273 -13.705  1.00  0.00    -0.550 OA
ATOM     17  O   UNL     1      11.553 -24.482 -13.913  1.00  0.00    -0.550 OA
ENDBRANCH  14  15
ENDBRANCH  13  14
ENDBRANCH  12  13
ENDBRANCH  11  12
ENDBRANCH  10  11
ENDBRANCH   9  10
ENDBRANCH   8   9
ENDBRANCH   7   8
ENDBRANCH   6   7
ENDBRANCH   5   6
ENDBRANCH   4   5
ENDBRANCH   3   4
ENDBRANCH   2   3
ENDBRANCH   1   2
BRANCH   1  18
ATOM     18  C   UNL     1      11.231 -18.622 -12.918  1.00  0.00     0.000 C 
BRANCH  18  19
ATOM     19  C   UNL     1      10.775 -19.022 -11.505  1.00  0.00     0.000 C 
BRANCH  19  20
ATOM     20  C   UNL     1      11.232 -18.023 -10.431  1.00  0.00     0.000 C 
BRANCH  20  21
ATOM     21  C   UNL     1      11.889 -18.747  -9.248  1.00  0.00     0.000 C 
BRANCH  21  22
ATOM     22  C   UNL     1      12.544 -17.743  -8.288  1.00  0.00     0.000 C 
BRANCH  22  23
ATOM     23  C   UNL     1      12.521 -16.305  -8.830  1.00  0.00     0.000 C 
BRANCH  23  24
ATOM     24  C   UNL     1      12.929 -15.267  -7.768  1.00  0.00    -0.000 C 
BRANCH  24  25
ATOM     25  C   UNL     1      13.527 -15.929  -6.508  1.00  0.00    -0.000 C 
BRANCH  25  26
ATOM     26  C   UNL     1      12.625 -15.822  -5.267  1.00  0.00    -0.000 C 
BRANCH  26  27
ATOM     27  C   UNL     1      11.417 -14.899  -5.486  1.00  0.00    -0.000 C 
BRANCH  27  28
ATOM     28  C   UNL     1      10.073 -15.611  -5.255  1.00  0.00    -0.000 C 
BRANCH  28  29
ATOM     29  C   UNL     1       9.390 -16.082  -6.557  1.00  0.00    -0.000 C 
BRANCH  29  30
ATOM     30  C   UNL     1       8.980 -17.562  -6.488  1.00  0.00    -0.000 C 
BRANCH  30  31
ATOM     31  C   UNL     1      10.065 -18.448  -5.855  1.00  0.00    -0.003 C 
ATOM     32  C   UNL     1       9.582 -19.157  -4.590  1.00  0.00     0.004 C 
ENDBRANCH  30  31
ENDBRANCH  29  30
ENDBRANCH  28  29
ENDBRANCH  27  28
ENDBRANCH  26  27
ENDBRANCH  25  26
ENDBRANCH  24  25
ENDBRANCH  23  24
ENDBRANCH  22  23
ENDBRANCH  21  22
ENDBRANCH  20  21
ENDBRANCH  19  20
ENDBRANCH  18  19
ENDBRANCH   1  18
TORSDOF 28
ENDMDL
MODEL 5
REMARK VINA RESULT:    -4.810      3.984      9.336
REMARK INTER + INTRA:         -17.696
REMARK INTER:                 -13.624
REMARK INTRA:                  -4.072
REMARK UNBOUND:                -5.012
REMARK SMILES CCCCCCCCCCCCCCCCCCCCCCCCCCCCCC(=O)[O-]
REMARK SMILES IDX 16 1 17 2 18 3 19 4 20 5 21 6 22 7 23 8 24 9 25 10 26 11
REMARK SMILES IDX 27 12 28 13 29 14 30 15 31 16 32 17 15 18 14 19 13 20 12 21
REMARK SMILES IDX 11 22 10 23 9 24 8 25 7 26 6 27 5 28 4 29 3 30 2 31 1 32
REMARK H PARENT
REMARK Flexibility Score: inf
ROOT
ATOM      1  C   UNL     1      12.847 -25.721 -14.120  1.00  0.00     0.000 C 
ENDROOT
BRANCH   1   2
ATOM      2  C   UNL     1      13.187 -27.177 -14.488  1.00  0.00     0.000 C 
BRANCH   2   3
ATOM      3  C   UNL     1      14.688 -27.470 -14.689  1.00  0.00     0.000 C 
BRANCH   3   4
ATOM      4  C   UNL     1      15.163 -28.841 -14.168  1.00  0.00     0.000 C 
BRANCH   4   5
ATOM      5  C   UNL     1      16.689 -28.994 -14.048  1.00  0.00     0.000 C 
BRANCH   5   6
ATOM      6  C   UNL     1      17.409 -27.654 -13.830  1.00  0.00     0.000 C 
BRANCH   6   7
ATOM      7  C   UNL     1      18.334 -27.722 -12.605  1.00  0.00     0.000 C 
BRANCH   7   8
ATOM      8  C   UNL     1      17.706 -27.098 -11.350  1.00  0.00     0.000 C 
BRANCH   8   9
ATOM      9  C   UNL     1      16.378 -26.383 -11.644  1.00  0.00     0.000 C 
BRANCH   9  10
ATOM     10  C   UNL     1      16.529 -24.862 -11.506  1.00  0.00     0.000 C 
BRANCH  10  11
ATOM     11  C   UNL     1      15.561 -24.126 -12.444  1.00  0.00     0.000 C 
BRANCH  11  12
ATOM     12  C   UNL     1      16.203 -22.909 -13.134  1.00  0.00     0.000 C 
BRANCH  12  13
ATOM     13  C   UNL     1      15.395 -21.599 -13.032  1.00  0.00     0.006 C 
BRANCH  13  14
ATOM     14  C   UNL     1      16.238 -20.319 -13.158  1.00  0.00     0.053 C 
BRANCH  14  15
ATOM     15  C   UNL     1      16.929 -19.974 -11.875  1.00  0.00     0.041 C 
ATOM     16  O   UNL     1      16.277 -19.481 -10.917  1.00  0.00    -0.550 OA
ATOM     17  O   UNL     1      18.286 -20.231 -11.723  1.00  0.00    -0.550 OA
ENDBRANCH  14  15
ENDBRANCH  13  14
ENDBRANCH  12  13
ENDBRANCH  11  12
ENDBRANCH  10  11
ENDBRANCH   9  10
ENDBRANCH   8   9
ENDBRANCH   7   8
ENDBRANCH   6   7
ENDBRANCH   5   6
ENDBRANCH   4   5
ENDBRANCH   3   4
ENDBRANCH   2   3
ENDBRANCH   1   2
BRANCH   1  18
ATOM     18  C   UNL     1      11.351 -25.402 -14.271  1.00  0.00     0.000 C 
BRANCH  18  19
ATOM     19  C   UNL     1      11.003 -23.971 -13.827  1.00  0.00     0.000 C 
BRANCH  19  20
ATOM     20  C   UNL     1      12.128 -22.968 -14.128  1.00  0.00     0.000 C 
BRANCH  20  21
ATOM     21  C   UNL     1      11.620 -21.816 -15.005  1.00  0.00     0.000 C 
BRANCH  21  22
ATOM     22  C   UNL     1      12.756 -20.835 -15.332  1.00  0.00     0.000 C 
BRANCH  22  23
ATOM     23  C   UNL     1      12.246 -19.523 -15.947  1.00  0.00     0.000 C 
BRANCH  23  24
ATOM     24  C   UNL     1      13.387 -18.647 -16.497  1.00  0.00    -0.000 C 
BRANCH  24  25
ATOM     25  C   UNL     1      14.269 -18.067 -15.370  1.00  0.00    -0.000 C 
BRANCH  25  26
ATOM     26  C   UNL     1      13.887 -16.634 -14.962  1.00  0.00    -0.000 C 
BRANCH  26  27
ATOM     27  C   UNL     1      13.168 -16.573 -13.605  1.00  0.00    -0.000 C 
BRANCH  27  28
ATOM     28  C   UNL     1      13.809 -17.487 -12.548  1.00  0.00    -0.000 C 
BRANCH  28  29
ATOM     29  C   UNL     1      12.975 -18.748 -12.234  1.00  0.00    -0.000 C 
BRANCH  29  30
ATOM     30  C   UNL     1      11.493 -18.564 -12.599  1.00  0.00    -0.000 C 
BRANCH  30  31
ATOM     31  C   UNL     1      10.625 -18.198 -11.384  1.00  0.00    -0.003 C 
ATOM     32  C   UNL     1      10.667 -19.264 -10.289  1.00  0.00     0.004 C 
ENDBRANCH  30  31
ENDBRANCH  29  30
ENDBRANCH  28  29
ENDBRANCH  27  28
ENDBRANCH  26  27
ENDBRANCH  25  26
ENDBRANCH  24  25
ENDBRANCH  23  24
ENDBRANCH  22  23
ENDBRANCH  21  22
ENDBRANCH  20  21
ENDBRANCH  19  20
ENDBRANCH  18  19
ENDBRANCH   1  18
TORSDOF 28
ENDMDL
MODEL 6
REMARK VINA RESULT:    -4.796      3.679      8.839
REMARK INTER + INTRA:         -17.659
REMARK INTER:                 -13.077
REMARK INTRA:                  -4.581
REMARK UNBOUND:                -5.012
REMARK SMILES CCCCCCCCCCCCCCCCCCCCCCCCCCCCCC(=O)[O-]
REMARK SMILES IDX 16 1 17 2 18 3 19 4 20 5 21 6 22 7 23 8 24 9 25 10 26 11
REMARK SMILES IDX 27 12 28 13 29 14 30 15 31 16 32 17 15 18 14 19 13 20 12 21
REMARK SMILES IDX 11 22 10 23 9 24 8 25 7 26 6 27 5 28 4 29 3 30 2 31 1 32
REMARK H PARENT
REMARK Flexibility Score: inf
ROOT
ATOM      1  C   UNL     1      11.485 -23.127 -14.122  1.00  0.00     0.000 C 
ENDROOT
BRANCH   1   2
ATOM      2  C   UNL     1      11.423 -24.665 -14.097  1.00  0.00     0.000 C 
BRANCH   2   3
ATOM      3  C   UNL     1      12.790 -25.376 -14.027  1.00  0.00     0.000 C 
BRANCH   3   4
ATOM      4  C   UNL     1      12.763 -26.881 -14.361  1.00  0.00     0.000 C 
BRANCH   4   5
ATOM      5  C   UNL     1      14.147 -27.526 -14.554  1.00  0.00     0.000 C 
BRANCH   5   6
ATOM      6  C   UNL     1      15.187 -26.548 -15.121  1.00  0.00     0.000 C 
BRANCH   6   7
ATOM      7  C   UNL     1      16.421 -26.468 -14.209  1.00  0.00     0.000 C 
BRANCH   7   8
ATOM      8  C   UNL     1      16.156 -27.023 -12.800  1.00  0.00     0.000 C 
BRANCH   8   9
ATOM      9  C   UNL     1      16.472 -26.006 -11.693  1.00  0.00     0.000 C 
BRANCH   9  10
ATOM     10  C   UNL     1      15.591 -24.757 -11.826  1.00  0.00     0.000 C 
BRANCH  10  11
ATOM     11  C   UNL     1      16.450 -23.490 -11.959  1.00  0.00     0.000 C 
BRANCH  11  12
ATOM     12  C   UNL     1      15.616 -22.196 -11.960  1.00  0.00     0.000 C 
BRANCH  12  13
ATOM     13  C   UNL     1      16.398 -20.915 -11.606  1.00  0.00     0.006 C 
BRANCH  13  14
ATOM     14  C   UNL     1      17.906 -20.988 -11.897  1.00  0.00     0.053 C 
BRANCH  14  15
ATOM     15  C   UNL     1      18.726 -20.770 -10.664  1.00  0.00     0.041 C 
ATOM     16  O   UNL     1      18.552 -21.497  -9.650  1.00  0.00    -0.550 OA
ATOM     17  O   UNL     1      19.710 -19.789 -10.646  1.00  0.00    -0.550 OA
ENDBRANCH  14  15
ENDBRANCH  13  14
ENDBRANCH  12  13
ENDBRANCH  11  12
ENDBRANCH  10  11
ENDBRANCH   9  10
ENDBRANCH   8   9
ENDBRANCH   7   8
ENDBRANCH   6   7
ENDBRANCH   5   6
ENDBRANCH   4   5
ENDBRANCH   3   4
ENDBRANCH   2   3
ENDBRANCH   1   2
BRANCH   1  18
ATOM     18  C   UNL     1      12.925 -22.588 -14.154  1.00  0.00     0.000 C 
BRANCH  18  19
ATOM     19  C   UNL     1      12.981 -21.056 -14.274  1.00  0.00     0.000 C 
BRANCH  19  20
ATOM     20  C   UNL     1      11.692 -20.460 -14.861  1.00  0.00     0.000 C 
BRANCH  20  21
ATOM     21  C   UNL     1      11.202 -19.272 -14.023  1.00  0.00     0.000 C 
BRANCH  21  22
ATOM     22  C   UNL     1      11.512 -19.488 -12.534  1.00  0.00     0.000 C 
BRANCH  22  23
ATOM     23  C   UNL     1      10.723 -18.536 -11.621  1.00  0.00     0.000 C 
BRANCH  23  24
ATOM     24  C   UNL     1      10.925 -18.848 -10.127  1.00  0.00    -0.000 C 
BRANCH  24  25
ATOM     25  C   UNL     1      12.374 -18.574  -9.667  1.00  0.00    -0.000 C 
BRANCH  25  26
ATOM     26  C   UNL     1      12.712 -17.079  -9.548  1.00  0.00    -0.000 C 
BRANCH  26  27
ATOM     27  C   UNL     1      13.789 -16.630 -10.548  1.00  0.00    -0.000 C 
BRANCH  27  28
ATOM     28  C   UNL     1      14.523 -17.811 -11.205  1.00  0.00    -0.000 C 
BRANCH  28  29
ATOM     29  C   UNL     1      14.744 -17.636 -12.722  1.00  0.00    -0.000 C 
BRANCH  29  30
ATOM     30  C   UNL     1      13.781 -16.600 -13.328  1.00  0.00    -0.000 C 
BRANCH  30  31
ATOM     31  C   UNL     1      13.812 -16.591 -14.865  1.00  0.00    -0.003 C 
ATOM     32  C   UNL     1      14.389 -17.881 -15.448  1.00  0.00     0.004 C 
ENDBRANCH  30  31
ENDBRANCH  29  30
ENDBRANCH  28  29
ENDBRANCH  27  28
ENDBRANCH  26  27
ENDBRANCH  25  26
ENDBRANCH  24  25
ENDBRANCH  23  24
ENDBRANCH  22  23
ENDBRANCH  21  22
ENDBRANCH  20  21
ENDBRANCH  19  20
ENDBRANCH  18  19
ENDBRANCH   1  18
TORSDOF 28
ENDMDL
MODEL 7
REMARK VINA RESULT:    -4.727      3.249      8.153
REMARK INTER + INTRA:         -17.476
REMARK INTER:                 -12.147
REMARK INTRA:                  -5.329
REMARK UNBOUND:                -5.012
REMARK SMILES CCCCCCCCCCCCCCCCCCCCCCCCCCCCCC(=O)[O-]
REMARK SMILES IDX 16 1 17 2 18 3 19 4 20 5 21 6 22 7 23 8 24 9 25 10 26 11
REMARK SMILES IDX 27 12 28 13 29 14 30 15 31 16 32 17 15 18 14 19 13 20 12 21
REMARK SMILES IDX 11 22 10 23 9 24 8 25 7 26 6 27 5 28 4 29 3 30 2 31 1 32
REMARK H PARENT
REMARK Flexibility Score: inf
ROOT
ATOM      1  C   UNL     1      10.309 -19.135 -10.400  1.00  0.00     0.000 C 
ENDROOT
BRANCH   1   2
ATOM      2  C   UNL     1      10.993 -19.155 -11.779  1.00  0.00     0.000 C 
BRANCH   2   3
ATOM      3  C   UNL     1      11.445 -17.779 -12.307  1.00  0.00     0.000 C 
BRANCH   3   4
ATOM      4  C   UNL     1      12.968 -17.538 -12.287  1.00  0.00     0.000 C 
BRANCH   4   5
ATOM      5  C   UNL     1      13.826 -18.814 -12.339  1.00  0.00     0.000 C 
BRANCH   5   6
ATOM      6  C   UNL     1      15.017 -18.693 -13.302  1.00  0.00     0.000 C 
BRANCH   6   7
ATOM      7  C   UNL     1      14.719 -19.396 -14.635  1.00  0.00     0.000 C 
BRANCH   7   8
ATOM      8  C   UNL     1      13.958 -18.499 -15.624  1.00  0.00     0.000 C 
BRANCH   8   9
ATOM      9  C   UNL     1      12.866 -19.258 -16.394  1.00  0.00     0.000 C 
BRANCH   9  10
ATOM     10  C   UNL     1      11.746 -19.716 -15.451  1.00  0.00     0.000 C 
BRANCH  10  11
ATOM     11  C   UNL     1      11.703 -21.249 -15.354  1.00  0.00     0.000 C 
BRANCH  11  12
ATOM     12  C   UNL     1      11.962 -21.767 -13.927  1.00  0.00     0.000 C 
BRANCH  12  13
ATOM     13  C   UNL     1      12.710 -23.114 -13.848  1.00  0.00     0.006 C 
BRANCH  13  14
ATOM     14  C   UNL     1      14.177 -23.003 -13.405  1.00  0.00     0.053 C 
BRANCH  14  15
ATOM     15  C   UNL     1      14.671 -24.269 -12.775  1.00  0.00     0.041 C 
ATOM     16  O   UNL     1      14.173 -25.377 -13.107  1.00  0.00    -0.550 OA
ATOM     17  O   UNL     1      15.706 -24.229 -11.849  1.00  0.00    -0.550 OA
ENDBRANCH  14  15
ENDBRANCH  13  14
ENDBRANCH  12  13
ENDBRANCH  11  12
ENDBRANCH  10  11
ENDBRANCH   9  10
ENDBRANCH   8   9
ENDBRANCH   7   8
ENDBRANCH   6   7
ENDBRANCH   5   6
ENDBRANCH   4   5
ENDBRANCH   3   4
ENDBRANCH   2   3
ENDBRANCH   1   2
BRANCH   1  18
ATOM     18  C   UNL     1      11.283 -18.813  -9.255  1.00  0.00     0.000 C 
BRANCH  18  19
ATOM     19  C   UNL     1      10.635 -17.969  -8.145  1.00  0.00     0.000 C 
BRANCH  19  20
ATOM     20  C   UNL     1      11.460 -16.721  -7.792  1.00  0.00     0.000 C 
BRANCH  20  21
ATOM     21  C   UNL     1      12.524 -16.443  -8.862  1.00  0.00     0.000 C 
BRANCH  21  22
ATOM     22  C   UNL     1      13.936 -16.526  -8.263  1.00  0.00     0.000 C 
BRANCH  22  23
ATOM     23  C   UNL     1      14.963 -17.108  -9.247  1.00  0.00     0.000 C 
BRANCH  23  24
ATOM     24  C   UNL     1      15.737 -18.300  -8.656  1.00  0.00    -0.000 C 
BRANCH  24  25
ATOM     25  C   UNL     1      14.921 -19.610  -8.715  1.00  0.00    -0.000 C 
BRANCH  25  26
ATOM     26  C   UNL     1      14.759 -20.300  -7.350  1.00  0.00    -0.000 C 
BRANCH  26  27
ATOM     27  C   UNL     1      13.329 -20.200  -6.798  1.00  0.00    -0.000 C 
BRANCH  27  28
ATOM     28  C   UNL     1      13.191 -19.149  -5.684  1.00  0.00    -0.000 C 
BRANCH  28  29
ATOM     29  C   UNL     1      12.612 -19.714  -4.369  1.00  0.00    -0.000 C 
BRANCH  29  30
ATOM     30  C   UNL     1      11.292 -19.026  -3.979  1.00  0.00    -0.000 C 
BRANCH  30  31
ATOM     31  C   UNL     1      10.078 -19.615  -4.716  1.00  0.00    -0.003 C 
ATOM     32  C   UNL     1       8.924 -18.620  -4.834  1.00  0.00     0.004 C 
ENDBRANCH  30  31
ENDBRANCH  29  30
ENDBRANCH  28  29
ENDBRANCH  27  28
ENDBRANCH  26  27
ENDBRANCH  25  26
ENDBRANCH  24  25
ENDBRANCH  23  24
ENDBRANCH  22  23
ENDBRANCH  21  22
ENDBRANCH  20  21
ENDBRANCH  19  20
ENDBRANCH  18  19
ENDBRANCH   1  18
TORSDOF 28
ENDMDL
MODEL 8
REMARK VINA RESULT:    -4.723      3.167      8.749
REMARK INTER + INTRA:         -17.465
REMARK INTER:                 -13.641
REMARK INTRA:                  -3.824
REMARK UNBOUND:                -5.012
REMARK SMILES CCCCCCCCCCCCCCCCCCCCCCCCCCCCCC(=O)[O-]
REMARK SMILES IDX 16 1 17 2 18 3 19 4 20 5 21 6 22 7 23 8 24 9 25 10 26 11
REMARK SMILES IDX 27 12 28 13 29 14 30 15 31 16 32 17 15 18 14 19 13 20 12 21
REMARK SMILES IDX 11 22 10 23 9 24 8 25 7 26 6 27 5 28 4 29 3 30 2 31 1 32
REMARK H PARENT
REMARK Flexibility Score: inf
ROOT
ATOM      1  C   UNL     1      12.871 -20.108 -15.543  1.00  0.00     0.000 C 
ENDROOT
BRANCH   1   2
ATOM      2  C   UNL     1      13.098 -18.782 -16.292  1.00  0.00     0.000 C 
BRANCH   2   3
ATOM      3  C   UNL     1      14.382 -18.022 -15.904  1.00  0.00     0.000 C 
BRANCH   3   4
ATOM      4  C   UNL     1      14.155 -16.687 -15.167  1.00  0.00     0.000 C 
BRANCH   4   5
ATOM      5  C   UNL     1      15.001 -16.497 -13.895  1.00  0.00     0.000 C 
BRANCH   5   6
ATOM      6  C   UNL     1      14.281 -16.972 -12.623  1.00  0.00     0.000 C 
BRANCH   6   7
ATOM      7  C   UNL     1      15.110 -18.036 -11.888  1.00  0.00     0.000 C 
BRANCH   7   8
ATOM      8  C   UNL     1      14.994 -19.428 -12.528  1.00  0.00     0.000 C 
BRANCH   8   9
ATOM      9  C   UNL     1      16.238 -19.812 -13.343  1.00  0.00     0.000 C 
BRANCH   9  10
ATOM     10  C   UNL     1      16.900 -21.074 -12.775  1.00  0.00     0.000 C 
BRANCH  10  11
ATOM     11  C   UNL     1      15.871 -22.200 -12.591  1.00  0.00     0.000 C 
BRANCH  11  12
ATOM     12  C   UNL     1      15.533 -22.924 -13.907  1.00  0.00     0.000 C 
BRANCH  12  13
ATOM     13  C   UNL     1      14.622 -24.160 -13.756  1.00  0.00     0.006 C 
BRANCH  13  14
ATOM     14  C   UNL     1      13.117 -23.849 -13.783  1.00  0.00     0.053 C 
BRANCH  14  15
ATOM     15  C   UNL     1      12.298 -25.065 -14.086  1.00  0.00     0.041 C 
ATOM     16  O   UNL     1      12.856 -26.186 -14.225  1.00  0.00    -0.550 OA
ATOM     17  O   UNL     1      10.915 -24.969 -14.178  1.00  0.00    -0.550 OA
ENDBRANCH  14  15
ENDBRANCH  13  14
ENDBRANCH  12  13
ENDBRANCH  11  12
ENDBRANCH  10  11
ENDBRANCH   9  10
ENDBRANCH   8   9
ENDBRANCH   7   8
ENDBRANCH   6   7
ENDBRANCH   5   6
ENDBRANCH   4   5
ENDBRANCH   3   4
ENDBRANCH   2   3
ENDBRANCH   1   2
BRANCH   1  18
ATOM     18  C   UNL     1      11.526 -20.150 -14.798  1.00  0.00     0.000 C 
BRANCH  18  19
ATOM     19  C   UNL     1      11.349 -18.970 -13.828  1.00  0.00     0.000 C 
BRANCH  19  20
ATOM     20  C   UNL     1      11.375 -19.406 -12.355  1.00  0.00     0.000 C 
BRANCH  20  21
ATOM     21  C   UNL     1      11.005 -18.241 -11.427  1.00  0.00     0.000 C 
BRANCH  21  22
ATOM     22  C   UNL     1      11.845 -18.278 -10.142  1.00  0.00     0.000 C 
BRANCH  22  23
ATOM     23  C   UNL     1      11.006 -18.025  -8.879  1.00  0.00     0.000 C 
BRANCH  23  24
ATOM     24  C   UNL     1      11.606 -16.927  -7.982  1.00  0.00    -0.000 C 
BRANCH  24  25
ATOM     25  C   UNL     1      11.002 -15.538  -8.281  1.00  0.00    -0.000 C 
BRANCH  25  26
ATOM     26  C   UNL     1      10.400 -14.846  -7.046  1.00  0.00    -0.000 C 
BRANCH  26  27
ATOM     27  C   UNL     1       8.949 -15.270  -6.773  1.00  0.00    -0.000 C 
BRANCH  27  28
ATOM     28  C   UNL     1       8.813 -16.173  -5.536  1.00  0.00    -0.000 C 
BRANCH  28  29
ATOM     29  C   UNL     1       8.970 -17.677  -5.848  1.00  0.00    -0.000 C 
BRANCH  29  30
ATOM     30  C   UNL     1       8.760 -18.548  -4.598  1.00  0.00    -0.000 C 
BRANCH  30  31
ATOM     31  C   UNL     1       9.879 -19.585  -4.405  1.00  0.00    -0.003 C 
ATOM     32  C   UNL     1      11.155 -19.222  -5.165  1.00  0.00     0.004 C 
ENDBRANCH  30  31
ENDBRANCH  29  30
ENDBRANCH  28  29
ENDBRANCH  27  28
ENDBRANCH  26  27
ENDBRANCH  25  26
ENDBRANCH  24  25
ENDBRANCH  23  24
ENDBRANCH  22  23
ENDBRANCH  21  22
ENDBRANCH  20  21
ENDBRANCH  19  20
ENDBRANCH  18  19
ENDBRANCH   1  18
TORSDOF 28
ENDMDL
MODEL 9
REMARK VINA RESULT:    -4.714      3.617      7.968
REMARK INTER + INTRA:         -17.443
REMARK INTER:                 -12.541
REMARK INTRA:                  -4.901
REMARK UNBOUND:                -5.012
REMARK SMILES CCCCCCCCCCCCCCCCCCCCCCCCCCCCCC(=O)[O-]
REMARK SMILES IDX 16 1 17 2 18 3 19 4 20 5 21 6 22 7 23 8 24 9 25 10 26 11
REMARK SMILES IDX 27 12 28 13 29 14 30 15 31 16 32 17 15 18 14 19 13 20 12 21
REMARK SMILES IDX 11 22 10 23 9 24 8 25 7 26 6 27 5 28 4 29 3 30 2 31 1 32
REMARK H PARENT
REMARK Flexibility Score: inf
ROOT
ATOM      1  C   UNL     1      12.656 -26.859 -14.495  1.00  0.00     0.000 C 
ENDROOT
BRANCH   1   2
ATOM      2  C   UNL     1      12.739 -25.388 -14.050  1.00  0.00     0.000 C 
BRANCH   2   3
ATOM      3  C   UNL     1      11.409 -24.610 -14.100  1.00  0.00     0.000 C 
BRANCH   3   4
ATOM      4  C   UNL     1      11.540 -23.079 -13.984  1.00  0.00     0.000 C 
BRANCH   4   5
ATOM      5  C   UNL     1      12.977 -22.541 -14.107  1.00  0.00     0.000 C 
BRANCH   5   6
ATOM      6  C   UNL     1      13.074 -21.032 -13.837  1.00  0.00     0.000 C 
BRANCH   6   7
ATOM      7  C   UNL     1      11.757 -20.325 -14.192  1.00  0.00     0.000 C 
BRANCH   7   8
ATOM      8  C   UNL     1      11.974 -19.009 -14.953  1.00  0.00     0.000 C 
BRANCH   8   9
ATOM      9  C   UNL     1      13.214 -19.046 -15.860  1.00  0.00     0.000 C 
BRANCH   9  10
ATOM     10  C   UNL     1      14.115 -17.829 -15.609  1.00  0.00     0.000 C 
BRANCH  10  11
ATOM     11  C   UNL     1      13.595 -16.993 -14.430  1.00  0.00     0.000 C 
BRANCH  11  12
ATOM     12  C   UNL     1      14.594 -16.918 -13.262  1.00  0.00     0.000 C 
BRANCH  12  13
ATOM     13  C   UNL     1      13.957 -16.899 -11.857  1.00  0.00     0.006 C 
BRANCH  13  14
ATOM     14  C   UNL     1      13.264 -18.211 -11.455  1.00  0.00     0.053 C 
BRANCH  14  15
ATOM     15  C   UNL     1      11.878 -17.979 -10.940  1.00  0.00     0.041 C 
ATOM     16  O   UNL     1      10.903 -17.946 -11.737  1.00  0.00    -0.550 OA
ATOM     17  O   UNL     1      11.656 -17.837  -9.575  1.00  0.00    -0.550 OA
ENDBRANCH  14  15
ENDBRANCH  13  14
ENDBRANCH  12  13
ENDBRANCH  11  12
ENDBRANCH  10  11
ENDBRANCH   9  10
ENDBRANCH   8   9
ENDBRANCH   7   8
ENDBRANCH   6   7
ENDBRANCH   5   6
ENDBRANCH   4   5
ENDBRANCH   3   4
ENDBRANCH   2   3
ENDBRANCH   1   2
BRANCH   1  18
ATOM     18  C   UNL     1      14.006 -27.589 -14.399  1.00  0.00     0.000 C 
BRANCH  18  19
ATOM     19  C   UNL     1      14.627 -27.867 -15.778  1.00  0.00     0.000 C 
BRANCH  19  20
ATOM     20  C   UNL     1      16.063 -27.331 -15.899  1.00  0.00     0.000 C 
BRANCH  20  21
ATOM     21  C   UNL     1      16.468 -26.552 -14.641  1.00  0.00     0.000 C 
BRANCH  21  22
ATOM     22  C   UNL     1      17.730 -27.156 -14.007  1.00  0.00     0.000 C 
BRANCH  22  23
ATOM     23  C   UNL     1      17.743 -27.028 -12.476  1.00  0.00     0.000 C 
BRANCH  23  24
ATOM     24  C   UNL     1      16.387 -26.566 -11.910  1.00  0.00    -0.000 C 
BRANCH  24  25
ATOM     25  C   UNL     1      16.466 -25.153 -11.292  1.00  0.00    -0.000 C 
BRANCH  25  26
ATOM     26  C   UNL     1      15.525 -24.134 -11.955  1.00  0.00    -0.000 C 
BRANCH  26  27
ATOM     27  C   UNL     1      15.983 -22.681 -11.755  1.00  0.00    -0.000 C 
BRANCH  27  28
ATOM     28  C   UNL     1      16.954 -22.205 -12.848  1.00  0.00    -0.000 C 
BRANCH  28  29
ATOM     29  C   UNL     1      16.677 -22.825 -14.234  1.00  0.00    -0.000 C 
BRANCH  29  30
ATOM     30  C   UNL     1      17.975 -23.223 -14.957  1.00  0.00    -0.000 C 
BRANCH  30  31
ATOM     31  C   UNL     1      19.016 -23.838 -14.008  1.00  0.00    -0.003 C 
ATOM     32  C   UNL     1      20.212 -24.431 -14.751  1.00  0.00     0.004 C 
ENDBRANCH  30  31
ENDBRANCH  29  30
ENDBRANCH  28  29
ENDBRANCH  27  28
ENDBRANCH  26  27
ENDBRANCH  25  26
ENDBRANCH  24  25
ENDBRANCH  23  24
ENDBRANCH  22  23
ENDBRANCH  21  22
ENDBRANCH  20  21
ENDBRANCH  19  20
ENDBRANCH  18  19
ENDBRANCH   1  18
TORSDOF 28
ENDMDL
