MODEL 1
REMARK VINA RESULT:    -3.543      0.000      0.000
REMARK INTER + INTRA:          -4.751
REMARK INTER:                  -4.268
REMARK INTRA:                  -0.483
REMARK UNBOUND:                -0.483
REMARK SMILES O=c1c(O)c(-c2ccc(O)cc2O)oc2cc(O)cc(O)c12
REMARK SMILES IDX 5 1 3 2 2 3 1 4 22 5 20 6 19 7 17 8 16 9 15 10 14 11 6 12
REMARK SMILES IDX 8 13 7 14 9 15 11 16 12 17 10 18 13 20 4 22 21 24 18 26
REMARK H PARENT 10 19 13 21 4 23 21 25 18 27
REMARK Flexibility Score: inf
ROOT
ATOM      1  C   UNL     1      33.225  25.962  37.023  1.00  0.00     0.184 A 
ATOM      2  C   UNL     1      32.856  25.882  38.376  1.00  0.00     0.208 A 
ATOM      3  C   UNL     1      32.164  24.746  38.827  1.00  0.00     0.238 A 
ATOM      4  O   UNL     1      31.787  24.706  40.028  1.00  0.00    -0.285 OA
ATOM      5  C   UNL     1      31.868  23.697  37.924  1.00  0.00     0.111 A 
ATOM      6  C   UNL     1      31.207  22.483  38.280  1.00  0.00     0.134 A 
ATOM      7  C   UNL     1      30.852  21.570  37.279  1.00  0.00     0.093 A 
ATOM      8  C   UNL     1      31.192  21.798  35.943  1.00  0.00     0.123 A 
ATOM      9  C   UNL     1      31.890  22.952  35.594  1.00  0.00     0.094 A 
ATOM     10  C   UNL     1      32.226  23.898  36.565  1.00  0.00     0.146 A 
ATOM     11  O   UNL     1      32.880  24.989  36.187  1.00  0.00    -0.451 OA
ENDROOT
BRANCH   1  12
ATOM     12  C   UNL     1      33.977  27.120  36.486  1.00  0.00     0.063 A 
ATOM     13  C   UNL     1      36.081  28.299  36.155  1.00  0.00     0.047 A 
ATOM     14  C   UNL     1      35.366  27.223  36.685  1.00  0.00     0.020 A 
ATOM     15  C   UNL     1      35.421  29.283  35.409  1.00  0.00     0.119 A 
ATOM     16  C   UNL     1      34.044  29.182  35.193  1.00  0.00     0.093 A 
ATOM     17  C   UNL     1      33.318  28.106  35.724  1.00  0.00     0.130 A 
BRANCH  15  18
ATOM     18  O   UNL     1      36.124  30.360  34.875  1.00  0.00    -0.508 OA
ATOM     19  H   UNL     1      35.803  30.843  34.044  1.00  0.00     0.293 HD
ENDBRANCH  15  18
BRANCH  17  20
ATOM     20  O   UNL     1      31.942  28.023  35.506  1.00  0.00    -0.507 OA
ATOM     21  H   UNL     1      31.396  27.240  35.845  1.00  0.00     0.293 HD
ENDBRANCH  17  20
ENDBRANCH   1  12
BRANCH   2  22
ATOM     22  O   UNL     1      33.148  26.936  39.246  1.00  0.00    -0.502 OA
ATOM     23  H   UNL     1      33.894  27.598  39.065  1.00  0.00     0.293 HD
ENDBRANCH   2  22
BRANCH   6  24
ATOM     24  O   UNL     1      30.903  22.117  39.594  1.00  0.00    -0.507 OA
ATOM     25  H   UNL     1      31.572  22.069  40.348  1.00  0.00     0.293 HD
ENDBRANCH   6  24
BRANCH   8  26
ATOM     26  O   UNL     1      30.849  20.877  34.955  1.00  0.00    -0.508 OA
ATOM     27  H   UNL     1      30.049  20.264  35.058  1.00  0.00     0.293 HD
ENDBRANCH   8  26
TORSDOF 6
ENDMDL
MODEL 2
REMARK VINA RESULT:    -3.053      1.767      2.052
REMARK INTER + INTRA:          -4.161
REMARK INTER:                  -3.682
REMARK INTRA:                  -0.479
REMARK UNBOUND:                -0.483
REMARK SMILES O=c1c(O)c(-c2ccc(O)cc2O)oc2cc(O)cc(O)c12
REMARK SMILES IDX 5 1 3 2 2 3 1 4 22 5 20 6 19 7 17 8 16 9 15 10 14 11 6 12
REMARK SMILES IDX 8 13 7 14 9 15 11 16 12 17 10 18 13 20 4 22 21 24 18 26
REMARK H PARENT 10 19 13 21 4 23 21 25 18 27
REMARK Flexibility Score: inf
ROOT
ATOM      1  C   UNL     1      34.094  25.494  37.461  1.00  0.00     0.184 A 
ATOM      2  C   UNL     1      34.842  24.741  38.382  1.00  0.00     0.208 A 
ATOM      3  C   UNL     1      34.271  23.586  38.940  1.00  0.00     0.238 A 
ATOM      4  O   UNL     1      34.925  22.947  39.807  1.00  0.00    -0.285 OA
ATOM      5  C   UNL     1      32.969  23.187  38.557  1.00  0.00     0.111 A 
ATOM      6  C   UNL     1      32.307  22.013  39.029  1.00  0.00     0.134 A 
ATOM      7  C   UNL     1      30.970  21.787  38.680  1.00  0.00     0.093 A 
ATOM      8  C   UNL     1      30.290  22.657  37.825  1.00  0.00     0.123 A 
ATOM      9  C   UNL     1      30.946  23.774  37.312  1.00  0.00     0.094 A 
ATOM     10  C   UNL     1      32.268  24.047  37.670  1.00  0.00     0.146 A 
ATOM     11  O   UNL     1      32.851  25.128  37.167  1.00  0.00    -0.451 OA
ENDROOT
BRANCH   1  12
ATOM     12  C   UNL     1      34.643  26.709  36.816  1.00  0.00     0.063 A 
ATOM     13  C   UNL     1      36.003  27.745  35.084  1.00  0.00     0.047 A 
ATOM     14  C   UNL     1      35.507  26.600  35.711  1.00  0.00     0.020 A 
ATOM     15  C   UNL     1      35.636  29.016  35.545  1.00  0.00     0.119 A 
ATOM     16  C   UNL     1      34.767  29.133  36.633  1.00  0.00     0.093 A 
ATOM     17  C   UNL     1      34.266  27.989  37.271  1.00  0.00     0.130 A 
BRANCH  15  18
ATOM     18  O   UNL     1      36.124  30.164  34.926  1.00  0.00    -0.508 OA
ATOM     19  H   UNL     1      35.911  30.375  33.959  1.00  0.00     0.293 HD
ENDBRANCH  15  18
BRANCH  17  20
ATOM     20  O   UNL     1      33.406  28.123  38.360  1.00  0.00    -0.507 OA
ATOM     21  H   UNL     1      33.150  29.032  38.728  1.00  0.00     0.293 HD
ENDBRANCH  17  20
ENDBRANCH   1  12
BRANCH   2  22
ATOM     22  O   UNL     1      36.122  25.161  38.755  1.00  0.00    -0.502 OA
ATOM     23  H   UNL     1      36.476  25.054  39.698  1.00  0.00     0.293 HD
ENDBRANCH   2  22
BRANCH   6  24
ATOM     24  O   UNL     1      32.923  21.034  39.814  1.00  0.00    -0.507 OA
ATOM     25  H   UNL     1      32.522  20.626  40.644  1.00  0.00     0.293 HD
ENDBRANCH   6  24
BRANCH   8  26
ATOM     26  O   UNL     1      28.965  22.416  37.471  1.00  0.00    -0.508 OA
ATOM     27  H   UNL     1      28.727  21.875  36.648  1.00  0.00     0.293 HD
ENDBRANCH   8  26
TORSDOF 6
ENDMDL
MODEL 3
REMARK VINA RESULT:    -2.660      2.524      3.548
REMARK INTER + INTRA:          -3.687
REMARK INTER:                  -4.259
REMARK INTRA:                   0.573
REMARK UNBOUND:                -0.483
REMARK SMILES O=c1c(O)c(-c2ccc(O)cc2O)oc2cc(O)cc(O)c12
REMARK SMILES IDX 5 1 3 2 2 3 1 4 22 5 20 6 19 7 17 8 16 9 15 10 14 11 6 12
REMARK SMILES IDX 8 13 7 14 9 15 11 16 12 17 10 18 13 20 4 22 21 24 18 26
REMARK H PARENT 10 19 13 21 4 23 21 25 18 27
REMARK Flexibility Score: inf
ROOT
ATOM      1  C   UNL     1      33.300  25.348  37.452  1.00  0.00     0.184 A 
ATOM      2  C   UNL     1      34.565  24.790  37.206  1.00  0.00     0.208 A 
ATOM      3  C   UNL     1      34.913  23.584  37.836  1.00  0.00     0.238 A 
ATOM      4  O   UNL     1      36.069  23.119  37.655  1.00  0.00    -0.285 OA
ATOM      5  C   UNL     1      33.983  22.943  38.690  1.00  0.00     0.111 A 
ATOM      6  C   UNL     1      34.213  21.698  39.350  1.00  0.00     0.134 A 
ATOM      7  C   UNL     1      33.273  21.221  40.272  1.00  0.00     0.093 A 
ATOM      8  C   UNL     1      32.082  21.911  40.509  1.00  0.00     0.123 A 
ATOM      9  C   UNL     1      31.821  23.097  39.825  1.00  0.00     0.094 A 
ATOM     10  C   UNL     1      32.756  23.616  38.926  1.00  0.00     0.146 A 
ATOM     11  O   UNL     1      32.473  24.755  38.305  1.00  0.00    -0.451 OA
ENDROOT
BRANCH   1  12
ATOM     12  C   UNL     1      32.860  26.605  36.801  1.00  0.00     0.063 A 
ATOM     13  C   UNL     1      33.213  28.361  35.154  1.00  0.00     0.047 A 
ATOM     14  C   UNL     1      33.640  27.193  35.789  1.00  0.00     0.020 A 
ATOM     15  C   UNL     1      31.996  28.954  35.514  1.00  0.00     0.119 A 
ATOM     16  C   UNL     1      31.208  28.368  36.508  1.00  0.00     0.093 A 
ATOM     17  C   UNL     1      31.630  27.196  37.153  1.00  0.00     0.130 A 
BRANCH  15  18
ATOM     18  O   UNL     1      31.560  30.119  34.887  1.00  0.00    -0.508 OA
ATOM     19  H   UNL     1      32.210  30.845  34.610  1.00  0.00     0.293 HD
ENDBRANCH  15  18
BRANCH  17  20
ATOM     20  O   UNL     1      30.836  26.628  38.149  1.00  0.00    -0.507 OA
ATOM     21  H   UNL     1      29.837  26.791  38.191  1.00  0.00     0.293 HD
ENDBRANCH  17  20
ENDBRANCH   1  12
BRANCH   2  22
ATOM     22  O   UNL     1      35.471  25.448  36.369  1.00  0.00    -0.502 OA
ATOM     23  H   UNL     1      35.537  25.250  35.377  1.00  0.00     0.293 HD
ENDBRANCH   2  22
BRANCH   6  24
ATOM     24  O   UNL     1      35.327  20.886  39.117  1.00  0.00    -0.507 OA
ATOM     25  H   UNL     1      36.069  21.099  38.469  1.00  0.00     0.293 HD
ENDBRANCH   6  24
BRANCH   8  26
ATOM     26  O   UNL     1      31.145  21.422  41.416  1.00  0.00    -0.508 OA
ATOM     27  H   UNL     1      30.796  20.472  41.356  1.00  0.00     0.293 HD
ENDBRANCH   8  26
TORSDOF 6
ENDMDL
MODEL 4
REMARK VINA RESULT:    -2.089      1.396      2.956
REMARK INTER + INTRA:          -2.999
REMARK INTER:                  -2.625
REMARK INTRA:                  -0.374
REMARK UNBOUND:                -0.483
REMARK SMILES O=c1c(O)c(-c2ccc(O)cc2O)oc2cc(O)cc(O)c12
REMARK SMILES IDX 5 1 3 2 2 3 1 4 22 5 20 6 19 7 17 8 16 9 15 10 14 11 6 12
REMARK SMILES IDX 8 13 7 14 9 15 11 16 12 17 10 18 13 20 4 22 21 24 18 26
REMARK H PARENT 10 19 13 21 4 23 21 25 18 27
REMARK Flexibility Score: inf
ROOT
ATOM      1  C   UNL     1      33.354  25.282  37.185  1.00  0.00     0.184 A 
ATOM      2  C   UNL     1      33.044  24.328  36.201  1.00  0.00     0.208 A 
ATOM      3  C   UNL     1      32.353  23.164  36.575  1.00  0.00     0.238 A 
ATOM      4  O   UNL     1      32.129  22.287  35.699  1.00  0.00    -0.285 OA
ATOM      5  C   UNL     1      31.964  22.978  37.922  1.00  0.00     0.111 A 
ATOM      6  C   UNL     1      31.225  21.855  38.406  1.00  0.00     0.134 A 
ATOM      7  C   UNL     1      31.006  21.714  39.781  1.00  0.00     0.093 A 
ATOM      8  C   UNL     1      31.442  22.686  40.685  1.00  0.00     0.123 A 
ATOM      9  C   UNL     1      32.112  23.814  40.217  1.00  0.00     0.094 A 
ATOM     10  C   UNL     1      32.377  23.967  38.854  1.00  0.00     0.146 A 
ATOM     11  O   UNL     1      33.028  25.051  38.452  1.00  0.00    -0.451 OA
ENDROOT
BRANCH   1  12
ATOM     12  C   UNL     1      34.059  26.543  36.856  1.00  0.00     0.063 A 
ATOM     13  C   UNL     1      36.125  27.816  36.670  1.00  0.00     0.047 A 
ATOM     14  C   UNL     1      35.455  26.638  37.007  1.00  0.00     0.020 A 
ATOM     15  C   UNL     1      35.413  28.912  36.168  1.00  0.00     0.119 A 
ATOM     16  C   UNL     1      34.028  28.822  36.001  1.00  0.00     0.093 A 
ATOM     17  C   UNL     1      33.347  27.643  36.339  1.00  0.00     0.130 A 
BRANCH  15  18
ATOM     18  O   UNL     1      36.071  30.092  35.829  1.00  0.00    -0.508 OA
ATOM     19  H   UNL     1      37.081  30.167  35.878  1.00  0.00     0.293 HD
ENDBRANCH  15  18
BRANCH  17  20
ATOM     20  O   UNL     1      31.963  27.571  36.174  1.00  0.00    -0.507 OA
ATOM     21  H   UNL     1      31.535  26.882  35.568  1.00  0.00     0.293 HD
ENDBRANCH  17  20
ENDBRANCH   1  12
BRANCH   2  22
ATOM     22  O   UNL     1      33.451  24.528  34.879  1.00  0.00    -0.502 OA
ATOM     23  H   UNL     1      32.795  24.558  34.107  1.00  0.00     0.293 HD
ENDBRANCH   2  22
BRANCH   6  24
ATOM     24  O   UNL     1      30.668  20.875  37.580  1.00  0.00    -0.507 OA
ATOM     25  H   UNL     1      30.030  20.157  37.889  1.00  0.00     0.293 HD
ENDBRANCH   6  24
BRANCH   8  26
ATOM     26  O   UNL     1      31.206  22.545  42.051  1.00  0.00    -0.508 OA
ATOM     27  H   UNL     1      30.265  22.477  42.421  1.00  0.00     0.293 HD
ENDBRANCH   8  26
TORSDOF 6
ENDMDL
MODEL 5
REMARK VINA RESULT:    -1.000      2.370      3.297
REMARK INTER + INTRA:          -1.688
REMARK INTER:                  -2.252
REMARK INTRA:                   0.565
REMARK UNBOUND:                -0.483
REMARK SMILES O=c1c(O)c(-c2ccc(O)cc2O)oc2cc(O)cc(O)c12
REMARK SMILES IDX 5 1 3 2 2 3 1 4 22 5 20 6 19 7 17 8 16 9 15 10 14 11 6 12
REMARK SMILES IDX 8 13 7 14 9 15 11 16 12 17 10 18 13 20 4 22 21 24 18 26
REMARK H PARENT 10 19 13 21 4 23 21 25 18 27
REMARK Flexibility Score: inf
ROOT
ATOM      1  C   UNL     1      32.221  25.213  37.716  1.00  0.00     0.184 A 
ATOM      2  C   UNL     1      31.062  24.712  38.333  1.00  0.00     0.208 A 
ATOM      3  C   UNL     1      31.141  23.513  39.060  1.00  0.00     0.238 A 
ATOM      4  O   UNL     1      30.087  23.041  39.562  1.00  0.00    -0.285 OA
ATOM      5  C   UNL     1      32.381  22.841  39.177  1.00  0.00     0.111 A 
ATOM      6  C   UNL     1      32.586  21.640  39.921  1.00  0.00     0.134 A 
ATOM      7  C   UNL     1      33.826  20.994  39.862  1.00  0.00     0.093 A 
ATOM      8  C   UNL     1      34.889  21.538  39.137  1.00  0.00     0.123 A 
ATOM      9  C   UNL     1      34.716  22.741  38.455  1.00  0.00     0.094 A 
ATOM     10  C   UNL     1      33.480  23.391  38.466  1.00  0.00     0.146 A 
ATOM     11  O   UNL     1      33.356  24.528  37.793  1.00  0.00    -0.451 OA
ENDROOT
BRANCH   1  12
ATOM     12  C   UNL     1      32.213  26.484  36.955  1.00  0.00     0.063 A 
ATOM     13  C   UNL     1      30.997  28.367  36.007  1.00  0.00     0.047 A 
ATOM     14  C   UNL     1      31.003  27.154  36.699  1.00  0.00     0.020 A 
ATOM     15  C   UNL     1      32.201  28.933  35.569  1.00  0.00     0.119 A 
ATOM     16  C   UNL     1      33.409  28.282  35.831  1.00  0.00     0.093 A 
ATOM     17  C   UNL     1      33.424  27.062  36.524  1.00  0.00     0.130 A 
BRANCH  15  18
ATOM     18  O   UNL     1      32.206  30.143  34.878  1.00  0.00    -0.508 OA
ATOM     19  H   UNL     1      31.840  30.992  35.294  1.00  0.00     0.293 HD
ENDBRANCH  15  18
BRANCH  17  20
ATOM     20  O   UNL     1      34.638  26.421  36.771  1.00  0.00    -0.507 OA
ATOM     21  H   UNL     1      35.153  26.569  37.631  1.00  0.00     0.293 HD
ENDBRANCH  17  20
ENDBRANCH   1  12
BRANCH   2  22
ATOM     22  O   UNL     1      29.846  25.387  38.193  1.00  0.00    -0.502 OA
ATOM     23  H   UNL     1      29.721  26.349  38.487  1.00  0.00     0.293 HD
ENDBRANCH   2  22
BRANCH   6  24
ATOM     24  O   UNL     1      31.619  21.062  40.749  1.00  0.00    -0.507 OA
ATOM     25  H   UNL     1      30.623  21.172  40.635  1.00  0.00     0.293 HD
ENDBRANCH   6  24
BRANCH   8  26
ATOM     26  O   UNL     1      36.125  20.897  39.096  1.00  0.00    -0.508 OA
ATOM     27  H   UNL     1      36.950  21.311  39.512  1.00  0.00     0.293 HD
ENDBRANCH   8  26
TORSDOF 6
ENDMDL
