MODEL 1
REMARK VINA RESULT:    -5.209      0.000      0.000
REMARK INTER + INTRA:         -10.294
REMARK INTER:                  -9.472
REMARK INTRA:                  -0.822
REMARK UNBOUND:                -0.822
REMARK SMILES CCCCCCCCCCCCCCCC(=O)[O-]
REMARK SMILES IDX 9 1 10 2 11 3 12 4 13 5 14 6 15 7 16 8 17 9 18 10 8 11 7 12
REMARK SMILES IDX 6 13 5 14 4 15 3 16 2 17 1 18
REMARK H PARENT
REMARK Flexibility Score: inf
ROOT
ATOM      1  C   UNL     1      -3.622  29.681  56.509  1.00  0.00     0.000 C 
ENDROOT
BRANCH   1   2
ATOM      2  C   UNL     1      -3.083  30.159  57.868  1.00  0.00     0.000 C 
BRANCH   2   3
ATOM      3  C   UNL     1      -3.915  31.307  58.460  1.00  0.00     0.000 C 
BRANCH   3   4
ATOM      4  C   UNL     1      -4.518  30.954  59.829  1.00  0.00     0.000 C 
BRANCH   4   5
ATOM      5  C   UNL     1      -3.905  31.769  60.981  1.00  0.00     0.000 C 
BRANCH   5   6
ATOM      6  C   UNL     1      -2.687  32.617  60.556  1.00  0.00     0.006 C 
BRANCH   6   7
ATOM      7  C   UNL     1      -1.804  33.004  61.749  1.00  0.00     0.053 C 
BRANCH   7   8
ATOM      8  C   UNL     1      -2.586  33.805  62.741  1.00  0.00     0.041 C 
ATOM      9  O   UNL     1      -3.107  34.900  62.403  1.00  0.00    -0.550 OA
ATOM     10  O   UNL     1      -2.779  33.318  64.028  1.00  0.00    -0.550 OA
ENDBRANCH   7   8
ENDBRANCH   6   7
ENDBRANCH   5   6
ENDBRANCH   4   5
ENDBRANCH   3   4
ENDBRANCH   2   3
ENDBRANCH   1   2
BRANCH   1  11
ATOM     11  C   UNL     1      -4.689  28.581  56.645  1.00  0.00     0.000 C 
BRANCH  11  12
ATOM     12  C   UNL     1      -4.946  27.760  55.365  1.00  0.00    -0.000 C 
BRANCH  12  13
ATOM     13  C   UNL     1      -3.751  26.921  54.876  1.00  0.00    -0.000 C 
BRANCH  13  14
ATOM     14  C   UNL     1      -2.901  26.364  56.027  1.00  0.00    -0.000 C 
BRANCH  14  15
ATOM     15  C   UNL     1      -1.409  26.619  55.780  1.00  0.00    -0.000 C 
BRANCH  15  16
ATOM     16  C   UNL     1      -1.000  26.175  54.371  1.00  0.00    -0.000 C 
BRANCH  16  17
ATOM     17  C   UNL     1       0.090  25.099  54.429  1.00  0.00    -0.003 C 
ATOM     18  C   UNL     1       0.603  24.759  53.033  1.00  0.00     0.004 C 
ENDBRANCH  16  17
ENDBRANCH  15  16
ENDBRANCH  14  15
ENDBRANCH  13  14
ENDBRANCH  12  13
ENDBRANCH  11  12
ENDBRANCH   1  11
TORSDOF 14
ENDMDL
MODEL 2
REMARK VINA RESULT:    -5.026      3.888      6.194
REMARK INTER + INTRA:          -9.962
REMARK INTER:                  -9.196
REMARK INTRA:                  -0.765
REMARK UNBOUND:                -0.822
REMARK SMILES CCCCCCCCCCCCCCCC(=O)[O-]
REMARK SMILES IDX 9 1 10 2 11 3 12 4 13 5 14 6 15 7 16 8 17 9 18 10 8 11 7 12
REMARK SMILES IDX 6 13 5 14 4 15 3 16 2 17 1 18
REMARK H PARENT
REMARK Flexibility Score: inf
ROOT
ATOM      1  C   UNL     1      -0.524  26.396  55.464  1.00  0.00     0.000 C 
ENDROOT
BRANCH   1   2
ATOM      2  C   UNL     1      -1.540  26.120  54.343  1.00  0.00     0.000 C 
BRANCH   2   3
ATOM      3  C   UNL     1      -2.989  26.097  54.856  1.00  0.00     0.000 C 
BRANCH   3   4
ATOM      4  C   UNL     1      -3.268  27.205  55.884  1.00  0.00     0.000 C 
BRANCH   4   5
ATOM      5  C   UNL     1      -4.633  27.884  55.677  1.00  0.00     0.000 C 
BRANCH   5   6
ATOM      6  C   UNL     1      -5.007  28.872  56.802  1.00  0.00     0.006 C 
BRANCH   6   7
ATOM      7  C   UNL     1      -3.823  29.755  57.217  1.00  0.00     0.053 C 
BRANCH   7   8
ATOM      8  C   UNL     1      -4.243  30.734  58.268  1.00  0.00     0.041 C 
ATOM      9  O   UNL     1      -4.152  31.971  58.056  1.00  0.00    -0.550 OA
ATOM     10  O   UNL     1      -4.782  30.278  59.465  1.00  0.00    -0.550 OA
ENDBRANCH   7   8
ENDBRANCH   6   7
ENDBRANCH   5   6
ENDBRANCH   4   5
ENDBRANCH   3   4
ENDBRANCH   2   3
ENDBRANCH   1   2
BRANCH   1  11
ATOM     11  C   UNL     1       0.907  25.973  55.087  1.00  0.00     0.000 C 
BRANCH  11  12
ATOM     12  C   UNL     1       1.988  26.333  56.126  1.00  0.00    -0.000 C 
BRANCH  12  13
ATOM     13  C   UNL     1       1.524  27.275  57.252  1.00  0.00    -0.000 C 
BRANCH  13  14
ATOM     14  C   UNL     1       2.463  28.473  57.453  1.00  0.00    -0.000 C 
BRANCH  14  15
ATOM     15  C   UNL     1       1.665  29.769  57.647  1.00  0.00    -0.000 C 
BRANCH  15  16
ATOM     16  C   UNL     1       2.411  30.969  57.053  1.00  0.00    -0.000 C 
BRANCH  16  17
ATOM     17  C   UNL     1       3.781  31.147  57.717  1.00  0.00    -0.003 C 
ATOM     18  C   UNL     1       4.897  31.172  56.676  1.00  0.00     0.004 C 
ENDBRANCH  16  17
ENDBRANCH  15  16
ENDBRANCH  14  15
ENDBRANCH  13  14
ENDBRANCH  12  13
ENDBRANCH  11  12
ENDBRANCH   1  11
TORSDOF 14
ENDMDL
MODEL 3
REMARK VINA RESULT:    -4.940      4.292      8.674
REMARK INTER + INTRA:          -9.805
REMARK INTER:                  -9.089
REMARK INTRA:                  -0.716
REMARK UNBOUND:                -0.822
REMARK SMILES CCCCCCCCCCCCCCCC(=O)[O-]
REMARK SMILES IDX 9 1 10 2 11 3 12 4 13 5 14 6 15 7 16 8 17 9 18 10 8 11 7 12
REMARK SMILES IDX 6 13 5 14 4 15 3 16 2 17 1 18
REMARK H PARENT
REMARK Flexibility Score: inf
ROOT
ATOM      1  C   UNL     1      -4.020  31.094  58.307  1.00  0.00     0.000 C 
ENDROOT
BRANCH   1   2
ATOM      2  C   UNL     1      -4.386  29.635  57.986  1.00  0.00     0.000 C 
BRANCH   2   3
ATOM      3  C   UNL     1      -3.968  29.222  56.567  1.00  0.00     0.000 C 
BRANCH   3   4
ATOM      4  C   UNL     1      -4.964  28.248  55.918  1.00  0.00     0.000 C 
BRANCH   4   5
ATOM      5  C   UNL     1      -4.273  27.129  55.120  1.00  0.00     0.000 C 
BRANCH   5   6
ATOM      6  C   UNL     1      -2.799  26.905  55.522  1.00  0.00     0.006 C 
BRANCH   6   7
ATOM      7  C   UNL     1      -1.981  26.261  54.396  1.00  0.00     0.053 C 
BRANCH   7   8
ATOM      8  C   UNL     1      -0.575  26.015  54.845  1.00  0.00     0.041 C 
ATOM      9  O   UNL     1      -0.171  26.477  55.943  1.00  0.00    -0.550 OA
ATOM     10  O   UNL     1       0.274  25.234  54.072  1.00  0.00    -0.550 OA
ENDBRANCH   7   8
ENDBRANCH   6   7
ENDBRANCH   5   6
ENDBRANCH   4   5
ENDBRANCH   3   4
ENDBRANCH   2   3
ENDBRANCH   1   2
BRANCH   1  11
ATOM     11  C   UNL     1      -4.172  31.431  59.801  1.00  0.00     0.000 C 
BRANCH  11  12
ATOM     12  C   UNL     1      -3.026  32.274  60.399  1.00  0.00    -0.000 C 
BRANCH  12  13
ATOM     13  C   UNL     1      -3.176  32.613  61.893  1.00  0.00    -0.000 C 
BRANCH  13  14
ATOM     14  C   UNL     1      -1.894  33.195  62.505  1.00  0.00    -0.000 C 
BRANCH  14  15
ATOM     15  C   UNL     1      -0.700  33.004  61.561  1.00  0.00    -0.000 C 
BRANCH  15  16
ATOM     16  C   UNL     1       0.210  31.870  62.046  1.00  0.00    -0.000 C 
BRANCH  16  17
ATOM     17  C   UNL     1       0.052  31.646  63.554  1.00  0.00    -0.003 C 
ATOM     18  C   UNL     1      -0.204  30.175  63.869  1.00  0.00     0.004 C 
ENDBRANCH  16  17
ENDBRANCH  15  16
ENDBRANCH  14  15
ENDBRANCH  13  14
ENDBRANCH  12  13
ENDBRANCH  11  12
ENDBRANCH   1  11
TORSDOF 14
ENDMDL
MODEL 4
REMARK VINA RESULT:    -4.868      4.581      8.464
REMARK INTER + INTRA:          -9.674
REMARK INTER:                  -8.803
REMARK INTRA:                  -0.871
REMARK UNBOUND:                -0.822
REMARK SMILES CCCCCCCCCCCCCCCC(=O)[O-]
REMARK SMILES IDX 9 1 10 2 11 3 12 4 13 5 14 6 15 7 16 8 17 9 18 10 8 11 7 12
REMARK SMILES IDX 6 13 5 14 4 15 3 16 2 17 1 18
REMARK H PARENT
REMARK Flexibility Score: inf
ROOT
ATOM      1  C   UNL     1      -3.504  31.893  59.702  1.00  0.00     0.000 C 
ENDROOT
BRANCH   1   2
ATOM      2  C   UNL     1      -4.584  30.868  59.312  1.00  0.00     0.000 C 
BRANCH   2   3
ATOM      3  C   UNL     1      -4.245  30.123  58.012  1.00  0.00     0.000 C 
BRANCH   3   4
ATOM      4  C   UNL     1      -2.732  30.057  57.747  1.00  0.00     0.000 C 
BRANCH   4   5
ATOM      5  C   UNL     1      -2.358  29.026  56.669  1.00  0.00     0.000 C 
BRANCH   5   6
ATOM      6  C   UNL     1      -3.580  28.417  55.948  1.00  0.00     0.006 C 
BRANCH   6   7
ATOM      7  C   UNL     1      -3.444  26.902  55.752  1.00  0.00     0.053 C 
BRANCH   7   8
ATOM      8  C   UNL     1      -2.768  26.600  54.452  1.00  0.00     0.041 C 
ATOM      9  O   UNL     1      -3.439  26.529  53.390  1.00  0.00    -0.550 OA
ATOM     10  O   UNL     1      -1.388  26.447  54.407  1.00  0.00    -0.550 OA
ENDBRANCH   7   8
ENDBRANCH   6   7
ENDBRANCH   5   6
ENDBRANCH   4   5
ENDBRANCH   3   4
ENDBRANCH   2   3
ENDBRANCH   1   2
BRANCH   1  11
ATOM     11  C   UNL     1      -3.587  32.312  61.181  1.00  0.00     0.000 C 
BRANCH  11  12
ATOM     12  C   UNL     1      -2.397  33.153  61.687  1.00  0.00    -0.000 C 
BRANCH  12  13
ATOM     13  C   UNL     1      -1.023  32.466  61.587  1.00  0.00    -0.000 C 
BRANCH  13  14
ATOM     14  C   UNL     1      -0.264  32.450  62.922  1.00  0.00    -0.000 C 
BRANCH  14  15
ATOM     15  C   UNL     1      -0.691  31.253  63.780  1.00  0.00    -0.000 C 
BRANCH  15  16
ATOM     16  C   UNL     1       0.528  30.441  64.237  1.00  0.00    -0.000 C 
BRANCH  16  17
ATOM     17  C   UNL     1       1.598  30.395  63.141  1.00  0.00    -0.003 C 
ATOM     18  C   UNL     1       1.466  29.131  62.295  1.00  0.00     0.004 C 
ENDBRANCH  16  17
ENDBRANCH  15  16
ENDBRANCH  14  15
ENDBRANCH  13  14
ENDBRANCH  12  13
ENDBRANCH  11  12
ENDBRANCH   1  11
TORSDOF 14
ENDMDL
MODEL 5
REMARK VINA RESULT:    -4.767      4.967      9.590
REMARK INTER + INTRA:          -9.490
REMARK INTER:                  -9.162
REMARK INTRA:                  -0.328
REMARK UNBOUND:                -0.822
REMARK SMILES CCCCCCCCCCCCCCCC(=O)[O-]
REMARK SMILES IDX 9 1 10 2 11 3 12 4 13 5 14 6 15 7 16 8 17 9 18 10 8 11 7 12
REMARK SMILES IDX 6 13 5 14 4 15 3 16 2 17 1 18
REMARK H PARENT
REMARK Flexibility Score: inf
ROOT
ATOM      1  C   UNL     1      -1.064  26.162  55.399  1.00  0.00     0.000 C 
ENDROOT
BRANCH   1   2
ATOM      2  C   UNL     1       0.404  25.916  55.012  1.00  0.00     0.000 C 
BRANCH   2   3
ATOM      3  C   UNL     1       0.620  24.536  54.372  1.00  0.00     0.000 C 
BRANCH   3   4
ATOM      4  C   UNL     1       0.584  24.587  52.836  1.00  0.00     0.000 C 
BRANCH   4   5
ATOM      5  C   UNL     1      -0.122  25.842  52.296  1.00  0.00     0.000 C 
BRANCH   5   6
ATOM      6  C   UNL     1      -0.835  25.616  50.946  1.00  0.00     0.006 C 
BRANCH   6   7
ATOM      7  C   UNL     1      -1.835  26.733  50.621  1.00  0.00     0.053 C 
BRANCH   7   8
ATOM      8  C   UNL     1      -3.177  26.421  51.202  1.00  0.00     0.041 C 
ATOM      9  O   UNL     1      -3.322  26.325  52.448  1.00  0.00    -0.550 OA
ATOM     10  O   UNL     1      -4.279  26.284  50.368  1.00  0.00    -0.550 OA
ENDBRANCH   7   8
ENDBRANCH   6   7
ENDBRANCH   5   6
ENDBRANCH   4   5
ENDBRANCH   3   4
ENDBRANCH   2   3
ENDBRANCH   1   2
BRANCH   1  11
ATOM     11  C   UNL     1      -1.213  27.106  56.605  1.00  0.00     0.000 C 
BRANCH  11  12
ATOM     12  C   UNL     1      -1.607  28.555  56.254  1.00  0.00    -0.000 C 
BRANCH  12  13
ATOM     13  C   UNL     1      -3.058  28.938  56.595  1.00  0.00    -0.000 C 
BRANCH  13  14
ATOM     14  C   UNL     1      -3.156  29.934  57.760  1.00  0.00    -0.000 C 
BRANCH  14  15
ATOM     15  C   UNL     1      -4.613  30.118  58.203  1.00  0.00    -0.000 C 
BRANCH  15  16
ATOM     16  C   UNL     1      -4.690  30.831  59.558  1.00  0.00    -0.000 C 
BRANCH  16  17
ATOM     17  C   UNL     1      -3.489  31.762  59.758  1.00  0.00    -0.003 C 
ATOM     18  C   UNL     1      -3.458  32.323  61.177  1.00  0.00     0.004 C 
ENDBRANCH  16  17
ENDBRANCH  15  16
ENDBRANCH  14  15
ENDBRANCH  13  14
ENDBRANCH  12  13
ENDBRANCH  11  12
ENDBRANCH   1  11
TORSDOF 14
ENDMDL
MODEL 6
REMARK VINA RESULT:    -4.719      3.332      5.959
REMARK INTER + INTRA:          -9.402
REMARK INTER:                  -7.953
REMARK INTRA:                  -1.449
REMARK UNBOUND:                -0.822
REMARK SMILES CCCCCCCCCCCCCCCC(=O)[O-]
REMARK SMILES IDX 9 1 10 2 11 3 12 4 13 5 14 6 15 7 16 8 17 9 18 10 8 11 7 12
REMARK SMILES IDX 6 13 5 14 4 15 3 16 2 17 1 18
REMARK H PARENT
REMARK Flexibility Score: inf
ROOT
ATOM      1  C   UNL     1      -0.389  27.420  56.959  1.00  0.00     0.000 C 
ENDROOT
BRANCH   1   2
ATOM      2  C   UNL     1      -0.545  26.335  55.880  1.00  0.00     0.000 C 
BRANCH   2   3
ATOM      3  C   UNL     1      -1.581  26.714  54.811  1.00  0.00     0.000 C 
BRANCH   3   4
ATOM      4  C   UNL     1      -2.961  26.093  55.081  1.00  0.00     0.000 C 
BRANCH   4   5
ATOM      5  C   UNL     1      -4.078  27.144  55.193  1.00  0.00     0.000 C 
BRANCH   5   6
ATOM      6  C   UNL     1      -3.641  28.433  55.922  1.00  0.00     0.006 C 
BRANCH   6   7
ATOM      7  C   UNL     1      -4.760  29.015  56.796  1.00  0.00     0.053 C 
BRANCH   7   8
ATOM      8  C   UNL     1      -4.188  29.901  57.857  1.00  0.00     0.041 C 
ATOM      9  O   UNL     1      -4.874  30.203  58.867  1.00  0.00    -0.550 OA
ATOM     10  O   UNL     1      -2.878  30.352  57.753  1.00  0.00    -0.550 OA
ENDBRANCH   7   8
ENDBRANCH   6   7
ENDBRANCH   5   6
ENDBRANCH   4   5
ENDBRANCH   3   4
ENDBRANCH   2   3
ENDBRANCH   1   2
BRANCH   1  11
ATOM     11  C   UNL     1       1.075  27.843  57.172  1.00  0.00     0.000 C 
BRANCH  11  12
ATOM     12  C   UNL     1       1.856  26.997  58.198  1.00  0.00    -0.000 C 
BRANCH  12  13
ATOM     13  C   UNL     1       3.284  26.609  57.774  1.00  0.00    -0.000 C 
BRANCH  13  14
ATOM     14  C   UNL     1       3.310  25.598  56.619  1.00  0.00    -0.000 C 
BRANCH  14  15
ATOM     15  C   UNL     1       3.906  26.226  55.353  1.00  0.00    -0.000 C 
BRANCH  15  16
ATOM     16  C   UNL     1       3.124  25.798  54.106  1.00  0.00    -0.000 C 
BRANCH  16  17
ATOM     17  C   UNL     1       2.350  24.500  54.362  1.00  0.00    -0.003 C 
ATOM     18  C   UNL     1       1.285  24.274  53.292  1.00  0.00     0.004 C 
ENDBRANCH  16  17
ENDBRANCH  15  16
ENDBRANCH  14  15
ENDBRANCH  13  14
ENDBRANCH  12  13
ENDBRANCH  11  12
ENDBRANCH   1  11
TORSDOF 14
ENDMDL
MODEL 7
REMARK VINA RESULT:    -4.706     10.199     11.525
REMARK INTER + INTRA:          -9.379
REMARK INTER:                  -7.319
REMARK INTRA:                  -2.060
REMARK UNBOUND:                -0.822
REMARK SMILES CCCCCCCCCCCCCCCC(=O)[O-]
REMARK SMILES IDX 9 1 10 2 11 3 12 4 13 5 14 6 15 7 16 8 17 9 18 10 8 11 7 12
REMARK SMILES IDX 6 13 5 14 4 15 3 16 2 17 1 18
REMARK H PARENT
REMARK Flexibility Score: inf
ROOT
ATOM      1  C   UNL     1      -4.413  41.436  52.124  1.00  0.00     0.000 C 
ENDROOT
BRANCH   1   2
ATOM      2  C   UNL     1      -3.501  41.507  53.361  1.00  0.00     0.000 C 
BRANCH   2   3
ATOM      3  C   UNL     1      -3.593  40.244  54.231  1.00  0.00     0.000 C 
BRANCH   3   4
ATOM      4  C   UNL     1      -2.361  40.058  55.132  1.00  0.00     0.000 C 
BRANCH   4   5
ATOM      5  C   UNL     1      -2.098  41.268  56.044  1.00  0.00     0.000 C 
BRANCH   5   6
ATOM      6  C   UNL     1      -1.557  40.883  57.437  1.00  0.00     0.006 C 
BRANCH   6   7
ATOM      7  C   UNL     1      -2.436  39.837  58.135  1.00  0.00     0.053 C 
BRANCH   7   8
ATOM      8  C   UNL     1      -3.094  40.426  59.342  1.00  0.00     0.041 C 
ATOM      9  O   UNL     1      -3.527  39.678  60.256  1.00  0.00    -0.550 OA
ATOM     10  O   UNL     1      -3.185  41.805  59.479  1.00  0.00    -0.550 OA
ENDBRANCH   7   8
ENDBRANCH   6   7
ENDBRANCH   5   6
ENDBRANCH   4   5
ENDBRANCH   3   4
ENDBRANCH   2   3
ENDBRANCH   1   2
BRANCH   1  11
ATOM     11  C   UNL     1      -5.431  40.285  52.200  1.00  0.00     0.000 C 
BRANCH  11  12
ATOM     12  C   UNL     1      -5.371  39.284  51.028  1.00  0.00    -0.000 C 
BRANCH  12  13
ATOM     13  C   UNL     1      -3.986  39.124  50.375  1.00  0.00    -0.000 C 
BRANCH  13  14
ATOM     14  C   UNL     1      -3.340  37.763  50.669  1.00  0.00    -0.000 C 
BRANCH  14  15
ATOM     15  C   UNL     1      -2.076  37.928  51.522  1.00  0.00    -0.000 C 
BRANCH  15  16
ATOM     16  C   UNL     1      -1.385  39.265  51.229  1.00  0.00    -0.000 C 
BRANCH  16  17
ATOM     17  C   UNL     1      -0.238  39.518  52.214  1.00  0.00    -0.003 C 
ATOM     18  C   UNL     1      -0.004  41.012  52.415  1.00  0.00     0.004 C 
ENDBRANCH  16  17
ENDBRANCH  15  16
ENDBRANCH  14  15
ENDBRANCH  13  14
ENDBRANCH  12  13
ENDBRANCH  11  12
ENDBRANCH   1  11
TORSDOF 14
ENDMDL
MODEL 8
REMARK VINA RESULT:    -4.645      4.381      6.789
REMARK INTER + INTRA:          -9.269
REMARK INTER:                  -8.040
REMARK INTRA:                  -1.229
REMARK UNBOUND:                -0.822
REMARK SMILES CCCCCCCCCCCCCCCC(=O)[O-]
REMARK SMILES IDX 9 1 10 2 11 3 12 4 13 5 14 6 15 7 16 8 17 9 18 10 8 11 7 12
REMARK SMILES IDX 6 13 5 14 4 15 3 16 2 17 1 18
REMARK H PARENT
REMARK Flexibility Score: inf
ROOT
ATOM      1  C   UNL     1      -0.761  25.754  54.587  1.00  0.00     0.000 C 
ENDROOT
BRANCH   1   2
ATOM      2  C   UNL     1       0.628  25.158  54.301  1.00  0.00     0.000 C 
BRANCH   2   3
ATOM      3  C   UNL     1       1.743  25.859  55.092  1.00  0.00     0.000 C 
BRANCH   3   4
ATOM      4  C   UNL     1       1.203  26.658  56.290  1.00  0.00     0.000 C 
BRANCH   4   5
ATOM      5  C   UNL     1       2.308  27.397  57.063  1.00  0.00     0.000 C 
BRANCH   5   6
ATOM      6  C   UNL     1       2.557  26.828  58.476  1.00  0.00     0.006 C 
BRANCH   6   7
ATOM      7  C   UNL     1       2.530  27.918  59.556  1.00  0.00     0.053 C 
BRANCH   7   8
ATOM      8  C   UNL     1       3.916  28.401  59.847  1.00  0.00     0.041 C 
ATOM      9  O   UNL     1       4.566  27.919  60.810  1.00  0.00    -0.550 OA
ATOM     10  O   UNL     1       4.507  29.351  59.023  1.00  0.00    -0.550 OA
ENDBRANCH   7   8
ENDBRANCH   6   7
ENDBRANCH   5   6
ENDBRANCH   4   5
ENDBRANCH   3   4
ENDBRANCH   2   3
ENDBRANCH   1   2
BRANCH   1  11
ATOM     11  C   UNL     1      -1.522  26.132  53.304  1.00  0.00     0.000 C 
BRANCH  11  12
ATOM     12  C   UNL     1      -3.029  26.400  53.494  1.00  0.00    -0.000 C 
BRANCH  12  13
ATOM     13  C   UNL     1      -3.506  26.432  54.957  1.00  0.00    -0.000 C 
BRANCH  13  14
ATOM     14  C   UNL     1      -4.606  27.475  55.204  1.00  0.00    -0.000 C 
BRANCH  14  15
ATOM     15  C   UNL     1      -4.176  28.483  56.277  1.00  0.00    -0.000 C 
BRANCH  15  16
ATOM     16  C   UNL     1      -2.686  28.335  56.606  1.00  0.00    -0.000 C 
BRANCH  16  17
ATOM     17  C   UNL     1      -2.154  29.583  57.319  1.00  0.00    -0.003 C 
ATOM     18  C   UNL     1      -0.629  29.591  57.352  1.00  0.00     0.004 C 
ENDBRANCH  16  17
ENDBRANCH  15  16
ENDBRANCH  14  15
ENDBRANCH  13  14
ENDBRANCH  12  13
ENDBRANCH  11  12
ENDBRANCH   1  11
TORSDOF 14
ENDMDL
MODEL 9
REMARK VINA RESULT:    -4.612      2.036      3.498
REMARK INTER + INTRA:          -9.209
REMARK INTER:                  -8.584
REMARK INTRA:                  -0.625
REMARK UNBOUND:                -0.822
REMARK SMILES CCCCCCCCCCCCCCCC(=O)[O-]
REMARK SMILES IDX 9 1 10 2 11 3 12 4 13 5 14 6 15 7 16 8 17 9 18 10 8 11 7 12
REMARK SMILES IDX 6 13 5 14 4 15 3 16 2 17 1 18
REMARK H PARENT
REMARK Flexibility Score: inf
ROOT
ATOM      1  C   UNL     1      -3.827  31.907  59.193  1.00  0.00     0.000 C 
ENDROOT
BRANCH   1   2
ATOM      2  C   UNL     1      -3.547  32.025  60.701  1.00  0.00     0.000 C 
BRANCH   2   3
ATOM      3  C   UNL     1      -2.243  32.782  60.999  1.00  0.00     0.000 C 
BRANCH   3   4
ATOM      4  C   UNL     1      -2.478  34.059  61.823  1.00  0.00     0.000 C 
BRANCH   4   5
ATOM      5  C   UNL     1      -3.293  33.804  63.102  1.00  0.00     0.000 C 
BRANCH   5   6
ATOM      6  C   UNL     1      -3.747  35.097  63.812  1.00  0.00     0.006 C 
BRANCH   6   7
ATOM      7  C   UNL     1      -5.027  35.679  63.200  1.00  0.00     0.053 C 
BRANCH   7   8
ATOM      8  C   UNL     1      -4.959  37.173  63.163  1.00  0.00     0.041 C 
ATOM      9  O   UNL     1      -4.031  37.779  63.760  1.00  0.00    -0.550 OA
ATOM     10  O   UNL     1      -5.892  37.892  62.428  1.00  0.00    -0.550 OA
ENDBRANCH   7   8
ENDBRANCH   6   7
ENDBRANCH   5   6
ENDBRANCH   4   5
ENDBRANCH   3   4
ENDBRANCH   2   3
ENDBRANCH   1   2
BRANCH   1  11
ATOM     11  C   UNL     1      -4.389  30.529  58.799  1.00  0.00     0.000 C 
BRANCH  11  12
ATOM     12  C   UNL     1      -3.619  29.809  57.674  1.00  0.00    -0.000 C 
BRANCH  12  13
ATOM     13  C   UNL     1      -4.500  29.096  56.632  1.00  0.00    -0.000 C 
BRANCH  13  14
ATOM     14  C   UNL     1      -3.902  27.765  56.154  1.00  0.00    -0.000 C 
BRANCH  14  15
ATOM     15  C   UNL     1      -2.369  27.806  56.195  1.00  0.00    -0.000 C 
BRANCH  15  16
ATOM     16  C   UNL     1      -1.764  26.810  55.199  1.00  0.00    -0.000 C 
BRANCH  16  17
ATOM     17  C   UNL     1      -2.862  26.079  54.419  1.00  0.00    -0.003 C 
ATOM     18  C   UNL     1      -2.795  26.413  52.931  1.00  0.00     0.004 C 
ENDBRANCH  16  17
ENDBRANCH  15  16
ENDBRANCH  14  15
ENDBRANCH  13  14
ENDBRANCH  12  13
ENDBRANCH  11  12
ENDBRANCH   1  11
TORSDOF 14
ENDMDL
