MODEL 1
REMARK VINA RESULT:    -3.025      0.000      0.000
REMARK INTER + INTRA:          -7.317
REMARK INTER:                  -5.855
REMARK INTRA:                  -1.462
REMARK UNBOUND:                -1.462
REMARK SMILES CCCCCCCCCCCCCCCCCC(=O)[O-]
REMARK SMILES IDX 10 1 11 2 12 3 13 4 14 5 15 6 16 7 17 8 18 9 19 10 20 11
REMARK SMILES IDX 9 12 8 13 7 14 6 15 5 16 4 17 3 18 2 19 1 20
REMARK H PARENT
REMARK Flexibility Score: inf
ROOT
ATOM      1  C   UNL     1       7.941 -32.872  13.116  1.00  0.00     0.000 C 
ENDROOT
BRANCH   1   2
ATOM      2  C   UNL     1       6.596 -33.557  13.419  1.00  0.00     0.000 C 
BRANCH   2   3
ATOM      3  C   UNL     1       6.564 -35.021  12.949  1.00  0.00     0.000 C 
BRANCH   3   4
ATOM      4  C   UNL     1       5.890 -35.953  13.971  1.00  0.00     0.000 C 
BRANCH   4   5
ATOM      5  C   UNL     1       5.908 -35.379  15.399  1.00  0.00     0.000 C 
BRANCH   5   6
ATOM      6  C   UNL     1       6.787 -36.158  16.401  1.00  0.00     0.000 C 
BRANCH   6   7
ATOM      7  C   UNL     1       7.859 -35.317  17.123  1.00  0.00     0.006 C 
BRANCH   7   8
ATOM      8  C   UNL     1       7.299 -34.324  18.155  1.00  0.00     0.053 C 
BRANCH   8   9
ATOM      9  C   UNL     1       7.497 -32.902  17.728  1.00  0.00     0.041 C 
ATOM     10  O   UNL     1       6.806 -32.420  16.795  1.00  0.00    -0.550 OA
ATOM     11  O   UNL     1       8.469 -32.121  18.338  1.00  0.00    -0.550 OA
ENDBRANCH   8   9
ENDBRANCH   7   8
ENDBRANCH   6   7
ENDBRANCH   5   6
ENDBRANCH   4   5
ENDBRANCH   3   4
ENDBRANCH   2   3
ENDBRANCH   1   2
BRANCH   1  12
ATOM     12  C   UNL     1       9.030 -33.243  14.135  1.00  0.00     0.000 C 
BRANCH  12  13
ATOM     13  C   UNL     1      10.136 -34.124  13.529  1.00  0.00    -0.000 C 
BRANCH  13  14
ATOM     14  C   UNL     1      11.427 -33.326  13.248  1.00  0.00    -0.000 C 
BRANCH  14  15
ATOM     15  C   UNL     1      11.324 -31.830  13.608  1.00  0.00    -0.000 C 
BRANCH  15  16
ATOM     16  C   UNL     1      12.470 -31.286  14.480  1.00  0.00    -0.000 C 
BRANCH  16  17
ATOM     17  C   UNL     1      13.860 -31.692  13.961  1.00  0.00    -0.000 C 
BRANCH  17  18
ATOM     18  C   UNL     1      14.974 -30.742  14.439  1.00  0.00    -0.000 C 
BRANCH  18  19
ATOM     19  C   UNL     1      16.225 -31.439  15.001  1.00  0.00    -0.003 C 
ATOM     20  C   UNL     1      17.139 -31.996  13.911  1.00  0.00     0.004 C 
ENDBRANCH  18  19
ENDBRANCH  17  18
ENDBRANCH  16  17
ENDBRANCH  15  16
ENDBRANCH  14  15
ENDBRANCH  13  14
ENDBRANCH  12  13
ENDBRANCH   1  12
TORSDOF 16
ENDMDL
MODEL 2
REMARK VINA RESULT:    -2.881      1.555      2.002
REMARK INTER + INTRA:          -7.037
REMARK INTER:                  -5.685
REMARK INTRA:                  -1.352
REMARK UNBOUND:                -1.462
REMARK SMILES CCCCCCCCCCCCCCCCCC(=O)[O-]
REMARK SMILES IDX 10 1 11 2 12 3 13 4 14 5 15 6 16 7 17 8 18 9 19 10 20 11
REMARK SMILES IDX 9 12 8 13 7 14 6 15 5 16 4 17 3 18 2 19 1 20
REMARK H PARENT
REMARK Flexibility Score: inf
ROOT
ATOM      1  C   UNL     1       9.218 -34.610  14.075  1.00  0.00     0.000 C 
ENDROOT
BRANCH   1   2
ATOM      2  C   UNL     1       8.075 -35.452  13.481  1.00  0.00     0.000 C 
BRANCH   2   3
ATOM      3  C   UNL     1       7.189 -36.087  14.565  1.00  0.00     0.000 C 
BRANCH   3   4
ATOM      4  C   UNL     1       5.945 -35.238  14.882  1.00  0.00     0.000 C 
BRANCH   4   5
ATOM      5  C   UNL     1       6.019 -34.572  16.268  1.00  0.00     0.000 C 
BRANCH   5   6
ATOM      6  C   UNL     1       6.635 -33.157  16.277  1.00  0.00     0.000 C 
BRANCH   6   7
ATOM      7  C   UNL     1       7.562 -32.854  17.472  1.00  0.00     0.006 C 
BRANCH   7   8
ATOM      8  C   UNL     1       9.022 -32.568  17.087  1.00  0.00     0.053 C 
BRANCH   8   9
ATOM      9  C   UNL     1       9.634 -31.513  17.956  1.00  0.00     0.041 C 
ATOM     10  O   UNL     1      10.417 -30.661  17.462  1.00  0.00    -0.550 OA
ATOM     11  O   UNL     1       9.366 -31.491  19.319  1.00  0.00    -0.550 OA
ENDBRANCH   8   9
ENDBRANCH   7   8
ENDBRANCH   6   7
ENDBRANCH   5   6
ENDBRANCH   4   5
ENDBRANCH   3   4
ENDBRANCH   2   3
ENDBRANCH   1   2
BRANCH   1  12
ATOM     12  C   UNL     1      10.580 -34.946  13.448  1.00  0.00     0.000 C 
BRANCH  12  13
ATOM     13  C   UNL     1      11.344 -33.695  12.978  1.00  0.00    -0.000 C 
BRANCH  13  14
ATOM     14  C   UNL     1      10.730 -32.395  13.538  1.00  0.00    -0.000 C 
BRANCH  14  15
ATOM     15  C   UNL     1      11.755 -31.466  14.219  1.00  0.00    -0.000 C 
BRANCH  15  16
ATOM     16  C   UNL     1      13.229 -31.868  14.032  1.00  0.00    -0.000 C 
BRANCH  16  17
ATOM     17  C   UNL     1      14.210 -30.777  14.496  1.00  0.00    -0.000 C 
BRANCH  17  18
ATOM     18  C   UNL     1      15.633 -30.983  13.944  1.00  0.00    -0.000 C 
BRANCH  18  19
ATOM     19  C   UNL     1      16.560 -31.826  14.838  1.00  0.00    -0.003 C 
ATOM     20  C   UNL     1      17.989 -31.910  14.305  1.00  0.00     0.004 C 
ENDBRANCH  18  19
ENDBRANCH  17  18
ENDBRANCH  16  17
ENDBRANCH  15  16
ENDBRANCH  14  15
ENDBRANCH  13  14
ENDBRANCH  12  13
ENDBRANCH   1  12
TORSDOF 16
ENDMDL
MODEL 3
REMARK VINA RESULT:    -2.609      3.313      7.848
REMARK INTER + INTRA:          -6.511
REMARK INTER:                  -4.907
REMARK INTRA:                  -1.604
REMARK UNBOUND:                -1.462
REMARK SMILES CCCCCCCCCCCCCCCCCC(=O)[O-]
REMARK SMILES IDX 10 1 11 2 12 3 13 4 14 5 15 6 16 7 17 8 18 9 19 10 20 11
REMARK SMILES IDX 9 12 8 13 7 14 6 15 5 16 4 17 3 18 2 19 1 20
REMARK H PARENT
REMARK Flexibility Score: inf
ROOT
ATOM      1  C   UNL     1       9.412 -34.838  12.937  1.00  0.00     0.000 C 
ENDROOT
BRANCH   1   2
ATOM      2  C   UNL     1       9.673 -33.322  12.977  1.00  0.00     0.000 C 
BRANCH   2   3
ATOM      3  C   UNL     1      11.149 -32.987  13.251  1.00  0.00     0.000 C 
BRANCH   3   4
ATOM      4  C   UNL     1      11.348 -31.531  13.706  1.00  0.00     0.000 C 
BRANCH   4   5
ATOM      5  C   UNL     1      12.581 -31.355  14.612  1.00  0.00     0.000 C 
BRANCH   5   6
ATOM      6  C   UNL     1      13.802 -30.704  13.928  1.00  0.00     0.000 C 
BRANCH   6   7
ATOM      7  C   UNL     1      15.151 -30.935  14.639  1.00  0.00     0.006 C 
BRANCH   7   8
ATOM      8  C   UNL     1      16.303 -31.332  13.703  1.00  0.00     0.053 C 
BRANCH   8   9
ATOM      9  C   UNL     1      17.421 -32.000  14.442  1.00  0.00     0.041 C 
ATOM     10  O   UNL     1      18.604 -31.901  14.026  1.00  0.00    -0.550 OA
ATOM     11  O   UNL     1      17.151 -32.762  15.572  1.00  0.00    -0.550 OA
ENDBRANCH   8   9
ENDBRANCH   7   8
ENDBRANCH   6   7
ENDBRANCH   5   6
ENDBRANCH   4   5
ENDBRANCH   3   4
ENDBRANCH   2   3
ENDBRANCH   1   2
BRANCH   1  12
ATOM     12  C   UNL     1       7.914 -35.173  12.875  1.00  0.00     0.000 C 
BRANCH  12  13
ATOM     13  C   UNL     1       7.024 -34.004  13.334  1.00  0.00    -0.000 C 
BRANCH  13  14
ATOM     14  C   UNL     1       5.918 -34.462  14.307  1.00  0.00    -0.000 C 
BRANCH  14  15
ATOM     15  C   UNL     1       6.148 -35.870  14.892  1.00  0.00    -0.000 C 
BRANCH  15  16
ATOM     16  C   UNL     1       6.214 -35.939  16.429  1.00  0.00    -0.000 C 
BRANCH  16  17
ATOM     17  C   UNL     1       7.527 -35.372  16.996  1.00  0.00    -0.000 C 
BRANCH  17  18
ATOM     18  C   UNL     1       7.306 -34.126  17.873  1.00  0.00    -0.000 C 
BRANCH  18  19
ATOM     19  C   UNL     1       7.367 -32.784  17.122  1.00  0.00    -0.003 C 
ATOM     20  C   UNL     1       8.691 -32.567  16.393  1.00  0.00     0.004 C 
ENDBRANCH  18  19
ENDBRANCH  17  18
ENDBRANCH  16  17
ENDBRANCH  15  16
ENDBRANCH  14  15
ENDBRANCH  13  14
ENDBRANCH  12  13
ENDBRANCH   1  12
TORSDOF 16
ENDMDL
MODEL 4
REMARK VINA RESULT:    -2.595      3.319      5.048
REMARK INTER + INTRA:          -6.484
REMARK INTER:                  -5.080
REMARK INTRA:                  -1.404
REMARK UNBOUND:                -1.462
REMARK SMILES CCCCCCCCCCCCCCCCCC(=O)[O-]
REMARK SMILES IDX 10 1 11 2 12 3 13 4 14 5 15 6 16 7 17 8 18 9 19 10 20 11
REMARK SMILES IDX 9 12 8 13 7 14 6 15 5 16 4 17 3 18 2 19 1 20
REMARK H PARENT
REMARK Flexibility Score: inf
ROOT
ATOM      1  C   UNL     1       9.922 -33.897  13.878  1.00  0.00     0.000 C 
ENDROOT
BRANCH   1   2
ATOM      2  C   UNL     1      10.816 -34.788  12.999  1.00  0.00     0.000 C 
BRANCH   2   3
ATOM      3  C   UNL     1      10.325 -36.245  12.948  1.00  0.00     0.000 C 
BRANCH   3   4
ATOM      4  C   UNL     1       8.898 -36.405  13.502  1.00  0.00     0.000 C 
BRANCH   4   5
ATOM      5  C   UNL     1       8.188 -37.658  12.960  1.00  0.00     0.000 C 
BRANCH   5   6
ATOM      6  C   UNL     1       6.651 -37.648  13.107  1.00  0.00     0.000 C 
BRANCH   6   7
ATOM      7  C   UNL     1       6.125 -38.037  14.504  1.00  0.00     0.006 C 
BRANCH   7   8
ATOM      8  C   UNL     1       5.875 -36.846  15.443  1.00  0.00     0.053 C 
BRANCH   8   9
ATOM      9  C   UNL     1       6.566 -37.017  16.760  1.00  0.00     0.041 C 
ATOM     10  O   UNL     1       6.253 -37.970  17.520  1.00  0.00    -0.550 OA
ATOM     11  O   UNL     1       7.531 -36.105  17.165  1.00  0.00    -0.550 OA
ENDBRANCH   8   9
ENDBRANCH   7   8
ENDBRANCH   6   7
ENDBRANCH   5   6
ENDBRANCH   4   5
ENDBRANCH   3   4
ENDBRANCH   2   3
ENDBRANCH   1   2
BRANCH   1  12
ATOM     12  C   UNL     1       9.096 -32.899  13.051  1.00  0.00     0.000 C 
BRANCH  12  13
ATOM     13  C   UNL     1       7.619 -33.313  12.923  1.00  0.00    -0.000 C 
BRANCH  13  14
ATOM     14  C   UNL     1       6.993 -33.667  14.288  1.00  0.00    -0.000 C 
BRANCH  14  15
ATOM     15  C   UNL     1       7.187 -32.578  15.363  1.00  0.00    -0.000 C 
BRANCH  15  16
ATOM     16  C   UNL     1       6.405 -32.800  16.670  1.00  0.00    -0.000 C 
BRANCH  16  17
ATOM     17  C   UNL     1       7.317 -32.884  17.905  1.00  0.00    -0.000 C 
BRANCH  17  18
ATOM     18  C   UNL     1       8.781 -32.525  17.589  1.00  0.00    -0.000 C 
BRANCH  18  19
ATOM     19  C   UNL     1       9.456 -31.592  18.610  1.00  0.00    -0.003 C 
ATOM     20  C   UNL     1      10.368 -30.554  17.958  1.00  0.00     0.004 C 
ENDBRANCH  18  19
ENDBRANCH  17  18
ENDBRANCH  16  17
ENDBRANCH  15  16
ENDBRANCH  14  15
ENDBRANCH  13  14
ENDBRANCH  12  13
ENDBRANCH   1  12
TORSDOF 16
ENDMDL
MODEL 5
REMARK VINA RESULT:    -2.512      8.979     14.526
REMARK INTER + INTRA:          -6.322
REMARK INTER:                  -5.599
REMARK INTRA:                  -0.724
REMARK UNBOUND:                -1.462
REMARK SMILES CCCCCCCCCCCCCCCCCC(=O)[O-]
REMARK SMILES IDX 10 1 11 2 12 3 13 4 14 5 15 6 16 7 17 8 18 9 19 10 20 11
REMARK SMILES IDX 9 12 8 13 7 14 6 15 5 16 4 17 3 18 2 19 1 20
REMARK H PARENT
REMARK Flexibility Score: inf
ROOT
ATOM      1  C   UNL     1      21.841 -26.990  13.581  1.00  0.00     0.000 C 
ENDROOT
BRANCH   1   2
ATOM      2  C   UNL     1      20.641 -26.305  12.904  1.00  0.00     0.000 C 
BRANCH   2   3
ATOM      3  C   UNL     1      20.533 -24.815  13.269  1.00  0.00     0.000 C 
BRANCH   3   4
ATOM      4  C   UNL     1      20.752 -24.558  14.770  1.00  0.00     0.000 C 
BRANCH   4   5
ATOM      5  C   UNL     1      20.470 -23.099  15.169  1.00  0.00     0.000 C 
BRANCH   5   6
ATOM      6  C   UNL     1      19.746 -22.259  14.096  1.00  0.00     0.000 C 
BRANCH   6   7
ATOM      7  C   UNL     1      20.084 -20.754  14.103  1.00  0.00     0.006 C 
BRANCH   7   8
ATOM      8  C   UNL     1      19.910 -20.071  15.469  1.00  0.00     0.053 C 
BRANCH   8   9
ATOM      9  C   UNL     1      20.060 -18.584  15.373  1.00  0.00     0.041 C 
ATOM     10  O   UNL     1      20.138 -17.887  16.418  1.00  0.00    -0.550 OA
ATOM     11  O   UNL     1      20.077 -17.964  14.131  1.00  0.00    -0.550 OA
ENDBRANCH   8   9
ENDBRANCH   7   8
ENDBRANCH   6   7
ENDBRANCH   5   6
ENDBRANCH   4   5
ENDBRANCH   3   4
ENDBRANCH   2   3
ENDBRANCH   1   2
BRANCH   1  12
ATOM     12  C   UNL     1      21.533 -28.437  13.996  1.00  0.00     0.000 C 
BRANCH  12  13
ATOM     13  C   UNL     1      20.486 -29.106  13.087  1.00  0.00    -0.000 C 
BRANCH  13  14
ATOM     14  C   UNL     1      20.019 -30.468  13.642  1.00  0.00    -0.000 C 
BRANCH  14  15
ATOM     15  C   UNL     1      18.541 -30.788  13.343  1.00  0.00    -0.000 C 
BRANCH  15  16
ATOM     16  C   UNL     1      18.117 -32.242  13.617  1.00  0.00    -0.000 C 
BRANCH  16  17
ATOM     17  C   UNL     1      17.215 -32.378  14.856  1.00  0.00    -0.000 C 
BRANCH  17  18
ATOM     18  C   UNL     1      16.171 -31.251  14.957  1.00  0.00    -0.000 C 
BRANCH  18  19
ATOM     19  C   UNL     1      15.072 -31.285  13.880  1.00  0.00    -0.003 C 
ATOM     20  C   UNL     1      13.700 -30.878  14.413  1.00  0.00     0.004 C 
ENDBRANCH  18  19
ENDBRANCH  17  18
ENDBRANCH  16  17
ENDBRANCH  15  16
ENDBRANCH  14  15
ENDBRANCH  13  14
ENDBRANCH  12  13
ENDBRANCH   1  12
TORSDOF 16
ENDMDL
MODEL 6
REMARK VINA RESULT:    -2.277      2.463      3.714
REMARK INTER + INTRA:          -5.869
REMARK INTER:                  -4.589
REMARK INTRA:                  -1.280
REMARK UNBOUND:                -1.462
REMARK SMILES CCCCCCCCCCCCCCCCCC(=O)[O-]
REMARK SMILES IDX 10 1 11 2 12 3 13 4 14 5 15 6 16 7 17 8 18 9 19 10 20 11
REMARK SMILES IDX 9 12 8 13 7 14 6 15 5 16 4 17 3 18 2 19 1 20
REMARK H PARENT
REMARK Flexibility Score: inf
ROOT
ATOM      1  C   UNL     1       8.547 -32.596  17.462  1.00  0.00     0.000 C 
ENDROOT
BRANCH   1   2
ATOM      2  C   UNL     1       7.223 -33.321  17.166  1.00  0.00     0.000 C 
BRANCH   2   3
ATOM      3  C   UNL     1       7.312 -34.835  17.424  1.00  0.00     0.000 C 
BRANCH   3   4
ATOM      4  C   UNL     1       6.201 -35.621  16.706  1.00  0.00     0.000 C 
BRANCH   4   5
ATOM      5  C   UNL     1       6.275 -35.489  15.174  1.00  0.00     0.000 C 
BRANCH   5   6
ATOM      6  C   UNL     1       6.283 -36.828  14.407  1.00  0.00     0.000 C 
BRANCH   6   7
ATOM      7  C   UNL     1       6.880 -36.765  12.986  1.00  0.00     0.006 C 
BRANCH   7   8
ATOM      8  C   UNL     1       8.171 -35.939  12.875  1.00  0.00     0.053 C 
BRANCH   8   9
ATOM      9  C   UNL     1       9.393 -36.781  13.076  1.00  0.00     0.041 C 
ATOM     10  O   UNL     1       9.290 -38.030  13.186  1.00  0.00    -0.550 OA
ATOM     11  O   UNL     1      10.642 -36.184  13.177  1.00  0.00    -0.550 OA
ENDBRANCH   8   9
ENDBRANCH   7   8
ENDBRANCH   6   7
ENDBRANCH   5   6
ENDBRANCH   4   5
ENDBRANCH   3   4
ENDBRANCH   2   3
ENDBRANCH   1   2
BRANCH   1  12
ATOM     12  C   UNL     1       9.269 -32.150  16.180  1.00  0.00     0.000 C 
BRANCH  12  13
ATOM     13  C   UNL     1       8.966 -33.063  14.979  1.00  0.00    -0.000 C 
BRANCH  13  14
ATOM     14  C   UNL     1       9.560 -32.513  13.666  1.00  0.00    -0.000 C 
BRANCH  14  15
ATOM     15  C   UNL     1      11.089 -32.677  13.558  1.00  0.00    -0.000 C 
BRANCH  15  16
ATOM     16  C   UNL     1      11.896 -31.368  13.641  1.00  0.00    -0.000 C 
BRANCH  16  17
ATOM     17  C   UNL     1      13.137 -31.488  14.542  1.00  0.00    -0.000 C 
BRANCH  17  18
ATOM     18  C   UNL     1      14.354 -30.728  13.982  1.00  0.00    -0.000 C 
BRANCH  18  19
ATOM     19  C   UNL     1      15.656 -30.909  14.783  1.00  0.00    -0.003 C 
ATOM     20  C   UNL     1      16.655 -31.838  14.096  1.00  0.00     0.004 C 
ENDBRANCH  18  19
ENDBRANCH  17  18
ENDBRANCH  16  17
ENDBRANCH  15  16
ENDBRANCH  14  15
ENDBRANCH  13  14
ENDBRANCH  12  13
ENDBRANCH   1  12
TORSDOF 16
ENDMDL
MODEL 7
REMARK VINA RESULT:    -2.250      1.346      2.332
REMARK INTER + INTRA:          -5.816
REMARK INTER:                  -4.894
REMARK INTRA:                  -0.922
REMARK UNBOUND:                -1.462
REMARK SMILES CCCCCCCCCCCCCCCCCC(=O)[O-]
REMARK SMILES IDX 10 1 11 2 12 3 13 4 14 5 15 6 16 7 17 8 18 9 19 10 20 11
REMARK SMILES IDX 9 12 8 13 7 14 6 15 5 16 4 17 3 18 2 19 1 20
REMARK H PARENT
REMARK Flexibility Score: inf
ROOT
ATOM      1  C   UNL     1      10.561 -34.283  13.914  1.00  0.00     0.000 C 
ENDROOT
BRANCH   1   2
ATOM      2  C   UNL     1      10.528 -35.560  13.055  1.00  0.00     0.000 C 
BRANCH   2   3
ATOM      3  C   UNL     1       9.228 -36.361  13.244  1.00  0.00     0.000 C 
BRANCH   3   4
ATOM      4  C   UNL     1       8.251 -35.677  14.216  1.00  0.00     0.000 C 
BRANCH   4   5
ATOM      5  C   UNL     1       7.059 -36.577  14.590  1.00  0.00     0.000 C 
BRANCH   5   6
ATOM      6  C   UNL     1       6.580 -36.445  16.051  1.00  0.00     0.000 C 
BRANCH   6   7
ATOM      7  C   UNL     1       6.365 -34.999  16.542  1.00  0.00     0.006 C 
BRANCH   7   8
ATOM      8  C   UNL     1       7.317 -34.560  17.666  1.00  0.00     0.053 C 
BRANCH   8   9
ATOM      9  C   UNL     1       7.743 -33.132  17.513  1.00  0.00     0.041 C 
ATOM     10  O   UNL     1       7.447 -32.286  18.396  1.00  0.00    -0.550 OA
ATOM     11  O   UNL     1       8.435 -32.728  16.380  1.00  0.00    -0.550 OA
ENDBRANCH   8   9
ENDBRANCH   7   8
ENDBRANCH   6   7
ENDBRANCH   5   6
ENDBRANCH   4   5
ENDBRANCH   3   4
ENDBRANCH   2   3
ENDBRANCH   1   2
BRANCH   1  12
ATOM     12  C   UNL     1      11.243 -33.110  13.193  1.00  0.00     0.000 C 
BRANCH  12  13
ATOM     13  C   UNL     1      11.045 -31.768  13.921  1.00  0.00    -0.000 C 
BRANCH  13  14
ATOM     14  C   UNL     1      12.315 -31.322  14.675  1.00  0.00    -0.000 C 
BRANCH  14  15
ATOM     15  C   UNL     1      13.622 -31.582  13.900  1.00  0.00    -0.000 C 
BRANCH  15  16
ATOM     16  C   UNL     1      14.788 -30.639  14.248  1.00  0.00    -0.000 C 
BRANCH  16  17
ATOM     17  C   UNL     1      15.874 -31.322  15.098  1.00  0.00    -0.000 C 
BRANCH  17  18
ATOM     18  C   UNL     1      16.867 -32.138  14.250  1.00  0.00    -0.000 C 
BRANCH  18  19
ATOM     19  C   UNL     1      18.309 -31.600  14.242  1.00  0.00    -0.003 C 
ATOM     20  C   UNL     1      18.981 -31.714  12.875  1.00  0.00     0.004 C 
ENDBRANCH  18  19
ENDBRANCH  17  18
ENDBRANCH  16  17
ENDBRANCH  15  16
ENDBRANCH  14  15
ENDBRANCH  13  14
ENDBRANCH  12  13
ENDBRANCH   1  12
TORSDOF 16
ENDMDL
MODEL 8
REMARK VINA RESULT:    -1.966      3.294      8.109
REMARK INTER + INTRA:          -5.267
REMARK INTER:                  -3.899
REMARK INTRA:                  -1.368
REMARK UNBOUND:                -1.462
REMARK SMILES CCCCCCCCCCCCCCCCCC(=O)[O-]
REMARK SMILES IDX 10 1 11 2 12 3 13 4 14 5 15 6 16 7 17 8 18 9 19 10 20 11
REMARK SMILES IDX 9 12 8 13 7 14 6 15 5 16 4 17 3 18 2 19 1 20
REMARK H PARENT
REMARK Flexibility Score: inf
ROOT
ATOM      1  C   UNL     1       8.858 -33.408  15.912  1.00  0.00     0.000 C 
ENDROOT
BRANCH   1   2
ATOM      2  C   UNL     1       9.427 -32.448  14.852  1.00  0.00     0.000 C 
BRANCH   2   3
ATOM      3  C   UNL     1      10.085 -33.193  13.678  1.00  0.00     0.000 C 
BRANCH   3   4
ATOM      4  C   UNL     1      11.400 -32.534  13.226  1.00  0.00     0.000 C 
BRANCH   4   5
ATOM      5  C   UNL     1      12.048 -31.682  14.332  1.00  0.00     0.000 C 
BRANCH   5   6
ATOM      6  C   UNL     1      13.292 -30.882  13.891  1.00  0.00     0.000 C 
BRANCH   6   7
ATOM      7  C   UNL     1      14.594 -31.229  14.643  1.00  0.00     0.006 C 
BRANCH   7   8
ATOM      8  C   UNL     1      15.880 -30.808  13.914  1.00  0.00     0.053 C 
BRANCH   8   9
ATOM      9  C   UNL     1      17.025 -31.722  14.227  1.00  0.00     0.041 C 
ATOM     10  O   UNL     1      17.912 -31.944  13.363  1.00  0.00    -0.550 OA
ATOM     11  O   UNL     1      17.093 -32.356  15.460  1.00  0.00    -0.550 OA
ENDBRANCH   8   9
ENDBRANCH   7   8
ENDBRANCH   6   7
ENDBRANCH   5   6
ENDBRANCH   4   5
ENDBRANCH   3   4
ENDBRANCH   2   3
ENDBRANCH   1   2
BRANCH   1  12
ATOM     12  C   UNL     1       8.250 -32.663  17.111  1.00  0.00     0.000 C 
BRANCH  12  13
ATOM     13  C   UNL     1       6.820 -33.129  17.436  1.00  0.00    -0.000 C 
BRANCH  13  14
ATOM     14  C   UNL     1       6.365 -34.291  16.529  1.00  0.00    -0.000 C 
BRANCH  14  15
ATOM     15  C   UNL     1       6.713 -35.686  17.084  1.00  0.00    -0.000 C 
BRANCH  15  16
ATOM     16  C   UNL     1       7.077 -36.742  16.024  1.00  0.00    -0.000 C 
BRANCH  16  17
ATOM     17  C   UNL     1       5.875 -37.155  15.157  1.00  0.00    -0.000 C 
BRANCH  17  18
ATOM     18  C   UNL     1       6.109 -36.898  13.657  1.00  0.00    -0.000 C 
BRANCH  18  19
ATOM     19  C   UNL     1       7.298 -35.976  13.334  1.00  0.00    -0.003 C 
ATOM     20  C   UNL     1       6.866 -34.581  12.884  1.00  0.00     0.004 C 
ENDBRANCH  18  19
ENDBRANCH  17  18
ENDBRANCH  16  17
ENDBRANCH  15  16
ENDBRANCH  14  15
ENDBRANCH  13  14
ENDBRANCH  12  13
ENDBRANCH   1  12
TORSDOF 16
ENDMDL
MODEL 9
REMARK VINA RESULT:    -1.586      3.280      7.466
REMARK INTER + INTRA:          -4.531
REMARK INTER:                  -3.631
REMARK INTRA:                  -0.900
REMARK UNBOUND:                -1.462
REMARK SMILES CCCCCCCCCCCCCCCCCC(=O)[O-]
REMARK SMILES IDX 10 1 11 2 12 3 13 4 14 5 15 6 16 7 17 8 18 9 19 10 20 11
REMARK SMILES IDX 9 12 8 13 7 14 6 15 5 16 4 17 3 18 2 19 1 20
REMARK H PARENT
REMARK Flexibility Score: inf
ROOT
ATOM      1  C   UNL     1       8.508 -33.417  17.067  1.00  0.00     0.000 C 
ENDROOT
BRANCH   1   2
ATOM      2  C   UNL     1       8.105 -32.508  15.892  1.00  0.00     0.000 C 
BRANCH   2   3
ATOM      3  C   UNL     1       9.058 -32.642  14.692  1.00  0.00     0.000 C 
BRANCH   3   4
ATOM      4  C   UNL     1      10.427 -31.990  14.951  1.00  0.00     0.000 C 
BRANCH   4   5
ATOM      5  C   UNL     1      11.389 -32.134  13.758  1.00  0.00     0.000 C 
BRANCH   5   6
ATOM      6  C   UNL     1      12.493 -31.057  13.680  1.00  0.00     0.000 C 
BRANCH   6   7
ATOM      7  C   UNL     1      13.749 -31.344  14.528  1.00  0.00     0.006 C 
BRANCH   7   8
ATOM      8  C   UNL     1      15.030 -30.668  14.015  1.00  0.00     0.053 C 
BRANCH   8   9
ATOM      9  C   UNL     1      16.250 -31.484  14.311  1.00  0.00     0.041 C 
ATOM     10  O   UNL     1      16.555 -31.759  15.501  1.00  0.00    -0.550 OA
ATOM     11  O   UNL     1      17.071 -31.911  13.276  1.00  0.00    -0.550 OA
ENDBRANCH   8   9
ENDBRANCH   7   8
ENDBRANCH   6   7
ENDBRANCH   5   6
ENDBRANCH   4   5
ENDBRANCH   3   4
ENDBRANCH   2   3
ENDBRANCH   1   2
BRANCH   1  12
ATOM     12  C   UNL     1       7.681 -34.711  17.116  1.00  0.00     0.000 C 
BRANCH  12  13
ATOM     13  C   UNL     1       6.674 -34.818  15.957  1.00  0.00    -0.000 C 
BRANCH  13  14
ATOM     14  C   UNL     1       6.255 -36.277  15.682  1.00  0.00    -0.000 C 
BRANCH  14  15
ATOM     15  C   UNL     1       5.876 -36.550  14.213  1.00  0.00    -0.000 C 
BRANCH  15  16
ATOM     16  C   UNL     1       6.262 -37.943  13.684  1.00  0.00    -0.000 C 
BRANCH  16  17
ATOM     17  C   UNL     1       7.708 -38.006  13.165  1.00  0.00    -0.000 C 
BRANCH  17  18
ATOM     18  C   UNL     1       8.628 -36.973  13.843  1.00  0.00    -0.000 C 
BRANCH  18  19
ATOM     19  C   UNL     1       9.358 -36.022  12.878  1.00  0.00    -0.003 C 
ATOM     20  C   UNL     1      10.759 -35.645  13.357  1.00  0.00     0.004 C 
ENDBRANCH  18  19
ENDBRANCH  17  18
ENDBRANCH  16  17
ENDBRANCH  15  16
ENDBRANCH  14  15
ENDBRANCH  13  14
ENDBRANCH  12  13
ENDBRANCH   1  12
TORSDOF 16
ENDMDL
