MODEL 1
REMARK VINA RESULT:    -3.769      0.000      0.000
REMARK INTER + INTRA:          -8.607
REMARK INTER:                  -6.853
REMARK INTRA:                  -1.753
REMARK UNBOUND:                -1.753
REMARK SMILES CCCCCCCCCCCCCCCC(=O)[O-]
REMARK SMILES IDX 9 1 10 2 11 3 12 4 13 5 14 6 15 7 16 8 17 9 18 10 8 11 7 12
REMARK SMILES IDX 6 13 5 14 4 15 3 16 2 17 1 18
REMARK H PARENT
REMARK Flexibility Score: inf
ROOT
ATOM      1  C   UNL     1      41.168  11.808  13.224  1.00  0.00     0.000 C 
ENDROOT
BRANCH   1   2
ATOM      2  C   UNL     1      40.939  12.456  14.597  1.00  0.00     0.000 C 
BRANCH   2   3
ATOM      3  C   UNL     1      42.018  12.017  15.598  1.00  0.00     0.000 C 
BRANCH   3   4
ATOM      4  C   UNL     1      41.772  12.550  17.022  1.00  0.00     0.000 C 
BRANCH   4   5
ATOM      5  C   UNL     1      40.427  13.272  17.223  1.00  0.00     0.000 C 
BRANCH   5   6
ATOM      6  C   UNL     1      40.593  14.758  17.587  1.00  0.00     0.006 C 
BRANCH   6   7
ATOM      7  C   UNL     1      40.437  15.674  16.367  1.00  0.00     0.053 C 
BRANCH   7   8
ATOM      8  C   UNL     1      40.417  17.120  16.756  1.00  0.00     0.041 C 
ATOM      9  O   UNL     1      39.323  17.712  16.948  1.00  0.00    -0.550 OA
ATOM     10  O   UNL     1      41.610  17.821  16.883  1.00  0.00    -0.550 OA
ENDBRANCH   7   8
ENDBRANCH   6   7
ENDBRANCH   5   6
ENDBRANCH   4   5
ENDBRANCH   3   4
ENDBRANCH   2   3
ENDBRANCH   1   2
BRANCH   1  11
ATOM     11  C   UNL     1      39.984  12.013  12.264  1.00  0.00     0.000 C 
BRANCH  11  12
ATOM     12  C   UNL     1      39.832  10.857  11.260  1.00  0.00    -0.000 C 
BRANCH  12  13
ATOM     13  C   UNL     1      40.803   9.693  11.534  1.00  0.00    -0.000 C 
BRANCH  13  14
ATOM     14  C   UNL     1      40.135   8.350  11.883  1.00  0.00    -0.000 C 
BRANCH  14  15
ATOM     15  C   UNL     1      38.651   8.497  12.259  1.00  0.00    -0.000 C 
BRANCH  15  16
ATOM     16  C   UNL     1      38.404   8.316  13.766  1.00  0.00    -0.000 C 
BRANCH  16  17
ATOM     17  C   UNL     1      38.282   9.654  14.511  1.00  0.00    -0.003 C 
ATOM     18  C   UNL     1      39.041   9.616  15.834  1.00  0.00     0.004 C 
ENDBRANCH  16  17
ENDBRANCH  15  16
ENDBRANCH  14  15
ENDBRANCH  13  14
ENDBRANCH  12  13
ENDBRANCH  11  12
ENDBRANCH   1  11
TORSDOF 14
ENDMDL
MODEL 2
REMARK VINA RESULT:    -3.754      1.362      2.918
REMARK INTER + INTRA:          -8.580
REMARK INTER:                  -6.147
REMARK INTRA:                  -2.433
REMARK UNBOUND:                -1.753
REMARK SMILES CCCCCCCCCCCCCCCC(=O)[O-]
REMARK SMILES IDX 9 1 10 2 11 3 12 4 13 5 14 6 15 7 16 8 17 9 18 10 8 11 7 12
REMARK SMILES IDX 6 13 5 14 4 15 3 16 2 17 1 18
REMARK H PARENT
REMARK Flexibility Score: inf
ROOT
ATOM      1  C   UNL     1      42.015  12.415  15.818  1.00  0.00     0.000 C 
ENDROOT
BRANCH   1   2
ATOM      2  C   UNL     1      41.419  12.088  17.196  1.00  0.00     0.000 C 
BRANCH   2   3
ATOM      3  C   UNL     1      39.896  12.285  17.196  1.00  0.00     0.000 C 
BRANCH   3   4
ATOM      4  C   UNL     1      39.478  13.750  17.425  1.00  0.00     0.000 C 
BRANCH   4   5
ATOM      5  C   UNL     1      38.470  14.306  16.402  1.00  0.00     0.000 C 
BRANCH   5   6
ATOM      6  C   UNL     1      38.959  15.594  15.717  1.00  0.00     0.006 C 
BRANCH   6   7
ATOM      7  C   UNL     1      40.414  15.924  16.076  1.00  0.00     0.053 C 
BRANCH   7   8
ATOM      8  C   UNL     1      40.534  17.268  16.728  1.00  0.00     0.041 C 
ATOM      9  O   UNL     1      41.657  17.828  16.827  1.00  0.00    -0.550 OA
ATOM     10  O   UNL     1      39.407  17.890  17.249  1.00  0.00    -0.550 OA
ENDBRANCH   7   8
ENDBRANCH   6   7
ENDBRANCH   5   6
ENDBRANCH   4   5
ENDBRANCH   3   4
ENDBRANCH   2   3
ENDBRANCH   1   2
BRANCH   1  11
ATOM     11  C   UNL     1      41.150  11.895  14.658  1.00  0.00     0.000 C 
BRANCH  11  12
ATOM     12  C   UNL     1      40.739  13.011  13.683  1.00  0.00    -0.000 C 
BRANCH  12  13
ATOM     13  C   UNL     1      39.346  12.786  13.065  1.00  0.00    -0.000 C 
BRANCH  13  14
ATOM     14  C   UNL     1      38.494  11.698  13.745  1.00  0.00    -0.000 C 
BRANCH  14  15
ATOM     15  C   UNL     1      38.086  10.567  12.786  1.00  0.00    -0.000 C 
BRANCH  15  16
ATOM     16  C   UNL     1      38.979  10.505  11.536  1.00  0.00    -0.000 C 
BRANCH  16  17
ATOM     17  C   UNL     1      40.109   9.472  11.666  1.00  0.00    -0.003 C 
ATOM     18  C   UNL     1      41.475  10.131  11.505  1.00  0.00     0.004 C 
ENDBRANCH  16  17
ENDBRANCH  15  16
ENDBRANCH  14  15
ENDBRANCH  13  14
ENDBRANCH  12  13
ENDBRANCH  11  12
ENDBRANCH   1  11
TORSDOF 14
ENDMDL
MODEL 3
REMARK VINA RESULT:    -3.715      3.545      6.844
REMARK INTER + INTRA:          -8.509
REMARK INTER:                  -6.119
REMARK INTRA:                  -2.390
REMARK UNBOUND:                -1.753
REMARK SMILES CCCCCCCCCCCCCCCC(=O)[O-]
REMARK SMILES IDX 9 1 10 2 11 3 12 4 13 5 14 6 15 7 16 8 17 9 18 10 8 11 7 12
REMARK SMILES IDX 6 13 5 14 4 15 3 16 2 17 1 18
REMARK H PARENT
REMARK Flexibility Score: inf
ROOT
ATOM      1  C   UNL     1      41.799  11.548  17.088  1.00  0.00     0.000 C 
ENDROOT
BRANCH   1   2
ATOM      2  C   UNL     1      42.087  12.516  15.930  1.00  0.00     0.000 C 
BRANCH   2   3
ATOM      3  C   UNL     1      41.409  12.041  14.637  1.00  0.00     0.000 C 
BRANCH   3   4
ATOM      4  C   UNL     1      40.065  11.330  14.887  1.00  0.00     0.000 C 
BRANCH   4   5
ATOM      5  C   UNL     1      39.003  11.544  13.793  1.00  0.00     0.000 C 
BRANCH   5   6
ATOM      6  C   UNL     1      39.607  11.978  12.447  1.00  0.00     0.006 C 
BRANCH   6   7
ATOM      7  C   UNL     1      39.527  10.869  11.391  1.00  0.00     0.053 C 
BRANCH   7   8
ATOM      8  C   UNL     1      40.605   9.845  11.577  1.00  0.00     0.041 C 
ATOM      9  O   UNL     1      41.809  10.200  11.667  1.00  0.00    -0.550 OA
ATOM     10  O   UNL     1      40.280   8.496  11.625  1.00  0.00    -0.550 OA
ENDBRANCH   7   8
ENDBRANCH   6   7
ENDBRANCH   5   6
ENDBRANCH   4   5
ENDBRANCH   3   4
ENDBRANCH   2   3
ENDBRANCH   1   2
BRANCH   1  11
ATOM     11  C   UNL     1      41.845  12.235  18.463  1.00  0.00     0.000 C 
BRANCH  11  12
ATOM     12  C   UNL     1      40.725  13.274  18.641  1.00  0.00    -0.000 C 
BRANCH  12  13
ATOM     13  C   UNL     1      39.318  12.679  18.445  1.00  0.00    -0.000 C 
BRANCH  13  14
ATOM     14  C   UNL     1      38.469  13.348  17.348  1.00  0.00    -0.000 C 
BRANCH  14  15
ATOM     15  C   UNL     1      38.961  14.760  16.986  1.00  0.00    -0.000 C 
BRANCH  15  16
ATOM     16  C   UNL     1      39.208  14.929  15.478  1.00  0.00    -0.000 C 
BRANCH  16  17
ATOM     17  C   UNL     1      40.295  15.969  15.169  1.00  0.00    -0.003 C 
ATOM     18  C   UNL     1      40.643  16.784  16.410  1.00  0.00     0.004 C 
ENDBRANCH  16  17
ENDBRANCH  15  16
ENDBRANCH  14  15
ENDBRANCH  13  14
ENDBRANCH  12  13
ENDBRANCH  11  12
ENDBRANCH   1  11
TORSDOF 14
ENDMDL
MODEL 4
REMARK VINA RESULT:    -3.615      0.986      2.725
REMARK INTER + INTRA:          -8.327
REMARK INTER:                  -6.419
REMARK INTRA:                  -1.908
REMARK UNBOUND:                -1.753
REMARK SMILES CCCCCCCCCCCCCCCC(=O)[O-]
REMARK SMILES IDX 9 1 10 2 11 3 12 4 13 5 14 6 15 7 16 8 17 9 18 10 8 11 7 12
REMARK SMILES IDX 6 13 5 14 4 15 3 16 2 17 1 18
REMARK H PARENT
REMARK Flexibility Score: inf
ROOT
ATOM      1  C   UNL     1      38.808   9.578  15.457  1.00  0.00     0.000 C 
ENDROOT
BRANCH   1   2
ATOM      2  C   UNL     1      38.582  11.068  15.755  1.00  0.00     0.000 C 
BRANCH   2   3
ATOM      3  C   UNL     1      39.665  11.607  16.702  1.00  0.00     0.000 C 
BRANCH   3   4
ATOM      4  C   UNL     1      39.583  13.132  16.905  1.00  0.00     0.000 C 
BRANCH   4   5
ATOM      5  C   UNL     1      40.839  13.914  16.478  1.00  0.00     0.000 C 
BRANCH   5   6
ATOM      6  C   UNL     1      40.533  15.035  15.470  1.00  0.00     0.006 C 
BRANCH   6   7
ATOM      7  C   UNL     1      39.370  15.925  15.927  1.00  0.00     0.053 C 
BRANCH   7   8
ATOM      8  C   UNL     1      39.854  17.148  16.644  1.00  0.00     0.041 C 
ATOM      9  O   UNL     1      39.044  17.877  17.275  1.00  0.00    -0.550 OA
ATOM     10  O   UNL     1      41.197  17.496  16.594  1.00  0.00    -0.550 OA
ENDBRANCH   7   8
ENDBRANCH   6   7
ENDBRANCH   5   6
ENDBRANCH   4   5
ENDBRANCH   3   4
ENDBRANCH   2   3
ENDBRANCH   1   2
BRANCH   1  11
ATOM     11  C   UNL     1      37.961   9.073  14.277  1.00  0.00     0.000 C 
BRANCH  11  12
ATOM     12  C   UNL     1      38.721   8.071  13.392  1.00  0.00    -0.000 C 
BRANCH  12  13
ATOM     13  C   UNL     1      38.991   8.606  11.974  1.00  0.00    -0.000 C 
BRANCH  13  14
ATOM     14  C   UNL     1      40.478   8.778  11.609  1.00  0.00    -0.000 C 
BRANCH  14  15
ATOM     15  C   UNL     1      40.878  10.248  11.398  1.00  0.00    -0.000 C 
BRANCH  15  16
ATOM     16  C   UNL     1      39.741  11.224  11.744  1.00  0.00    -0.000 C 
BRANCH  16  17
ATOM     17  C   UNL     1      40.185  12.333  12.710  1.00  0.00    -0.003 C 
ATOM     18  C   UNL     1      41.450  11.931  13.461  1.00  0.00     0.004 C 
ENDBRANCH  16  17
ENDBRANCH  15  16
ENDBRANCH  14  15
ENDBRANCH  13  14
ENDBRANCH  12  13
ENDBRANCH  11  12
ENDBRANCH   1  11
TORSDOF 14
ENDMDL
MODEL 5
REMARK VINA RESULT:    -3.529      1.204      2.618
REMARK INTER + INTRA:          -8.170
REMARK INTER:                  -6.705
REMARK INTRA:                  -1.465
REMARK UNBOUND:                -1.753
REMARK SMILES CCCCCCCCCCCCCCCC(=O)[O-]
REMARK SMILES IDX 9 1 10 2 11 3 12 4 13 5 14 6 15 7 16 8 17 9 18 10 8 11 7 12
REMARK SMILES IDX 6 13 5 14 4 15 3 16 2 17 1 18
REMARK H PARENT
REMARK Flexibility Score: inf
ROOT
ATOM      1  C   UNL     1      41.636  11.991  15.536  1.00  0.00     0.000 C 
ENDROOT
BRANCH   1   2
ATOM      2  C   UNL     1      42.004  11.594  16.973  1.00  0.00     0.000 C 
BRANCH   2   3
ATOM      3  C   UNL     1      42.388  12.828  17.802  1.00  0.00     0.000 C 
BRANCH   3   4
ATOM      4  C   UNL     1      41.483  13.034  19.031  1.00  0.00     0.000 C 
BRANCH   4   5
ATOM      5  C   UNL     1      40.114  13.673  18.733  1.00  0.00     0.000 C 
BRANCH   5   6
ATOM      6  C   UNL     1      40.140  14.599  17.505  1.00  0.00     0.006 C 
BRANCH   6   7
ATOM      7  C   UNL     1      40.398  16.062  17.887  1.00  0.00     0.053 C 
BRANCH   7   8
ATOM      8  C   UNL     1      40.801  16.883  16.701  1.00  0.00     0.041 C 
ATOM      9  O   UNL     1      40.418  16.562  15.546  1.00  0.00    -0.550 OA
ATOM     10  O   UNL     1      41.622  17.991  16.870  1.00  0.00    -0.550 OA
ENDBRANCH   7   8
ENDBRANCH   6   7
ENDBRANCH   5   6
ENDBRANCH   4   5
ENDBRANCH   3   4
ENDBRANCH   2   3
ENDBRANCH   1   2
BRANCH   1  11
ATOM     11  C   UNL     1      40.377  11.271  15.023  1.00  0.00     0.000 C 
BRANCH  11  12
ATOM     12  C   UNL     1      39.234  12.246  14.694  1.00  0.00    -0.000 C 
BRANCH  12  13
ATOM     13  C   UNL     1      38.800  12.185  13.218  1.00  0.00    -0.000 C 
BRANCH  13  14
ATOM     14  C   UNL     1      39.949  12.061  12.200  1.00  0.00    -0.000 C 
BRANCH  14  15
ATOM     15  C   UNL     1      39.789  10.857  11.257  1.00  0.00    -0.000 C 
BRANCH  15  16
ATOM     16  C   UNL     1      40.700   9.680  11.644  1.00  0.00    -0.000 C 
BRANCH  16  17
ATOM     17  C   UNL     1      39.936   8.352  11.759  1.00  0.00    -0.003 C 
ATOM     18  C   UNL     1      39.194   8.260  13.088  1.00  0.00     0.004 C 
ENDBRANCH  16  17
ENDBRANCH  15  16
ENDBRANCH  14  15
ENDBRANCH  13  14
ENDBRANCH  12  13
ENDBRANCH  11  12
ENDBRANCH   1  11
TORSDOF 14
ENDMDL
MODEL 6
REMARK VINA RESULT:    -3.509      3.261      6.805
REMARK INTER + INTRA:          -8.134
REMARK INTER:                  -5.833
REMARK INTRA:                  -2.301
REMARK UNBOUND:                -1.753
REMARK SMILES CCCCCCCCCCCCCCCC(=O)[O-]
REMARK SMILES IDX 9 1 10 2 11 3 12 4 13 5 14 6 15 7 16 8 17 9 18 10 8 11 7 12
REMARK SMILES IDX 6 13 5 14 4 15 3 16 2 17 1 18
REMARK H PARENT
REMARK Flexibility Score: inf
ROOT
ATOM      1  C   UNL     1      40.477  11.666  15.106  1.00  0.00     0.000 C 
ENDROOT
BRANCH   1   2
ATOM      2  C   UNL     1      39.834  12.447  13.951  1.00  0.00     0.000 C 
BRANCH   2   3
ATOM      3  C   UNL     1      38.364  12.042  13.767  1.00  0.00     0.000 C 
BRANCH   3   4
ATOM      4  C   UNL     1      38.085  10.582  14.170  1.00  0.00     0.000 C 
BRANCH   4   5
ATOM      5  C   UNL     1      38.113   9.570  13.011  1.00  0.00     0.000 C 
BRANCH   5   6
ATOM      6  C   UNL     1      39.381   8.698  13.006  1.00  0.00     0.006 C 
BRANCH   6   7
ATOM      7  C   UNL     1      40.101   8.730  11.652  1.00  0.00     0.053 C 
BRANCH   7   8
ATOM      8  C   UNL     1      40.768  10.048  11.408  1.00  0.00     0.041 C 
ATOM      9  O   UNL     1      41.880  10.306  11.940  1.00  0.00    -0.550 OA
ATOM     10  O   UNL     1      40.149  11.004  10.614  1.00  0.00    -0.550 OA
ENDBRANCH   7   8
ENDBRANCH   6   7
ENDBRANCH   5   6
ENDBRANCH   4   5
ENDBRANCH   3   4
ENDBRANCH   2   3
ENDBRANCH   1   2
BRANCH   1  11
ATOM     11  C   UNL     1      41.953  12.037  15.327  1.00  0.00     0.000 C 
BRANCH  11  12
ATOM     12  C   UNL     1      42.250  12.433  16.783  1.00  0.00    -0.000 C 
BRANCH  12  13
ATOM     13  C   UNL     1      41.062  12.175  17.730  1.00  0.00    -0.000 C 
BRANCH  13  14
ATOM     14  C   UNL     1      40.596  13.395  18.546  1.00  0.00    -0.000 C 
BRANCH  14  15
ATOM     15  C   UNL     1      40.365  14.645  17.680  1.00  0.00    -0.000 C 
BRANCH  15  16
ATOM     16  C   UNL     1      39.029  14.597  16.921  1.00  0.00    -0.000 C 
BRANCH  16  17
ATOM     17  C   UNL     1      38.967  15.608  15.766  1.00  0.00    -0.003 C 
ATOM     18  C   UNL     1      40.361  15.910  15.227  1.00  0.00     0.004 C 
ENDBRANCH  16  17
ENDBRANCH  15  16
ENDBRANCH  14  15
ENDBRANCH  13  14
ENDBRANCH  12  13
ENDBRANCH  11  12
ENDBRANCH   1  11
TORSDOF 14
ENDMDL
MODEL 7
REMARK VINA RESULT:    -3.479      1.214      3.286
REMARK INTER + INTRA:          -8.079
REMARK INTER:                  -5.861
REMARK INTRA:                  -2.218
REMARK UNBOUND:                -1.753
REMARK SMILES CCCCCCCCCCCCCCCC(=O)[O-]
REMARK SMILES IDX 9 1 10 2 11 3 12 4 13 5 14 6 15 7 16 8 17 9 18 10 8 11 7 12
REMARK SMILES IDX 6 13 5 14 4 15 3 16 2 17 1 18
REMARK H PARENT
REMARK Flexibility Score: inf
ROOT
ATOM      1  C   UNL     1      42.042  12.351  16.004  1.00  0.00     0.000 C 
ENDROOT
BRANCH   1   2
ATOM      2  C   UNL     1      41.852  11.973  14.527  1.00  0.00     0.000 C 
BRANCH   2   3
ATOM      3  C   UNL     1      40.815  12.886  13.856  1.00  0.00     0.000 C 
BRANCH   3   4
ATOM      4  C   UNL     1      40.550  14.180  14.648  1.00  0.00     0.000 C 
BRANCH   4   5
ATOM      5  C   UNL     1      39.125  14.315  15.216  1.00  0.00     0.000 C 
BRANCH   5   6
ATOM      6  C   UNL     1      39.108  14.746  16.693  1.00  0.00     0.006 C 
BRANCH   6   7
ATOM      7  C   UNL     1      40.382  15.502  17.092  1.00  0.00     0.053 C 
BRANCH   7   8
ATOM      8  C   UNL     1      40.242  16.978  16.878  1.00  0.00     0.041 C 
ATOM      9  O   UNL     1      41.263  17.695  16.712  1.00  0.00    -0.550 OA
ATOM     10  O   UNL     1      38.983  17.565  16.887  1.00  0.00    -0.550 OA
ENDBRANCH   7   8
ENDBRANCH   6   7
ENDBRANCH   5   6
ENDBRANCH   4   5
ENDBRANCH   3   4
ENDBRANCH   2   3
ENDBRANCH   1   2
BRANCH   1  11
ATOM     11  C   UNL     1      41.610  11.232  16.965  1.00  0.00     0.000 C 
BRANCH  11  12
ATOM     12  C   UNL     1      40.084  11.168  17.148  1.00  0.00    -0.000 C 
BRANCH  12  13
ATOM     13  C   UNL     1      39.441   9.979  16.411  1.00  0.00    -0.000 C 
BRANCH  13  14
ATOM     14  C   UNL     1      38.484  10.357  15.264  1.00  0.00    -0.000 C 
BRANCH  14  15
ATOM     15  C   UNL     1      38.563   9.387  14.073  1.00  0.00    -0.000 C 
BRANCH  15  16
ATOM     16  C   UNL     1      38.946  10.094  12.762  1.00  0.00    -0.000 C 
BRANCH  16  17
ATOM     17  C   UNL     1      40.120   9.413  12.043  1.00  0.00    -0.003 C 
ATOM     18  C   UNL     1      40.831  10.387  11.109  1.00  0.00     0.004 C 
ENDBRANCH  16  17
ENDBRANCH  15  16
ENDBRANCH  14  15
ENDBRANCH  13  14
ENDBRANCH  12  13
ENDBRANCH  11  12
ENDBRANCH   1  11
TORSDOF 14
ENDMDL
MODEL 8
REMARK VINA RESULT:    -3.393      3.338      7.158
REMARK INTER + INTRA:          -7.923
REMARK INTER:                  -5.779
REMARK INTRA:                  -2.144
REMARK UNBOUND:                -1.753
REMARK SMILES CCCCCCCCCCCCCCCC(=O)[O-]
REMARK SMILES IDX 9 1 10 2 11 3 12 4 13 5 14 6 15 7 16 8 17 9 18 10 8 11 7 12
REMARK SMILES IDX 6 13 5 14 4 15 3 16 2 17 1 18
REMARK H PARENT
REMARK Flexibility Score: inf
ROOT
ATOM      1  C   UNL     1      41.491  12.642  16.006  1.00  0.00     0.000 C 
ENDROOT
BRANCH   1   2
ATOM      2  C   UNL     1      40.653  11.393  16.323  1.00  0.00     0.000 C 
BRANCH   2   3
ATOM      3  C   UNL     1      39.154  11.725  16.326  1.00  0.00     0.000 C 
BRANCH   3   4
ATOM      4  C   UNL     1      38.451  11.348  15.008  1.00  0.00     0.000 C 
BRANCH   4   5
ATOM      5  C   UNL     1      38.241  12.515  14.026  1.00  0.00     0.000 C 
BRANCH   5   6
ATOM      6  C   UNL     1      39.322  12.581  12.934  1.00  0.00     0.006 C 
BRANCH   6   7
ATOM      7  C   UNL     1      39.444  11.263  12.158  1.00  0.00     0.053 C 
BRANCH   7   8
ATOM      8  C   UNL     1      40.838  10.715  12.209  1.00  0.00     0.041 C 
ATOM      9  O   UNL     1      41.739  11.328  12.838  1.00  0.00    -0.550 OA
ATOM     10  O   UNL     1      41.145   9.537  11.540  1.00  0.00    -0.550 OA
ENDBRANCH   7   8
ENDBRANCH   6   7
ENDBRANCH   5   6
ENDBRANCH   4   5
ENDBRANCH   3   4
ENDBRANCH   2   3
ENDBRANCH   1   2
BRANCH   1  11
ATOM     11  C   UNL     1      40.828  13.941  16.491  1.00  0.00     0.000 C 
BRANCH  11  12
ATOM     12  C   UNL     1      40.696  14.989  15.372  1.00  0.00    -0.000 C 
BRANCH  12  13
ATOM     13  C   UNL     1      39.413  15.832  15.487  1.00  0.00    -0.000 C 
BRANCH  13  14
ATOM     14  C   UNL     1      38.731  15.806  16.868  1.00  0.00    -0.000 C 
BRANCH  14  15
ATOM     15  C   UNL     1      38.858  17.139  17.626  1.00  0.00    -0.000 C 
BRANCH  15  16
ATOM     16  C   UNL     1      39.898  17.076  18.757  1.00  0.00    -0.000 C 
BRANCH  16  17
ATOM     17  C   UNL     1      40.962  18.179  18.644  1.00  0.00    -0.003 C 
ATOM     18  C   UNL     1      41.777  18.026  17.364  1.00  0.00     0.004 C 
ENDBRANCH  16  17
ENDBRANCH  15  16
ENDBRANCH  14  15
ENDBRANCH  13  14
ENDBRANCH  12  13
ENDBRANCH  11  12
ENDBRANCH   1  11
TORSDOF 14
ENDMDL
MODEL 9
REMARK VINA RESULT:    -1.527      2.310      3.153
REMARK INTER + INTRA:          -4.531
REMARK INTER:                  -2.515
REMARK INTRA:                  -2.016
REMARK UNBOUND:                -1.753
REMARK SMILES CCCCCCCCCCCCCCCC(=O)[O-]
REMARK SMILES IDX 9 1 10 2 11 3 12 4 13 5 14 6 15 7 16 8 17 9 18 10 8 11 7 12
REMARK SMILES IDX 6 13 5 14 4 15 3 16 2 17 1 18
REMARK H PARENT
REMARK Flexibility Score: inf
ROOT
ATOM      1  C   UNL     1      41.251  10.599  12.134  1.00  0.00     0.000 C 
ENDROOT
BRANCH   1   2
ATOM      2  C   UNL     1      41.396  11.629  13.264  1.00  0.00     0.000 C 
BRANCH   2   3
ATOM      3  C   UNL     1      40.376  12.766  13.105  1.00  0.00     0.000 C 
BRANCH   3   4
ATOM      4  C   UNL     1      40.033  13.459  14.436  1.00  0.00     0.000 C 
BRANCH   4   5
ATOM      5  C   UNL     1      41.099  13.315  15.538  1.00  0.00     0.000 C 
BRANCH   5   6
ATOM      6  C   UNL     1      40.725  14.056  16.834  1.00  0.00     0.006 C 
BRANCH   6   7
ATOM      7  C   UNL     1      40.760  13.134  18.059  1.00  0.00     0.053 C 
BRANCH   7   8
ATOM      8  C   UNL     1      42.009  12.308  18.099  1.00  0.00     0.041 C 
ATOM      9  O   UNL     1      43.114  12.842  18.376  1.00  0.00    -0.550 OA
ATOM     10  O   UNL     1      41.954  10.952  17.804  1.00  0.00    -0.550 OA
ENDBRANCH   7   8
ENDBRANCH   6   7
ENDBRANCH   5   6
ENDBRANCH   4   5
ENDBRANCH   3   4
ENDBRANCH   2   3
ENDBRANCH   1   2
BRANCH   1  11
ATOM     11  C   UNL     1      40.024  10.860  11.245  1.00  0.00     0.000 C 
BRANCH  11  12
ATOM     12  C   UNL     1      39.041   9.677  11.234  1.00  0.00    -0.000 C 
BRANCH  12  13
ATOM     13  C   UNL     1      39.589   8.435  11.962  1.00  0.00    -0.000 C 
BRANCH  13  14
ATOM     14  C   UNL     1      38.685   7.875  13.076  1.00  0.00    -0.000 C 
BRANCH  14  15
ATOM     15  C   UNL     1      37.944   8.974  13.857  1.00  0.00    -0.000 C 
BRANCH  15  16
ATOM     16  C   UNL     1      38.280   8.957  15.358  1.00  0.00    -0.000 C 
BRANCH  16  17
ATOM     17  C   UNL     1      38.995  10.236  15.819  1.00  0.00    -0.003 C 
ATOM     18  C   UNL     1      38.068  11.113  16.654  1.00  0.00     0.004 C 
ENDBRANCH  16  17
ENDBRANCH  15  16
ENDBRANCH  14  15
ENDBRANCH  13  14
ENDBRANCH  12  13
ENDBRANCH  11  12
ENDBRANCH   1  11
TORSDOF 14
ENDMDL
