MODEL 1
REMARK VINA RESULT:     4.947      0.000      0.000
REMARK INTER + INTRA:           6.343
REMARK INTER:                   5.381
REMARK INTRA:                   0.962
REMARK UNBOUND:                 0.962
REMARK SMILES C[C@@H]1[C@H](C)CC[C@@]2(C(=O)[O-])CC[C@@]3(C)C(=CC[C@@H]4[C@@]5(C)CC[C@H](O)C(C)(C)[C@H]5CC[C@@]43C)[C@H]12
REMARK SMILES IDX 7 1 6 2 11 3 33 4 5 5 12 6 15 7 2 8 3 9 13 10 16 11 1 12
REMARK SMILES IDX 4 13 14 14 31 15 17 16 18 17 30 18 32 19 19 20 29 21 28 22
REMARK SMILES IDX 21 23 20 24 25 25 22 26 23 27 26 28 27 29 8 30 9 31 10 32
REMARK SMILES IDX 24 33
REMARK H PARENT 24 34
REMARK Flexibility Score: inf
ROOT
ATOM      1  C   UNL     1     -29.078  81.878   6.597  1.00  0.00     0.017 C 
ATOM      2  C   UNL     1     -30.024  82.013   7.856  1.00  0.00     0.014 C 
ATOM      3  C   UNL     1     -27.962  82.943   6.718  1.00  0.00     0.014 C 
ATOM      4  C   UNL     1     -28.431  80.451   6.589  1.00  0.00     0.030 C 
ATOM      5  C   UNL     1     -30.439  80.679   8.510  1.00  0.00     0.004 C 
ATOM      6  C   UNL     1     -26.931  82.845   5.587  1.00  0.00     0.013 C 
ATOM      7  C   UNL     1     -27.169  80.290   5.707  1.00  0.00    -0.063 C 
ATOM      8  C   UNL     1     -29.525  79.314   6.520  1.00  0.00    -0.003 C 
ATOM      9  C   UNL     1     -30.748  79.580   7.478  1.00  0.00    -0.011 C 
ATOM     10  C   UNL     1     -26.192  81.465   5.512  1.00  0.00    -0.006 C 
ATOM     11  C   UNL     1     -26.703  79.045   5.429  1.00  0.00    -0.027 C 
ATOM     12  C   UNL     1     -29.947  78.892   5.090  1.00  0.00     0.008 C 
ATOM     13  C   UNL     1     -32.101  79.862   6.793  1.00  0.00     0.008 C 
ATOM     14  C   UNL     1     -25.211  81.444   6.726  1.00  0.00     0.017 C 
ATOM     15  C   UNL     1     -25.443  81.279   4.096  1.00  0.00    -0.020 C 
ATOM     16  C   UNL     1     -25.309  78.769   4.929  1.00  0.00     0.032 C 
ATOM     17  C   UNL     1     -24.731  79.854   3.971  1.00  0.00     0.006 C 
ATOM     18  C   UNL     1     -24.431  82.438   3.838  1.00  0.00     0.008 C 
ATOM     19  C   UNL     1     -26.503  81.346   2.935  1.00  0.00     0.012 C 
ATOM     20  C   UNL     1     -23.145  79.835   3.852  1.00  0.00    -0.025 C 
ATOM     21  C   UNL     1     -23.502  82.175   2.651  1.00  0.00     0.005 C 
ATOM     22  C   UNL     1     -22.645  80.873   2.751  1.00  0.00     0.003 C 
ATOM     23  C   UNL     1     -22.686  78.382   3.484  1.00  0.00     0.010 C 
ATOM     24  C   UNL     1     -22.444  80.171   5.210  1.00  0.00     0.012 C 
ATOM     25  C   UNL     1     -22.291  80.258   1.331  1.00  0.00    -0.006 C 
ATOM     26  C   UNL     1     -21.304  78.343   2.838  1.00  0.00     0.033 C 
ATOM     27  C   UNL     1     -21.256  79.070   1.477  1.00  0.00     0.120 C 
ATOM     28  C   UNL     1     -21.665  81.364   0.431  1.00  0.00     0.014 C 
ATOM     29  C   UNL     1     -23.543  79.745   0.561  1.00  0.00     0.014 C 
ENDROOT
BRANCH   1  30
ATOM     30  C   UNL     1     -29.854  82.167   5.309  1.00  0.00     0.048 C 
ATOM     31  O   UNL     1     -30.460  83.260   5.153  1.00  0.00    -0.550 OA
ATOM     32  O   UNL     1     -29.788  81.297   4.230  1.00  0.00    -0.550 OA
ENDBRANCH   1  30
BRANCH  27  33
ATOM     33  O   UNL     1     -19.934  79.516   1.276  1.00  0.00    -0.393 OA
ATOM     34  H   UNL     1     -19.417  78.753   0.907  1.00  0.00     0.210 HD
ENDBRANCH  27  33
TORSDOF 2
ENDMDL
MODEL 2
REMARK VINA RESULT:     6.733      9.158     12.893
REMARK INTER + INTRA:           8.285
REMARK INTER:                   7.791
REMARK INTRA:                   0.494
REMARK UNBOUND:                 0.962
REMARK SMILES C[C@@H]1[C@H](C)CC[C@@]2(C(=O)[O-])CC[C@@]3(C)C(=CC[C@@H]4[C@@]5(C)CC[C@H](O)C(C)(C)[C@H]5CC[C@@]43C)[C@H]12
REMARK SMILES IDX 7 1 6 2 11 3 33 4 5 5 12 6 15 7 2 8 3 9 13 10 16 11 1 12
REMARK SMILES IDX 4 13 14 14 31 15 17 16 18 17 30 18 32 19 19 20 29 21 28 22
REMARK SMILES IDX 21 23 20 24 25 25 22 26 23 27 26 28 27 29 8 30 9 31 10 32
REMARK SMILES IDX 24 33
REMARK H PARENT 24 34
REMARK Flexibility Score: inf
ROOT
ATOM      1  C   UNL     1     -21.039  68.184   5.156  1.00  0.00     0.017 C 
ATOM      2  C   UNL     1     -19.992  67.794   6.275  1.00  0.00     0.014 C 
ATOM      3  C   UNL     1     -22.139  69.055   5.810  1.00  0.00     0.014 C 
ATOM      4  C   UNL     1     -20.315  69.017   4.043  1.00  0.00     0.030 C 
ATOM      5  C   UNL     1     -18.513  67.905   5.856  1.00  0.00     0.004 C 
ATOM      6  C   UNL     1     -23.165  69.567   4.792  1.00  0.00     0.013 C 
ATOM      7  C   UNL     1     -21.238  69.845   3.116  1.00  0.00    -0.063 C 
ATOM      8  C   UNL     1     -19.143  68.199   3.372  1.00  0.00    -0.003 C 
ATOM      9  C   UNL     1     -18.261  67.417   4.418  1.00  0.00    -0.011 C 
ATOM     10  C   UNL     1     -22.550  70.448   3.650  1.00  0.00    -0.006 C 
ATOM     11  C   UNL     1     -20.733  70.377   1.973  1.00  0.00    -0.027 C 
ATOM     12  C   UNL     1     -19.556  67.336   2.152  1.00  0.00     0.008 C 
ATOM     13  C   UNL     1     -18.340  65.877   4.361  1.00  0.00     0.008 C 
ATOM     14  C   UNL     1     -22.184  71.810   4.318  1.00  0.00     0.017 C 
ATOM     15  C   UNL     1     -23.579  70.610   2.418  1.00  0.00    -0.020 C 
ATOM     16  C   UNL     1     -21.396  71.493   1.208  1.00  0.00     0.032 C 
ATOM     17  C   UNL     1     -22.953  71.454   1.215  1.00  0.00     0.006 C 
ATOM     18  C   UNL     1     -24.933  71.223   2.892  1.00  0.00     0.008 C 
ATOM     19  C   UNL     1     -23.914  69.188   1.832  1.00  0.00     0.012 C 
ATOM     20  C   UNL     1     -23.638  72.847   0.864  1.00  0.00    -0.025 C 
ATOM     21  C   UNL     1     -25.840  71.649   1.736  1.00  0.00     0.005 C 
ATOM     22  C   UNL     1     -25.219  72.691   0.752  1.00  0.00     0.003 C 
ATOM     23  C   UNL     1     -23.041  73.374  -0.487  1.00  0.00     0.010 C 
ATOM     24  C   UNL     1     -23.319  73.949   1.928  1.00  0.00     0.012 C 
ATOM     25  C   UNL     1     -25.799  72.568  -0.722  1.00  0.00    -0.006 C 
ATOM     26  C   UNL     1     -23.951  74.380  -1.184  1.00  0.00     0.033 C 
ATOM     27  C   UNL     1     -25.299  73.769  -1.622  1.00  0.00     0.120 C 
ATOM     28  C   UNL     1     -27.355  72.592  -0.667  1.00  0.00     0.014 C 
ATOM     29  C   UNL     1     -25.421  71.226  -1.414  1.00  0.00     0.014 C 
ENDROOT
BRANCH   1  30
ATOM     30  C   UNL     1     -21.716  66.933   4.592  1.00  0.00     0.048 C 
ATOM     31  O   UNL     1     -21.784  65.875   5.273  1.00  0.00    -0.550 OA
ATOM     32  O   UNL     1     -22.394  66.975   3.383  1.00  0.00    -0.550 OA
ENDBRANCH   1  30
BRANCH  27  33
ATOM     33  O   UNL     1     -26.249  74.809  -1.660  1.00  0.00    -0.393 OA
ATOM     34  H   UNL     1     -26.447  74.995  -2.616  1.00  0.00     0.210 HD
ENDBRANCH  27  33
TORSDOF 2
ENDMDL
