MODEL 1
REMARK VINA RESULT:    -4.320      0.000      0.000
REMARK INTER + INTRA:          -9.776
REMARK INTER:                  -8.360
REMARK INTRA:                  -1.416
REMARK UNBOUND:                -1.416
REMARK SMILES CCCCCCCCCCCCCCCCCC(=O)[O-]
REMARK SMILES IDX 10 1 11 2 12 3 13 4 14 5 15 6 16 7 17 8 18 9 19 10 20 11
REMARK SMILES IDX 9 12 8 13 7 14 6 15 5 16 4 17 3 18 2 19 1 20
REMARK H PARENT
REMARK Flexibility Score: inf
ROOT
ATOM      1  C   UNL     1       4.246  -2.021 -14.870  1.00  0.00     0.000 C 
ENDROOT
BRANCH   1   2
ATOM      2  C   UNL     1       3.719  -1.241 -13.655  1.00  0.00     0.000 C 
BRANCH   2   3
ATOM      3  C   UNL     1       4.253   0.207 -13.615  1.00  0.00     0.000 C 
BRANCH   3   4
ATOM      4  C   UNL     1       5.631   0.376 -14.277  1.00  0.00     0.000 C 
BRANCH   4   5
ATOM      5  C   UNL     1       6.794   0.118 -13.306  1.00  0.00     0.000 C 
BRANCH   5   6
ATOM      6  C   UNL     1       7.982   1.065 -13.545  1.00  0.00     0.000 C 
BRANCH   6   7
ATOM      7  C   UNL     1       8.700   1.452 -12.239  1.00  0.00     0.006 C 
BRANCH   7   8
ATOM      8  C   UNL     1       8.100   2.711 -11.600  1.00  0.00     0.053 C 
BRANCH   8   9
ATOM      9  C   UNL     1       8.522   2.866 -10.170  1.00  0.00     0.041 C 
ATOM     10  O   UNL     1       8.793   1.850  -9.477  1.00  0.00    -0.550 OA
ATOM     11  O   UNL     1       8.633   4.133  -9.608  1.00  0.00    -0.550 OA
ENDBRANCH   8   9
ENDBRANCH   7   8
ENDBRANCH   6   7
ENDBRANCH   5   6
ENDBRANCH   4   5
ENDBRANCH   3   4
ENDBRANCH   2   3
ENDBRANCH   1   2
BRANCH   1  12
ATOM     12  C   UNL     1       5.043  -3.256 -14.427  1.00  0.00     0.000 C 
BRANCH  12  13
ATOM     13  C   UNL     1       5.232  -3.327 -12.904  1.00  0.00    -0.000 C 
BRANCH  13  14
ATOM     14  C   UNL     1       6.503  -4.089 -12.499  1.00  0.00    -0.000 C 
BRANCH  14  15
ATOM     15  C   UNL     1       7.468  -3.174 -11.728  1.00  0.00    -0.000 C 
BRANCH  15  16
ATOM     16  C   UNL     1       8.654  -3.939 -11.118  1.00  0.00    -0.000 C 
BRANCH  16  17
ATOM     17  C   UNL     1       8.747  -3.872  -9.581  1.00  0.00    -0.000 C 
BRANCH  17  18
ATOM     18  C   UNL     1       8.872  -5.253  -8.903  1.00  0.00    -0.000 C 
BRANCH  18  19
ATOM     19  C   UNL     1       8.442  -6.400  -9.829  1.00  0.00    -0.003 C 
ATOM     20  C   UNL     1       8.944  -7.744  -9.310  1.00  0.00     0.004 C 
ENDBRANCH  18  19
ENDBRANCH  17  18
ENDBRANCH  16  17
ENDBRANCH  15  16
ENDBRANCH  14  15
ENDBRANCH  13  14
ENDBRANCH  12  13
ENDBRANCH   1  12
TORSDOF 16
ENDMDL
MODEL 2
REMARK VINA RESULT:    -3.508     13.643     16.483
REMARK INTER + INTRA:          -8.206
REMARK INTER:                  -6.043
REMARK INTRA:                  -2.163
REMARK UNBOUND:                -1.416
REMARK SMILES CCCCCCCCCCCCCCCCCC(=O)[O-]
REMARK SMILES IDX 10 1 11 2 12 3 13 4 14 5 15 6 16 7 17 8 18 9 19 10 20 11
REMARK SMILES IDX 9 12 8 13 7 14 6 15 5 16 4 17 3 18 2 19 1 20
REMARK H PARENT
REMARK Flexibility Score: inf
ROOT
ATOM      1  C   UNL     1     -10.782  -6.419 -11.458  1.00  0.00     0.000 C 
ENDROOT
BRANCH   1   2
ATOM      2  C   UNL     1     -10.670  -6.905 -10.005  1.00  0.00     0.000 C 
BRANCH   2   3
ATOM      3  C   UNL     1      -9.730  -8.122  -9.867  1.00  0.00     0.000 C 
BRANCH   3   4
ATOM      4  C   UNL     1      -8.287  -7.748  -9.489  1.00  0.00     0.000 C 
BRANCH   4   5
ATOM      5  C   UNL     1      -7.379  -7.559 -10.715  1.00  0.00     0.000 C 
BRANCH   5   6
ATOM      6  C   UNL     1      -7.004  -6.087 -10.948  1.00  0.00     0.000 C 
BRANCH   6   7
ATOM      7  C   UNL     1      -7.330  -5.195  -9.736  1.00  0.00     0.006 C 
BRANCH   7   8
ATOM      8  C   UNL     1      -6.264  -4.115  -9.508  1.00  0.00     0.053 C 
BRANCH   8   9
ATOM      9  C   UNL     1      -5.372  -4.446  -8.351  1.00  0.00     0.041 C 
ATOM     10  O   UNL     1      -5.142  -5.648  -8.054  1.00  0.00    -0.550 OA
ATOM     11  O   UNL     1      -4.780  -3.429  -7.612  1.00  0.00    -0.550 OA
ENDBRANCH   8   9
ENDBRANCH   7   8
ENDBRANCH   6   7
ENDBRANCH   5   6
ENDBRANCH   4   5
ENDBRANCH   3   4
ENDBRANCH   2   3
ENDBRANCH   1   2
BRANCH   1  12
ATOM     12  C   UNL     1     -10.920  -7.604 -12.425  1.00  0.00     0.000 C 
BRANCH  12  13
ATOM     13  C   UNL     1     -10.961  -7.169 -13.898  1.00  0.00    -0.000 C 
BRANCH  13  14
ATOM     14  C   UNL     1      -9.770  -7.704 -14.709  1.00  0.00    -0.000 C 
BRANCH  14  15
ATOM     15  C   UNL     1      -8.497  -7.744 -13.850  1.00  0.00    -0.000 C 
BRANCH  15  16
ATOM     16  C   UNL     1      -7.239  -7.326 -14.630  1.00  0.00    -0.000 C 
BRANCH  16  17
ATOM     17  C   UNL     1      -7.023  -5.805 -14.745  1.00  0.00    -0.000 C 
BRANCH  17  18
ATOM     18  C   UNL     1      -7.992  -4.970 -13.880  1.00  0.00    -0.000 C 
BRANCH  18  19
ATOM     19  C   UNL     1      -7.380  -3.633 -13.440  1.00  0.00    -0.003 C 
ATOM     20  C   UNL     1      -5.860  -3.728 -13.344  1.00  0.00     0.004 C 
ENDBRANCH  18  19
ENDBRANCH  17  18
ENDBRANCH  16  17
ENDBRANCH  15  16
ENDBRANCH  14  15
ENDBRANCH  13  14
ENDBRANCH  12  13
ENDBRANCH   1  12
TORSDOF 16
ENDMDL
MODEL 3
REMARK VINA RESULT:    -3.494     13.679     16.019
REMARK INTER + INTRA:          -8.179
REMARK INTER:                  -7.053
REMARK INTRA:                  -1.126
REMARK UNBOUND:                -1.416
REMARK SMILES CCCCCCCCCCCCCCCCCC(=O)[O-]
REMARK SMILES IDX 10 1 11 2 12 3 13 4 14 5 15 6 16 7 17 8 18 9 19 10 20 11
REMARK SMILES IDX 9 12 8 13 7 14 6 15 5 16 4 17 3 18 2 19 1 20
REMARK H PARENT
REMARK Flexibility Score: inf
ROOT
ATOM      1  C   UNL     1     -10.279  -7.041 -12.187  1.00  0.00     0.000 C 
ENDROOT
BRANCH   1   2
ATOM      2  C   UNL     1     -10.334  -7.950 -13.424  1.00  0.00     0.000 C 
BRANCH   2   3
ATOM      3  C   UNL     1      -8.948  -8.125 -14.081  1.00  0.00     0.000 C 
BRANCH   3   4
ATOM      4  C   UNL     1      -7.776  -8.005 -13.092  1.00  0.00     0.000 C 
BRANCH   4   5
ATOM      5  C   UNL     1      -6.651  -7.094 -13.609  1.00  0.00     0.000 C 
BRANCH   5   6
ATOM      6  C   UNL     1      -7.098  -6.219 -14.791  1.00  0.00     0.000 C 
BRANCH   6   7
ATOM      7  C   UNL     1      -8.046  -5.083 -14.361  1.00  0.00     0.006 C 
BRANCH   7   8
ATOM      8  C   UNL     1      -7.722  -4.561 -12.955  1.00  0.00     0.053 C 
BRANCH   8   9
ATOM      9  C   UNL     1      -6.687  -3.478 -12.987  1.00  0.00     0.041 C 
ATOM     10  O   UNL     1      -5.477  -3.765 -13.188  1.00  0.00    -0.550 OA
ATOM     11  O   UNL     1      -7.060  -2.150 -12.813  1.00  0.00    -0.550 OA
ENDBRANCH   8   9
ENDBRANCH   7   8
ENDBRANCH   6   7
ENDBRANCH   5   6
ENDBRANCH   4   5
ENDBRANCH   3   4
ENDBRANCH   2   3
ENDBRANCH   1   2
BRANCH   1  12
ATOM     12  C   UNL     1     -10.738  -7.795 -10.930  1.00  0.00     0.000 C 
BRANCH  12  13
ATOM     13  C   UNL     1      -9.864  -7.492  -9.702  1.00  0.00    -0.000 C 
BRANCH  13  14
ATOM     14  C   UNL     1      -8.437  -8.044  -9.840  1.00  0.00    -0.000 C 
BRANCH  14  15
ATOM     15  C   UNL     1      -7.400  -6.915  -9.729  1.00  0.00    -0.000 C 
BRANCH  15  16
ATOM     16  C   UNL     1      -7.920  -5.573 -10.272  1.00  0.00    -0.000 C 
BRANCH  16  17
ATOM     17  C   UNL     1      -7.473  -4.334  -9.473  1.00  0.00    -0.000 C 
BRANCH  17  18
ATOM     18  C   UNL     1      -5.945  -4.115  -9.464  1.00  0.00    -0.000 C 
BRANCH  18  19
ATOM     19  C   UNL     1      -5.377  -4.014  -8.041  1.00  0.00    -0.003 C 
ATOM     20  C   UNL     1      -4.665  -5.302  -7.640  1.00  0.00     0.004 C 
ENDBRANCH  18  19
ENDBRANCH  17  18
ENDBRANCH  16  17
ENDBRANCH  15  16
ENDBRANCH  14  15
ENDBRANCH  13  14
ENDBRANCH  12  13
ENDBRANCH   1  12
TORSDOF 16
ENDMDL
MODEL 4
REMARK VINA RESULT:    -3.105      1.195      2.341
REMARK INTER + INTRA:          -7.425
REMARK INTER:                  -7.254
REMARK INTRA:                  -0.171
REMARK UNBOUND:                -1.416
REMARK SMILES CCCCCCCCCCCCCCCCCC(=O)[O-]
REMARK SMILES IDX 10 1 11 2 12 3 13 4 14 5 15 6 16 7 17 8 18 9 19 10 20 11
REMARK SMILES IDX 9 12 8 13 7 14 6 15 5 16 4 17 3 18 2 19 1 20
REMARK H PARENT
REMARK Flexibility Score: inf
ROOT
ATOM      1  C   UNL     1       4.109   0.167 -14.329  1.00  0.00     0.000 C 
ENDROOT
BRANCH   1   2
ATOM      2  C   UNL     1       5.558   0.571 -14.639  1.00  0.00     0.000 C 
BRANCH   2   3
ATOM      3  C   UNL     1       6.457   0.527 -13.384  1.00  0.00     0.000 C 
BRANCH   3   4
ATOM      4  C   UNL     1       7.695   1.435 -13.480  1.00  0.00     0.000 C 
BRANCH   4   5
ATOM      5  C   UNL     1       8.910   0.867 -12.728  1.00  0.00     0.000 C 
BRANCH   5   6
ATOM      6  C   UNL     1       9.124   1.538 -11.362  1.00  0.00     0.000 C 
BRANCH   6   7
ATOM      7  C   UNL     1       8.128   2.684 -11.104  1.00  0.00     0.006 C 
BRANCH   7   8
ATOM      8  C   UNL     1       8.555   3.569  -9.926  1.00  0.00     0.053 C 
BRANCH   8   9
ATOM      9  C   UNL     1       8.888   2.758  -8.711  1.00  0.00     0.041 C 
ATOM     10  O   UNL     1       8.998   3.318  -7.588  1.00  0.00    -0.550 OA
ATOM     11  O   UNL     1       9.057   1.382  -8.814  1.00  0.00    -0.550 OA
ENDBRANCH   8   9
ENDBRANCH   7   8
ENDBRANCH   6   7
ENDBRANCH   5   6
ENDBRANCH   4   5
ENDBRANCH   3   4
ENDBRANCH   2   3
ENDBRANCH   1   2
BRANCH   1  12
ATOM     12  C   UNL     1       4.055  -1.210 -13.651  1.00  0.00     0.000 C 
BRANCH  12  13
ATOM     13  C   UNL     1       4.437  -2.356 -14.601  1.00  0.00    -0.000 C 
BRANCH  13  14
ATOM     14  C   UNL     1       5.299  -3.429 -13.919  1.00  0.00    -0.000 C 
BRANCH  14  15
ATOM     15  C   UNL     1       6.325  -2.787 -12.972  1.00  0.00    -0.000 C 
BRANCH  15  16
ATOM     16  C   UNL     1       6.890  -3.781 -11.943  1.00  0.00    -0.000 C 
BRANCH  16  17
ATOM     17  C   UNL     1       8.415  -3.704 -11.738  1.00  0.00    -0.000 C 
BRANCH  17  18
ATOM     18  C   UNL     1       8.832  -3.344 -10.296  1.00  0.00    -0.000 C 
BRANCH  18  19
ATOM     19  C   UNL     1       8.455  -4.437  -9.287  1.00  0.00    -0.003 C 
ATOM     20  C   UNL     1       8.950  -4.089  -7.886  1.00  0.00     0.004 C 
ENDBRANCH  18  19
ENDBRANCH  17  18
ENDBRANCH  16  17
ENDBRANCH  15  16
ENDBRANCH  14  15
ENDBRANCH  13  14
ENDBRANCH  12  13
ENDBRANCH   1  12
TORSDOF 16
ENDMDL
MODEL 5
REMARK VINA RESULT:    -2.833     13.386     15.926
REMARK INTER + INTRA:          -6.899
REMARK INTER:                  -5.074
REMARK INTRA:                  -1.826
REMARK UNBOUND:                -1.416
REMARK SMILES CCCCCCCCCCCCCCCCCC(=O)[O-]
REMARK SMILES IDX 10 1 11 2 12 3 13 4 14 5 15 6 16 7 17 8 18 9 19 10 20 11
REMARK SMILES IDX 9 12 8 13 7 14 6 15 5 16 4 17 3 18 2 19 1 20
REMARK H PARENT
REMARK Flexibility Score: inf
ROOT
ATOM      1  C   UNL     1      -7.881  -5.459 -13.893  1.00  0.00     0.000 C 
ENDROOT
BRANCH   1   2
ATOM      2  C   UNL     1      -6.793  -4.493 -14.388  1.00  0.00     0.000 C 
BRANCH   2   3
ATOM      3  C   UNL     1      -5.944  -3.928 -13.229  1.00  0.00     0.000 C 
BRANCH   3   4
ATOM      4  C   UNL     1      -6.780  -3.376 -12.062  1.00  0.00     0.000 C 
BRANCH   4   5
ATOM      5  C   UNL     1      -6.858  -4.348 -10.874  1.00  0.00     0.000 C 
BRANCH   5   6
ATOM      6  C   UNL     1      -7.105  -3.627  -9.538  1.00  0.00     0.000 C 
BRANCH   6   7
ATOM      7  C   UNL     1      -5.847  -3.580  -8.651  1.00  0.00     0.006 C 
BRANCH   7   8
ATOM      8  C   UNL     1      -5.236  -4.971  -8.438  1.00  0.00     0.053 C 
BRANCH   8   9
ATOM      9  C   UNL     1      -4.584  -5.095  -7.095  1.00  0.00     0.041 C 
ATOM     10  O   UNL     1      -4.324  -4.063  -6.421  1.00  0.00    -0.550 OA
ATOM     11  O   UNL     1      -4.280  -6.349  -6.579  1.00  0.00    -0.550 OA
ENDBRANCH   8   9
ENDBRANCH   7   8
ENDBRANCH   6   7
ENDBRANCH   5   6
ENDBRANCH   4   5
ENDBRANCH   3   4
ENDBRANCH   2   3
ENDBRANCH   1   2
BRANCH   1  12
ATOM     12  C   UNL     1      -7.520  -6.913 -14.228  1.00  0.00     0.000 C 
BRANCH  12  13
ATOM     13  C   UNL     1      -8.672  -7.891 -13.952  1.00  0.00    -0.000 C 
BRANCH  13  14
ATOM     14  C   UNL     1      -9.944  -7.549 -14.742  1.00  0.00    -0.000 C 
BRANCH  14  15
ATOM     15  C   UNL     1     -11.115  -7.250 -13.794  1.00  0.00    -0.000 C 
BRANCH  15  16
ATOM     16  C   UNL     1     -10.992  -7.981 -12.446  1.00  0.00    -0.000 C 
BRANCH  16  17
ATOM     17  C   UNL     1     -11.125  -7.078 -11.204  1.00  0.00    -0.000 C 
BRANCH  17  18
ATOM     18  C   UNL     1      -9.775  -6.718 -10.548  1.00  0.00    -0.000 C 
BRANCH  18  19
ATOM     19  C   UNL     1      -8.884  -7.949 -10.328  1.00  0.00    -0.003 C 
ATOM     20  C   UNL     1      -7.411  -7.558 -10.264  1.00  0.00     0.004 C 
ENDBRANCH  18  19
ENDBRANCH  17  18
ENDBRANCH  16  17
ENDBRANCH  15  16
ENDBRANCH  14  15
ENDBRANCH  13  14
ENDBRANCH  12  13
ENDBRANCH   1  12
TORSDOF 16
ENDMDL
MODEL 6
REMARK VINA RESULT:    -2.746     14.127     16.800
REMARK INTER + INTRA:          -6.730
REMARK INTER:                  -5.399
REMARK INTRA:                  -1.331
REMARK UNBOUND:                -1.416
REMARK SMILES CCCCCCCCCCCCCCCCCC(=O)[O-]
REMARK SMILES IDX 10 1 11 2 12 3 13 4 14 5 15 6 16 7 17 8 18 9 19 10 20 11
REMARK SMILES IDX 9 12 8 13 7 14 6 15 5 16 4 17 3 18 2 19 1 20
REMARK H PARENT
REMARK Flexibility Score: inf
ROOT
ATOM      1  C   UNL     1      -7.259  -5.900 -13.489  1.00  0.00     0.000 C 
ENDROOT
BRANCH   1   2
ATOM      2  C   UNL     1      -7.896  -6.588 -14.706  1.00  0.00     0.000 C 
BRANCH   2   3
ATOM      3  C   UNL     1      -8.887  -7.699 -14.296  1.00  0.00     0.000 C 
BRANCH   3   4
ATOM      4  C   UNL     1     -10.332  -7.203 -14.118  1.00  0.00     0.000 C 
BRANCH   4   5
ATOM      5  C   UNL     1     -10.864  -7.419 -12.692  1.00  0.00     0.000 C 
BRANCH   5   6
ATOM      6  C   UNL     1      -9.845  -8.125 -11.783  1.00  0.00     0.000 C 
BRANCH   6   7
ATOM      7  C   UNL     1      -9.891  -7.609 -10.332  1.00  0.00     0.006 C 
BRANCH   7   8
ATOM      8  C   UNL     1     -11.125  -6.738 -10.066  1.00  0.00     0.053 C 
BRANCH   8   9
ATOM      9  C   UNL     1     -11.106  -6.148  -8.689  1.00  0.00     0.041 C 
ATOM     10  O   UNL     1     -11.103  -4.898  -8.536  1.00  0.00    -0.550 OA
ATOM     11  O   UNL     1     -11.110  -6.978  -7.574  1.00  0.00    -0.550 OA
ENDBRANCH   8   9
ENDBRANCH   7   8
ENDBRANCH   6   7
ENDBRANCH   5   6
ENDBRANCH   4   5
ENDBRANCH   3   4
ENDBRANCH   2   3
ENDBRANCH   1   2
BRANCH   1  12
ATOM     12  C   UNL     1      -5.999  -5.122 -13.895  1.00  0.00     0.000 C 
BRANCH  12  13
ATOM     13  C   UNL     1      -6.175  -3.600 -13.773  1.00  0.00    -0.000 C 
BRANCH  13  14
ATOM     14  C   UNL     1      -7.164  -3.203 -12.667  1.00  0.00    -0.000 C 
BRANCH  14  15
ATOM     15  C   UNL     1      -6.435  -2.982 -11.333  1.00  0.00    -0.000 C 
BRANCH  15  16
ATOM     16  C   UNL     1      -7.031  -3.810 -10.183  1.00  0.00    -0.000 C 
BRANCH  16  17
ATOM     17  C   UNL     1      -6.171  -3.860  -8.906  1.00  0.00    -0.000 C 
BRANCH  17  18
ATOM     18  C   UNL     1      -5.633  -5.267  -8.571  1.00  0.00    -0.000 C 
BRANCH  18  19
ATOM     19  C   UNL     1      -4.645  -5.252  -7.396  1.00  0.00    -0.003 C 
ATOM     20  C   UNL     1      -4.125  -3.842  -7.132  1.00  0.00     0.004 C 
ENDBRANCH  18  19
ENDBRANCH  17  18
ENDBRANCH  16  17
ENDBRANCH  15  16
ENDBRANCH  14  15
ENDBRANCH  13  14
ENDBRANCH  12  13
ENDBRANCH   1  12
TORSDOF 16
ENDMDL
MODEL 7
REMARK VINA RESULT:    -2.544     13.650     16.463
REMARK INTER + INTRA:          -6.339
REMARK INTER:                  -4.628
REMARK INTRA:                  -1.711
REMARK UNBOUND:                -1.416
REMARK SMILES CCCCCCCCCCCCCCCCCC(=O)[O-]
REMARK SMILES IDX 10 1 11 2 12 3 13 4 14 5 15 6 16 7 17 8 18 9 19 10 20 11
REMARK SMILES IDX 9 12 8 13 7 14 6 15 5 16 4 17 3 18 2 19 1 20
REMARK H PARENT
REMARK Flexibility Score: inf
ROOT
ATOM      1  C   UNL     1      -9.794  -8.035  -9.228  1.00  0.00     0.000 C 
ENDROOT
BRANCH   1   2
ATOM      2  C   UNL     1      -8.602  -8.121 -10.193  1.00  0.00     0.000 C 
BRANCH   2   3
ATOM      3  C   UNL     1      -7.340  -7.435  -9.626  1.00  0.00     0.000 C 
BRANCH   3   4
ATOM      4  C   UNL     1      -6.897  -6.199 -10.426  1.00  0.00     0.000 C 
BRANCH   4   5
ATOM      5  C   UNL     1      -8.025  -5.171 -10.608  1.00  0.00     0.000 C 
BRANCH   5   6
ATOM      6  C   UNL     1      -7.747  -3.854  -9.864  1.00  0.00     0.000 C 
BRANCH   6   7
ATOM      7  C   UNL     1      -6.247  -3.638  -9.586  1.00  0.00     0.006 C 
BRANCH   7   8
ATOM      8  C   UNL     1      -5.925  -3.674  -8.087  1.00  0.00     0.053 C 
BRANCH   8   9
ATOM      9  C   UNL     1      -4.687  -4.469  -7.801  1.00  0.00     0.041 C 
ATOM     10  O   UNL     1      -3.554  -3.928  -7.892  1.00  0.00    -0.550 OA
ATOM     11  O   UNL     1      -4.786  -5.801  -7.415  1.00  0.00    -0.550 OA
ENDBRANCH   8   9
ENDBRANCH   7   8
ENDBRANCH   6   7
ENDBRANCH   5   6
ENDBRANCH   4   5
ENDBRANCH   3   4
ENDBRANCH   2   3
ENDBRANCH   1   2
BRANCH   1  12
ATOM     12  C   UNL     1     -11.124  -8.047  -9.994  1.00  0.00     0.000 C 
BRANCH  12  13
ATOM     13  C   UNL     1     -11.088  -7.181 -11.263  1.00  0.00    -0.000 C 
BRANCH  13  14
ATOM     14  C   UNL     1     -10.536  -7.937 -12.482  1.00  0.00    -0.000 C 
BRANCH  14  15
ATOM     15  C   UNL     1     -11.028  -7.299 -13.790  1.00  0.00    -0.000 C 
BRANCH  15  16
ATOM     16  C   UNL     1      -9.885  -7.010 -14.779  1.00  0.00    -0.000 C 
BRANCH  16  17
ATOM     17  C   UNL     1      -8.505  -6.795 -14.129  1.00  0.00    -0.000 C 
BRANCH  17  18
ATOM     18  C   UNL     1      -8.068  -5.316 -14.068  1.00  0.00    -0.000 C 
BRANCH  18  19
ATOM     19  C   UNL     1      -6.544  -5.158 -13.979  1.00  0.00    -0.003 C 
ATOM     20  C   UNL     1      -6.161  -3.758 -13.511  1.00  0.00     0.004 C 
ENDBRANCH  18  19
ENDBRANCH  17  18
ENDBRANCH  16  17
ENDBRANCH  15  16
ENDBRANCH  14  15
ENDBRANCH  13  14
ENDBRANCH  12  13
ENDBRANCH   1  12
TORSDOF 16
ENDMDL
MODEL 8
REMARK VINA RESULT:    -2.354     14.813     17.438
REMARK INTER + INTRA:          -5.973
REMARK INTER:                  -4.377
REMARK INTRA:                  -1.596
REMARK UNBOUND:                -1.416
REMARK SMILES CCCCCCCCCCCCCCCCCC(=O)[O-]
REMARK SMILES IDX 10 1 11 2 12 3 13 4 14 5 15 6 16 7 17 8 18 9 19 10 20 11
REMARK SMILES IDX 9 12 8 13 7 14 6 15 5 16 4 17 3 18 2 19 1 20
REMARK H PARENT
REMARK Flexibility Score: inf
ROOT
ATOM      1  C   UNL     1      -7.261  -3.471  -9.927  1.00  0.00     0.000 C 
ENDROOT
BRANCH   1   2
ATOM      2  C   UNL     1      -6.203  -4.124  -9.024  1.00  0.00     0.000 C 
BRANCH   2   3
ATOM      3  C   UNL     1      -6.058  -5.637  -9.295  1.00  0.00     0.000 C 
BRANCH   3   4
ATOM      4  C   UNL     1      -7.395  -6.397  -9.291  1.00  0.00     0.000 C 
BRANCH   4   5
ATOM      5  C   UNL     1      -7.785  -6.925 -10.681  1.00  0.00     0.000 C 
BRANCH   5   6
ATOM      6  C   UNL     1      -9.034  -6.230 -11.246  1.00  0.00     0.000 C 
BRANCH   6   7
ATOM      7  C   UNL     1     -10.339  -6.941 -10.842  1.00  0.00     0.006 C 
BRANCH   7   8
ATOM      8  C   UNL     1     -10.188  -7.728  -9.534  1.00  0.00     0.053 C 
BRANCH   8   9
ATOM      9  C   UNL     1     -10.836  -7.025  -8.380  1.00  0.00     0.041 C 
ATOM     10  O   UNL     1     -11.114  -7.659  -7.328  1.00  0.00    -0.550 OA
ATOM     11  O   UNL     1     -11.114  -5.665  -8.459  1.00  0.00    -0.550 OA
ENDBRANCH   8   9
ENDBRANCH   7   8
ENDBRANCH   6   7
ENDBRANCH   5   6
ENDBRANCH   4   5
ENDBRANCH   3   4
ENDBRANCH   2   3
ENDBRANCH   1   2
BRANCH   1  12
ATOM     12  C   UNL     1      -6.603  -2.768 -11.124  1.00  0.00     0.000 C 
BRANCH  12  13
ATOM     13  C   UNL     1      -7.124  -3.281 -12.475  1.00  0.00    -0.000 C 
BRANCH  13  14
ATOM     14  C   UNL     1      -6.285  -4.440 -13.033  1.00  0.00    -0.000 C 
BRANCH  14  15
ATOM     15  C   UNL     1      -7.009  -5.130 -14.200  1.00  0.00    -0.000 C 
BRANCH  15  16
ATOM     16  C   UNL     1      -6.864  -6.660 -14.171  1.00  0.00    -0.000 C 
BRANCH  16  17
ATOM     17  C   UNL     1      -8.066  -7.437 -14.742  1.00  0.00    -0.000 C 
BRANCH  17  18
ATOM     18  C   UNL     1      -9.380  -6.627 -14.759  1.00  0.00    -0.000 C 
BRANCH  18  19
ATOM     19  C   UNL     1     -10.616  -7.521 -14.931  1.00  0.00    -0.003 C 
ATOM     20  C   UNL     1     -11.049  -8.125 -13.598  1.00  0.00     0.004 C 
ENDBRANCH  18  19
ENDBRANCH  17  18
ENDBRANCH  16  17
ENDBRANCH  15  16
ENDBRANCH  14  15
ENDBRANCH  13  14
ENDBRANCH  12  13
ENDBRANCH   1  12
TORSDOF 16
ENDMDL
