MODEL 1
REMARK VINA RESULT:    -3.963      0.000      0.000
REMARK INTER + INTRA:          -9.785
REMARK INTER:                  -7.670
REMARK INTRA:                  -2.115
REMARK UNBOUND:                -2.115
REMARK SMILES CCCCCCCCCCCCCCCCCC(=O)[O-]
REMARK SMILES IDX 10 1 11 2 12 3 13 4 14 5 15 6 16 7 17 8 18 9 19 10 20 11
REMARK SMILES IDX 9 12 8 13 7 14 6 15 5 16 4 17 3 18 2 19 1 20
REMARK H PARENT
REMARK Flexibility Score: inf
ROOT
ATOM      1  C   UNL     1     119.593 115.058 113.045  1.00  0.00     0.000 C 
ENDROOT
BRANCH   1   2
ATOM      2  C   UNL     1     119.226 116.312 113.852  1.00  0.00     0.000 C 
BRANCH   2   3
ATOM      3  C   UNL     1     118.409 115.994 115.118  1.00  0.00     0.000 C 
BRANCH   3   4
ATOM      4  C   UNL     1     118.478 114.527 115.585  1.00  0.00     0.000 C 
BRANCH   4   5
ATOM      5  C   UNL     1     117.716 114.278 116.895  1.00  0.00     0.000 C 
BRANCH   5   6
ATOM      6  C   UNL     1     118.460 113.264 117.778  1.00  0.00     0.000 C 
BRANCH   6   7
ATOM      7  C   UNL     1     119.677 112.638 117.073  1.00  0.00     0.006 C 
BRANCH   7   8
ATOM      8  C   UNL     1     120.019 111.216 117.545  1.00  0.00     0.053 C 
BRANCH   8   9
ATOM      9  C   UNL     1     121.273 111.182 118.363  1.00  0.00     0.041 C 
ATOM     10  O   UNL     1     121.230 111.424 119.599  1.00  0.00    -0.550 OA
ATOM     11  O   UNL     1     122.494 110.916 117.757  1.00  0.00    -0.550 OA
ENDBRANCH   8   9
ENDBRANCH   7   8
ENDBRANCH   6   7
ENDBRANCH   5   6
ENDBRANCH   4   5
ENDBRANCH   3   4
ENDBRANCH   2   3
ENDBRANCH   1   2
BRANCH   1  12
ATOM     12  C   UNL     1     121.101 115.005 112.769  1.00  0.00     0.000 C 
BRANCH  12  13
ATOM     13  C   UNL     1     121.902 115.089 114.078  1.00  0.00    -0.000 C 
BRANCH  13  14
ATOM     14  C   UNL     1     122.162 113.710 114.703  1.00  0.00    -0.000 C 
BRANCH  14  15
ATOM     15  C   UNL     1     122.195 112.584 113.660  1.00  0.00    -0.000 C 
BRANCH  15  16
ATOM     16  C   UNL     1     121.813 111.238 114.295  1.00  0.00    -0.000 C 
BRANCH  16  17
ATOM     17  C   UNL     1     120.885 110.399 113.402  1.00  0.00    -0.000 C 
BRANCH  17  18
ATOM     18  C   UNL     1     120.154 111.191 112.301  1.00  0.00    -0.000 C 
BRANCH  18  19
ATOM     19  C   UNL     1     119.029 110.397 111.605  1.00  0.00    -0.003 C 
ATOM     20  C   UNL     1     119.341 110.102 110.138  1.00  0.00     0.004 C 
ENDBRANCH  18  19
ENDBRANCH  17  18
ENDBRANCH  16  17
ENDBRANCH  15  16
ENDBRANCH  14  15
ENDBRANCH  13  14
ENDBRANCH  12  13
ENDBRANCH   1  12
TORSDOF 16
ENDMDL
MODEL 2
REMARK VINA RESULT:    -3.947      2.749      4.939
REMARK INTER + INTRA:          -9.754
REMARK INTER:                  -8.539
REMARK INTRA:                  -1.215
REMARK UNBOUND:                -2.115
REMARK SMILES CCCCCCCCCCCCCCCCCC(=O)[O-]
REMARK SMILES IDX 10 1 11 2 12 3 13 4 14 5 15 6 16 7 17 8 18 9 19 10 20 11
REMARK SMILES IDX 9 12 8 13 7 14 6 15 5 16 4 17 3 18 2 19 1 20
REMARK H PARENT
REMARK Flexibility Score: inf
ROOT
ATOM      1  C   UNL     1     122.062 110.786 113.674  1.00  0.00     0.000 C 
ENDROOT
BRANCH   1   2
ATOM      2  C   UNL     1     121.219 111.804 114.458  1.00  0.00     0.000 C 
BRANCH   2   3
ATOM      3  C   UNL     1     120.711 111.253 115.803  1.00  0.00     0.000 C 
BRANCH   3   4
ATOM      4  C   UNL     1     120.965 112.166 117.018  1.00  0.00     0.000 C 
BRANCH   4   5
ATOM      5  C   UNL     1     120.138 111.769 118.250  1.00  0.00     0.000 C 
BRANCH   5   6
ATOM      6  C   UNL     1     118.646 112.060 118.026  1.00  0.00     0.000 C 
BRANCH   6   7
ATOM      7  C   UNL     1     118.331 113.567 117.990  1.00  0.00     0.006 C 
BRANCH   7   8
ATOM      8  C   UNL     1     117.327 113.976 116.901  1.00  0.00     0.053 C 
BRANCH   8   9
ATOM      9  C   UNL     1     117.952 114.861 115.866  1.00  0.00     0.041 C 
ATOM     10  O   UNL     1     117.650 116.083 115.811  1.00  0.00    -0.550 OA
ATOM     11  O   UNL     1     118.840 114.331 114.940  1.00  0.00    -0.550 OA
ENDBRANCH   8   9
ENDBRANCH   7   8
ENDBRANCH   6   7
ENDBRANCH   5   6
ENDBRANCH   4   5
ENDBRANCH   3   4
ENDBRANCH   2   3
ENDBRANCH   1   2
BRANCH   1  12
ATOM     12  C   UNL     1     121.271 110.213 112.493  1.00  0.00     0.000 C 
BRANCH  12  13
ATOM     13  C   UNL     1     120.065 111.103 112.155  1.00  0.00    -0.000 C 
BRANCH  13  14
ATOM     14  C   UNL     1     118.971 110.351 111.381  1.00  0.00    -0.000 C 
BRANCH  14  15
ATOM     15  C   UNL     1     119.436 109.896 109.990  1.00  0.00    -0.000 C 
BRANCH  15  16
ATOM     16  C   UNL     1     119.731 111.105 109.090  1.00  0.00    -0.000 C 
BRANCH  16  17
ATOM     17  C   UNL     1     120.069 110.705 107.644  1.00  0.00    -0.000 C 
BRANCH  17  18
ATOM     18  C   UNL     1     121.558 110.409 107.385  1.00  0.00    -0.000 C 
BRANCH  18  19
ATOM     19  C   UNL     1     121.825 108.987 106.846  1.00  0.00    -0.003 C 
ATOM     20  C   UNL     1     120.535 108.229 106.530  1.00  0.00     0.004 C 
ENDBRANCH  18  19
ENDBRANCH  17  18
ENDBRANCH  16  17
ENDBRANCH  15  16
ENDBRANCH  14  15
ENDBRANCH  13  14
ENDBRANCH  12  13
ENDBRANCH   1  12
TORSDOF 16
ENDMDL
MODEL 3
REMARK VINA RESULT:    -3.937      4.106      7.670
REMARK INTER + INTRA:          -9.735
REMARK INTER:                  -8.174
REMARK INTRA:                  -1.560
REMARK UNBOUND:                -2.115
REMARK SMILES CCCCCCCCCCCCCCCCCC(=O)[O-]
REMARK SMILES IDX 10 1 11 2 12 3 13 4 14 5 15 6 16 7 17 8 18 9 19 10 20 11
REMARK SMILES IDX 9 12 8 13 7 14 6 15 5 16 4 17 3 18 2 19 1 20
REMARK H PARENT
REMARK Flexibility Score: inf
ROOT
ATOM      1  C   UNL     1     121.644 111.449 114.425  1.00  0.00     0.000 C 
ENDROOT
BRANCH   1   2
ATOM      2  C   UNL     1     121.159 110.566 113.265  1.00  0.00     0.000 C 
BRANCH   2   3
ATOM      3  C   UNL     1     119.948 111.160 112.523  1.00  0.00     0.000 C 
BRANCH   3   4
ATOM      4  C   UNL     1     119.264 110.207 111.525  1.00  0.00     0.000 C 
BRANCH   4   5
ATOM      5  C   UNL     1     120.115 109.937 110.275  1.00  0.00     0.000 C 
BRANCH   5   6
ATOM      6  C   UNL     1     120.150 111.170 109.359  1.00  0.00     0.000 C 
BRANCH   6   7
ATOM      7  C   UNL     1     120.100 110.805 107.864  1.00  0.00     0.006 C 
BRANCH   7   8
ATOM      8  C   UNL     1     119.905 109.307 107.585  1.00  0.00     0.053 C 
BRANCH   8   9
ATOM      9  C   UNL     1     121.072 108.715 106.855  1.00  0.00     0.041 C 
ATOM     10  O   UNL     1     121.080 107.490 106.561  1.00  0.00    -0.550 OA
ATOM     11  O   UNL     1     122.165 109.507 106.530  1.00  0.00    -0.550 OA
ENDBRANCH   8   9
ENDBRANCH   7   8
ENDBRANCH   6   7
ENDBRANCH   5   6
ENDBRANCH   4   5
ENDBRANCH   3   4
ENDBRANCH   2   3
ENDBRANCH   1   2
BRANCH   1  12
ATOM     12  C   UNL     1     120.724 111.308 115.643  1.00  0.00     0.000 C 
BRANCH  12  13
ATOM     13  C   UNL     1     121.507 111.505 116.950  1.00  0.00    -0.000 C 
BRANCH  13  14
ATOM     14  C   UNL     1     120.594 111.814 118.147  1.00  0.00    -0.000 C 
BRANCH  14  15
ATOM     15  C   UNL     1     119.115 111.926 117.750  1.00  0.00    -0.000 C 
BRANCH  15  16
ATOM     16  C   UNL     1     118.576 113.335 118.040  1.00  0.00    -0.000 C 
BRANCH  16  17
ATOM     17  C   UNL     1     117.510 113.786 117.028  1.00  0.00    -0.000 C 
BRANCH  17  18
ATOM     18  C   UNL     1     117.967 114.889 116.054  1.00  0.00    -0.000 C 
BRANCH  18  19
ATOM     19  C   UNL     1     118.935 114.391 114.960  1.00  0.00    -0.003 C 
ATOM     20  C   UNL     1     120.343 114.966 115.119  1.00  0.00     0.004 C 
ENDBRANCH  18  19
ENDBRANCH  17  18
ENDBRANCH  16  17
ENDBRANCH  15  16
ENDBRANCH  14  15
ENDBRANCH  13  14
ENDBRANCH  12  13
ENDBRANCH   1  12
TORSDOF 16
ENDMDL
MODEL 4
REMARK VINA RESULT:    -3.918      1.501      2.841
REMARK INTER + INTRA:          -9.699
REMARK INTER:                  -8.409
REMARK INTRA:                  -1.290
REMARK UNBOUND:                -2.115
REMARK SMILES CCCCCCCCCCCCCCCCCC(=O)[O-]
REMARK SMILES IDX 10 1 11 2 12 3 13 4 14 5 15 6 16 7 17 8 18 9 19 10 20 11
REMARK SMILES IDX 9 12 8 13 7 14 6 15 5 16 4 17 3 18 2 19 1 20
REMARK H PARENT
REMARK Flexibility Score: inf
ROOT
ATOM      1  C   UNL     1     120.011 114.463 112.153  1.00  0.00     0.000 C 
ENDROOT
BRANCH   1   2
ATOM      2  C   UNL     1     119.942 114.568 113.685  1.00  0.00     0.000 C 
BRANCH   2   3
ATOM      3  C   UNL     1     118.981 115.669 114.168  1.00  0.00     0.000 C 
BRANCH   3   4
ATOM      4  C   UNL     1     118.338 115.414 115.544  1.00  0.00     0.000 C 
BRANCH   4   5
ATOM      5  C   UNL     1     118.890 114.161 116.241  1.00  0.00     0.000 C 
BRANCH   5   6
ATOM      6  C   UNL     1     117.921 113.663 117.325  1.00  0.00     0.000 C 
BRANCH   6   7
ATOM      7  C   UNL     1     118.494 112.495 118.147  1.00  0.00     0.006 C 
BRANCH   7   8
ATOM      8  C   UNL     1     119.716 111.814 117.512  1.00  0.00     0.053 C 
BRANCH   8   9
ATOM      9  C   UNL     1     120.811 111.583 118.509  1.00  0.00     0.041 C 
ATOM     10  O   UNL     1     121.126 112.488 119.326  1.00  0.00    -0.550 OA
ATOM     11  O   UNL     1     121.506 110.381 118.513  1.00  0.00    -0.550 OA
ENDBRANCH   8   9
ENDBRANCH   7   8
ENDBRANCH   6   7
ENDBRANCH   5   6
ENDBRANCH   4   5
ENDBRANCH   3   4
ENDBRANCH   2   3
ENDBRANCH   1   2
BRANCH   1  12
ATOM     12  C   UNL     1     120.487 113.072 111.720  1.00  0.00     0.000 C 
BRANCH  12  13
ATOM     13  C   UNL     1     120.349 112.061 112.868  1.00  0.00    -0.000 C 
BRANCH  13  14
ATOM     14  C   UNL     1     120.260 110.609 112.372  1.00  0.00    -0.000 C 
BRANCH  14  15
ATOM     15  C   UNL     1     118.933 110.308 111.660  1.00  0.00    -0.000 C 
BRANCH  15  16
ATOM     16  C   UNL     1     119.159 110.065 110.160  1.00  0.00    -0.000 C 
BRANCH  16  17
ATOM     17  C   UNL     1     120.509 109.393 109.862  1.00  0.00    -0.000 C 
BRANCH  17  18
ATOM     18  C   UNL     1     121.301 110.018 108.697  1.00  0.00    -0.000 C 
BRANCH  18  19
ATOM     19  C   UNL     1     120.520 110.061 107.366  1.00  0.00    -0.003 C 
ATOM     20  C   UNL     1     120.148 108.666 106.861  1.00  0.00     0.004 C 
ENDBRANCH  18  19
ENDBRANCH  17  18
ENDBRANCH  16  17
ENDBRANCH  15  16
ENDBRANCH  14  15
ENDBRANCH  13  14
ENDBRANCH  12  13
ENDBRANCH   1  12
TORSDOF 16
ENDMDL
MODEL 5
REMARK VINA RESULT:    -3.910      4.006      7.994
REMARK INTER + INTRA:          -9.683
REMARK INTER:                  -8.309
REMARK INTRA:                  -1.374
REMARK UNBOUND:                -2.115
REMARK SMILES CCCCCCCCCCCCCCCCCC(=O)[O-]
REMARK SMILES IDX 10 1 11 2 12 3 13 4 14 5 15 6 16 7 17 8 18 9 19 10 20 11
REMARK SMILES IDX 9 12 8 13 7 14 6 15 5 16 4 17 3 18 2 19 1 20
REMARK H PARENT
REMARK Flexibility Score: inf
ROOT
ATOM      1  C   UNL     1     120.651 110.689 113.065  1.00  0.00     0.000 C 
ENDROOT
BRANCH   1   2
ATOM      2  C   UNL     1     119.713 111.262 111.992  1.00  0.00     0.000 C 
BRANCH   2   3
ATOM      3  C   UNL     1     119.075 110.173 111.108  1.00  0.00     0.000 C 
BRANCH   3   4
ATOM      4  C   UNL     1     120.000 109.596 110.019  1.00  0.00     0.000 C 
BRANCH   4   5
ATOM      5  C   UNL     1     120.610 110.677 109.115  1.00  0.00     0.000 C 
BRANCH   5   6
ATOM      6  C   UNL     1     120.110 110.530 107.670  1.00  0.00     0.000 C 
BRANCH   6   7
ATOM      7  C   UNL     1     119.924 109.061 107.249  1.00  0.00     0.006 C 
BRANCH   7   8
ATOM      8  C   UNL     1     121.122 108.464 106.494  1.00  0.00     0.053 C 
BRANCH   8   9
ATOM      9  C   UNL     1     121.752 107.332 107.247  1.00  0.00     0.041 C 
ATOM     10  O   UNL     1     122.301 107.540 108.361  1.00  0.00    -0.550 OA
ATOM     11  O   UNL     1     121.764 106.054 106.703  1.00  0.00    -0.550 OA
ENDBRANCH   8   9
ENDBRANCH   7   8
ENDBRANCH   6   7
ENDBRANCH   5   6
ENDBRANCH   4   5
ENDBRANCH   3   4
ENDBRANCH   2   3
ENDBRANCH   1   2
BRANCH   1  12
ATOM     12  C   UNL     1     120.966 111.740 114.136  1.00  0.00     0.000 C 
BRANCH  12  13
ATOM     13  C   UNL     1     120.550 113.143 113.668  1.00  0.00    -0.000 C 
BRANCH  13  14
ATOM     14  C   UNL     1     119.667 113.872 114.694  1.00  0.00    -0.000 C 
BRANCH  14  15
ATOM     15  C   UNL     1     120.118 113.629 116.141  1.00  0.00    -0.000 C 
BRANCH  15  16
ATOM     16  C   UNL     1     118.907 113.436 117.067  1.00  0.00    -0.000 C 
BRANCH  16  17
ATOM     17  C   UNL     1     119.116 112.313 118.096  1.00  0.00    -0.000 C 
BRANCH  17  18
ATOM     18  C   UNL     1     119.921 111.105 117.583  1.00  0.00    -0.000 C 
BRANCH  18  19
ATOM     19  C   UNL     1     121.349 111.017 118.163  1.00  0.00    -0.003 C 
ATOM     20  C   UNL     1     121.431 111.539 119.597  1.00  0.00     0.004 C 
ENDBRANCH  18  19
ENDBRANCH  17  18
ENDBRANCH  16  17
ENDBRANCH  15  16
ENDBRANCH  14  15
ENDBRANCH  13  14
ENDBRANCH  12  13
ENDBRANCH   1  12
TORSDOF 16
ENDMDL
MODEL 6
REMARK VINA RESULT:    -3.904      2.740      5.155
REMARK INTER + INTRA:          -9.672
REMARK INTER:                  -7.780
REMARK INTRA:                  -1.892
REMARK UNBOUND:                -2.115
REMARK SMILES CCCCCCCCCCCCCCCCCC(=O)[O-]
REMARK SMILES IDX 10 1 11 2 12 3 13 4 14 5 15 6 16 7 17 8 18 9 19 10 20 11
REMARK SMILES IDX 9 12 8 13 7 14 6 15 5 16 4 17 3 18 2 19 1 20
REMARK H PARENT
REMARK Flexibility Score: inf
ROOT
ATOM      1  C   UNL     1     120.523 109.903 112.199  1.00  0.00     0.000 C 
ENDROOT
BRANCH   1   2
ATOM      2  C   UNL     1     121.390 110.799 113.097  1.00  0.00     0.000 C 
BRANCH   2   3
ATOM      3  C   UNL     1     120.767 112.185 113.345  1.00  0.00     0.000 C 
BRANCH   3   4
ATOM      4  C   UNL     1     120.515 112.530 114.824  1.00  0.00     0.000 C 
BRANCH   4   5
ATOM      5  C   UNL     1     121.224 111.572 115.793  1.00  0.00     0.000 C 
BRANCH   5   6
ATOM      6  C   UNL     1     120.847 111.886 117.249  1.00  0.00     0.000 C 
BRANCH   6   7
ATOM      7  C   UNL     1     119.333 111.783 117.509  1.00  0.00     0.006 C 
BRANCH   7   8
ATOM      8  C   UNL     1     118.712 113.043 118.134  1.00  0.00     0.053 C 
BRANCH   8   9
ATOM      9  C   UNL     1     117.804 113.754 117.178  1.00  0.00     0.041 C 
ATOM     10  O   UNL     1     118.275 114.585 116.355  1.00  0.00    -0.550 OA
ATOM     11  O   UNL     1     116.435 113.528 117.218  1.00  0.00    -0.550 OA
ENDBRANCH   8   9
ENDBRANCH   7   8
ENDBRANCH   6   7
ENDBRANCH   5   6
ENDBRANCH   4   5
ENDBRANCH   3   4
ENDBRANCH   2   3
ENDBRANCH   1   2
BRANCH   1  12
ATOM     12  C   UNL     1     119.228 110.619 111.798  1.00  0.00     0.000 C 
BRANCH  12  13
ATOM     13  C   UNL     1     119.057 110.635 110.271  1.00  0.00    -0.000 C 
BRANCH  13  14
ATOM     14  C   UNL     1     119.921 109.576 109.567  1.00  0.00    -0.000 C 
BRANCH  14  15
ATOM     15  C   UNL     1     120.052 109.829 108.058  1.00  0.00    -0.000 C 
BRANCH  15  16
ATOM     16  C   UNL     1     120.183 111.331 107.764  1.00  0.00    -0.000 C 
BRANCH  16  17
ATOM     17  C   UNL     1     121.522 111.695 107.103  1.00  0.00    -0.000 C 
BRANCH  17  18
ATOM     18  C   UNL     1     122.448 112.580 107.959  1.00  0.00    -0.000 C 
BRANCH  18  19
ATOM     19  C   UNL     1     122.257 112.392 109.479  1.00  0.00    -0.003 C 
ATOM     20  C   UNL     1     121.601 113.604 110.141  1.00  0.00     0.004 C 
ENDBRANCH  18  19
ENDBRANCH  17  18
ENDBRANCH  16  17
ENDBRANCH  15  16
ENDBRANCH  14  15
ENDBRANCH  13  14
ENDBRANCH  12  13
ENDBRANCH   1  12
TORSDOF 16
ENDMDL
MODEL 7
REMARK VINA RESULT:    -3.902      2.387      5.198
REMARK INTER + INTRA:          -9.668
REMARK INTER:                  -7.280
REMARK INTRA:                  -2.388
REMARK UNBOUND:                -2.115
REMARK SMILES CCCCCCCCCCCCCCCCCC(=O)[O-]
REMARK SMILES IDX 10 1 11 2 12 3 13 4 14 5 15 6 16 7 17 8 18 9 19 10 20 11
REMARK SMILES IDX 9 12 8 13 7 14 6 15 5 16 4 17 3 18 2 19 1 20
REMARK H PARENT
REMARK Flexibility Score: inf
ROOT
ATOM      1  C   UNL     1     119.210 110.460 110.353  1.00  0.00     0.000 C 
ENDROOT
BRANCH   1   2
ATOM      2  C   UNL     1     119.408 110.752 111.848  1.00  0.00     0.000 C 
BRANCH   2   3
ATOM      3  C   UNL     1     120.550 109.931 112.475  1.00  0.00     0.000 C 
BRANCH   3   4
ATOM      4  C   UNL     1     121.352 110.661 113.568  1.00  0.00     0.000 C 
BRANCH   4   5
ATOM      5  C   UNL     1     120.702 111.982 114.008  1.00  0.00     0.000 C 
BRANCH   5   6
ATOM      6  C   UNL     1     121.310 112.479 115.329  1.00  0.00     0.000 C 
BRANCH   6   7
ATOM      7  C   UNL     1     120.320 112.410 116.505  1.00  0.00     0.006 C 
BRANCH   7   8
ATOM      8  C   UNL     1     120.313 111.066 117.248  1.00  0.00     0.053 C 
BRANCH   8   9
ATOM      9  C   UNL     1     121.342 111.020 118.337  1.00  0.00     0.041 C 
ATOM     10  O   UNL     1     121.686 109.916 118.837  1.00  0.00    -0.550 OA
ATOM     11  O   UNL     1     121.895 112.197 118.822  1.00  0.00    -0.550 OA
ENDBRANCH   8   9
ENDBRANCH   7   8
ENDBRANCH   6   7
ENDBRANCH   5   6
ENDBRANCH   4   5
ENDBRANCH   3   4
ENDBRANCH   2   3
ENDBRANCH   1   2
BRANCH   1  12
ATOM     12  C   UNL     1     120.335 109.569 109.815  1.00  0.00     0.000 C 
BRANCH  12  13
ATOM     13  C   UNL     1     120.204 109.372 108.296  1.00  0.00    -0.000 C 
BRANCH  13  14
ATOM     14  C   UNL     1     119.976 110.694 107.545  1.00  0.00    -0.000 C 
BRANCH  14  15
ATOM     15  C   UNL     1     121.290 111.406 107.190  1.00  0.00    -0.000 C 
BRANCH  15  16
ATOM     16  C   UNL     1     121.106 112.931 107.202  1.00  0.00    -0.000 C 
BRANCH  16  17
ATOM     17  C   UNL     1     121.883 113.617 108.337  1.00  0.00    -0.000 C 
BRANCH  17  18
ATOM     18  C   UNL     1     121.318 113.374 109.749  1.00  0.00    -0.000 C 
BRANCH  18  19
ATOM     19  C   UNL     1     122.393 113.018 110.797  1.00  0.00    -0.003 C 
ATOM     20  C   UNL     1     123.193 111.772 110.416  1.00  0.00     0.004 C 
ENDBRANCH  18  19
ENDBRANCH  17  18
ENDBRANCH  16  17
ENDBRANCH  15  16
ENDBRANCH  14  15
ENDBRANCH  13  14
ENDBRANCH  12  13
ENDBRANCH   1  12
TORSDOF 16
ENDMDL
MODEL 8
REMARK VINA RESULT:    -3.892      3.140      6.753
REMARK INTER + INTRA:          -9.648
REMARK INTER:                  -7.784
REMARK INTRA:                  -1.864
REMARK UNBOUND:                -2.115
REMARK SMILES CCCCCCCCCCCCCCCCCC(=O)[O-]
REMARK SMILES IDX 10 1 11 2 12 3 13 4 14 5 15 6 16 7 17 8 18 9 19 10 20 11
REMARK SMILES IDX 9 12 8 13 7 14 6 15 5 16 4 17 3 18 2 19 1 20
REMARK H PARENT
REMARK Flexibility Score: inf
ROOT
ATOM      1  C   UNL     1     121.658 113.318 114.902  1.00  0.00     0.000 C 
ENDROOT
BRANCH   1   2
ATOM      2  C   UNL     1     120.692 112.268 114.333  1.00  0.00     0.000 C 
BRANCH   2   3
ATOM      3  C   UNL     1     121.389 110.943 113.974  1.00  0.00     0.000 C 
BRANCH   3   4
ATOM      4  C   UNL     1     120.817 110.222 112.738  1.00  0.00     0.000 C 
BRANCH   4   5
ATOM      5  C   UNL     1     119.831 111.088 111.940  1.00  0.00     0.000 C 
BRANCH   5   6
ATOM      6  C   UNL     1     119.070 110.243 110.908  1.00  0.00     0.000 C 
BRANCH   6   7
ATOM      7  C   UNL     1     120.004 109.530 109.913  1.00  0.00     0.006 C 
BRANCH   7   8
ATOM      8  C   UNL     1     120.216 110.286 108.592  1.00  0.00     0.053 C 
BRANCH   8   9
ATOM      9  C   UNL     1     121.516 111.029 108.572  1.00  0.00     0.041 C 
ATOM     10  O   UNL     1     122.431 110.729 109.385  1.00  0.00    -0.550 OA
ATOM     11  O   UNL     1     121.706 112.076 107.680  1.00  0.00    -0.550 OA
ENDBRANCH   8   9
ENDBRANCH   7   8
ENDBRANCH   6   7
ENDBRANCH   5   6
ENDBRANCH   4   5
ENDBRANCH   3   4
ENDBRANCH   2   3
ENDBRANCH   1   2
BRANCH   1  12
ATOM     12  C   UNL     1     121.008 114.707 114.925  1.00  0.00     0.000 C 
BRANCH  12  13
ATOM     13  C   UNL     1     119.611 114.671 114.286  1.00  0.00    -0.000 C 
BRANCH  13  14
ATOM     14  C   UNL     1     118.803 115.950 114.554  1.00  0.00    -0.000 C 
BRANCH  14  15
ATOM     15  C   UNL     1     117.880 115.822 115.774  1.00  0.00    -0.000 C 
BRANCH  15  16
ATOM     16  C   UNL     1     117.615 114.346 116.107  1.00  0.00    -0.000 C 
BRANCH  16  17
ATOM     17  C   UNL     1     117.642 114.060 117.617  1.00  0.00    -0.000 C 
BRANCH  17  18
ATOM     18  C   UNL     1     118.122 112.647 118.001  1.00  0.00    -0.000 C 
BRANCH  18  19
ATOM     19  C   UNL     1     119.649 112.455 117.884  1.00  0.00    -0.003 C 
ATOM     20  C   UNL     1     120.032 111.018 117.531  1.00  0.00     0.004 C 
ENDBRANCH  18  19
ENDBRANCH  17  18
ENDBRANCH  16  17
ENDBRANCH  15  16
ENDBRANCH  14  15
ENDBRANCH  13  14
ENDBRANCH  12  13
ENDBRANCH   1  12
TORSDOF 16
ENDMDL
MODEL 9
REMARK VINA RESULT:    -3.855      5.813      8.455
REMARK INTER + INTRA:          -9.576
REMARK INTER:                  -6.962
REMARK INTRA:                  -2.614
REMARK UNBOUND:                -2.115
REMARK SMILES CCCCCCCCCCCCCCCCCC(=O)[O-]
REMARK SMILES IDX 10 1 11 2 12 3 13 4 14 5 15 6 16 7 17 8 18 9 19 10 20 11
REMARK SMILES IDX 9 12 8 13 7 14 6 15 5 16 4 17 3 18 2 19 1 20
REMARK H PARENT
REMARK Flexibility Score: inf
ROOT
ATOM      1  C   UNL     1     121.155 111.454 112.764  1.00  0.00     0.000 C 
ENDROOT
BRANCH   1   2
ATOM      2  C   UNL     1     120.485 110.143 112.327  1.00  0.00     0.000 C 
BRANCH   2   3
ATOM      3  C   UNL     1     119.158 110.367 111.579  1.00  0.00     0.000 C 
BRANCH   3   4
ATOM      4  C   UNL     1     119.203 110.065 110.069  1.00  0.00     0.000 C 
BRANCH   4   5
ATOM      5  C   UNL     1     119.548 111.298 109.221  1.00  0.00     0.000 C 
BRANCH   5   6
ATOM      6  C   UNL     1     119.884 110.894 107.777  1.00  0.00     0.000 C 
BRANCH   6   7
ATOM      7  C   UNL     1     119.953 109.368 107.584  1.00  0.00     0.006 C 
BRANCH   7   8
ATOM      8  C   UNL     1     121.213 108.880 106.853  1.00  0.00     0.053 C 
BRANCH   8   9
ATOM      9  C   UNL     1     120.933 107.695 105.981  1.00  0.00     0.041 C 
ATOM     10  O   UNL     1     119.745 107.371 105.714  1.00  0.00    -0.550 OA
ATOM     11  O   UNL     1     121.981 106.927 105.491  1.00  0.00    -0.550 OA
ENDBRANCH   8   9
ENDBRANCH   7   8
ENDBRANCH   6   7
ENDBRANCH   5   6
ENDBRANCH   4   5
ENDBRANCH   3   4
ENDBRANCH   2   3
ENDBRANCH   1   2
BRANCH   1  12
ATOM     12  C   UNL     1     122.516 111.629 112.079  1.00  0.00     0.000 C 
BRANCH  12  13
ATOM     13  C   UNL     1     122.852 110.411 111.205  1.00  0.00    -0.000 C 
BRANCH  13  14
ATOM     14  C   UNL     1     123.148 110.792 109.746  1.00  0.00    -0.000 C 
BRANCH  14  15
ATOM     15  C   UNL     1     122.972 112.294 109.479  1.00  0.00    -0.000 C 
BRANCH  15  16
ATOM     16  C   UNL     1     123.726 112.716 108.209  1.00  0.00    -0.000 C 
BRANCH  16  17
ATOM     17  C   UNL     1     123.196 112.022 106.943  1.00  0.00    -0.000 C 
BRANCH  17  18
ATOM     18  C   UNL     1     122.846 112.972 105.782  1.00  0.00    -0.000 C 
BRANCH  18  19
ATOM     19  C   UNL     1     121.368 113.418 105.766  1.00  0.00    -0.003 C 
ATOM     20  C   UNL     1     121.181 114.844 106.286  1.00  0.00     0.004 C 
ENDBRANCH  18  19
ENDBRANCH  17  18
ENDBRANCH  16  17
ENDBRANCH  15  16
ENDBRANCH  14  15
ENDBRANCH  13  14
ENDBRANCH  12  13
ENDBRANCH   1  12
TORSDOF 16
ENDMDL
