MODEL 1
REMARK VINA RESULT:    -5.861      0.000      0.000
REMARK INTER + INTRA:          -7.385
REMARK INTER:                  -7.060
REMARK INTRA:                  -0.326
REMARK UNBOUND:                -0.326
REMARK SMILES O=c1c(O)c(-c2ccc(O)c(O)c2)oc2cc(O)cc(O)c12
REMARK SMILES IDX 5 1 3 2 2 3 1 4 22 5 20 6 19 7 17 8 16 9 15 10 14 11 6 12
REMARK SMILES IDX 7 13 8 14 9 15 13 16 11 17 10 18 12 20 4 22 21 24 18 26
REMARK H PARENT 10 19 12 21 4 23 21 25 18 27
REMARK Flexibility Score: inf
ROOT
ATOM      1  C   UNL     1      23.821  28.151   6.139  1.00  0.00     0.180 A 
ATOM      2  C   UNL     1      23.478  26.809   5.890  1.00  0.00     0.208 A 
ATOM      3  C   UNL     1      22.664  26.134   6.814  1.00  0.00     0.238 A 
ATOM      4  O   UNL     1      22.359  24.928   6.607  1.00  0.00    -0.285 OA
ATOM      5  C   UNL     1      22.193  26.815   7.956  1.00  0.00     0.111 A 
ATOM      6  C   UNL     1      21.368  26.209   8.933  1.00  0.00     0.134 A 
ATOM      7  C   UNL     1      20.932  26.958  10.037  1.00  0.00     0.093 A 
ATOM      8  C   UNL     1      21.308  28.299  10.182  1.00  0.00     0.123 A 
ATOM      9  C   UNL     1      22.123  28.900   9.221  1.00  0.00     0.094 A 
ATOM     10  C   UNL     1      22.568  28.170   8.114  1.00  0.00     0.146 A 
ATOM     11  O   UNL     1      23.347  28.766   7.218  1.00  0.00    -0.452 OA
ENDROOT
BRANCH   1  12
ATOM     12  C   UNL     1      24.690  28.924   5.222  1.00  0.00     0.025 A 
ATOM     13  C   UNL     1      26.076  29.013   5.429  1.00  0.00     0.016 A 
ATOM     14  C   UNL     1      26.871  29.767   4.564  1.00  0.00     0.051 A 
ATOM     15  C   UNL     1      26.301  30.456   3.487  1.00  0.00     0.157 A 
ATOM     16  C   UNL     1      24.113  29.632   4.156  1.00  0.00     0.062 A 
ATOM     17  C   UNL     1      24.903  30.391   3.283  1.00  0.00     0.158 A 
BRANCH  15  18
ATOM     18  O   UNL     1      27.153  31.188   2.657  1.00  0.00    -0.504 OA
ATOM     19  H   UNL     1      26.834  31.793   1.913  1.00  0.00     0.293 HD
ENDBRANCH  15  18
BRANCH  17  20
ATOM     20  O   UNL     1      24.262  31.058   2.238  1.00  0.00    -0.504 OA
ATOM     21  H   UNL     1      24.630  31.126   1.300  1.00  0.00     0.293 HD
ENDBRANCH  17  20
ENDBRANCH   1  12
BRANCH   2  22
ATOM     22  O   UNL     1      23.916  26.171   4.727  1.00  0.00    -0.502 OA
ATOM     23  H   UNL     1      24.130  26.678   3.877  1.00  0.00     0.293 HD
ENDBRANCH   2  22
BRANCH   6  24
ATOM     24  O   UNL     1      20.976  24.875   8.816  1.00  0.00    -0.507 OA
ATOM     25  H   UNL     1      21.099  24.215   9.573  1.00  0.00     0.293 HD
ENDBRANCH   6  24
BRANCH   8  26
ATOM     26  O   UNL     1      20.875  29.042  11.276  1.00  0.00    -0.508 OA
ATOM     27  H   UNL     1      20.603  30.014  11.183  1.00  0.00     0.293 HD
ENDBRANCH   8  26
TORSDOF 6
ENDMDL
MODEL 2
REMARK VINA RESULT:    -4.633     21.894     22.727
REMARK INTER + INTRA:          -5.906
REMARK INTER:                  -5.576
REMARK INTRA:                  -0.330
REMARK UNBOUND:                -0.326
REMARK SMILES O=c1c(O)c(-c2ccc(O)c(O)c2)oc2cc(O)cc(O)c12
REMARK SMILES IDX 5 1 3 2 2 3 1 4 22 5 20 6 19 7 17 8 16 9 15 10 14 11 6 12
REMARK SMILES IDX 7 13 8 14 9 15 13 16 11 17 10 18 12 20 4 22 21 24 18 26
REMARK H PARENT 10 19 12 21 4 23 21 25 18 27
REMARK Flexibility Score: inf
ROOT
ATOM      1  C   UNL     1      37.582  42.641  16.893  1.00  0.00     0.180 A 
ATOM      2  C   UNL     1      37.721  41.361  17.463  1.00  0.00     0.208 A 
ATOM      3  C   UNL     1      37.042  41.073  18.657  1.00  0.00     0.238 A 
ATOM      4  O   UNL     1      37.168  39.933  19.183  1.00  0.00    -0.285 OA
ATOM      5  C   UNL     1      36.223  42.057  19.248  1.00  0.00     0.111 A 
ATOM      6  C   UNL     1      35.502  41.846  20.447  1.00  0.00     0.134 A 
ATOM      7  C   UNL     1      34.700  42.873  20.967  1.00  0.00     0.093 A 
ATOM      8  C   UNL     1      34.606  44.105  20.310  1.00  0.00     0.123 A 
ATOM      9  C   UNL     1      35.316  44.318  19.127  1.00  0.00     0.094 A 
ATOM     10  C   UNL     1      36.121  43.307  18.594  1.00  0.00     0.146 A 
ATOM     11  O   UNL     1      36.789  43.539  17.469  1.00  0.00    -0.452 OA
ENDROOT
BRANCH   1  12
ATOM     12  C   UNL     1      38.281  43.027  15.646  1.00  0.00     0.025 A 
ATOM     13  C   UNL     1      39.598  43.515  15.667  1.00  0.00     0.016 A 
ATOM     14  C   UNL     1      40.228  43.894  14.480  1.00  0.00     0.051 A 
ATOM     15  C   UNL     1      39.556  43.809  13.255  1.00  0.00     0.157 A 
ATOM     16  C   UNL     1      37.598  42.961  14.421  1.00  0.00     0.062 A 
ATOM     17  C   UNL     1      38.222  43.340  13.225  1.00  0.00     0.158 A 
BRANCH  15  18
ATOM     18  O   UNL     1      40.245  44.201  12.104  1.00  0.00    -0.504 OA
ATOM     19  H   UNL     1      41.248  44.309  12.056  1.00  0.00     0.293 HD
ENDBRANCH  15  18
BRANCH  17  20
ATOM     20  O   UNL     1      37.485  43.236  12.045  1.00  0.00    -0.504 OA
ATOM     21  H   UNL     1      37.277  42.362  11.583  1.00  0.00     0.293 HD
ENDBRANCH  17  20
ENDBRANCH   1  12
BRANCH   2  22
ATOM     22  O   UNL     1      38.500  40.387  16.831  1.00  0.00    -0.502 OA
ATOM     23  H   UNL     1      39.289  39.944  17.286  1.00  0.00     0.293 HD
ENDBRANCH   2  22
BRANCH   6  24
ATOM     24  O   UNL     1      35.574  40.628  21.125  1.00  0.00    -0.507 OA
ATOM     25  H   UNL     1      34.743  40.124  21.407  1.00  0.00     0.293 HD
ENDBRANCH   6  24
BRANCH   8  26
ATOM     26  O   UNL     1      33.809  45.125  20.824  1.00  0.00    -0.508 OA
ATOM     27  H   UNL     1      32.913  44.930  21.257  1.00  0.00     0.293 HD
ENDBRANCH   8  26
TORSDOF 6
ENDMDL
MODEL 3
REMARK VINA RESULT:    -4.501      1.516      2.342
REMARK INTER + INTRA:          -5.747
REMARK INTER:                  -5.419
REMARK INTRA:                  -0.328
REMARK UNBOUND:                -0.326
REMARK SMILES O=c1c(O)c(-c2ccc(O)c(O)c2)oc2cc(O)cc(O)c12
REMARK SMILES IDX 5 1 3 2 2 3 1 4 22 5 20 6 19 7 17 8 16 9 15 10 14 11 6 12
REMARK SMILES IDX 7 13 8 14 9 15 13 16 11 17 10 18 12 20 4 22 21 24 18 26
REMARK H PARENT 10 19 12 21 4 23 21 25 18 27
REMARK Flexibility Score: inf
ROOT
ATOM      1  C   UNL     1      24.291  29.143   4.302  1.00  0.00     0.180 A 
ATOM      2  C   UNL     1      24.158  27.835   3.799  1.00  0.00     0.208 A 
ATOM      3  C   UNL     1      23.639  26.835   4.636  1.00  0.00     0.238 A 
ATOM      4  O   UNL     1      23.525  25.657   4.199  1.00  0.00    -0.285 OA
ATOM      5  C   UNL     1      23.245  27.161   5.950  1.00  0.00     0.111 A 
ATOM      6  C   UNL     1      22.710  26.214   6.855  1.00  0.00     0.134 A 
ATOM      7  C   UNL     1      22.332  26.620   8.144  1.00  0.00     0.093 A 
ATOM      8  C   UNL     1      22.480  27.954   8.543  1.00  0.00     0.123 A 
ATOM      9  C   UNL     1      23.008  28.891   7.653  1.00  0.00     0.094 A 
ATOM     10  C   UNL     1      23.391  28.506   6.366  1.00  0.00     0.146 A 
ATOM     11  O   UNL     1      23.895  29.417   5.541  1.00  0.00    -0.452 OA
ENDROOT
BRANCH   1  12
ATOM     12  C   UNL     1      24.848  30.247   3.487  1.00  0.00     0.025 A 
ATOM     13  C   UNL     1      26.213  30.572   3.532  1.00  0.00     0.016 A 
ATOM     14  C   UNL     1      26.710  31.633   2.772  1.00  0.00     0.051 A 
ATOM     15  C   UNL     1      25.857  32.396   1.966  1.00  0.00     0.157 A 
ATOM     16  C   UNL     1      23.987  31.024   2.697  1.00  0.00     0.062 A 
ATOM     17  C   UNL     1      24.476  32.090   1.931  1.00  0.00     0.158 A 
BRANCH  15  18
ATOM     18  O   UNL     1      26.419  33.440   1.227  1.00  0.00    -0.504 OA
ATOM     19  H   UNL     1      27.393  33.487   0.967  1.00  0.00     0.293 HD
ENDBRANCH  15  18
BRANCH  17  20
ATOM     20  O   UNL     1      23.564  32.812   1.160  1.00  0.00    -0.504 OA
ATOM     21  H   UNL     1      22.826  32.389   0.615  1.00  0.00     0.293 HD
ENDBRANCH  17  20
ENDBRANCH   1  12
BRANCH   2  22
ATOM     22  O   UNL     1      24.510  27.547   2.477  1.00  0.00    -0.502 OA
ATOM     23  H   UNL     1      23.829  27.517   1.728  1.00  0.00     0.293 HD
ENDBRANCH   2  22
BRANCH   6  24
ATOM     24  O   UNL     1      22.549  24.878   6.487  1.00  0.00    -0.507 OA
ATOM     25  H   UNL     1      22.454  24.600   5.518  1.00  0.00     0.293 HD
ENDBRANCH   6  24
BRANCH   8  26
ATOM     26  O   UNL     1      22.104  28.358   9.822  1.00  0.00    -0.508 OA
ATOM     27  H   UNL     1      21.202  28.109  10.213  1.00  0.00     0.293 HD
ENDBRANCH   8  26
TORSDOF 6
ENDMDL
MODEL 4
REMARK VINA RESULT:    -4.433     20.458     22.696
REMARK INTER + INTRA:          -5.666
REMARK INTER:                  -5.639
REMARK INTRA:                  -0.026
REMARK UNBOUND:                -0.326
REMARK SMILES O=c1c(O)c(-c2ccc(O)c(O)c2)oc2cc(O)cc(O)c12
REMARK SMILES IDX 5 1 3 2 2 3 1 4 22 5 20 6 19 7 17 8 16 9 15 10 14 11 6 12
REMARK SMILES IDX 7 13 8 14 9 15 13 16 11 17 10 18 12 20 4 22 21 24 18 26
REMARK H PARENT 10 19 12 21 4 23 21 25 18 27
REMARK Flexibility Score: inf
ROOT
ATOM      1  C   UNL     1      35.757  42.615  18.123  1.00  0.00     0.180 A 
ATOM      2  C   UNL     1      37.123  42.831  18.385  1.00  0.00     0.208 A 
ATOM      3  C   UNL     1      38.077  42.148  17.616  1.00  0.00     0.238 A 
ATOM      4  O   UNL     1      39.305  42.325  17.849  1.00  0.00    -0.285 OA
ATOM      5  C   UNL     1      37.653  41.279  16.590  1.00  0.00     0.111 A 
ATOM      6  C   UNL     1      38.550  40.556  15.768  1.00  0.00     0.134 A 
ATOM      7  C   UNL     1      38.048  39.718  14.760  1.00  0.00     0.093 A 
ATOM      8  C   UNL     1      36.669  39.590  14.560  1.00  0.00     0.123 A 
ATOM      9  C   UNL     1      35.781  40.301  15.370  1.00  0.00     0.094 A 
ATOM     10  C   UNL     1      36.261  41.140  16.379  1.00  0.00     0.146 A 
ATOM     11  O   UNL     1      35.393  41.801  17.138  1.00  0.00    -0.452 OA
ENDROOT
BRANCH   1  12
ATOM     12  C   UNL     1      34.691  43.285  18.903  1.00  0.00     0.025 A 
ATOM     13  C   UNL     1      34.692  43.267  20.308  1.00  0.00     0.016 A 
ATOM     14  C   UNL     1      33.663  43.885  21.021  1.00  0.00     0.051 A 
ATOM     15  C   UNL     1      32.610  44.519  20.352  1.00  0.00     0.157 A 
ATOM     16  C   UNL     1      33.624  43.900  18.230  1.00  0.00     0.062 A 
ATOM     17  C   UNL     1      32.587  44.523  18.937  1.00  0.00     0.158 A 
BRANCH  15  18
ATOM     18  O   UNL     1      31.614  45.122  21.125  1.00  0.00    -0.504 OA
ATOM     19  H   UNL     1      31.241  44.724  21.975  1.00  0.00     0.293 HD
ENDBRANCH  15  18
BRANCH  17  20
ATOM     20  O   UNL     1      31.566  45.125  18.201  1.00  0.00    -0.504 OA
ATOM     21  H   UNL     1      31.602  46.073  17.855  1.00  0.00     0.293 HD
ENDBRANCH  17  20
ENDBRANCH   1  12
BRANCH   2  22
ATOM     22  O   UNL     1      37.518  43.735  19.375  1.00  0.00    -0.502 OA
ATOM     23  H   UNL     1      38.475  43.798  19.702  1.00  0.00     0.293 HD
ENDBRANCH   2  22
BRANCH   6  24
ATOM     24  O   UNL     1      39.930  40.663  15.941  1.00  0.00    -0.507 OA
ATOM     25  H   UNL     1      40.415  40.167  16.679  1.00  0.00     0.293 HD
ENDBRANCH   6  24
BRANCH   8  26
ATOM     26  O   UNL     1      36.170  38.759  13.560  1.00  0.00    -0.508 OA
ATOM     27  H   UNL     1      35.662  39.132  12.766  1.00  0.00     0.293 HD
ENDBRANCH   8  26
TORSDOF 6
ENDMDL
MODEL 5
REMARK VINA RESULT:    -4.201      1.725      2.536
REMARK INTER + INTRA:          -5.387
REMARK INTER:                  -5.847
REMARK INTRA:                   0.461
REMARK UNBOUND:                -0.326
REMARK SMILES O=c1c(O)c(-c2ccc(O)c(O)c2)oc2cc(O)cc(O)c12
REMARK SMILES IDX 5 1 3 2 2 3 1 4 22 5 20 6 19 7 17 8 16 9 15 10 14 11 6 12
REMARK SMILES IDX 7 13 8 14 9 15 13 16 11 17 10 18 12 20 4 22 21 24 18 26
REMARK H PARENT 10 19 12 21 4 23 21 25 18 27
REMARK Flexibility Score: inf
ROOT
ATOM      1  C   UNL     1      22.713  27.369   6.771  1.00  0.00     0.180 A 
ATOM      2  C   UNL     1      22.463  26.171   7.467  1.00  0.00     0.208 A 
ATOM      3  C   UNL     1      21.945  26.239   8.770  1.00  0.00     0.238 A 
ATOM      4  O   UNL     1      21.727  25.172   9.407  1.00  0.00    -0.285 OA
ATOM      5  C   UNL     1      21.670  27.496   9.346  1.00  0.00     0.111 A 
ATOM      6  C   UNL     1      21.145  27.652  10.651  1.00  0.00     0.134 A 
ATOM      7  C   UNL     1      20.888  28.938  11.149  1.00  0.00     0.093 A 
ATOM      8  C   UNL     1      21.147  30.070  10.367  1.00  0.00     0.123 A 
ATOM      9  C   UNL     1      21.666  29.921   9.079  1.00  0.00     0.094 A 
ATOM     10  C   UNL     1      21.929  28.648   8.566  1.00  0.00     0.146 A 
ATOM     11  O   UNL     1      22.427  28.536   7.339  1.00  0.00    -0.452 OA
ENDROOT
BRANCH   1  12
ATOM     12  C   UNL     1      23.275  27.380   5.401  1.00  0.00     0.025 A 
ATOM     13  C   UNL     1      23.614  26.188   4.739  1.00  0.00     0.016 A 
ATOM     14  C   UNL     1      24.165  26.225   3.457  1.00  0.00     0.051 A 
ATOM     15  C   UNL     1      24.400  27.447   2.816  1.00  0.00     0.157 A 
ATOM     16  C   UNL     1      23.531  28.606   4.769  1.00  0.00     0.062 A 
ATOM     17  C   UNL     1      24.084  28.654   3.482  1.00  0.00     0.158 A 
BRANCH  15  18
ATOM     18  O   UNL     1      24.950  27.414   1.532  1.00  0.00    -0.504 OA
ATOM     19  H   UNL     1      25.793  26.913   1.291  1.00  0.00     0.293 HD
ENDBRANCH  15  18
BRANCH  17  20
ATOM     20  O   UNL     1      24.300  29.909   2.912  1.00  0.00    -0.504 OA
ATOM     21  H   UNL     1      24.652  30.708   3.420  1.00  0.00     0.293 HD
ENDBRANCH  17  20
ENDBRANCH   1  12
BRANCH   2  22
ATOM     22  O   UNL     1      22.698  24.936   6.856  1.00  0.00    -0.502 OA
ATOM     23  H   UNL     1      22.945  24.853   5.877  1.00  0.00     0.293 HD
ENDBRANCH   2  22
BRANCH   6  24
ATOM     24  O   UNL     1      20.875  26.543  11.454  1.00  0.00    -0.507 OA
ATOM     25  H   UNL     1      21.586  26.125  12.042  1.00  0.00     0.293 HD
ENDBRANCH   6  24
BRANCH   8  26
ATOM     26  O   UNL     1      20.892  31.347  10.860  1.00  0.00    -0.508 OA
ATOM     27  H   UNL     1      20.255  31.980  10.388  1.00  0.00     0.293 HD
ENDBRANCH   8  26
TORSDOF 6
ENDMDL
MODEL 6
REMARK VINA RESULT:    -3.810     21.009     22.920
REMARK INTER + INTRA:          -4.915
REMARK INTER:                  -5.340
REMARK INTRA:                   0.424
REMARK UNBOUND:                -0.326
REMARK SMILES O=c1c(O)c(-c2ccc(O)c(O)c2)oc2cc(O)cc(O)c12
REMARK SMILES IDX 5 1 3 2 2 3 1 4 22 5 20 6 19 7 17 8 16 9 15 10 14 11 6 12
REMARK SMILES IDX 7 13 8 14 9 15 13 16 11 17 10 18 12 20 4 22 21 24 18 26
REMARK H PARENT 10 19 12 21 4 23 21 25 18 27
REMARK Flexibility Score: inf
ROOT
ATOM      1  C   UNL     1      39.037  42.389  16.233  1.00  0.00     0.180 A 
ATOM      2  C   UNL     1      39.286  42.832  17.545  1.00  0.00     0.208 A 
ATOM      3  C   UNL     1      38.706  42.135  18.617  1.00  0.00     0.238 A 
ATOM      4  O   UNL     1      38.913  42.529  19.798  1.00  0.00    -0.285 OA
ATOM      5  C   UNL     1      37.906  41.003  18.361  1.00  0.00     0.111 A 
ATOM      6  C   UNL     1      37.288  40.245  19.384  1.00  0.00     0.134 A 
ATOM      7  C   UNL     1      36.514  39.123  19.048  1.00  0.00     0.093 A 
ATOM      8  C   UNL     1      36.347  38.748  17.709  1.00  0.00     0.123 A 
ATOM      9  C   UNL     1      36.954  39.494  16.697  1.00  0.00     0.094 A 
ATOM     10  C   UNL     1      37.728  40.614  17.013  1.00  0.00     0.146 A 
ATOM     11  O   UNL     1      38.291  41.309  16.029  1.00  0.00    -0.452 OA
ENDROOT
BRANCH   1  12
ATOM     12  C   UNL     1      39.598  43.082  15.050  1.00  0.00     0.025 A 
ATOM     13  C   UNL     1      40.216  44.338  15.162  1.00  0.00     0.016 A 
ATOM     14  C   UNL     1      40.717  44.981  14.029  1.00  0.00     0.051 A 
ATOM     15  C   UNL     1      40.599  44.394  12.764  1.00  0.00     0.157 A 
ATOM     16  C   UNL     1      39.460  42.501  13.779  1.00  0.00     0.062 A 
ATOM     17  C   UNL     1      39.959  43.139  12.636  1.00  0.00     0.158 A 
BRANCH  15  18
ATOM     18  O   UNL     1      41.125  45.089  11.671  1.00  0.00    -0.504 OA
ATOM     19  H   UNL     1      41.907  44.765  11.119  1.00  0.00     0.293 HD
ENDBRANCH  15  18
BRANCH  17  20
ATOM     20  O   UNL     1      39.796  42.497  11.408  1.00  0.00    -0.504 OA
ATOM     21  H   UNL     1      39.056  41.839  11.208  1.00  0.00     0.293 HD
ENDBRANCH  17  20
ENDBRANCH   1  12
BRANCH   2  22
ATOM     22  O   UNL     1      40.122  43.928  17.776  1.00  0.00    -0.502 OA
ATOM     23  H   UNL     1      40.985  43.851  18.300  1.00  0.00     0.293 HD
ENDBRANCH   2  22
BRANCH   6  24
ATOM     24  O   UNL     1      37.436  40.593  20.727  1.00  0.00    -0.507 OA
ATOM     25  H   UNL     1      37.094  39.999  21.473  1.00  0.00     0.293 HD
ENDBRANCH   6  24
BRANCH   8  26
ATOM     26  O   UNL     1      35.580  37.635  17.375  1.00  0.00    -0.508 OA
ATOM     27  H   UNL     1      34.791  37.345  17.942  1.00  0.00     0.293 HD
ENDBRANCH   8  26
TORSDOF 6
ENDMDL
MODEL 7
REMARK VINA RESULT:    -3.784     22.353     23.178
REMARK INTER + INTRA:          -4.883
REMARK INTER:                  -4.558
REMARK INTRA:                  -0.325
REMARK UNBOUND:                -0.326
REMARK SMILES O=c1c(O)c(-c2ccc(O)c(O)c2)oc2cc(O)cc(O)c12
REMARK SMILES IDX 5 1 3 2 2 3 1 4 22 5 20 6 19 7 17 8 16 9 15 10 14 11 6 12
REMARK SMILES IDX 7 13 8 14 9 15 13 16 11 17 10 18 12 20 4 22 21 24 18 26
REMARK H PARENT 10 19 12 21 4 23 21 25 18 27
REMARK Flexibility Score: inf
ROOT
ATOM      1  C   UNL     1      37.865  43.480  16.350  1.00  0.00     0.180 A 
ATOM      2  C   UNL     1      36.628  44.118  16.559  1.00  0.00     0.208 A 
ATOM      3  C   UNL     1      35.858  43.754  17.675  1.00  0.00     0.238 A 
ATOM      4  O   UNL     1      34.742  44.312  17.867  1.00  0.00    -0.285 OA
ATOM      5  C   UNL     1      36.342  42.778  18.569  1.00  0.00     0.111 A 
ATOM      6  C   UNL     1      35.629  42.357  19.717  1.00  0.00     0.134 A 
ATOM      7  C   UNL     1      36.185  41.386  20.564  1.00  0.00     0.093 A 
ATOM      8  C   UNL     1      37.438  40.828  20.283  1.00  0.00     0.123 A 
ATOM      9  C   UNL     1      38.144  41.240  19.151  1.00  0.00     0.094 A 
ATOM     10  C   UNL     1      37.607  42.205  18.295  1.00  0.00     0.146 A 
ATOM     11  O   UNL     1      38.298  42.574  17.222  1.00  0.00    -0.452 OA
ENDROOT
BRANCH   1  12
ATOM     12  C   UNL     1      38.726  43.795  15.188  1.00  0.00     0.025 A 
ATOM     13  C   UNL     1      39.675  44.830  15.239  1.00  0.00     0.016 A 
ATOM     14  C   UNL     1      40.459  45.123  14.122  1.00  0.00     0.051 A 
ATOM     15  C   UNL     1      40.305  44.403  12.932  1.00  0.00     0.157 A 
ATOM     16  C   UNL     1      38.556  43.086  13.988  1.00  0.00     0.062 A 
ATOM     17  C   UNL     1      39.337  43.373  12.862  1.00  0.00     0.158 A 
BRANCH  15  18
ATOM     18  O   UNL     1      41.124  44.744  11.852  1.00  0.00    -0.504 OA
ATOM     19  H   UNL     1      40.821  45.305  11.069  1.00  0.00     0.293 HD
ENDBRANCH  15  18
BRANCH  17  20
ATOM     20  O   UNL     1      39.120  42.619  11.708  1.00  0.00    -0.504 OA
ATOM     21  H   UNL     1      38.328  42.006  11.575  1.00  0.00     0.293 HD
ENDBRANCH  17  20
ENDBRANCH   1  12
BRANCH   2  22
ATOM     22  O   UNL     1      36.192  45.118  15.686  1.00  0.00    -0.502 OA
ATOM     23  H   UNL     1      36.558  46.062  15.715  1.00  0.00     0.293 HD
ENDBRANCH   2  22
BRANCH   6  24
ATOM     24  O   UNL     1      34.379  42.895  20.024  1.00  0.00    -0.507 OA
ATOM     25  H   UNL     1      34.035  42.937  20.976  1.00  0.00     0.293 HD
ENDBRANCH   6  24
BRANCH   8  26
ATOM     26  O   UNL     1      37.990  39.865  21.124  1.00  0.00    -0.508 OA
ATOM     27  H   UNL     1      37.624  38.921  21.160  1.00  0.00     0.293 HD
ENDBRANCH   8  26
TORSDOF 6
ENDMDL
MODEL 8
REMARK VINA RESULT:    -3.657      1.537      6.777
REMARK INTER + INTRA:          -4.731
REMARK INTER:                  -4.477
REMARK INTRA:                  -0.254
REMARK UNBOUND:                -0.326
REMARK SMILES O=c1c(O)c(-c2ccc(O)c(O)c2)oc2cc(O)cc(O)c12
REMARK SMILES IDX 5 1 3 2 2 3 1 4 22 5 20 6 19 7 17 8 16 9 15 10 14 11 6 12
REMARK SMILES IDX 7 13 8 14 9 15 13 16 11 17 10 18 12 20 4 22 21 24 18 26
REMARK H PARENT 10 19 12 21 4 23 21 25 18 27
REMARK Flexibility Score: inf
ROOT
ATOM      1  C   UNL     1      22.854  28.003   6.919  1.00  0.00     0.180 A 
ATOM      2  C   UNL     1      22.109  27.794   5.744  1.00  0.00     0.208 A 
ATOM      3  C   UNL     1      22.633  28.240   4.520  1.00  0.00     0.238 A 
ATOM      4  O   UNL     1      21.968  28.068   3.462  1.00  0.00    -0.285 OA
ATOM      5  C   UNL     1      23.895  28.867   4.489  1.00  0.00     0.111 A 
ATOM      6  C   UNL     1      24.494  29.342   3.298  1.00  0.00     0.134 A 
ATOM      7  C   UNL     1      25.759  29.947   3.350  1.00  0.00     0.093 A 
ATOM      8  C   UNL     1      26.434  30.085   4.569  1.00  0.00     0.123 A 
ATOM      9  C   UNL     1      25.846  29.619   5.746  1.00  0.00     0.094 A 
ATOM     10  C   UNL     1      24.586  29.014   5.715  1.00  0.00     0.146 A 
ATOM     11  O   UNL     1      24.048  28.584   6.851  1.00  0.00    -0.452 OA
ENDROOT
BRANCH   1  12
ATOM     12  C   UNL     1      22.362  27.578   8.250  1.00  0.00     0.025 A 
ATOM     13  C   UNL     1      22.339  26.224   8.624  1.00  0.00     0.016 A 
ATOM     14  C   UNL     1      21.848  25.846   9.875  1.00  0.00     0.051 A 
ATOM     15  C   UNL     1      21.359  26.805  10.769  1.00  0.00     0.157 A 
ATOM     16  C   UNL     1      21.851  28.538   9.137  1.00  0.00     0.062 A 
ATOM     17  C   UNL     1      21.356  28.169  10.394  1.00  0.00     0.158 A 
BRANCH  15  18
ATOM     18  O   UNL     1      20.885  26.361  12.007  1.00  0.00    -0.504 OA
ATOM     19  H   UNL     1      19.975  26.591  12.378  1.00  0.00     0.293 HD
ENDBRANCH  15  18
BRANCH  17  20
ATOM     20  O   UNL     1      20.875  29.179  11.228  1.00  0.00    -0.504 OA
ATOM     21  H   UNL     1      20.167  29.847  10.956  1.00  0.00     0.293 HD
ENDBRANCH  17  20
ENDBRANCH   1  12
BRANCH   2  22
ATOM     22  O   UNL     1      20.882  27.126   5.794  1.00  0.00    -0.502 OA
ATOM     23  H   UNL     1      20.814  26.115   5.811  1.00  0.00     0.293 HD
ENDBRANCH   2  22
BRANCH   6  24
ATOM     24  O   UNL     1      23.847  29.218   2.068  1.00  0.00    -0.507 OA
ATOM     25  H   UNL     1      22.890  29.520   1.936  1.00  0.00     0.293 HD
ENDBRANCH   6  24
BRANCH   8  26
ATOM     26  O   UNL     1      27.690  30.684   4.620  1.00  0.00    -0.508 OA
ATOM     27  H   UNL     1      28.095  31.137   3.808  1.00  0.00     0.293 HD
ENDBRANCH   8  26
TORSDOF 6
ENDMDL
