MODEL 1
REMARK VINA RESULT:    -6.980      0.000      0.000
REMARK INTER + INTRA:          -8.696
REMARK INTER:                  -8.408
REMARK INTRA:                  -0.288
REMARK UNBOUND:                -0.288
REMARK SMILES O=c1c(O)c(-c2ccc(O)c(O)c2)oc2cc(O)cc(O)c12
REMARK SMILES IDX 5 1 3 2 2 3 1 4 22 5 20 6 19 7 17 8 16 9 15 10 14 11 6 12
REMARK SMILES IDX 7 13 8 14 9 15 13 16 11 17 10 18 12 20 4 22 21 24 18 26
REMARK H PARENT 10 19 12 21 4 23 21 25 18 27
REMARK Flexibility Score: inf
ROOT
ATOM      1  C   UNL     1     130.465 125.198 125.075  1.00  0.00     0.180 A 
ATOM      2  C   UNL     1     131.752 125.736 125.252  1.00  0.00     0.208 A 
ATOM      3  C   UNL     1     132.350 126.432 124.189  1.00  0.00     0.238 A 
ATOM      4  O   UNL     1     133.479 126.958 124.371  1.00  0.00    -0.285 OA
ATOM      5  C   UNL     1     131.662 126.568 122.960  1.00  0.00     0.111 A 
ATOM      6  C   UNL     1     132.189 127.219 121.803  1.00  0.00     0.134 A 
ATOM      7  C   UNL     1     131.370 127.410 120.685  1.00  0.00     0.093 A 
ATOM      8  C   UNL     1     130.064 126.915 120.655  1.00  0.00     0.123 A 
ATOM      9  C   UNL     1     129.560 126.226 121.756  1.00  0.00     0.094 A 
ATOM     10  C   UNL     1     130.342 126.052 122.901  1.00  0.00     0.146 A 
ATOM     11  O   UNL     1     129.819 125.399 123.932  1.00  0.00    -0.452 OA
ENDROOT
BRANCH   1  12
ATOM     12  C   UNL     1     129.780 124.429 126.139  1.00  0.00     0.025 A 
ATOM     13  C   UNL     1     129.157 125.073 127.223  1.00  0.00     0.016 A 
ATOM     14  C   UNL     1     128.538 124.325 128.228  1.00  0.00     0.051 A 
ATOM     15  C   UNL     1     128.542 122.926 128.172  1.00  0.00     0.157 A 
ATOM     16  C   UNL     1     129.800 123.025 126.100  1.00  0.00     0.062 A 
ATOM     17  C   UNL     1     129.180 122.273 127.104  1.00  0.00     0.158 A 
BRANCH  15  18
ATOM     18  O   UNL     1     127.921 122.182 129.175  1.00  0.00    -0.504 OA
ATOM     19  H   UNL     1     128.459 121.671 129.865  1.00  0.00     0.293 HD
ENDBRANCH  15  18
BRANCH  17  20
ATOM     20  O   UNL     1     129.208 120.881 127.023  1.00  0.00    -0.504 OA
ATOM     21  H   UNL     1     128.577 120.364 126.422  1.00  0.00     0.293 HD
ENDBRANCH  17  20
ENDBRANCH   1  12
BRANCH   2  22
ATOM     22  O   UNL     1     132.405 125.608 126.481  1.00  0.00    -0.502 OA
ATOM     23  H   UNL     1     133.361 125.912 126.623  1.00  0.00     0.293 HD
ENDBRANCH   2  22
BRANCH   6  24
ATOM     24  O   UNL     1     133.509 127.668 121.694  1.00  0.00    -0.507 OA
ATOM     25  H   UNL     1     133.793 128.634 121.754  1.00  0.00     0.293 HD
ENDBRANCH   6  24
BRANCH   8  26
ATOM     26  O   UNL     1     129.260 127.095 119.532  1.00  0.00    -0.508 OA
ATOM     27  H   UNL     1     128.762 127.962 119.370  1.00  0.00     0.293 HD
ENDBRANCH   8  26
TORSDOF 6
ENDMDL
MODEL 2
REMARK VINA RESULT:    -6.545      4.907      7.553
REMARK INTER + INTRA:          -8.172
REMARK INTER:                  -7.944
REMARK INTRA:                  -0.227
REMARK UNBOUND:                -0.288
REMARK SMILES O=c1c(O)c(-c2ccc(O)c(O)c2)oc2cc(O)cc(O)c12
REMARK SMILES IDX 5 1 3 2 2 3 1 4 22 5 20 6 19 7 17 8 16 9 15 10 14 11 6 12
REMARK SMILES IDX 7 13 8 14 9 15 13 16 11 17 10 18 12 20 4 22 21 24 18 26
REMARK H PARENT 10 19 12 21 4 23 21 25 18 27
REMARK Flexibility Score: inf
ROOT
ATOM      1  C   UNL     1     133.525 129.848 123.717  1.00  0.00     0.180 A 
ATOM      2  C   UNL     1     134.827 129.441 124.058  1.00  0.00     0.208 A 
ATOM      3  C   UNL     1     135.631 130.302 124.822  1.00  0.00     0.238 A 
ATOM      4  O   UNL     1     136.776 129.910 125.169  1.00  0.00    -0.285 OA
ATOM      5  C   UNL     1     135.130 131.564 125.222  1.00  0.00     0.111 A 
ATOM      6  C   UNL     1     135.872 132.533 125.963  1.00  0.00     0.134 A 
ATOM      7  C   UNL     1     135.233 133.692 126.417  1.00  0.00     0.093 A 
ATOM      8  C   UNL     1     133.898 133.950 126.100  1.00  0.00     0.123 A 
ATOM      9  C   UNL     1     133.182 133.040 125.326  1.00  0.00     0.094 A 
ATOM     10  C   UNL     1     133.782 131.856 124.889  1.00  0.00     0.146 A 
ATOM     11  O   UNL     1     133.061 131.010 124.163  1.00  0.00    -0.452 OA
ENDROOT
BRANCH   1  12
ATOM     12  C   UNL     1     132.627 129.007 122.894  1.00  0.00     0.025 A 
ATOM     13  C   UNL     1     132.893 128.763 121.535  1.00  0.00     0.016 A 
ATOM     14  C   UNL     1     132.019 127.987 120.771  1.00  0.00     0.051 A 
ATOM     15  C   UNL     1     130.860 127.453 121.349  1.00  0.00     0.157 A 
ATOM     16  C   UNL     1     131.452 128.487 123.462  1.00  0.00     0.062 A 
ATOM     17  C   UNL     1     130.574 127.708 122.701  1.00  0.00     0.158 A 
BRANCH  15  18
ATOM     18  O   UNL     1     129.990 126.676 120.585  1.00  0.00    -0.504 OA
ATOM     19  H   UNL     1     130.207 126.420 119.629  1.00  0.00     0.293 HD
ENDBRANCH  15  18
BRANCH  17  20
ATOM     20  O   UNL     1     129.425 127.196 123.303  1.00  0.00    -0.504 OA
ATOM     21  H   UNL     1     128.495 127.452 122.991  1.00  0.00     0.293 HD
ENDBRANCH  17  20
ENDBRANCH   1  12
BRANCH   2  22
ATOM     22  O   UNL     1     135.294 128.182 123.671  1.00  0.00    -0.502 OA
ATOM     23  H   UNL     1     136.160 128.056 123.161  1.00  0.00     0.293 HD
ENDBRANCH   2  22
BRANCH   6  24
ATOM     24  O   UNL     1     137.235 132.416 126.255  1.00  0.00    -0.507 OA
ATOM     25  H   UNL     1     137.873 133.193 126.339  1.00  0.00     0.293 HD
ENDBRANCH   6  24
BRANCH   8  26
ATOM     26  O   UNL     1     133.274 135.115 126.542  1.00  0.00    -0.508 OA
ATOM     27  H   UNL     1     133.490 135.521 127.444  1.00  0.00     0.293 HD
ENDBRANCH   8  26
TORSDOF 6
ENDMDL
MODEL 3
REMARK VINA RESULT:    -6.494      4.226      6.507
REMARK INTER + INTRA:          -8.110
REMARK INTER:                  -7.787
REMARK INTRA:                  -0.323
REMARK UNBOUND:                -0.288
REMARK SMILES O=c1c(O)c(-c2ccc(O)c(O)c2)oc2cc(O)cc(O)c12
REMARK SMILES IDX 5 1 3 2 2 3 1 4 22 5 20 6 19 7 17 8 16 9 15 10 14 11 6 12
REMARK SMILES IDX 7 13 8 14 9 15 13 16 11 17 10 18 12 20 4 22 21 24 18 26
REMARK H PARENT 10 19 12 21 4 23 21 25 18 27
REMARK Flexibility Score: inf
ROOT
ATOM      1  C   UNL     1     132.135 128.203 123.260  1.00  0.00     0.180 A 
ATOM      2  C   UNL     1     132.870 127.308 124.055  1.00  0.00     0.208 A 
ATOM      3  C   UNL     1     133.830 127.818 124.944  1.00  0.00     0.238 A 
ATOM      4  O   UNL     1     134.448 127.015 125.692  1.00  0.00    -0.285 OA
ATOM      5  C   UNL     1     134.054 129.213 125.015  1.00  0.00     0.111 A 
ATOM      6  C   UNL     1     135.030 129.836 125.850  1.00  0.00     0.134 A 
ATOM      7  C   UNL     1     135.074 131.233 125.936  1.00  0.00     0.093 A 
ATOM      8  C   UNL     1     134.223 132.030 125.168  1.00  0.00     0.123 A 
ATOM      9  C   UNL     1     133.307 131.432 124.305  1.00  0.00     0.094 A 
ATOM     10  C   UNL     1     133.215 130.040 124.224  1.00  0.00     0.146 A 
ATOM     11  O   UNL     1     132.322 129.511 123.397  1.00  0.00    -0.452 OA
ENDROOT
BRANCH   1  12
ATOM     12  C   UNL     1     131.124 127.740 122.282  1.00  0.00     0.025 A 
ATOM     13  C   UNL     1     131.493 127.309 120.995  1.00  0.00     0.016 A 
ATOM     14  C   UNL     1     130.519 126.900 120.081  1.00  0.00     0.051 A 
ATOM     15  C   UNL     1     129.164 126.926 120.432  1.00  0.00     0.157 A 
ATOM     16  C   UNL     1     129.762 127.785 122.622  1.00  0.00     0.062 A 
ATOM     17  C   UNL     1     128.784 127.375 121.709  1.00  0.00     0.158 A 
BRANCH  15  18
ATOM     18  O   UNL     1     128.194 126.515 119.519  1.00  0.00    -0.504 OA
ATOM     19  H   UNL     1     128.242 126.777 118.541  1.00  0.00     0.293 HD
ENDBRANCH  15  18
BRANCH  17  20
ATOM     20  O   UNL     1     127.442 127.420 122.087  1.00  0.00    -0.504 OA
ATOM     21  H   UNL     1     126.743 126.820 121.663  1.00  0.00     0.293 HD
ENDBRANCH  17  20
ENDBRANCH   1  12
BRANCH   2  22
ATOM     22  O   UNL     1     132.619 125.935 123.986  1.00  0.00    -0.502 OA
ATOM     23  H   UNL     1     132.630 125.337 124.803  1.00  0.00     0.293 HD
ENDBRANCH   2  22
BRANCH   6  24
ATOM     24  O   UNL     1     135.988 129.135 126.588  1.00  0.00    -0.507 OA
ATOM     25  H   UNL     1     136.094 129.188 127.590  1.00  0.00     0.293 HD
ENDBRANCH   6  24
BRANCH   8  26
ATOM     26  O   UNL     1     134.284 133.419 125.247  1.00  0.00    -0.508 OA
ATOM     27  H   UNL     1     134.440 133.990 124.425  1.00  0.00     0.293 HD
ENDBRANCH   8  26
TORSDOF 6
ENDMDL
MODEL 4
REMARK VINA RESULT:    -6.399     12.686     15.364
REMARK INTER + INTRA:          -7.997
REMARK INTER:                  -7.869
REMARK INTRA:                  -0.127
REMARK UNBOUND:                -0.288
REMARK SMILES O=c1c(O)c(-c2ccc(O)c(O)c2)oc2cc(O)cc(O)c12
REMARK SMILES IDX 5 1 3 2 2 3 1 4 22 5 20 6 19 7 17 8 16 9 15 10 14 11 6 12
REMARK SMILES IDX 7 13 8 14 9 15 13 16 11 17 10 18 12 20 4 22 21 24 18 26
REMARK H PARENT 10 19 12 21 4 23 21 25 18 27
REMARK Flexibility Score: inf
ROOT
ATOM      1  C   UNL     1     139.288 135.130 128.985  1.00  0.00     0.180 A 
ATOM      2  C   UNL     1     140.495 135.498 128.364  1.00  0.00     0.208 A 
ATOM      3  C   UNL     1     141.629 135.720 129.160  1.00  0.00     0.238 A 
ATOM      4  O   UNL     1     142.720 135.997 128.595  1.00  0.00    -0.285 OA
ATOM      5  C   UNL     1     141.540 135.589 130.566  1.00  0.00     0.111 A 
ATOM      6  C   UNL     1     142.617 135.831 131.473  1.00  0.00     0.134 A 
ATOM      7  C   UNL     1     142.451 135.543 132.833  1.00  0.00     0.093 A 
ATOM      8  C   UNL     1     141.229 135.085 133.330  1.00  0.00     0.123 A 
ATOM      9  C   UNL     1     140.154 134.903 132.462  1.00  0.00     0.094 A 
ATOM     10  C   UNL     1     140.299 135.147 131.093  1.00  0.00     0.146 A 
ATOM     11  O   UNL     1     139.253 134.951 130.300  1.00  0.00    -0.452 OA
ENDROOT
BRANCH   1  12
ATOM     12  C   UNL     1     138.044 134.903 128.215  1.00  0.00     0.025 A 
ATOM     13  C   UNL     1     137.958 133.892 127.242  1.00  0.00     0.016 A 
ATOM     14  C   UNL     1     136.781 133.713 126.511  1.00  0.00     0.051 A 
ATOM     15  C   UNL     1     135.677 134.547 126.733  1.00  0.00     0.157 A 
ATOM     16  C   UNL     1     136.941 135.750 128.418  1.00  0.00     0.062 A 
ATOM     17  C   UNL     1     135.760 135.573 127.689  1.00  0.00     0.158 A 
BRANCH  15  18
ATOM     18  O   UNL     1     134.503 134.365 126.004  1.00  0.00    -0.504 OA
ATOM     19  H   UNL     1     134.217 135.020 125.286  1.00  0.00     0.293 HD
ENDBRANCH  15  18
BRANCH  17  20
ATOM     20  O   UNL     1     134.682 136.425 127.928  1.00  0.00    -0.504 OA
ATOM     21  H   UNL     1     134.741 137.424 127.771  1.00  0.00     0.293 HD
ENDBRANCH  17  20
ENDBRANCH   1  12
BRANCH   2  22
ATOM     22  O   UNL     1     140.567 135.601 126.972  1.00  0.00    -0.502 OA
ATOM     23  H   UNL     1     141.023 134.903 126.397  1.00  0.00     0.293 HD
ENDBRANCH   2  22
BRANCH   6  24
ATOM     24  O   UNL     1     143.849 136.374 131.095  1.00  0.00    -0.507 OA
ATOM     25  H   UNL     1     144.243 136.313 130.169  1.00  0.00     0.293 HD
ENDBRANCH   6  24
BRANCH   8  26
ATOM     26  O   UNL     1     141.068 134.816 134.687  1.00  0.00    -0.508 OA
ATOM     27  H   UNL     1     140.238 134.355 135.040  1.00  0.00     0.293 HD
ENDBRANCH   8  26
TORSDOF 6
ENDMDL
MODEL 5
REMARK VINA RESULT:    -6.366     11.611     13.190
REMARK INTER + INTRA:          -7.957
REMARK INTER:                  -7.682
REMARK INTRA:                  -0.275
REMARK UNBOUND:                -0.288
REMARK SMILES O=c1c(O)c(-c2ccc(O)c(O)c2)oc2cc(O)cc(O)c12
REMARK SMILES IDX 5 1 3 2 2 3 1 4 22 5 20 6 19 7 17 8 16 9 15 10 14 11 6 12
REMARK SMILES IDX 7 13 8 14 9 15 13 16 11 17 10 18 12 20 4 22 21 24 18 26
REMARK H PARENT 10 19 12 21 4 23 21 25 18 27
REMARK Flexibility Score: inf
ROOT
ATOM      1  C   UNL     1     131.564 136.550 129.137  1.00  0.00     0.180 A 
ATOM      2  C   UNL     1     131.459 135.185 128.818  1.00  0.00     0.208 A 
ATOM      3  C   UNL     1     132.619 134.477 128.467  1.00  0.00     0.238 A 
ATOM      4  O   UNL     1     132.528 133.243 128.235  1.00  0.00    -0.285 OA
ATOM      5  C   UNL     1     133.866 135.145 128.424  1.00  0.00     0.111 A 
ATOM      6  C   UNL     1     135.100 134.536 128.042  1.00  0.00     0.134 A 
ATOM      7  C   UNL     1     136.293 135.258 128.162  1.00  0.00     0.093 A 
ATOM      8  C   UNL     1     136.290 136.589 128.587  1.00  0.00     0.123 A 
ATOM      9  C   UNL     1     135.085 137.211 128.904  1.00  0.00     0.094 A 
ATOM     10  C   UNL     1     133.882 136.505 128.829  1.00  0.00     0.146 A 
ATOM     11  O   UNL     1     132.757 137.133 129.151  1.00  0.00    -0.452 OA
ENDROOT
BRANCH   1  12
ATOM     12  C   UNL     1     130.382 137.369 129.491  1.00  0.00     0.025 A 
ATOM     13  C   UNL     1     130.090 137.694 130.828  1.00  0.00     0.016 A 
ATOM     14  C   UNL     1     128.955 138.448 131.140  1.00  0.00     0.051 A 
ATOM     15  C   UNL     1     128.091 138.878 130.125  1.00  0.00     0.157 A 
ATOM     16  C   UNL     1     129.501 137.785 128.480  1.00  0.00     0.062 A 
ATOM     17  C   UNL     1     128.365 138.541 128.788  1.00  0.00     0.158 A 
BRANCH  15  18
ATOM     18  O   UNL     1     126.961 139.632 130.439  1.00  0.00    -0.504 OA
ATOM     19  H   UNL     1     126.148 139.644 129.835  1.00  0.00     0.293 HD
ENDBRANCH  15  18
BRANCH  17  20
ATOM     20  O   UNL     1     127.519 138.948 127.756  1.00  0.00    -0.504 OA
ATOM     21  H   UNL     1     126.562 138.624 127.685  1.00  0.00     0.293 HD
ENDBRANCH  17  20
ENDBRANCH   1  12
BRANCH   2  22
ATOM     22  O   UNL     1     130.221 134.540 128.887  1.00  0.00    -0.502 OA
ATOM     23  H   UNL     1     130.068 133.613 128.508  1.00  0.00     0.293 HD
ENDBRANCH   2  22
BRANCH   6  24
ATOM     24  O   UNL     1     135.203 133.244 127.518  1.00  0.00    -0.507 OA
ATOM     25  H   UNL     1     135.330 132.409 128.069  1.00  0.00     0.293 HD
ENDBRANCH   6  24
BRANCH   8  26
ATOM     26  O   UNL     1     137.480 137.306 128.688  1.00  0.00    -0.508 OA
ATOM     27  H   UNL     1     138.348 136.856 128.953  1.00  0.00     0.293 HD
ENDBRANCH   8  26
TORSDOF 6
ENDMDL
MODEL 6
REMARK VINA RESULT:    -6.332      1.912      2.971
REMARK INTER + INTRA:          -7.915
REMARK INTER:                  -7.612
REMARK INTRA:                  -0.303
REMARK UNBOUND:                -0.288
REMARK SMILES O=c1c(O)c(-c2ccc(O)c(O)c2)oc2cc(O)cc(O)c12
REMARK SMILES IDX 5 1 3 2 2 3 1 4 22 5 20 6 19 7 17 8 16 9 15 10 14 11 6 12
REMARK SMILES IDX 7 13 8 14 9 15 13 16 11 17 10 18 12 20 4 22 21 24 18 26
REMARK H PARENT 10 19 12 21 4 23 21 25 18 27
REMARK Flexibility Score: inf
ROOT
ATOM      1  C   UNL     1     129.320 125.628 125.803  1.00  0.00     0.180 A 
ATOM      2  C   UNL     1     128.341 126.545 125.383  1.00  0.00     0.208 A 
ATOM      3  C   UNL     1     128.407 127.061 124.079  1.00  0.00     0.238 A 
ATOM      4  O   UNL     1     127.498 127.840 123.691  1.00  0.00    -0.285 OA
ATOM      5  C   UNL     1     129.458 126.667 123.218  1.00  0.00     0.111 A 
ATOM      6  C   UNL     1     129.645 127.157 121.890  1.00  0.00     0.134 A 
ATOM      7  C   UNL     1     130.643 126.599 121.082  1.00  0.00     0.093 A 
ATOM      8  C   UNL     1     131.503 125.615 121.575  1.00  0.00     0.123 A 
ATOM      9  C   UNL     1     131.367 125.172 122.889  1.00  0.00     0.094 A 
ATOM     10  C   UNL     1     130.357 125.685 123.708  1.00  0.00     0.146 A 
ATOM     11  O   UNL     1     130.256 125.228 124.950  1.00  0.00    -0.452 OA
ENDROOT
BRANCH   1  12
ATOM     12  C   UNL     1     129.332 125.060 127.171  1.00  0.00     0.025 A 
ATOM     13  C   UNL     1     130.174 125.577 128.172  1.00  0.00     0.016 A 
ATOM     14  C   UNL     1     130.186 125.009 129.448  1.00  0.00     0.051 A 
ATOM     15  C   UNL     1     129.368 123.911 129.741  1.00  0.00     0.157 A 
ATOM     16  C   UNL     1     128.530 123.945 127.464  1.00  0.00     0.062 A 
ATOM     17  C   UNL     1     128.539 123.374 128.741  1.00  0.00     0.158 A 
BRANCH  15  18
ATOM     18  O   UNL     1     129.380 123.348 131.016  1.00  0.00    -0.504 OA
ATOM     19  H   UNL     1     128.873 123.768 131.786  1.00  0.00     0.293 HD
ENDBRANCH  15  18
BRANCH  17  20
ATOM     20  O   UNL     1     127.718 122.276 128.999  1.00  0.00    -0.504 OA
ATOM     21  H   UNL     1     127.499 121.589 128.286  1.00  0.00     0.293 HD
ENDBRANCH  17  20
ENDBRANCH   1  12
BRANCH   2  22
ATOM     22  O   UNL     1     127.299 126.905 126.243  1.00  0.00    -0.502 OA
ATOM     23  H   UNL     1     126.554 126.267 126.491  1.00  0.00     0.293 HD
ENDBRANCH   2  22
BRANCH   6  24
ATOM     24  O   UNL     1     128.901 128.201 121.331  1.00  0.00    -0.507 OA
ATOM     25  H   UNL     1     128.077 128.079 120.763  1.00  0.00     0.293 HD
ENDBRANCH   6  24
BRANCH   8  26
ATOM     26  O   UNL     1     132.504 125.077 120.770  1.00  0.00    -0.508 OA
ATOM     27  H   UNL     1     133.481 125.301 120.919  1.00  0.00     0.293 HD
ENDBRANCH   8  26
TORSDOF 6
ENDMDL
MODEL 7
REMARK VINA RESULT:    -6.322      4.974      7.877
REMARK INTER + INTRA:          -7.904
REMARK INTER:                  -7.857
REMARK INTRA:                  -0.047
REMARK UNBOUND:                -0.288
REMARK SMILES O=c1c(O)c(-c2ccc(O)c(O)c2)oc2cc(O)cc(O)c12
REMARK SMILES IDX 5 1 3 2 2 3 1 4 22 5 20 6 19 7 17 8 16 9 15 10 14 11 6 12
REMARK SMILES IDX 7 13 8 14 9 15 13 16 11 17 10 18 12 20 4 22 21 24 18 26
REMARK H PARENT 10 19 12 21 4 23 21 25 18 27
REMARK Flexibility Score: inf
ROOT
ATOM      1  C   UNL     1     132.588 130.623 124.658  1.00  0.00     0.180 A 
ATOM      2  C   UNL     1     131.514 130.174 125.446  1.00  0.00     0.208 A 
ATOM      3  C   UNL     1     130.634 129.217 124.914  1.00  0.00     0.238 A 
ATOM      4  O   UNL     1     129.706 128.778 125.644  1.00  0.00    -0.285 OA
ATOM      5  C   UNL     1     130.829 128.734 123.599  1.00  0.00     0.111 A 
ATOM      6  C   UNL     1     129.975 127.795 122.945  1.00  0.00     0.134 A 
ATOM      7  C   UNL     1     130.338 127.289 121.691  1.00  0.00     0.093 A 
ATOM      8  C   UNL     1     131.488 127.738 121.038  1.00  0.00     0.123 A 
ATOM      9  C   UNL     1     132.296 128.699 121.641  1.00  0.00     0.094 A 
ATOM     10  C   UNL     1     131.979 129.196 122.908  1.00  0.00     0.146 A 
ATOM     11  O   UNL     1     132.782 130.103 123.452  1.00  0.00    -0.452 OA
ENDROOT
BRANCH   1  12
ATOM     12  C   UNL     1     133.542 131.648 125.139  1.00  0.00     0.025 A 
ATOM     13  C   UNL     1     134.923 131.393 125.200  1.00  0.00     0.016 A 
ATOM     14  C   UNL     1     135.802 132.367 125.681  1.00  0.00     0.051 A 
ATOM     15  C   UNL     1     135.314 133.605 126.117  1.00  0.00     0.157 A 
ATOM     16  C   UNL     1     133.056 132.884 125.598  1.00  0.00     0.062 A 
ATOM     17  C   UNL     1     133.933 133.863 126.078  1.00  0.00     0.158 A 
BRANCH  15  18
ATOM     18  O   UNL     1     136.193 134.577 126.594  1.00  0.00    -0.504 OA
ATOM     19  H   UNL     1     135.916 135.236 127.312  1.00  0.00     0.293 HD
ENDBRANCH  15  18
BRANCH  17  20
ATOM     20  O   UNL     1     133.415 135.083 126.513  1.00  0.00    -0.504 OA
ATOM     21  H   UNL     1     132.518 135.151 126.978  1.00  0.00     0.293 HD
ENDBRANCH  17  20
ENDBRANCH   1  12
BRANCH   2  22
ATOM     22  O   UNL     1     131.352 130.647 126.751  1.00  0.00    -0.502 OA
ATOM     23  H   UNL     1     131.114 130.039 127.525  1.00  0.00     0.293 HD
ENDBRANCH   2  22
BRANCH   6  24
ATOM     24  O   UNL     1     128.757 127.351 123.469  1.00  0.00    -0.507 OA
ATOM     25  H   UNL     1     128.006 126.958 122.922  1.00  0.00     0.293 HD
ENDBRANCH   6  24
BRANCH   8  26
ATOM     26  O   UNL     1     131.833 127.241 119.783  1.00  0.00    -0.508 OA
ATOM     27  H   UNL     1     131.405 127.598 118.936  1.00  0.00     0.293 HD
ENDBRANCH   8  26
TORSDOF 6
ENDMDL
MODEL 8
REMARK VINA RESULT:    -6.309      3.368      4.914
REMARK INTER + INTRA:          -7.887
REMARK INTER:                  -7.654
REMARK INTRA:                  -0.233
REMARK UNBOUND:                -0.288
REMARK SMILES O=c1c(O)c(-c2ccc(O)c(O)c2)oc2cc(O)cc(O)c12
REMARK SMILES IDX 5 1 3 2 2 3 1 4 22 5 20 6 19 7 17 8 16 9 15 10 14 11 6 12
REMARK SMILES IDX 7 13 8 14 9 15 13 16 11 17 10 18 12 20 4 22 21 24 18 26
REMARK H PARENT 10 19 12 21 4 23 21 25 18 27
REMARK Flexibility Score: inf
ROOT
ATOM      1  C   UNL     1     128.232 127.940 124.312  1.00  0.00     0.180 A 
ATOM      2  C   UNL     1     127.210 127.628 123.399  1.00  0.00     0.208 A 
ATOM      3  C   UNL     1     127.555 127.288 122.081  1.00  0.00     0.238 A 
ATOM      4  O   UNL     1     126.640 126.957 121.283  1.00  0.00    -0.285 OA
ATOM      5  C   UNL     1     128.914 127.280 121.689  1.00  0.00     0.111 A 
ATOM      6  C   UNL     1     129.376 126.990 120.369  1.00  0.00     0.134 A 
ATOM      7  C   UNL     1     130.750 126.883 120.126  1.00  0.00     0.093 A 
ATOM      8  C   UNL     1     131.682 127.120 121.139  1.00  0.00     0.123 A 
ATOM      9  C   UNL     1     131.244 127.462 122.416  1.00  0.00     0.094 A 
ATOM     10  C   UNL     1     129.877 127.542 122.698  1.00  0.00     0.146 A 
ATOM     11  O   UNL     1     129.502 127.861 123.931  1.00  0.00    -0.452 OA
ENDROOT
BRANCH   1  12
ATOM     12  C   UNL     1     127.946 128.333 125.711  1.00  0.00     0.025 A 
ATOM     13  C   UNL     1     127.331 129.560 126.017  1.00  0.00     0.016 A 
ATOM     14  C   UNL     1     127.093 129.920 127.345  1.00  0.00     0.051 A 
ATOM     15  C   UNL     1     127.476 129.067 128.388  1.00  0.00     0.157 A 
ATOM     16  C   UNL     1     128.347 127.491 126.761  1.00  0.00     0.062 A 
ATOM     17  C   UNL     1     128.110 127.848 128.093  1.00  0.00     0.158 A 
BRANCH  15  18
ATOM     18  O   UNL     1     127.235 129.427 129.713  1.00  0.00    -0.504 OA
ATOM     19  H   UNL     1     126.409 129.109 130.207  1.00  0.00     0.293 HD
ENDBRANCH  15  18
BRANCH  17  20
ATOM     20  O   UNL     1     128.510 126.980 129.109  1.00  0.00    -0.504 OA
ATOM     21  H   UNL     1     128.029 126.936 130.000  1.00  0.00     0.293 HD
ENDBRANCH  17  20
ENDBRANCH   1  12
BRANCH   2  22
ATOM     22  O   UNL     1     125.875 127.621 123.813  1.00  0.00    -0.502 OA
ATOM     23  H   UNL     1     125.305 126.784 123.798  1.00  0.00     0.293 HD
ENDBRANCH   2  22
BRANCH   6  24
ATOM     24  O   UNL     1     128.532 126.828 119.266  1.00  0.00    -0.507 OA
ATOM     25  H   UNL     1     127.527 126.774 119.315  1.00  0.00     0.293 HD
ENDBRANCH   6  24
BRANCH   8  26
ATOM     26  O   UNL     1     133.048 127.027 120.885  1.00  0.00    -0.508 OA
ATOM     27  H   UNL     1     133.490 126.138 120.685  1.00  0.00     0.293 HD
ENDBRANCH   8  26
TORSDOF 6
ENDMDL
MODEL 9
REMARK VINA RESULT:    -6.215      4.590      6.712
REMARK INTER + INTRA:          -7.775
REMARK INTER:                  -7.466
REMARK INTRA:                  -0.309
REMARK UNBOUND:                -0.288
REMARK SMILES O=c1c(O)c(-c2ccc(O)c(O)c2)oc2cc(O)cc(O)c12
REMARK SMILES IDX 5 1 3 2 2 3 1 4 22 5 20 6 19 7 17 8 16 9 15 10 14 11 6 12
REMARK SMILES IDX 7 13 8 14 9 15 13 16 11 17 10 18 12 20 4 22 21 24 18 26
REMARK H PARENT 10 19 12 21 4 23 21 25 18 27
REMARK Flexibility Score: inf
ROOT
ATOM      1  C   UNL     1     131.885 128.607 123.162  1.00  0.00     0.180 A 
ATOM      2  C   UNL     1     132.089 127.966 121.928  1.00  0.00     0.208 A 
ATOM      3  C   UNL     1     130.983 127.432 121.247  1.00  0.00     0.238 A 
ATOM      4  O   UNL     1     131.164 126.907 120.117  1.00  0.00    -0.285 OA
ATOM      5  C   UNL     1     129.691 127.531 121.815  1.00  0.00     0.111 A 
ATOM      6  C   UNL     1     128.505 126.990 121.233  1.00  0.00     0.134 A 
ATOM      7  C   UNL     1     127.262 127.261 121.817  1.00  0.00     0.093 A 
ATOM      8  C   UNL     1     127.168 127.998 123.001  1.00  0.00     0.123 A 
ATOM      9  C   UNL     1     128.324 128.480 123.610  1.00  0.00     0.094 A 
ATOM     10  C   UNL     1     129.576 128.256 123.030  1.00  0.00     0.146 A 
ATOM     11  O   UNL     1     130.652 128.741 123.637  1.00  0.00    -0.452 OA
ENDROOT
BRANCH   1  12
ATOM     12  C   UNL     1     133.003 129.172 123.951  1.00  0.00     0.025 A 
ATOM     13  C   UNL     1     133.828 128.354 124.743  1.00  0.00     0.016 A 
ATOM     14  C   UNL     1     134.862 128.913 125.497  1.00  0.00     0.051 A 
ATOM     15  C   UNL     1     135.080 130.296 125.482  1.00  0.00     0.157 A 
ATOM     16  C   UNL     1     133.213 130.561 123.956  1.00  0.00     0.062 A 
ATOM     17  C   UNL     1     134.249 131.125 124.710  1.00  0.00     0.158 A 
BRANCH  15  18
ATOM     18  O   UNL     1     136.115 130.852 126.234  1.00  0.00    -0.504 OA
ATOM     19  H   UNL     1     135.940 131.300 127.127  1.00  0.00     0.293 HD
ENDBRANCH  15  18
BRANCH  17  20
ATOM     20  O   UNL     1     134.435 132.507 124.679  1.00  0.00    -0.504 OA
ATOM     21  H   UNL     1     134.230 133.095 125.479  1.00  0.00     0.293 HD
ENDBRANCH  17  20
ENDBRANCH   1  12
BRANCH   2  22
ATOM     22  O   UNL     1     133.370 127.898 121.374  1.00  0.00    -0.502 OA
ATOM     23  H   UNL     1     133.556 127.448 120.486  1.00  0.00     0.293 HD
ENDBRANCH   2  22
BRANCH   6  24
ATOM     24  O   UNL     1     128.496 126.164 120.104  1.00  0.00    -0.507 OA
ATOM     25  H   UNL     1     127.678 125.705 119.735  1.00  0.00     0.293 HD
ENDBRANCH   6  24
BRANCH   8  26
ATOM     26  O   UNL     1     125.929 128.250 123.585  1.00  0.00    -0.508 OA
ATOM     27  H   UNL     1     125.473 127.564 124.175  1.00  0.00     0.293 HD
ENDBRANCH   8  26
TORSDOF 6
ENDMDL
