MODEL 1
REMARK VINA RESULT:     7.285      0.000      0.000
REMARK INTER + INTRA:          14.908
REMARK INTER:                  15.804
REMARK INTRA:                  -0.896
REMARK UNBOUND:                -0.896
REMARK SMILES CCCCCCCCCCCCCCCCCCCCCC(=O)[O-]
REMARK SMILES IDX 12 1 11 2 10 3 9 4 8 5 7 6 6 7 5 8 4 9 3 10 2 11 1 12 13 13
REMARK SMILES IDX 14 14 15 15 16 16 17 17 18 18 19 19 20 20 21 21 22 22 23 23
REMARK SMILES IDX 24 24
REMARK H PARENT
REMARK Flexibility Score: inf
ROOT
ATOM      1  C   UNL     1      14.058  17.282  -6.547  1.00  0.00     0.000 C 
ENDROOT
BRANCH   1   2
ATOM      2  C   UNL     1      13.818  16.179  -7.589  1.00  0.00     0.000 C 
BRANCH   2   3
ATOM      3  C   UNL     1      15.067  15.873  -8.434  1.00  0.00     0.000 C 
BRANCH   3   4
ATOM      4  C   UNL     1      14.783  15.396  -9.874  1.00  0.00    -0.000 C 
BRANCH   4   5
ATOM      5  C   UNL     1      15.841  15.802 -10.916  1.00  0.00    -0.000 C 
BRANCH   5   6
ATOM      6  C   UNL     1      15.843  14.889 -12.150  1.00  0.00    -0.000 C 
BRANCH   6   7
ATOM      7  C   UNL     1      16.814  15.409 -13.216  1.00  0.00    -0.000 C 
BRANCH   7   8
ATOM      8  C   UNL     1      17.983  16.171 -12.574  1.00  0.00    -0.000 C 
BRANCH   8   9
ATOM      9  C   UNL     1      18.108  17.618 -13.082  1.00  0.00    -0.000 C 
BRANCH   9  10
ATOM     10  C   UNL     1      18.671  18.621 -12.057  1.00  0.00    -0.000 C 
BRANCH  10  11
ATOM     11  C   UNL     1      18.557  20.080 -12.523  1.00  0.00    -0.003 C 
ATOM     12  C   UNL     1      19.850  20.844 -12.254  1.00  0.00     0.004 C 
ENDBRANCH  10  11
ENDBRANCH   9  10
ENDBRANCH   8   9
ENDBRANCH   7   8
ENDBRANCH   6   7
ENDBRANCH   5   6
ENDBRANCH   4   5
ENDBRANCH   3   4
ENDBRANCH   2   3
ENDBRANCH   1   2
BRANCH   1  13
ATOM     13  C   UNL     1      12.873  17.391  -5.579  1.00  0.00     0.000 C 
BRANCH  13  14
ATOM     14  C   UNL     1      12.074  16.080  -5.540  1.00  0.00     0.000 C 
BRANCH  14  15
ATOM     15  C   UNL     1      11.529  15.757  -4.139  1.00  0.00     0.000 C 
BRANCH  15  16
ATOM     16  C   UNL     1      11.153  14.273  -3.978  1.00  0.00     0.000 C 
BRANCH  16  17
ATOM     17  C   UNL     1      10.638  13.945  -2.568  1.00  0.00     0.000 C 
BRANCH  17  18
ATOM     18  C   UNL     1      11.776  13.775  -1.545  1.00  0.00     0.000 C 
BRANCH  18  19
ATOM     19  C   UNL     1      11.255  13.522  -0.120  1.00  0.00     0.000 C 
BRANCH  19  20
ATOM     20  C   UNL     1       9.948  14.278   0.173  1.00  0.00     0.006 C 
BRANCH  20  21
ATOM     21  C   UNL     1       9.821  14.661   1.654  1.00  0.00     0.053 C 
BRANCH  21  22
ATOM     22  C   UNL     1       9.980  16.136   1.861  1.00  0.00     0.041 C 
ATOM     23  O   UNL     1       8.966  16.874   1.974  1.00  0.00    -0.550 OA
ATOM     24  O   UNL     1      11.250  16.692   1.958  1.00  0.00    -0.550 OA
ENDBRANCH  21  22
ENDBRANCH  20  21
ENDBRANCH  19  20
ENDBRANCH  18  19
ENDBRANCH  17  18
ENDBRANCH  16  17
ENDBRANCH  15  16
ENDBRANCH  14  15
ENDBRANCH  13  14
ENDBRANCH   1  13
TORSDOF 20
ENDMDL
MODEL 2
REMARK VINA RESULT:     7.705      5.059     12.570
REMARK INTER + INTRA:          15.818
REMARK INTER:                  16.830
REMARK INTRA:                  -1.012
REMARK UNBOUND:                -0.896
REMARK SMILES CCCCCCCCCCCCCCCCCCCCCC(=O)[O-]
REMARK SMILES IDX 12 1 11 2 10 3 9 4 8 5 7 6 6 7 5 8 4 9 3 10 2 11 1 12 13 13
REMARK SMILES IDX 14 14 15 15 16 16 17 17 18 18 19 19 20 20 21 21 22 22 23 23
REMARK SMILES IDX 24 24
REMARK H PARENT
REMARK Flexibility Score: inf
ROOT
ATOM      1  C   UNL     1      14.106  17.425  -6.691  1.00  0.00     0.000 C 
ENDROOT
BRANCH   1   2
ATOM      2  C   UNL     1      12.888  17.602  -5.772  1.00  0.00     0.000 C 
BRANCH   2   3
ATOM      3  C   UNL     1      12.006  16.343  -5.698  1.00  0.00     0.000 C 
BRANCH   3   4
ATOM      4  C   UNL     1      11.908  15.693  -4.302  1.00  0.00    -0.000 C 
BRANCH   4   5
ATOM      5  C   UNL     1      10.801  14.634  -4.152  1.00  0.00    -0.000 C 
BRANCH   5   6
ATOM      6  C   UNL     1      11.083  13.633  -3.023  1.00  0.00    -0.000 C 
BRANCH   6   7
ATOM      7  C   UNL     1      11.172  14.344  -1.667  1.00  0.00    -0.000 C 
BRANCH   7   8
ATOM      8  C   UNL     1      10.606  13.463  -0.544  1.00  0.00    -0.000 C 
BRANCH   8   9
ATOM      9  C   UNL     1      10.792  14.080   0.854  1.00  0.00    -0.000 C 
BRANCH   9  10
ATOM     10  C   UNL     1       9.553  14.803   1.416  1.00  0.00    -0.000 C 
BRANCH  10  11
ATOM     11  C   UNL     1       9.779  16.308   1.617  1.00  0.00    -0.003 C 
ATOM     12  C   UNL     1      11.268  16.632   1.709  1.00  0.00     0.004 C 
ENDBRANCH  10  11
ENDBRANCH   9  10
ENDBRANCH   8   9
ENDBRANCH   7   8
ENDBRANCH   6   7
ENDBRANCH   5   6
ENDBRANCH   4   5
ENDBRANCH   3   4
ENDBRANCH   2   3
ENDBRANCH   1   2
BRANCH   1  13
ATOM     13  C   UNL     1      14.115  16.028  -7.326  1.00  0.00     0.000 C 
BRANCH  13  14
ATOM     14  C   UNL     1      15.271  15.888  -8.327  1.00  0.00     0.000 C 
BRANCH  14  15
ATOM     15  C   UNL     1      14.877  15.087  -9.580  1.00  0.00     0.000 C 
BRANCH  15  16
ATOM     16  C   UNL     1      15.375  15.743 -10.881  1.00  0.00     0.000 C 
BRANCH  16  17
ATOM     17  C   UNL     1      15.783  14.710 -11.943  1.00  0.00     0.000 C 
BRANCH  17  18
ATOM     18  C   UNL     1      16.496  15.348 -13.148  1.00  0.00     0.000 C 
BRANCH  18  19
ATOM     19  C   UNL     1      17.891  15.887 -12.790  1.00  0.00     0.000 C 
BRANCH  19  20
ATOM     20  C   UNL     1      18.081  17.356 -13.208  1.00  0.00     0.006 C 
BRANCH  20  21
ATOM     21  C   UNL     1      18.569  18.230 -12.045  1.00  0.00     0.053 C 
BRANCH  21  22
ATOM     22  C   UNL     1      18.766  19.654 -12.465  1.00  0.00     0.041 C 
ATOM     23  O   UNL     1      19.808  20.277 -12.131  1.00  0.00    -0.550 OA
ATOM     24  O   UNL     1      17.810  20.286 -13.252  1.00  0.00    -0.550 OA
ENDBRANCH  21  22
ENDBRANCH  20  21
ENDBRANCH  19  20
ENDBRANCH  18  19
ENDBRANCH  17  18
ENDBRANCH  16  17
ENDBRANCH  15  16
ENDBRANCH  14  15
ENDBRANCH  13  14
ENDBRANCH   1  13
TORSDOF 20
ENDMDL
MODEL 3
REMARK VINA RESULT:     8.390      5.144     12.512
REMARK INTER + INTRA:          17.304
REMARK INTER:                  18.127
REMARK INTRA:                  -0.823
REMARK UNBOUND:                -0.896
REMARK SMILES CCCCCCCCCCCCCCCCCCCCCC(=O)[O-]
REMARK SMILES IDX 12 1 11 2 10 3 9 4 8 5 7 6 6 7 5 8 4 9 3 10 2 11 1 12 13 13
REMARK SMILES IDX 14 14 15 15 16 16 17 17 18 18 19 19 20 20 21 21 22 22 23 23
REMARK SMILES IDX 24 24
REMARK H PARENT
REMARK Flexibility Score: inf
ROOT
ATOM      1  C   UNL     1      15.209  16.016  -8.259  1.00  0.00     0.000 C 
ENDROOT
BRANCH   1   2
ATOM      2  C   UNL     1      14.350  15.865  -6.995  1.00  0.00     0.000 C 
BRANCH   2   3
ATOM      3  C   UNL     1      13.765  17.201  -6.506  1.00  0.00     0.000 C 
BRANCH   3   4
ATOM      4  C   UNL     1      12.368  17.107  -5.858  1.00  0.00    -0.000 C 
BRANCH   4   5
ATOM      5  C   UNL     1      12.251  16.095  -4.704  1.00  0.00    -0.000 C 
BRANCH   5   6
ATOM      6  C   UNL     1      11.059  15.141  -4.866  1.00  0.00    -0.000 C 
BRANCH   6   7
ATOM      7  C   UNL     1      11.104  14.023  -3.818  1.00  0.00    -0.000 C 
BRANCH   7   8
ATOM      8  C   UNL     1      10.616  14.528  -2.452  1.00  0.00    -0.000 C 
BRANCH   8   9
ATOM      9  C   UNL     1      10.790  13.489  -1.330  1.00  0.00    -0.000 C 
BRANCH   9  10
ATOM     10  C   UNL     1      11.275  14.059   0.016  1.00  0.00    -0.000 C 
BRANCH  10  11
ATOM     11  C   UNL     1      10.123  14.365   0.985  1.00  0.00    -0.003 C 
ATOM     12  C   UNL     1      10.110  15.841   1.373  1.00  0.00     0.004 C 
ENDBRANCH  10  11
ENDBRANCH   9  10
ENDBRANCH   8   9
ENDBRANCH   7   8
ENDBRANCH   6   7
ENDBRANCH   5   6
ENDBRANCH   4   5
ENDBRANCH   3   4
ENDBRANCH   2   3
ENDBRANCH   1   2
BRANCH   1  13
ATOM     13  C   UNL     1      14.585  15.260  -9.440  1.00  0.00     0.000 C 
BRANCH  13  14
ATOM     14  C   UNL     1      15.310  15.596 -10.751  1.00  0.00     0.000 C 
BRANCH  14  15
ATOM     15  C   UNL     1      15.183  14.480 -11.803  1.00  0.00     0.000 C 
BRANCH  15  16
ATOM     16  C   UNL     1      15.900  14.827 -13.120  1.00  0.00     0.000 C 
BRANCH  16  17
ATOM     17  C   UNL     1      17.425  14.915 -12.956  1.00  0.00     0.000 C 
BRANCH  17  18
ATOM     18  C   UNL     1      17.971  16.328 -13.226  1.00  0.00     0.000 C 
BRANCH  18  19
ATOM     19  C   UNL     1      18.066  17.179 -11.948  1.00  0.00     0.000 C 
BRANCH  19  20
ATOM     20  C   UNL     1      19.142  18.274 -12.047  1.00  0.00     0.006 C 
BRANCH  20  21
ATOM     21  C   UNL     1      18.559  19.617 -12.507  1.00  0.00     0.053 C 
BRANCH  21  22
ATOM     22  C   UNL     1      19.530  20.741 -12.312  1.00  0.00     0.041 C 
ATOM     23  O   UNL     1      20.764  20.504 -12.218  1.00  0.00    -0.550 OA
ATOM     24  O   UNL     1      19.076  22.053 -12.264  1.00  0.00    -0.550 OA
ENDBRANCH  21  22
ENDBRANCH  20  21
ENDBRANCH  19  20
ENDBRANCH  18  19
ENDBRANCH  17  18
ENDBRANCH  16  17
ENDBRANCH  15  16
ENDBRANCH  14  15
ENDBRANCH  13  14
ENDBRANCH   1  13
TORSDOF 20
ENDMDL
MODEL 4
REMARK VINA RESULT:     8.938      1.804      2.406
REMARK INTER + INTRA:          18.492
REMARK INTER:                  19.581
REMARK INTRA:                  -1.090
REMARK UNBOUND:                -0.896
REMARK SMILES CCCCCCCCCCCCCCCCCCCCCC(=O)[O-]
REMARK SMILES IDX 12 1 11 2 10 3 9 4 8 5 7 6 6 7 5 8 4 9 3 10 2 11 1 12 13 13
REMARK SMILES IDX 14 14 15 15 16 16 17 17 18 18 19 19 20 20 21 21 22 22 23 23
REMARK SMILES IDX 24 24
REMARK H PARENT
REMARK Flexibility Score: inf
ROOT
ATOM      1  C   UNL     1      13.940  17.427  -6.187  1.00  0.00     0.000 C 
ENDROOT
BRANCH   1   2
ATOM      2  C   UNL     1      13.873  16.442  -7.364  1.00  0.00     0.000 C 
BRANCH   2   3
ATOM      3  C   UNL     1      15.189  15.673  -7.575  1.00  0.00     0.000 C 
BRANCH   3   4
ATOM      4  C   UNL     1      15.196  14.703  -8.775  1.00  0.00    -0.000 C 
BRANCH   4   5
ATOM      5  C   UNL     1      14.894  15.350 -10.139  1.00  0.00    -0.000 C 
BRANCH   5   6
ATOM      6  C   UNL     1      14.466  14.329 -11.202  1.00  0.00    -0.000 C 
BRANCH   6   7
ATOM      7  C   UNL     1      15.603  14.062 -12.196  1.00  0.00    -0.000 C 
BRANCH   7   8
ATOM      8  C   UNL     1      15.988  15.342 -12.952  1.00  0.00    -0.000 C 
BRANCH   8   9
ATOM      9  C   UNL     1      17.510  15.548 -13.049  1.00  0.00    -0.000 C 
BRANCH   9  10
ATOM     10  C   UNL     1      18.244  14.549 -13.963  1.00  0.00    -0.000 C 
BRANCH  10  11
ATOM     11  C   UNL     1      19.134  13.569 -13.185  1.00  0.00    -0.003 C 
ATOM     12  C   UNL     1      20.171  14.315 -12.349  1.00  0.00     0.004 C 
ENDBRANCH  10  11
ENDBRANCH   9  10
ENDBRANCH   8   9
ENDBRANCH   7   8
ENDBRANCH   6   7
ENDBRANCH   5   6
ENDBRANCH   4   5
ENDBRANCH   3   4
ENDBRANCH   2   3
ENDBRANCH   1   2
BRANCH   1  13
ATOM     13  C   UNL     1      12.571  17.566  -5.509  1.00  0.00     0.000 C 
BRANCH  13  14
ATOM     14  C   UNL     1      11.835  16.218  -5.477  1.00  0.00     0.000 C 
BRANCH  14  15
ATOM     15  C   UNL     1      11.727  15.634  -4.059  1.00  0.00     0.000 C 
BRANCH  15  16
ATOM     16  C   UNL     1      11.047  14.253  -4.039  1.00  0.00     0.000 C 
BRANCH  16  17
ATOM     17  C   UNL     1      10.508  13.881  -2.649  1.00  0.00     0.000 C 
BRANCH  17  18
ATOM     18  C   UNL     1      11.567  14.030  -1.543  1.00  0.00     0.000 C 
BRANCH  18  19
ATOM     19  C   UNL     1      11.056  13.564  -0.169  1.00  0.00     0.000 C 
BRANCH  19  20
ATOM     20  C   UNL     1       9.756  14.275   0.248  1.00  0.00     0.006 C 
BRANCH  20  21
ATOM     21  C   UNL     1       9.789  14.726   1.715  1.00  0.00     0.053 C 
BRANCH  21  22
ATOM     22  C   UNL     1       9.934  16.212   1.835  1.00  0.00     0.041 C 
ATOM     23  O   UNL     1      11.076  16.742   1.814  1.00  0.00    -0.550 OA
ATOM     24  O   UNL     1       8.805  17.015   1.943  1.00  0.00    -0.550 OA
ENDBRANCH  21  22
ENDBRANCH  20  21
ENDBRANCH  19  20
ENDBRANCH  18  19
ENDBRANCH  17  18
ENDBRANCH  16  17
ENDBRANCH  15  16
ENDBRANCH  14  15
ENDBRANCH  13  14
ENDBRANCH   1  13
TORSDOF 20
ENDMDL
MODEL 5
REMARK VINA RESULT:    10.006      7.382     13.056
REMARK INTER + INTRA:          20.808
REMARK INTER:                  22.150
REMARK INTRA:                  -1.342
REMARK UNBOUND:                -0.896
REMARK SMILES CCCCCCCCCCCCCCCCCCCCCC(=O)[O-]
REMARK SMILES IDX 12 1 11 2 10 3 9 4 8 5 7 6 6 7 5 8 4 9 3 10 2 11 1 12 13 13
REMARK SMILES IDX 14 14 15 15 16 16 17 17 18 18 19 19 20 20 21 21 22 22 23 23
REMARK SMILES IDX 24 24
REMARK H PARENT
REMARK Flexibility Score: inf
ROOT
ATOM      1  C   UNL     1      18.015  16.678 -12.859  1.00  0.00     0.000 C 
ENDROOT
BRANCH   1   2
ATOM      2  C   UNL     1      18.627  15.320 -13.228  1.00  0.00     0.000 C 
BRANCH   2   3
ATOM      3  C   UNL     1      17.574  14.292 -13.679  1.00  0.00     0.000 C 
BRANCH   3   4
ATOM      4  C   UNL     1      16.108  14.701 -13.425  1.00  0.00    -0.000 C 
BRANCH   4   5
ATOM      5  C   UNL     1      15.546  14.297 -12.049  1.00  0.00    -0.000 C 
BRANCH   5   6
ATOM      6  C   UNL     1      15.039  15.497 -11.236  1.00  0.00    -0.000 C 
BRANCH   6   7
ATOM      7  C   UNL     1      14.713  15.085  -9.795  1.00  0.00    -0.000 C 
BRANCH   7   8
ATOM      8  C   UNL     1      15.623  15.813  -8.795  1.00  0.00    -0.000 C 
BRANCH   8   9
ATOM      9  C   UNL     1      15.104  15.740  -7.347  1.00  0.00    -0.000 C 
BRANCH   9  10
ATOM     10  C   UNL     1      13.703  16.342  -7.128  1.00  0.00    -0.000 C 
BRANCH  10  11
ATOM     11  C   UNL     1      13.716  17.566  -6.202  1.00  0.00    -0.003 C 
ATOM     12  C   UNL     1      12.426  17.655  -5.392  1.00  0.00     0.004 C 
ENDBRANCH  10  11
ENDBRANCH   9  10
ENDBRANCH   8   9
ENDBRANCH   7   8
ENDBRANCH   6   7
ENDBRANCH   5   6
ENDBRANCH   4   5
ENDBRANCH   3   4
ENDBRANCH   2   3
ENDBRANCH   1   2
BRANCH   1  13
ATOM     13  C   UNL     1      18.348  17.055 -11.409  1.00  0.00     0.000 C 
BRANCH  13  14
ATOM     14  C   UNL     1      18.050  18.538 -11.145  1.00  0.00     0.000 C 
BRANCH  14  15
ATOM     15  C   UNL     1      18.337  19.428 -12.365  1.00  0.00     0.000 C 
BRANCH  15  16
ATOM     16  C   UNL     1      19.799  19.906 -12.417  1.00  0.00     0.000 C 
BRANCH  16  17
ATOM     17  C   UNL     1      19.922  21.436 -12.345  1.00  0.00     0.000 C 
BRANCH  17  18
ATOM     18  C   UNL     1      18.659  22.157 -12.850  1.00  0.00     0.000 C 
BRANCH  18  19
ATOM     19  C   UNL     1      18.950  23.590 -13.329  1.00  0.00     0.000 C 
BRANCH  19  20
ATOM     20  C   UNL     1      17.949  24.071 -14.394  1.00  0.00     0.006 C 
BRANCH  20  21
ATOM     21  C   UNL     1      18.199  25.527 -14.807  1.00  0.00     0.053 C 
BRANCH  21  22
ATOM     22  C   UNL     1      19.020  25.617 -16.057  1.00  0.00     0.041 C 
ATOM     23  O   UNL     1      18.544  26.154 -17.092  1.00  0.00    -0.550 OA
ATOM     24  O   UNL     1      20.322  25.132 -16.071  1.00  0.00    -0.550 OA
ENDBRANCH  21  22
ENDBRANCH  20  21
ENDBRANCH  19  20
ENDBRANCH  18  19
ENDBRANCH  17  18
ENDBRANCH  16  17
ENDBRANCH  15  16
ENDBRANCH  14  15
ENDBRANCH  13  14
ENDBRANCH   1  13
TORSDOF 20
ENDMDL
