MODEL 1
REMARK VINA RESULT:    -5.372      0.000      0.000
REMARK INTER + INTRA:          -6.604
REMARK INTER:                  -6.314
REMARK INTRA:                  -0.290
REMARK UNBOUND:                -0.290
REMARK SMILES O=C([O-])C=Cc1ccc(O)c(O)c1
REMARK SMILES IDX 6 1 13 2 7 3 11 4 8 5 9 6 5 7 4 8 2 9 1 10 3 11 12 12 10 14
REMARK H PARENT 12 13 10 15
REMARK Flexibility Score: inf
ROOT
ATOM      1  C   UNL     1      73.062  39.547  -7.191  1.00  0.00    -0.022 A 
ATOM      2  C   UNL     1      71.876  39.465  -6.443  1.00  0.00     0.058 A 
ATOM      3  C   UNL     1      74.152  40.262  -6.675  1.00  0.00     0.012 A 
ATOM      4  C   UNL     1      71.763  40.136  -5.215  1.00  0.00     0.157 A 
ATOM      5  C   UNL     1      74.041  40.932  -5.454  1.00  0.00     0.051 A 
ATOM      6  C   UNL     1      72.851  40.877  -4.722  1.00  0.00     0.157 A 
ENDROOT
BRANCH   1   7
ATOM      7  C   UNL     1      73.221  38.804  -8.459  1.00  0.00     0.010 C 
ATOM      8  C   UNL     1      72.887  39.264  -9.674  1.00  0.00     0.025 C 
BRANCH   8   9
ATOM      9  C   UNL     1      72.486  40.649  -9.984  1.00  0.00     0.064 C 
ATOM     10  O   UNL     1      73.373  41.530 -10.125  1.00  0.00    -0.545 OA
ATOM     11  O   UNL     1      71.149  41.019 -10.055  1.00  0.00    -0.545 OA
ENDBRANCH   8   9
ENDBRANCH   1   7
BRANCH   4  12
ATOM     12  O   UNL     1      70.578  40.066  -4.485  1.00  0.00    -0.504 OA
ATOM     13  H   UNL     1      69.994  40.882  -4.341  1.00  0.00     0.293 HD
ENDBRANCH   4  12
BRANCH   6  14
ATOM     14  O   UNL     1      72.769  41.559  -3.509  1.00  0.00    -0.504 OA
ATOM     15  H   UNL     1      72.813  42.570  -3.456  1.00  0.00     0.293 HD
ENDBRANCH   6  14
TORSDOF 4
ENDMDL
MODEL 2
REMARK VINA RESULT:    -5.353      0.807      1.890
REMARK INTER + INTRA:          -6.582
REMARK INTER:                  -6.308
REMARK INTRA:                  -0.274
REMARK UNBOUND:                -0.290
REMARK SMILES O=C([O-])C=Cc1ccc(O)c(O)c1
REMARK SMILES IDX 6 1 13 2 7 3 11 4 8 5 9 6 5 7 4 8 2 9 1 10 3 11 12 12 10 14
REMARK H PARENT 12 13 10 15
REMARK Flexibility Score: inf
ROOT
ATOM      1  C   UNL     1      73.118  39.423  -7.462  1.00  0.00    -0.022 A 
ATOM      2  C   UNL     1      74.146  40.172  -6.865  1.00  0.00     0.058 A 
ATOM      3  C   UNL     1      71.879  39.318  -6.813  1.00  0.00     0.012 A 
ATOM      4  C   UNL     1      73.955  40.764  -5.607  1.00  0.00     0.157 A 
ATOM      5  C   UNL     1      71.688  39.905  -5.559  1.00  0.00     0.051 A 
ATOM      6  C   UNL     1      72.720  40.625  -4.950  1.00  0.00     0.157 A 
ENDROOT
BRANCH   1   7
ATOM      7  C   UNL     1      73.280  38.837  -8.809  1.00  0.00     0.010 C 
ATOM      8  C   UNL     1      72.865  39.399  -9.954  1.00  0.00     0.025 C 
BRANCH   8   9
ATOM      9  C   UNL     1      72.350  40.775 -10.095  1.00  0.00     0.064 C 
ATOM     10  O   UNL     1      73.162  41.736 -10.125  1.00  0.00    -0.545 OA
ATOM     11  O   UNL     1      70.986  41.040 -10.124  1.00  0.00    -0.545 OA
ENDBRANCH   8   9
ENDBRANCH   1   7
BRANCH   4  12
ATOM     12  O   UNL     1      74.985  41.491  -5.012  1.00  0.00    -0.504 OA
ATOM     13  H   UNL     1      75.895  41.579  -5.451  1.00  0.00     0.293 HD
ENDBRANCH   4  12
BRANCH   6  14
ATOM     14  O   UNL     1      72.501  41.197  -3.698  1.00  0.00    -0.504 OA
ATOM     15  H   UNL     1      72.487  42.201  -3.560  1.00  0.00     0.293 HD
ENDBRANCH   6  14
TORSDOF 4
ENDMDL
MODEL 3
REMARK VINA RESULT:    -5.345      2.122      4.561
REMARK INTER + INTRA:          -6.573
REMARK INTER:                  -7.197
REMARK INTRA:                   0.624
REMARK UNBOUND:                -0.290
REMARK SMILES O=C([O-])C=Cc1ccc(O)c(O)c1
REMARK SMILES IDX 6 1 13 2 7 3 11 4 8 5 9 6 5 7 4 8 2 9 1 10 3 11 12 12 10 14
REMARK H PARENT 12 13 10 15
REMARK Flexibility Score: inf
ROOT
ATOM      1  C   UNL     1      71.876  40.324  -5.108  1.00  0.00    -0.022 A 
ATOM      2  C   UNL     1      70.565  40.235  -5.605  1.00  0.00     0.058 A 
ATOM      3  C   UNL     1      72.953  40.013  -5.951  1.00  0.00     0.012 A 
ATOM      4  C   UNL     1      70.330  39.789  -6.914  1.00  0.00     0.157 A 
ATOM      5  C   UNL     1      72.721  39.567  -7.255  1.00  0.00     0.051 A 
ATOM      6  C   UNL     1      71.415  39.449  -7.741  1.00  0.00     0.157 A 
ENDROOT
BRANCH   1   7
ATOM      7  C   UNL     1      72.148  40.842  -3.751  1.00  0.00     0.010 C 
ATOM      8  C   UNL     1      73.173  41.640  -3.416  1.00  0.00     0.025 C 
BRANCH   8   9
ATOM      9  C   UNL     1      74.096  42.291  -4.365  1.00  0.00     0.064 C 
ATOM     10  O   UNL     1      75.107  41.661  -4.771  1.00  0.00    -0.545 OA
ATOM     11  O   UNL     1      73.915  43.609  -4.766  1.00  0.00    -0.545 OA
ENDBRANCH   8   9
ENDBRANCH   1   7
BRANCH   4  12
ATOM     12  O   UNL     1      69.026  39.686  -7.396  1.00  0.00    -0.504 OA
ATOM     13  H   UNL     1      68.645  38.801  -7.711  1.00  0.00     0.293 HD
ENDBRANCH   4  12
BRANCH   6  14
ATOM     14  O   UNL     1      71.215  38.998  -9.045  1.00  0.00    -0.504 OA
ATOM     15  H   UNL     1      70.794  39.582  -9.758  1.00  0.00     0.293 HD
ENDBRANCH   6  14
TORSDOF 4
ENDMDL
MODEL 4
REMARK VINA RESULT:    -4.835      1.830      4.225
REMARK INTER + INTRA:          -5.974
REMARK INTER:                  -5.979
REMARK INTRA:                   0.005
REMARK UNBOUND:                -0.290
REMARK SMILES O=C([O-])C=Cc1ccc(O)c(O)c1
REMARK SMILES IDX 6 1 13 2 7 3 11 4 8 5 9 6 5 7 4 8 2 9 1 10 3 11 12 12 10 14
REMARK H PARENT 12 13 10 15
REMARK Flexibility Score: inf
ROOT
ATOM      1  C   UNL     1      73.595  40.254  -6.280  1.00  0.00    -0.022 A 
ATOM      2  C   UNL     1      72.443  40.042  -5.503  1.00  0.00     0.058 A 
ATOM      3  C   UNL     1      73.493  40.234  -7.678  1.00  0.00     0.012 A 
ATOM      4  C   UNL     1      71.214  39.758  -6.118  1.00  0.00     0.157 A 
ATOM      5  C   UNL     1      72.271  39.950  -8.292  1.00  0.00     0.051 A 
ATOM      6  C   UNL     1      71.130  39.708  -7.520  1.00  0.00     0.157 A 
ENDROOT
BRANCH   1   7
ATOM      7  C   UNL     1      74.886  40.607  -5.654  1.00  0.00     0.010 C 
ATOM      8  C   UNL     1      75.124  41.718  -4.941  1.00  0.00     0.025 C 
BRANCH   8   9
ATOM      9  C   UNL     1      74.103  42.686  -4.496  1.00  0.00     0.064 C 
ATOM     10  O   UNL     1      73.954  43.760  -5.134  1.00  0.00    -0.545 OA
ATOM     11  O   UNL     1      73.351  42.471  -3.348  1.00  0.00    -0.545 OA
ENDBRANCH   8   9
ENDBRANCH   1   7
BRANCH   4  12
ATOM     12  O   UNL     1      70.079  39.531  -5.341  1.00  0.00    -0.504 OA
ATOM     13  H   UNL     1      69.733  38.593  -5.168  1.00  0.00     0.293 HD
ENDBRANCH   4  12
BRANCH   6  14
ATOM     14  O   UNL     1      69.925  39.424  -8.161  1.00  0.00    -0.504 OA
ATOM     15  H   UNL     1      69.868  38.775  -8.937  1.00  0.00     0.293 HD
ENDBRANCH   6  14
TORSDOF 4
ENDMDL
MODEL 5
REMARK VINA RESULT:    -4.790      2.948      4.531
REMARK INTER + INTRA:          -5.920
REMARK INTER:                  -6.111
REMARK INTRA:                   0.191
REMARK UNBOUND:                -0.290
REMARK SMILES O=C([O-])C=Cc1ccc(O)c(O)c1
REMARK SMILES IDX 6 1 13 2 7 3 11 4 8 5 9 6 5 7 4 8 2 9 1 10 3 11 12 12 10 14
REMARK H PARENT 12 13 10 15
REMARK Flexibility Score: inf
ROOT
ATOM      1  C   UNL     1      73.723  42.005  -4.543  1.00  0.00    -0.022 A 
ATOM      2  C   UNL     1      73.431  42.095  -3.172  1.00  0.00     0.058 A 
ATOM      3  C   UNL     1      74.114  43.158  -5.238  1.00  0.00     0.012 A 
ATOM      4  C   UNL     1      73.478  43.334  -2.515  1.00  0.00     0.157 A 
ATOM      5  C   UNL     1      74.159  44.394  -4.587  1.00  0.00     0.051 A 
ATOM      6  C   UNL     1      73.840  44.489  -3.228  1.00  0.00     0.157 A 
ENDROOT
BRANCH   1   7
ATOM      7  C   UNL     1      73.731  40.703  -5.241  1.00  0.00     0.010 C 
ATOM      8  C   UNL     1      72.677  39.884  -5.368  1.00  0.00     0.025 C 
BRANCH   8   9
ATOM      9  C   UNL     1      71.286  40.216  -5.004  1.00  0.00     0.064 C 
ATOM     10  O   UNL     1      70.971  40.296  -3.788  1.00  0.00    -0.545 OA
ATOM     11  O   UNL     1      70.300  40.373  -5.969  1.00  0.00    -0.545 OA
ENDBRANCH   8   9
ENDBRANCH   1   7
BRANCH   4  12
ATOM     12  O   UNL     1      73.169  43.419  -1.157  1.00  0.00    -0.504 OA
ATOM     13  H   UNL     1      72.441  42.849  -0.742  1.00  0.00     0.293 HD
ENDBRANCH   4  12
BRANCH   6  14
ATOM     14  O   UNL     1      73.891  45.735  -2.606  1.00  0.00    -0.504 OA
ATOM     15  H   UNL     1      74.545  46.454  -2.893  1.00  0.00     0.293 HD
ENDBRANCH   6  14
TORSDOF 4
ENDMDL
MODEL 6
REMARK VINA RESULT:    -4.589     16.374     17.704
REMARK INTER + INTRA:          -5.684
REMARK INTER:                  -5.416
REMARK INTRA:                  -0.269
REMARK UNBOUND:                -0.290
REMARK SMILES O=C([O-])C=Cc1ccc(O)c(O)c1
REMARK SMILES IDX 6 1 13 2 7 3 11 4 8 5 9 6 5 7 4 8 2 9 1 10 3 11 12 12 10 14
REMARK H PARENT 12 13 10 15
REMARK Flexibility Score: inf
ROOT
ATOM      1  C   UNL     1      71.690  49.408   8.316  1.00  0.00    -0.022 A 
ATOM      2  C   UNL     1      70.960  49.304   7.120  1.00  0.00     0.058 A 
ATOM      3  C   UNL     1      71.019  49.300   9.542  1.00  0.00     0.012 A 
ATOM      4  C   UNL     1      69.566  49.149   7.151  1.00  0.00     0.157 A 
ATOM      5  C   UNL     1      69.630  49.147   9.575  1.00  0.00     0.051 A 
ATOM      6  C   UNL     1      68.898  49.074   8.385  1.00  0.00     0.157 A 
ENDROOT
BRANCH   1   7
ATOM      7  C   UNL     1      73.164  49.518   8.307  1.00  0.00     0.010 C 
ATOM      8  C   UNL     1      74.018  48.486   8.238  1.00  0.00     0.025 C 
BRANCH   8   9
ATOM      9  C   UNL     1      73.647  47.083   7.971  1.00  0.00     0.064 C 
ATOM     10  O   UNL     1      73.658  46.659   6.786  1.00  0.00    -0.545 OA
ATOM     11  O   UNL     1      73.216  46.240   8.987  1.00  0.00    -0.545 OA
ENDBRANCH   8   9
ENDBRANCH   1   7
BRANCH   4  12
ATOM     12  O   UNL     1      68.845  49.064   5.960  1.00  0.00    -0.504 OA
ATOM     13  H   UNL     1      68.776  48.196   5.441  1.00  0.00     0.293 HD
ENDBRANCH   4  12
BRANCH   6  14
ATOM     14  O   UNL     1      67.514  48.925   8.449  1.00  0.00    -0.504 OA
ATOM     15  H   UNL     1      66.997  49.060   9.310  1.00  0.00     0.293 HD
ENDBRANCH   6  14
TORSDOF 4
ENDMDL
MODEL 7
REMARK VINA RESULT:    -4.523     16.673     18.120
REMARK INTER + INTRA:          -5.607
REMARK INTER:                  -5.328
REMARK INTRA:                  -0.279
REMARK UNBOUND:                -0.290
REMARK SMILES O=C([O-])C=Cc1ccc(O)c(O)c1
REMARK SMILES IDX 6 1 13 2 7 3 11 4 8 5 9 6 5 7 4 8 2 9 1 10 3 11 12 12 10 14
REMARK H PARENT 12 13 10 15
REMARK Flexibility Score: inf
ROOT
ATOM      1  C   UNL     1      71.160  49.512   8.132  1.00  0.00    -0.022 A 
ATOM      2  C   UNL     1      70.256  49.624   9.201  1.00  0.00     0.058 A 
ATOM      3  C   UNL     1      70.707  49.024   6.898  1.00  0.00     0.012 A 
ATOM      4  C   UNL     1      68.925  49.204   9.054  1.00  0.00     0.157 A 
ATOM      5  C   UNL     1      69.383  48.603   6.750  1.00  0.00     0.051 A 
ATOM      6  C   UNL     1      68.489  48.687   7.822  1.00  0.00     0.157 A 
ENDROOT
BRANCH   1   7
ATOM      7  C   UNL     1      72.550  49.998   8.250  1.00  0.00     0.010 C 
ATOM      8  C   UNL     1      73.603  49.256   8.625  1.00  0.00     0.025 C 
BRANCH   8   9
ATOM      9  C   UNL     1      73.597  47.791   8.803  1.00  0.00     0.064 C 
ATOM     10  O   UNL     1      73.454  47.312   9.958  1.00  0.00    -0.545 OA
ATOM     11  O   UNL     1      73.818  46.930   7.736  1.00  0.00    -0.545 OA
ENDBRANCH   8   9
ENDBRANCH   1   7
BRANCH   4  12
ATOM     12  O   UNL     1      68.037  49.302  10.125  1.00  0.00    -0.504 OA
ATOM     13  H   UNL     1      67.497  50.144  10.291  1.00  0.00     0.293 HD
ENDBRANCH   4  12
BRANCH   6  14
ATOM     14  O   UNL     1      67.175  48.256   7.646  1.00  0.00    -0.504 OA
ATOM     15  H   UNL     1      66.532  48.157   8.423  1.00  0.00     0.293 HD
ENDBRANCH   6  14
TORSDOF 4
ENDMDL
MODEL 8
REMARK VINA RESULT:    -4.367     15.658     16.953
REMARK INTER + INTRA:          -5.424
REMARK INTER:                  -5.133
REMARK INTRA:                  -0.291
REMARK UNBOUND:                -0.290
REMARK SMILES O=C([O-])C=Cc1ccc(O)c(O)c1
REMARK SMILES IDX 6 1 13 2 7 3 11 4 8 5 9 6 5 7 4 8 2 9 1 10 3 11 12 12 10 14
REMARK H PARENT 12 13 10 15
REMARK Flexibility Score: inf
ROOT
ATOM      1  C   UNL     1      71.580  48.791   6.931  1.00  0.00    -0.022 A 
ATOM      2  C   UNL     1      72.279  47.629   6.562  1.00  0.00     0.058 A 
ATOM      3  C   UNL     1      72.084  49.596   7.962  1.00  0.00     0.012 A 
ATOM      4  C   UNL     1      73.440  47.249   7.253  1.00  0.00     0.157 A 
ATOM      5  C   UNL     1      73.238  49.218   8.653  1.00  0.00     0.051 A 
ATOM      6  C   UNL     1      73.918  48.046   8.306  1.00  0.00     0.157 A 
ENDROOT
BRANCH   1   7
ATOM      7  C   UNL     1      70.387  49.237   6.183  1.00  0.00     0.010 C 
ATOM      8  C   UNL     1      69.137  48.793   6.380  1.00  0.00     0.025 C 
BRANCH   8   9
ATOM      9  C   UNL     1      68.701  47.930   7.494  1.00  0.00     0.064 C 
ATOM     10  O   UNL     1      68.423  48.453   8.605  1.00  0.00    -0.545 OA
ATOM     11  O   UNL     1      68.657  46.547   7.368  1.00  0.00    -0.545 OA
ENDBRANCH   8   9
ENDBRANCH   1   7
BRANCH   4  12
ATOM     12  O   UNL     1      74.119  46.085   6.893  1.00  0.00    -0.504 OA
ATOM     13  H   UNL     1      74.013  45.225   7.419  1.00  0.00     0.293 HD
ENDBRANCH   4  12
BRANCH   6  14
ATOM     14  O   UNL     1      75.066  47.693   9.015  1.00  0.00    -0.504 OA
ATOM     15  H   UNL     1      75.561  46.826   8.841  1.00  0.00     0.293 HD
ENDBRANCH   6  14
TORSDOF 4
ENDMDL
