MODEL 1
REMARK VINA RESULT:    -7.725      0.000      0.000
REMARK INTER + INTRA:          -9.133
REMARK INTER:                  -9.305
REMARK INTRA:                   0.173
REMARK UNBOUND:                 0.173
REMARK SMILES O=c1c(O)c(-c2ccc(O)c(O)c2)oc2cc(O)cc(O)c12
REMARK SMILES IDX 5 1 3 2 2 3 1 4 22 5 20 6 19 7 17 8 16 9 15 10 14 11 6 12
REMARK SMILES IDX 7 13 8 14 9 15 13 16 11 17 10 18 12 20 4 22 21 24 18 26
REMARK H PARENT 10 19 12 21 4 23 21 25 18 27
REMARK Flexibility Score: inf
ROOT
ATOM      1  C   UNL     1     -38.869  12.833   7.800  1.00  0.00     0.180 A 
ATOM      2  C   UNL     1     -39.089  11.495   8.182  1.00  0.00     0.208 A 
ATOM      3  C   UNL     1     -40.205  11.192   8.976  1.00  0.00     0.238 A 
ATOM      4  O   UNL     1     -40.418   9.996   9.317  1.00  0.00    -0.285 OA
ATOM      5  C   UNL     1     -41.069  12.228   9.390  1.00  0.00     0.111 A 
ATOM      6  C   UNL     1     -42.213  12.006  10.194  1.00  0.00     0.134 A 
ATOM      7  C   UNL     1     -43.018  13.092  10.572  1.00  0.00     0.093 A 
ATOM      8  C   UNL     1     -42.702  14.389  10.163  1.00  0.00     0.123 A 
ATOM      9  C   UNL     1     -41.573  14.614   9.368  1.00  0.00     0.094 A 
ATOM     10  C   UNL     1     -40.759  13.545   8.979  1.00  0.00     0.146 A 
ATOM     11  O   UNL     1     -39.696  13.785   8.220  1.00  0.00    -0.452 OA
ENDROOT
BRANCH   1  12
ATOM     12  C   UNL     1     -37.725  13.229   6.947  1.00  0.00     0.025 A 
ATOM     13  C   UNL     1     -36.463  12.659   7.177  1.00  0.00     0.016 A 
ATOM     14  C   UNL     1     -35.365  13.033   6.399  1.00  0.00     0.051 A 
ATOM     15  C   UNL     1     -35.510  13.993   5.389  1.00  0.00     0.157 A 
ATOM     16  C   UNL     1     -37.861  14.208   5.946  1.00  0.00     0.062 A 
ATOM     17  C   UNL     1     -36.759  14.585   5.166  1.00  0.00     0.158 A 
BRANCH  15  18
ATOM     18  O   UNL     1     -34.416  14.367   4.609  1.00  0.00    -0.504 OA
ATOM     19  H   UNL     1     -34.403  15.242   4.100  1.00  0.00     0.293 HD
ENDBRANCH  15  18
BRANCH  17  20
ATOM     20  O   UNL     1     -36.896  15.550   4.170  1.00  0.00    -0.504 OA
ATOM     21  H   UNL     1     -36.257  15.596   3.385  1.00  0.00     0.293 HD
ENDBRANCH  17  20
ENDBRANCH   1  12
BRANCH   2  22
ATOM     22  O   UNL     1     -38.191  10.495   7.800  1.00  0.00    -0.502 OA
ATOM     23  H   UNL     1     -37.633   9.982   8.472  1.00  0.00     0.293 HD
ENDBRANCH   2  22
BRANCH   6  24
ATOM     24  O   UNL     1     -42.555  10.723  10.620  1.00  0.00    -0.507 OA
ATOM     25  H   UNL     1     -42.060  10.260  11.373  1.00  0.00     0.293 HD
ENDBRANCH   6  24
BRANCH   8  26
ATOM     26  O   UNL     1     -43.517  15.450  10.552  1.00  0.00    -0.508 OA
ATOM     27  H   UNL     1     -43.128  16.317  10.902  1.00  0.00     0.293 HD
ENDBRANCH   8  26
TORSDOF 6
ENDMDL
MODEL 2
REMARK VINA RESULT:    -7.364      2.478      6.934
REMARK INTER + INTRA:          -8.697
REMARK INTER:                  -8.367
REMARK INTRA:                  -0.331
REMARK UNBOUND:                 0.173
REMARK SMILES O=c1c(O)c(-c2ccc(O)c(O)c2)oc2cc(O)cc(O)c12
REMARK SMILES IDX 5 1 3 2 2 3 1 4 22 5 20 6 19 7 17 8 16 9 15 10 14 11 6 12
REMARK SMILES IDX 7 13 8 14 9 15 13 16 11 17 10 18 12 20 4 22 21 24 18 26
REMARK H PARENT 10 19 12 21 4 23 21 25 18 27
REMARK Flexibility Score: inf
ROOT
ATOM      1  C   UNL     1     -40.023  11.958   8.140  1.00  0.00     0.180 A 
ATOM      2  C   UNL     1     -38.669  12.203   8.437  1.00  0.00     0.208 A 
ATOM      3  C   UNL     1     -37.727  12.148   7.398  1.00  0.00     0.238 A 
ATOM      4  O   UNL     1     -36.512  12.375   7.650  1.00  0.00    -0.285 OA
ATOM      5  C   UNL     1     -38.149  11.833   6.090  1.00  0.00     0.111 A 
ATOM      6  C   UNL     1     -37.262  11.754   4.989  1.00  0.00     0.134 A 
ATOM      7  C   UNL     1     -37.759  11.425   3.718  1.00  0.00     0.093 A 
ATOM      8  C   UNL     1     -39.119  11.173   3.528  1.00  0.00     0.123 A 
ATOM      9  C   UNL     1     -40.000  11.250   4.613  1.00  0.00     0.094 A 
ATOM     10  C   UNL     1     -39.525  11.579   5.886  1.00  0.00     0.146 A 
ATOM     11  O   UNL     1     -40.383  11.650   6.897  1.00  0.00    -0.452 OA
ENDROOT
BRANCH   1  12
ATOM     12  C   UNL     1     -41.079  12.017   9.177  1.00  0.00     0.025 A 
ATOM     13  C   UNL     1     -41.485  10.834   9.816  1.00  0.00     0.016 A 
ATOM     14  C   UNL     1     -42.492  10.861  10.783  1.00  0.00     0.051 A 
ATOM     15  C   UNL     1     -43.120  12.069  11.114  1.00  0.00     0.157 A 
ATOM     16  C   UNL     1     -41.726  13.223   9.498  1.00  0.00     0.062 A 
ATOM     17  C   UNL     1     -42.739  13.252  10.467  1.00  0.00     0.158 A 
BRANCH  15  18
ATOM     18  O   UNL     1     -44.125  12.101  12.079  1.00  0.00    -0.504 OA
ATOM     19  H   UNL     1     -43.914  12.037  13.067  1.00  0.00     0.293 HD
ENDBRANCH  15  18
BRANCH  17  20
ATOM     20  O   UNL     1     -43.375  14.449  10.788  1.00  0.00    -0.504 OA
ATOM     21  H   UNL     1     -44.301  14.668  10.439  1.00  0.00     0.293 HD
ENDBRANCH  17  20
ENDBRANCH   1  12
BRANCH   2  22
ATOM     22  O   UNL     1     -38.270  12.464   9.750  1.00  0.00    -0.502 OA
ATOM     23  H   UNL     1     -38.027  13.394  10.069  1.00  0.00     0.293 HD
ENDBRANCH   2  22
BRANCH   6  24
ATOM     24  O   UNL     1     -35.897  11.998   5.145  1.00  0.00    -0.507 OA
ATOM     25  H   UNL     1     -35.248  11.917   4.371  1.00  0.00     0.293 HD
ENDBRANCH   6  24
BRANCH   8  26
ATOM     26  O   UNL     1     -39.587  10.848   2.257  1.00  0.00    -0.508 OA
ATOM     27  H   UNL     1     -39.139  10.134   1.693  1.00  0.00     0.293 HD
ENDBRANCH   8  26
TORSDOF 6
ENDMDL
MODEL 3
REMARK VINA RESULT:    -7.165      2.202      3.388
REMARK INTER + INTRA:          -8.458
REMARK INTER:                  -8.129
REMARK INTRA:                  -0.329
REMARK UNBOUND:                 0.173
REMARK SMILES O=c1c(O)c(-c2ccc(O)c(O)c2)oc2cc(O)cc(O)c12
REMARK SMILES IDX 5 1 3 2 2 3 1 4 22 5 20 6 19 7 17 8 16 9 15 10 14 11 6 12
REMARK SMILES IDX 7 13 8 14 9 15 13 16 11 17 10 18 12 20 4 22 21 24 18 26
REMARK H PARENT 10 19 12 21 4 23 21 25 18 27
REMARK Flexibility Score: inf
ROOT
ATOM      1  C   UNL     1     -36.997  13.185   5.290  1.00  0.00     0.180 A 
ATOM      2  C   UNL     1     -36.897  11.790   5.456  1.00  0.00     0.208 A 
ATOM      3  C   UNL     1     -37.653  11.172   6.463  1.00  0.00     0.238 A 
ATOM      4  O   UNL     1     -37.578   9.921   6.614  1.00  0.00    -0.285 OA
ATOM      5  C   UNL     1     -38.478  11.955   7.296  1.00  0.00     0.111 A 
ATOM      6  C   UNL     1     -39.268  11.408   8.336  1.00  0.00     0.134 A 
ATOM      7  C   UNL     1     -40.056  12.256   9.129  1.00  0.00     0.093 A 
ATOM      8  C   UNL     1     -40.069  13.634   8.904  1.00  0.00     0.123 A 
ATOM      9  C   UNL     1     -39.291  14.180   7.877  1.00  0.00     0.094 A 
ATOM     10  C   UNL     1     -38.500  13.352   7.075  1.00  0.00     0.146 A 
ATOM     11  O   UNL     1     -37.774  13.894   6.104  1.00  0.00    -0.452 OA
ENDROOT
BRANCH   1  12
ATOM     12  C   UNL     1     -36.246  13.909   4.238  1.00  0.00     0.025 A 
ATOM     13  C   UNL     1     -34.970  14.417   4.526  1.00  0.00     0.016 A 
ATOM     14  C   UNL     1     -34.251  15.120   3.557  1.00  0.00     0.051 A 
ATOM     15  C   UNL     1     -34.806  15.338   2.289  1.00  0.00     0.157 A 
ATOM     16  C   UNL     1     -36.807  14.149   2.971  1.00  0.00     0.062 A 
ATOM     17  C   UNL     1     -36.088  14.856   1.997  1.00  0.00     0.158 A 
BRANCH  15  18
ATOM     18  O   UNL     1     -34.091  16.038   1.318  1.00  0.00    -0.504 OA
ATOM     19  H   UNL     1     -33.407  16.742   1.566  1.00  0.00     0.293 HD
ENDBRANCH  15  18
BRANCH  17  20
ATOM     20  O   UNL     1     -36.642  15.088   0.740  1.00  0.00    -0.504 OA
ATOM     21  H   UNL     1     -36.061  15.203  -0.083  1.00  0.00     0.293 HD
ENDBRANCH  17  20
ENDBRANCH   1  12
BRANCH   2  22
ATOM     22  O   UNL     1     -36.034  11.044   4.649  1.00  0.00    -0.502 OA
ATOM     23  H   UNL     1     -36.129  10.042   4.534  1.00  0.00     0.293 HD
ENDBRANCH   2  22
BRANCH   6  24
ATOM     24  O   UNL     1     -39.276  10.036   8.588  1.00  0.00    -0.507 OA
ATOM     25  H   UNL     1     -38.506   9.575   9.059  1.00  0.00     0.293 HD
ENDBRANCH   6  24
BRANCH   8  26
ATOM     26  O   UNL     1     -40.860  14.454   9.706  1.00  0.00    -0.508 OA
ATOM     27  H   UNL     1     -40.468  15.241  10.210  1.00  0.00     0.293 HD
ENDBRANCH   8  26
TORSDOF 6
ENDMDL
MODEL 4
REMARK VINA RESULT:    -7.122      2.188      6.928
REMARK INTER + INTRA:          -8.407
REMARK INTER:                  -8.166
REMARK INTRA:                  -0.240
REMARK UNBOUND:                 0.173
REMARK SMILES O=c1c(O)c(-c2ccc(O)c(O)c2)oc2cc(O)cc(O)c12
REMARK SMILES IDX 5 1 3 2 2 3 1 4 22 5 20 6 19 7 17 8 16 9 15 10 14 11 6 12
REMARK SMILES IDX 7 13 8 14 9 15 13 16 11 17 10 18 12 20 4 22 21 24 18 26
REMARK H PARENT 10 19 12 21 4 23 21 25 18 27
REMARK Flexibility Score: inf
ROOT
ATOM      1  C   UNL     1     -40.532  11.850   7.869  1.00  0.00     0.180 A 
ATOM      2  C   UNL     1     -40.972  11.316   6.642  1.00  0.00     0.208 A 
ATOM      3  C   UNL     1     -40.059  11.216   5.582  1.00  0.00     0.238 A 
ATOM      4  O   UNL     1     -40.438  10.730   4.481  1.00  0.00    -0.285 OA
ATOM      5  C   UNL     1     -38.734  11.667   5.756  1.00  0.00     0.111 A 
ATOM      6  C   UNL     1     -37.754  11.605   4.736  1.00  0.00     0.134 A 
ATOM      7  C   UNL     1     -36.459  12.083   4.985  1.00  0.00     0.093 A 
ATOM      8  C   UNL     1     -36.126  12.621   6.230  1.00  0.00     0.123 A 
ATOM      9  C   UNL     1     -37.089  12.684   7.243  1.00  0.00     0.094 A 
ATOM     10  C   UNL     1     -38.385  12.211   7.015  1.00  0.00     0.146 A 
ATOM     11  O   UNL     1     -39.280  12.278   7.994  1.00  0.00    -0.452 OA
ENDROOT
BRANCH   1  12
ATOM     12  C   UNL     1     -41.430  11.970   9.042  1.00  0.00     0.025 A 
ATOM     13  C   UNL     1     -41.820  10.813   9.733  1.00  0.00     0.016 A 
ATOM     14  C   UNL     1     -42.682  10.899  10.829  1.00  0.00     0.051 A 
ATOM     15  C   UNL     1     -43.179  12.143  11.239  1.00  0.00     0.157 A 
ATOM     16  C   UNL     1     -41.948  13.214   9.444  1.00  0.00     0.062 A 
ATOM     17  C   UNL     1     -42.815  13.302  10.542  1.00  0.00     0.158 A 
BRANCH  15  18
ATOM     18  O   UNL     1     -44.038  12.234  12.333  1.00  0.00    -0.504 OA
ATOM     19  H   UNL     1     -43.704  12.506  13.249  1.00  0.00     0.293 HD
ENDBRANCH  15  18
BRANCH  17  20
ATOM     20  O   UNL     1     -43.323  14.536  10.944  1.00  0.00    -0.504 OA
ATOM     21  H   UNL     1     -43.574  14.717  11.909  1.00  0.00     0.293 HD
ENDBRANCH  17  20
ENDBRANCH   1  12
BRANCH   2  22
ATOM     22  O   UNL     1     -42.302  10.923   6.480  1.00  0.00    -0.502 OA
ATOM     23  H   UNL     1     -43.044  11.252   7.087  1.00  0.00     0.293 HD
ENDBRANCH   2  22
BRANCH   6  24
ATOM     24  O   UNL     1     -38.056  11.075   3.481  1.00  0.00    -0.507 OA
ATOM     25  H   UNL     1     -39.012  10.939   3.174  1.00  0.00     0.293 HD
ENDBRANCH   6  24
BRANCH   8  26
ATOM     26  O   UNL     1     -34.833  13.089   6.452  1.00  0.00    -0.508 OA
ATOM     27  H   UNL     1     -34.196  12.611   7.080  1.00  0.00     0.293 HD
ENDBRANCH   8  26
TORSDOF 6
ENDMDL
MODEL 5
REMARK VINA RESULT:    -7.059      1.953      7.386
REMARK INTER + INTRA:          -8.330
REMARK INTER:                  -8.258
REMARK INTRA:                  -0.072
REMARK UNBOUND:                 0.173
REMARK SMILES O=c1c(O)c(-c2ccc(O)c(O)c2)oc2cc(O)cc(O)c12
REMARK SMILES IDX 5 1 3 2 2 3 1 4 22 5 20 6 19 7 17 8 16 9 15 10 14 11 6 12
REMARK SMILES IDX 7 13 8 14 9 15 13 16 11 17 10 18 12 20 4 22 21 24 18 26
REMARK H PARENT 10 19 12 21 4 23 21 25 18 27
REMARK Flexibility Score: inf
ROOT
ATOM      1  C   UNL     1     -39.636  12.133   7.793  1.00  0.00     0.180 A 
ATOM      2  C   UNL     1     -39.290  13.492   7.659  1.00  0.00     0.208 A 
ATOM      3  C   UNL     1     -38.323  13.854   6.708  1.00  0.00     0.238 A 
ATOM      4  O   UNL     1     -38.013  15.069   6.572  1.00  0.00    -0.285 OA
ATOM      5  C   UNL     1     -37.707  12.856   5.925  1.00  0.00     0.111 A 
ATOM      6  C   UNL     1     -36.721  13.138   4.949  1.00  0.00     0.134 A 
ATOM      7  C   UNL     1     -36.147  12.087   4.216  1.00  0.00     0.093 A 
ATOM      8  C   UNL     1     -36.538  10.766   4.441  1.00  0.00     0.123 A 
ATOM      9  C   UNL     1     -37.512  10.481   5.405  1.00  0.00     0.094 A 
ATOM     10  C   UNL     1     -38.097  11.514   6.143  1.00  0.00     0.146 A 
ATOM     11  O   UNL     1     -39.023  11.217   7.048  1.00  0.00    -0.452 OA
ENDROOT
BRANCH   1  12
ATOM     12  C   UNL     1     -40.660  11.674   8.760  1.00  0.00     0.025 A 
ATOM     13  C   UNL     1     -41.955  12.212   8.700  1.00  0.00     0.016 A 
ATOM     14  C   UNL     1     -42.932  11.809   9.613  1.00  0.00     0.051 A 
ATOM     15  C   UNL     1     -42.624  10.874  10.610  1.00  0.00     0.157 A 
ATOM     16  C   UNL     1     -40.349  10.752   9.775  1.00  0.00     0.062 A 
ATOM     17  C   UNL     1     -41.329  10.348  10.694  1.00  0.00     0.158 A 
BRANCH  15  18
ATOM     18  O   UNL     1     -43.596  10.469  11.522  1.00  0.00    -0.504 OA
ATOM     19  H   UNL     1     -44.299   9.782  11.279  1.00  0.00     0.293 HD
ENDBRANCH  15  18
BRANCH  17  20
ATOM     20  O   UNL     1     -41.021   9.429  11.695  1.00  0.00    -0.504 OA
ATOM     21  H   UNL     1     -41.697   8.742  12.010  1.00  0.00     0.293 HD
ENDBRANCH  17  20
ENDBRANCH   1  12
BRANCH   2  22
ATOM     22  O   UNL     1     -39.880  14.455   8.481  1.00  0.00    -0.502 OA
ATOM     23  H   UNL     1     -40.264  14.230   9.391  1.00  0.00     0.293 HD
ENDBRANCH   2  22
BRANCH   6  24
ATOM     24  O   UNL     1     -36.308  14.447   4.701  1.00  0.00    -0.507 OA
ATOM     25  H   UNL     1     -36.795  15.244   5.093  1.00  0.00     0.293 HD
ENDBRANCH   6  24
BRANCH   8  26
ATOM     26  O   UNL     1     -35.953   9.741   3.701  1.00  0.00    -0.508 OA
ATOM     27  H   UNL     1     -35.200   9.921   3.048  1.00  0.00     0.293 HD
ENDBRANCH   8  26
TORSDOF 6
ENDMDL
MODEL 6
REMARK VINA RESULT:    -7.009      5.945      8.725
REMARK INTER + INTRA:          -8.271
REMARK INTER:                  -7.960
REMARK INTRA:                  -0.310
REMARK UNBOUND:                 0.173
REMARK SMILES O=c1c(O)c(-c2ccc(O)c(O)c2)oc2cc(O)cc(O)c12
REMARK SMILES IDX 5 1 3 2 2 3 1 4 22 5 20 6 19 7 17 8 16 9 15 10 14 11 6 12
REMARK SMILES IDX 7 13 8 14 9 15 13 16 11 17 10 18 12 20 4 22 21 24 18 26
REMARK H PARENT 10 19 12 21 4 23 21 25 18 27
REMARK Flexibility Score: inf
ROOT
ATOM      1  C   UNL     1     -33.782  14.185   1.818  1.00  0.00     0.180 A 
ATOM      2  C   UNL     1     -34.629  15.094   2.482  1.00  0.00     0.208 A 
ATOM      3  C   UNL     1     -35.849  14.632   2.997  1.00  0.00     0.238 A 
ATOM      4  O   UNL     1     -36.611  15.435   3.602  1.00  0.00    -0.285 OA
ATOM      5  C   UNL     1     -36.211  13.279   2.825  1.00  0.00     0.111 A 
ATOM      6  C   UNL     1     -37.424  12.735   3.312  1.00  0.00     0.134 A 
ATOM      7  C   UNL     1     -37.716  11.381   3.092  1.00  0.00     0.093 A 
ATOM      8  C   UNL     1     -36.822  10.563   2.398  1.00  0.00     0.123 A 
ATOM      9  C   UNL     1     -35.621  11.094   1.916  1.00  0.00     0.094 A 
ATOM     10  C   UNL     1     -35.311  12.442   2.126  1.00  0.00     0.146 A 
ATOM     11  O   UNL     1     -34.162  12.920   1.662  1.00  0.00    -0.452 OA
ENDROOT
BRANCH   1  12
ATOM     12  C   UNL     1     -32.470  14.592   1.264  1.00  0.00     0.025 A 
ATOM     13  C   UNL     1     -32.410  15.167  -0.016  1.00  0.00     0.016 A 
ATOM     14  C   UNL     1     -31.183  15.540  -0.568  1.00  0.00     0.051 A 
ATOM     15  C   UNL     1     -29.996  15.330   0.146  1.00  0.00     0.157 A 
ATOM     16  C   UNL     1     -31.275  14.364   1.967  1.00  0.00     0.062 A 
ATOM     17  C   UNL     1     -30.041  14.737   1.414  1.00  0.00     0.158 A 
BRANCH  15  18
ATOM     18  O   UNL     1     -28.769  15.702  -0.401  1.00  0.00    -0.504 OA
ATOM     19  H   UNL     1     -28.625  15.744  -1.402  1.00  0.00     0.293 HD
ENDBRANCH  15  18
BRANCH  17  20
ATOM     20  O   UNL     1     -28.857  14.516   2.115  1.00  0.00    -0.504 OA
ATOM     21  H   UNL     1     -28.136  13.900   1.758  1.00  0.00     0.293 HD
ENDBRANCH  17  20
ENDBRANCH   1  12
BRANCH   2  22
ATOM     22  O   UNL     1     -34.269  16.440   2.594  1.00  0.00    -0.502 OA
ATOM     23  H   UNL     1     -33.469  16.744   3.136  1.00  0.00     0.293 HD
ENDBRANCH   2  22
BRANCH   6  24
ATOM     24  O   UNL     1     -38.339  13.526   4.008  1.00  0.00    -0.507 OA
ATOM     25  H   UNL     1     -39.230  13.160   4.322  1.00  0.00     0.293 HD
ENDBRANCH   6  24
BRANCH   8  26
ATOM     26  O   UNL     1     -37.136   9.221   2.193  1.00  0.00    -0.508 OA
ATOM     27  H   UNL     1     -37.906   8.776   2.678  1.00  0.00     0.293 HD
ENDBRANCH   8  26
TORSDOF 6
ENDMDL
MODEL 7
REMARK VINA RESULT:    -6.893      5.116      8.052
REMARK INTER + INTRA:          -8.130
REMARK INTER:                  -7.813
REMARK INTRA:                  -0.317
REMARK UNBOUND:                 0.173
REMARK SMILES O=c1c(O)c(-c2ccc(O)c(O)c2)oc2cc(O)cc(O)c12
REMARK SMILES IDX 5 1 3 2 2 3 1 4 22 5 20 6 19 7 17 8 16 9 15 10 14 11 6 12
REMARK SMILES IDX 7 13 8 14 9 15 13 16 11 17 10 18 12 20 4 22 21 24 18 26
REMARK H PARENT 10 19 12 21 4 23 21 25 18 27
REMARK Flexibility Score: inf
ROOT
ATOM      1  C   UNL     1     -33.770  13.905   1.873  1.00  0.00     0.180 A 
ATOM      2  C   UNL     1     -34.360  12.748   1.329  1.00  0.00     0.208 A 
ATOM      3  C   UNL     1     -35.618  12.342   1.802  1.00  0.00     0.238 A 
ATOM      4  O   UNL     1     -36.161  11.313   1.315  1.00  0.00    -0.285 OA
ATOM      5  C   UNL     1     -36.252  13.084   2.820  1.00  0.00     0.111 A 
ATOM      6  C   UNL     1     -37.518  12.740   3.354  1.00  0.00     0.134 A 
ATOM      7  C   UNL     1     -38.079  13.524   4.373  1.00  0.00     0.093 A 
ATOM      8  C   UNL     1     -37.402  14.641   4.867  1.00  0.00     0.123 A 
ATOM      9  C   UNL     1     -36.152  14.987   4.343  1.00  0.00     0.094 A 
ATOM     10  C   UNL     1     -35.576  14.219   3.326  1.00  0.00     0.146 A 
ATOM     11  O   UNL     1     -34.391  14.572   2.842  1.00  0.00    -0.452 OA
ENDROOT
BRANCH   1  12
ATOM     12  C   UNL     1     -32.455  14.407   1.413  1.00  0.00     0.025 A 
ATOM     13  C   UNL     1     -32.388  15.218   0.269  1.00  0.00     0.016 A 
ATOM     14  C   UNL     1     -31.157  15.687  -0.196  1.00  0.00     0.051 A 
ATOM     15  C   UNL     1     -29.974  15.340   0.468  1.00  0.00     0.157 A 
ATOM     16  C   UNL     1     -31.263  14.044   2.064  1.00  0.00     0.062 A 
ATOM     17  C   UNL     1     -30.026  14.513   1.597  1.00  0.00     0.158 A 
BRANCH  15  18
ATOM     18  O   UNL     1     -28.743  15.807   0.008  1.00  0.00    -0.504 OA
ATOM     19  H   UNL     1     -27.933  15.202  -0.048  1.00  0.00     0.293 HD
ENDBRANCH  15  18
BRANCH  17  20
ATOM     20  O   UNL     1     -28.846  14.158   2.247  1.00  0.00    -0.504 OA
ATOM     21  H   UNL     1     -27.993  13.968   1.732  1.00  0.00     0.293 HD
ENDBRANCH  17  20
ENDBRANCH   1  12
BRANCH   2  22
ATOM     22  O   UNL     1     -33.688  12.003   0.357  1.00  0.00    -0.502 OA
ATOM     23  H   UNL     1     -34.038  11.116   0.014  1.00  0.00     0.293 HD
ENDBRANCH   2  22
BRANCH   6  24
ATOM     24  O   UNL     1     -38.219  11.629   2.883  1.00  0.00    -0.507 OA
ATOM     25  H   UNL     1     -38.167  10.729   3.346  1.00  0.00     0.293 HD
ENDBRANCH   6  24
BRANCH   8  26
ATOM     26  O   UNL     1     -37.981  15.403   5.879  1.00  0.00    -0.508 OA
ATOM     27  H   UNL     1     -37.531  15.520   6.780  1.00  0.00     0.293 HD
ENDBRANCH   8  26
TORSDOF 6
ENDMDL
MODEL 8
REMARK VINA RESULT:    -6.865      2.866      8.371
REMARK INTER + INTRA:          -8.097
REMARK INTER:                  -7.774
REMARK INTRA:                  -0.323
REMARK UNBOUND:                 0.173
REMARK SMILES O=c1c(O)c(-c2ccc(O)c(O)c2)oc2cc(O)cc(O)c12
REMARK SMILES IDX 5 1 3 2 2 3 1 4 22 5 20 6 19 7 17 8 16 9 15 10 14 11 6 12
REMARK SMILES IDX 7 13 8 14 9 15 13 16 11 17 10 18 12 20 4 22 21 24 18 26
REMARK H PARENT 10 19 12 21 4 23 21 25 18 27
REMARK Flexibility Score: inf
ROOT
ATOM      1  C   UNL     1     -36.224  13.488   4.739  1.00  0.00     0.180 A 
ATOM      2  C   UNL     1     -34.876  13.873   4.868  1.00  0.00     0.208 A 
ATOM      3  C   UNL     1     -34.197  14.353   3.738  1.00  0.00     0.238 A 
ATOM      4  O   UNL     1     -32.991  14.710   3.844  1.00  0.00    -0.285 OA
ATOM      5  C   UNL     1     -34.867  14.423   2.499  1.00  0.00     0.111 A 
ATOM      6  C   UNL     1     -34.253  14.892   1.312  1.00  0.00     0.134 A 
ATOM      7  C   UNL     1     -34.985  14.922   0.116  1.00  0.00     0.093 A 
ATOM      8  C   UNL     1     -36.314  14.494   0.082  1.00  0.00     0.123 A 
ATOM      9  C   UNL     1     -36.926  14.030   1.252  1.00  0.00     0.094 A 
ATOM     10  C   UNL     1     -36.214  13.994   2.455  1.00  0.00     0.146 A 
ATOM     11  O   UNL     1     -36.821  13.554   3.552  1.00  0.00    -0.452 OA
ENDROOT
BRANCH   1  12
ATOM     12  C   UNL     1     -37.014  12.990   5.889  1.00  0.00     0.025 A 
ATOM     13  C   UNL     1     -37.664  13.908   6.729  1.00  0.00     0.016 A 
ATOM     14  C   UNL     1     -38.397  13.462   7.831  1.00  0.00     0.051 A 
ATOM     15  C   UNL     1     -38.478  12.094   8.118  1.00  0.00     0.157 A 
ATOM     16  C   UNL     1     -37.081  11.619   6.193  1.00  0.00     0.062 A 
ATOM     17  C   UNL     1     -37.815  11.170   7.300  1.00  0.00     0.158 A 
BRANCH  15  18
ATOM     18  O   UNL     1     -39.211  11.645   9.216  1.00  0.00    -0.504 OA
ATOM     19  H   UNL     1     -38.874  10.895   9.808  1.00  0.00     0.293 HD
ENDBRANCH  15  18
BRANCH  17  20
ATOM     20  O   UNL     1     -37.886   9.811   7.597  1.00  0.00    -0.504 OA
ATOM     21  H   UNL     1     -38.302   9.477   8.459  1.00  0.00     0.293 HD
ENDBRANCH  17  20
ENDBRANCH   1  12
BRANCH   2  22
ATOM     22  O   UNL     1     -34.221  13.747   6.095  1.00  0.00    -0.502 OA
ATOM     23  H   UNL     1     -34.645  14.033   6.969  1.00  0.00     0.293 HD
ENDBRANCH   2  22
BRANCH   6  24
ATOM     24  O   UNL     1     -32.927  15.325   1.312  1.00  0.00    -0.507 OA
ATOM     25  H   UNL     1     -32.665  16.240   0.964  1.00  0.00     0.293 HD
ENDBRANCH   6  24
BRANCH   8  26
ATOM     26  O   UNL     1     -37.019  14.534  -1.118  1.00  0.00    -0.508 OA
ATOM     27  H   UNL     1     -36.753  13.958  -1.909  1.00  0.00     0.293 HD
ENDBRANCH   8  26
TORSDOF 6
ENDMDL
MODEL 9
REMARK VINA RESULT:    -6.739      2.478      6.802
REMARK INTER + INTRA:          -7.945
REMARK INTER:                  -7.657
REMARK INTRA:                  -0.288
REMARK UNBOUND:                 0.173
REMARK SMILES O=c1c(O)c(-c2ccc(O)c(O)c2)oc2cc(O)cc(O)c12
REMARK SMILES IDX 5 1 3 2 2 3 1 4 22 5 20 6 19 7 17 8 16 9 15 10 14 11 6 12
REMARK SMILES IDX 7 13 8 14 9 15 13 16 11 17 10 18 12 20 4 22 21 24 18 26
REMARK H PARENT 10 19 12 21 4 23 21 25 18 27
REMARK Flexibility Score: inf
ROOT
ATOM      1  C   UNL     1     -39.638  11.987   7.026  1.00  0.00     0.180 A 
ATOM      2  C   UNL     1     -38.924  10.847   7.443  1.00  0.00     0.208 A 
ATOM      3  C   UNL     1     -37.992  10.272   6.566  1.00  0.00     0.238 A 
ATOM      4  O   UNL     1     -37.340   9.256   6.933  1.00  0.00    -0.285 OA
ATOM      5  C   UNL     1     -37.803  10.831   5.285  1.00  0.00     0.111 A 
ATOM      6  C   UNL     1     -36.886  10.309   4.340  1.00  0.00     0.134 A 
ATOM      7  C   UNL     1     -36.762  10.917   3.082  1.00  0.00     0.093 A 
ATOM      8  C   UNL     1     -37.536  12.031   2.750  1.00  0.00     0.123 A 
ATOM      9  C   UNL     1     -38.443  12.552   3.679  1.00  0.00     0.094 A 
ATOM     10  C   UNL     1     -38.579  11.962   4.940  1.00  0.00     0.146 A 
ATOM     11  O   UNL     1     -39.444  12.479   5.805  1.00  0.00    -0.452 OA
ENDROOT
BRANCH   1  12
ATOM     12  C   UNL     1     -40.623  12.662   7.901  1.00  0.00     0.025 A 
ATOM     13  C   UNL     1     -40.240  13.807   8.617  1.00  0.00     0.016 A 
ATOM     14  C   UNL     1     -41.146  14.449   9.464  1.00  0.00     0.051 A 
ATOM     15  C   UNL     1     -42.444  13.946   9.619  1.00  0.00     0.157 A 
ATOM     16  C   UNL     1     -41.920  12.149   8.076  1.00  0.00     0.062 A 
ATOM     17  C   UNL     1     -42.831  12.791   8.928  1.00  0.00     0.158 A 
BRANCH  15  18
ATOM     18  O   UNL     1     -43.352  14.585  10.463  1.00  0.00    -0.504 OA
ATOM     19  H   UNL     1     -44.233  14.156  10.717  1.00  0.00     0.293 HD
ENDBRANCH  15  18
BRANCH  17  20
ATOM     20  O   UNL     1     -44.118  12.286   9.096  1.00  0.00    -0.504 OA
ATOM     21  H   UNL     1     -44.937  12.824   8.837  1.00  0.00     0.293 HD
ENDBRANCH  17  20
ENDBRANCH   1  12
BRANCH   2  22
ATOM     22  O   UNL     1     -39.166  10.284   8.698  1.00  0.00    -0.502 OA
ATOM     23  H   UNL     1     -38.816   9.370   8.960  1.00  0.00     0.293 HD
ENDBRANCH   2  22
BRANCH   6  24
ATOM     24  O   UNL     1     -36.100   9.196   4.640  1.00  0.00    -0.507 OA
ATOM     25  H   UNL     1     -36.230   8.665   5.494  1.00  0.00     0.293 HD
ENDBRANCH   6  24
BRANCH   8  26
ATOM     26  O   UNL     1     -37.394  12.616   1.494  1.00  0.00    -0.508 OA
ATOM     27  H   UNL     1     -36.506  12.616   1.005  1.00  0.00     0.293 HD
ENDBRANCH   8  26
TORSDOF 6
ENDMDL
