MODEL 1
REMARK VINA RESULT:    13.952      0.000      0.000
REMARK INTER + INTRA:          20.142
REMARK INTER:                  18.438
REMARK INTRA:                   1.704
REMARK UNBOUND:                 1.704
REMARK SMILES CC[C@@H](C=C[C@H](C)[C@@H]1CC[C@@H]2C3=CC[C@H]4C[C@@H](O)CC[C@]4(C)[C@@H]3CC[C@@]21C)C(C)C
REMARK SMILES IDX 6 1 7 2 5 3 4 4 3 5 2 6 1 7 28 8 29 9 30 10 8 11 9 12 26 13
REMARK SMILES IDX 10 14 11 15 25 16 27 17 12 18 24 19 23 20 13 21 21 22 14 23
REMARK SMILES IDX 15 24 20 25 22 26 16 27 19 28 17 29 18 30
REMARK H PARENT 18 31
REMARK Flexibility Score: inf
ROOT
ATOM      1  C   UNL     1     131.098 129.468 136.898  1.00  0.00     0.012 C 
ATOM      2  C   UNL     1     132.014 128.230 136.886  1.00  0.00     0.012 C 
ENDROOT
BRANCH   1   3
ATOM      3  C   UNL     1     130.426 129.579 138.259  1.00  0.00    -0.028 C 
ATOM      4  C   UNL     1     130.428 128.624 139.215  1.00  0.00    -0.027 C 
BRANCH   4   5
ATOM      5  C   UNL     1     131.108 127.262 139.132  1.00  0.00     0.014 C 
BRANCH   5   6
ATOM      6  C   UNL     1     130.388 126.376 138.078  1.00  0.00     0.004 C 
ATOM      7  C   UNL     1     128.884 126.625 137.987  1.00  0.00     0.004 C 
ENDBRANCH   5   6
BRANCH   5   8
ATOM      8  C   UNL     1     131.087 126.579 140.538  1.00  0.00    -0.011 C 
ATOM      9  C   UNL     1     132.245 125.580 140.725  1.00  0.00     0.008 C 
ATOM     10  C   UNL     1     131.133 127.606 141.686  1.00  0.00     0.008 C 
ENDBRANCH   5   8
ENDBRANCH   4   5
ENDBRANCH   1   3
BRANCH   1  11
ATOM     11  C   UNL     1     131.914 130.732 136.446  1.00  0.00     0.002 C 
ATOM     12  C   UNL     1     133.002 130.487 135.399  1.00  0.00     0.005 C 
ATOM     13  C   UNL     1     132.554 131.660 137.525  1.00  0.00    -0.023 C 
ATOM     14  C   UNL     1     133.932 131.693 135.486  1.00  0.00     0.009 C 
ATOM     15  C   UNL     1     133.447 132.588 136.653  1.00  0.00     0.021 C 
ATOM     16  C   UNL     1     133.448 130.876 138.536  1.00  0.00     0.008 C 
ATOM     17  C   UNL     1     131.416 132.429 138.253  1.00  0.00     0.012 C 
ATOM     18  C   UNL     1     134.614 133.239 137.398  1.00  0.00    -0.067 C 
ATOM     19  C   UNL     1     134.458 131.710 139.368  1.00  0.00     0.009 C 
ATOM     20  C   UNL     1     134.638 133.180 138.922  1.00  0.00     0.021 C 
ATOM     21  C   UNL     1     135.614 133.806 136.682  1.00  0.00    -0.027 C 
ATOM     22  C   UNL     1     135.851 133.957 139.585  1.00  0.00    -0.023 C 
ATOM     23  C   UNL     1     136.888 134.324 137.286  1.00  0.00     0.031 C 
ATOM     24  C   UNL     1     137.120 133.763 138.697  1.00  0.00     0.002 C 
ATOM     25  C   UNL     1     136.159 133.447 141.032  1.00  0.00     0.010 C 
ATOM     26  C   UNL     1     135.448 135.463 139.678  1.00  0.00     0.012 C 
ATOM     27  C   UNL     1     138.399 134.373 139.318  1.00  0.00     0.036 C 
ATOM     28  C   UNL     1     137.408 134.096 141.642  1.00  0.00     0.032 C 
ATOM     29  C   UNL     1     138.637 133.856 140.748  1.00  0.00     0.114 C 
BRANCH  29  30
ATOM     30  O   UNL     1     139.783 134.448 141.303  1.00  0.00    -0.393 OA
ATOM     31  H   UNL     1     140.577 133.987 140.923  1.00  0.00     0.210 HD
ENDBRANCH  29  30
ENDBRANCH   1  11
TORSDOF 6
ENDMDL
MODEL 2
REMARK VINA RESULT:    14.501      2.892      8.113
REMARK INTER + INTRA:          20.868
REMARK INTER:                  22.001
REMARK INTRA:                  -1.133
REMARK UNBOUND:                 1.704
REMARK SMILES CC[C@@H](C=C[C@H](C)[C@@H]1CC[C@@H]2C3=CC[C@H]4C[C@@H](O)CC[C@]4(C)[C@@H]3CC[C@@]21C)C(C)C
REMARK SMILES IDX 6 1 7 2 5 3 4 4 3 5 2 6 1 7 28 8 29 9 30 10 8 11 9 12 26 13
REMARK SMILES IDX 10 14 11 15 25 16 27 17 12 18 24 19 23 20 13 21 21 22 14 23
REMARK SMILES IDX 15 24 20 25 22 26 16 27 19 28 17 29 18 30
REMARK H PARENT 18 31
REMARK Flexibility Score: inf
ROOT
ATOM      1  C   UNL     1     136.660 134.275 138.983  1.00  0.00     0.012 C 
ATOM      2  C   UNL     1     137.270 135.394 138.119  1.00  0.00     0.012 C 
ENDROOT
BRANCH   1   3
ATOM      3  C   UNL     1     137.115 134.453 140.425  1.00  0.00    -0.028 C 
ATOM      4  C   UNL     1     138.190 133.855 140.987  1.00  0.00    -0.027 C 
BRANCH   4   5
ATOM      5  C   UNL     1     139.160 132.904 140.296  1.00  0.00     0.014 C 
BRANCH   5   6
ATOM      6  C   UNL     1     138.589 131.460 140.315  1.00  0.00     0.004 C 
ATOM      7  C   UNL     1     137.272 131.327 141.077  1.00  0.00     0.004 C 
ENDBRANCH   5   6
BRANCH   5   8
ATOM      8  C   UNL     1     140.549 132.960 141.013  1.00  0.00    -0.011 C 
ATOM      9  C   UNL     1     140.935 134.390 141.438  1.00  0.00     0.008 C 
ATOM     10  C   UNL     1     140.603 132.047 142.252  1.00  0.00     0.008 C 
ENDBRANCH   5   8
ENDBRANCH   4   5
ENDBRANCH   1   3
BRANCH   1  11
ATOM     11  C   UNL     1     135.104 134.233 138.771  1.00  0.00     0.002 C 
ATOM     12  C   UNL     1     134.252 134.391 140.031  1.00  0.00     0.005 C 
ATOM     13  C   UNL     1     134.470 133.056 137.965  1.00  0.00    -0.023 C 
ATOM     14  C   UNL     1     132.875 133.848 139.665  1.00  0.00     0.009 C 
ATOM     15  C   UNL     1     132.953 133.277 138.227  1.00  0.00     0.021 C 
ATOM     16  C   UNL     1     134.895 131.658 138.513  1.00  0.00     0.008 C 
ATOM     17  C   UNL     1     134.853 133.219 136.468  1.00  0.00     0.012 C 
ATOM     18  C   UNL     1     132.085 132.029 138.059  1.00  0.00    -0.067 C 
ATOM     19  C   UNL     1     134.020 130.448 138.092  1.00  0.00     0.009 C 
ATOM     20  C   UNL     1     132.688 130.799 137.387  1.00  0.00     0.021 C 
ATOM     21  C   UNL     1     130.824 132.035 138.554  1.00  0.00    -0.027 C 
ATOM     22  C   UNL     1     131.672 129.596 137.198  1.00  0.00    -0.023 C 
ATOM     23  C   UNL     1     129.937 130.824 138.604  1.00  0.00     0.031 C 
ATOM     24  C   UNL     1     130.738 129.522 138.446  1.00  0.00     0.002 C 
ATOM     25  C   UNL     1     132.405 128.225 137.029  1.00  0.00     0.010 C 
ATOM     26  C   UNL     1     130.857 129.873 135.895  1.00  0.00     0.012 C 
ATOM     27  C   UNL     1     129.788 128.302 138.428  1.00  0.00     0.036 C 
ATOM     28  C   UNL     1     131.440 127.032 136.971  1.00  0.00     0.032 C 
ATOM     29  C   UNL     1     130.560 126.986 138.233  1.00  0.00     0.114 C 
BRANCH  29  30
ATOM     30  O   UNL     1     129.676 125.896 138.185  1.00  0.00    -0.393 OA
ATOM     31  H   UNL     1     128.752 126.258 138.123  1.00  0.00     0.210 HD
ENDBRANCH  29  30
ENDBRANCH   1  11
TORSDOF 6
ENDMDL
MODEL 3
REMARK VINA RESULT:    14.720      3.081      7.948
REMARK INTER + INTRA:          21.157
REMARK INTER:                  18.192
REMARK INTRA:                   2.965
REMARK UNBOUND:                 1.704
REMARK SMILES CC[C@@H](C=C[C@H](C)[C@@H]1CC[C@@H]2C3=CC[C@H]4C[C@@H](O)CC[C@]4(C)[C@@H]3CC[C@@]21C)C(C)C
REMARK SMILES IDX 6 1 7 2 5 3 4 4 3 5 2 6 1 7 28 8 29 9 30 10 8 11 9 12 26 13
REMARK SMILES IDX 10 14 11 15 25 16 27 17 12 18 24 19 23 20 13 21 21 22 14 23
REMARK SMILES IDX 15 24 20 25 22 26 16 27 19 28 17 29 18 30
REMARK H PARENT 18 31
REMARK Flexibility Score: inf
ROOT
ATOM      1  C   UNL     1     133.387 134.780 137.621  1.00  0.00     0.012 C 
ATOM      2  C   UNL     1     131.884 134.997 137.370  1.00  0.00     0.012 C 
ENDROOT
BRANCH   1   3
ATOM      3  C   UNL     1     133.713 135.161 139.058  1.00  0.00    -0.028 C 
ATOM      4  C   UNL     1     134.946 135.145 139.613  1.00  0.00    -0.027 C 
BRANCH   4   5
ATOM      5  C   UNL     1     136.246 134.760 138.917  1.00  0.00     0.014 C 
BRANCH   5   6
ATOM      6  C   UNL     1     135.948 134.276 137.472  1.00  0.00     0.004 C 
ATOM      7  C   UNL     1     137.007 133.332 136.906  1.00  0.00     0.004 C 
ENDBRANCH   5   6
BRANCH   5   8
ATOM      8  C   UNL     1     136.969 133.643 139.738  1.00  0.00    -0.011 C 
ATOM      9  C   UNL     1     138.359 134.083 140.235  1.00  0.00     0.008 C 
ATOM     10  C   UNL     1     136.138 133.179 140.949  1.00  0.00     0.008 C 
ENDBRANCH   5   8
ENDBRANCH   4   5
ENDBRANCH   1   3
BRANCH   1  11
ATOM     11  C   UNL     1     133.785 133.318 137.207  1.00  0.00     0.002 C 
ATOM     12  C   UNL     1     133.681 132.992 135.717  1.00  0.00     0.005 C 
ATOM     13  C   UNL     1     133.151 132.106 137.959  1.00  0.00    -0.023 C 
ATOM     14  C   UNL     1     133.639 131.470 135.632  1.00  0.00     0.009 C 
ATOM     15  C   UNL     1     133.611 130.912 137.076  1.00  0.00     0.021 C 
ATOM     16  C   UNL     1     131.592 132.166 137.983  1.00  0.00     0.008 C 
ATOM     17  C   UNL     1     133.738 132.054 139.397  1.00  0.00     0.012 C 
ATOM     18  C   UNL     1     132.742 129.658 137.188  1.00  0.00    -0.067 C 
ATOM     19  C   UNL     1     130.848 130.843 138.307  1.00  0.00     0.009 C 
ATOM     20  C   UNL     1     131.724 129.569 138.322  1.00  0.00     0.021 C 
ATOM     21  C   UNL     1     132.866 128.688 136.252  1.00  0.00    -0.027 C 
ATOM     22  C   UNL     1     130.938 128.193 138.384  1.00  0.00    -0.023 C 
ATOM     23  C   UNL     1     131.957 127.496 136.154  1.00  0.00     0.031 C 
ATOM     24  C   UNL     1     130.647 127.711 136.928  1.00  0.00     0.002 C 
ATOM     25  C   UNL     1     129.584 128.321 139.157  1.00  0.00     0.010 C 
ATOM     26  C   UNL     1     131.839 127.173 139.150  1.00  0.00     0.012 C 
ATOM     27  C   UNL     1     129.769 126.439 136.868  1.00  0.00     0.036 C 
ATOM     28  C   UNL     1     128.749 127.034 139.119  1.00  0.00     0.032 C 
ATOM     29  C   UNL     1     128.465 126.614 137.667  1.00  0.00     0.114 C 
BRANCH  29  30
ATOM     30  O   UNL     1     127.701 125.436 137.627  1.00  0.00    -0.393 OA
ATOM     31  H   UNL     1     126.809 125.641 138.017  1.00  0.00     0.210 HD
ENDBRANCH  29  30
ENDBRANCH   1  11
TORSDOF 6
ENDMDL
MODEL 4
REMARK VINA RESULT:    15.178      1.280      2.409
REMARK INTER + INTRA:          21.763
REMARK INTER:                  22.682
REMARK INTRA:                  -0.919
REMARK UNBOUND:                 1.704
REMARK SMILES CC[C@@H](C=C[C@H](C)[C@@H]1CC[C@@H]2C3=CC[C@H]4C[C@@H](O)CC[C@]4(C)[C@@H]3CC[C@@]21C)C(C)C
REMARK SMILES IDX 6 1 7 2 5 3 4 4 3 5 2 6 1 7 28 8 29 9 30 10 8 11 9 12 26 13
REMARK SMILES IDX 10 14 11 15 25 16 27 17 12 18 24 19 23 20 13 21 21 22 14 23
REMARK SMILES IDX 15 24 20 25 22 26 16 27 19 28 17 29 18 30
REMARK H PARENT 18 31
REMARK Flexibility Score: inf
ROOT
ATOM      1  C   UNL     1     131.540 131.203 136.946  1.00  0.00     0.012 C 
ATOM      2  C   UNL     1     130.751 131.305 135.628  1.00  0.00     0.012 C 
ENDROOT
BRANCH   1   3
ATOM      3  C   UNL     1     132.321 129.897 136.960  1.00  0.00    -0.028 C 
ATOM      4  C   UNL     1     131.939 128.762 137.589  1.00  0.00    -0.027 C 
BRANCH   4   5
ATOM      5  C   UNL     1     130.658 128.558 138.389  1.00  0.00     0.014 C 
BRANCH   5   6
ATOM      6  C   UNL     1     130.831 129.136 139.820  1.00  0.00     0.004 C 
ATOM      7  C   UNL     1     130.873 128.071 140.915  1.00  0.00     0.004 C 
ENDBRANCH   5   6
BRANCH   5   8
ATOM      8  C   UNL     1     130.311 127.034 138.444  1.00  0.00    -0.011 C 
ATOM      9  C   UNL     1     128.941 126.718 137.814  1.00  0.00     0.008 C 
ATOM     10  C   UNL     1     131.382 126.167 137.754  1.00  0.00     0.008 C 
ENDBRANCH   5   8
ENDBRANCH   4   5
ENDBRANCH   1   3
BRANCH   1  11
ATOM     11  C   UNL     1     132.400 132.502 137.148  1.00  0.00     0.002 C 
ATOM     12  C   UNL     1     133.261 132.927 135.957  1.00  0.00     0.005 C 
ATOM     13  C   UNL     1     133.312 132.632 138.408  1.00  0.00    -0.023 C 
ATOM     14  C   UNL     1     134.317 133.865 136.530  1.00  0.00     0.009 C 
ATOM     15  C   UNL     1     134.139 133.904 138.068  1.00  0.00     0.021 C 
ATOM     16  C   UNL     1     134.274 131.415 138.578  1.00  0.00     0.008 C 
ATOM     17  C   UNL     1     132.406 132.817 139.657  1.00  0.00     0.012 C 
ATOM     18  C   UNL     1     135.480 134.011 138.797  1.00  0.00    -0.067 C 
ATOM     19  C   UNL     1     135.496 131.617 139.513  1.00  0.00     0.009 C 
ATOM     20  C   UNL     1     135.757 133.072 139.967  1.00  0.00     0.021 C 
ATOM     21  C   UNL     1     136.399 134.901 138.352  1.00  0.00    -0.027 C 
ATOM     22  C   UNL     1     137.143 133.329 140.694  1.00  0.00    -0.023 C 
ATOM     23  C   UNL     1     137.807 134.982 138.871  1.00  0.00     0.031 C 
ATOM     24  C   UNL     1     138.213 133.705 139.621  1.00  0.00     0.002 C 
ATOM     25  C   UNL     1     137.636 132.073 141.486  1.00  0.00     0.010 C 
ATOM     26  C   UNL     1     136.929 134.492 141.714  1.00  0.00     0.012 C 
ATOM     27  C   UNL     1     139.638 133.851 140.205  1.00  0.00     0.036 C 
ATOM     28  C   UNL     1     139.035 132.258 142.091  1.00  0.00     0.032 C 
ATOM     29  C   UNL     1     140.058 132.599 140.995  1.00  0.00     0.114 C 
BRANCH  29  30
ATOM     30  O   UNL     1     141.340 132.768 141.543  1.00  0.00    -0.393 OA
ATOM     31  H   UNL     1     141.432 132.131 142.301  1.00  0.00     0.210 HD
ENDBRANCH  29  30
ENDBRANCH   1  11
TORSDOF 6
ENDMDL
MODEL 5
REMARK VINA RESULT:    15.260      2.821      7.772
REMARK INTER + INTRA:          21.871
REMARK INTER:                  22.054
REMARK INTRA:                  -0.183
REMARK UNBOUND:                 1.704
REMARK SMILES CC[C@@H](C=C[C@H](C)[C@@H]1CC[C@@H]2C3=CC[C@H]4C[C@@H](O)CC[C@]4(C)[C@@H]3CC[C@@]21C)C(C)C
REMARK SMILES IDX 6 1 7 2 5 3 4 4 3 5 2 6 1 7 28 8 29 9 30 10 8 11 9 12 26 13
REMARK SMILES IDX 10 14 11 15 25 16 27 17 12 18 24 19 23 20 13 21 21 22 14 23
REMARK SMILES IDX 15 24 20 25 22 26 16 27 19 28 17 29 18 30
REMARK H PARENT 18 31
REMARK Flexibility Score: inf
ROOT
ATOM      1  C   UNL     1     133.409 134.931 137.866  1.00  0.00     0.012 C 
ATOM      2  C   UNL     1     132.678 135.956 136.980  1.00  0.00     0.012 C 
ENDROOT
BRANCH   1   3
ATOM      3  C   UNL     1     134.305 135.669 138.850  1.00  0.00    -0.028 C 
ATOM      4  C   UNL     1     135.616 135.413 139.062  1.00  0.00    -0.027 C 
BRANCH   4   5
ATOM      5  C   UNL     1     136.456 134.355 138.356  1.00  0.00     0.014 C 
BRANCH   5   6
ATOM      6  C   UNL     1     135.601 133.634 137.278  1.00  0.00     0.004 C 
ATOM      7  C   UNL     1     136.380 133.268 136.016  1.00  0.00     0.004 C 
ENDBRANCH   5   6
BRANCH   5   8
ATOM      8  C   UNL     1     137.000 133.332 139.407  1.00  0.00    -0.011 C 
ATOM      9  C   UNL     1     138.137 133.919 140.266  1.00  0.00     0.008 C 
ATOM     10  C   UNL     1     135.893 132.814 140.345  1.00  0.00     0.008 C 
ENDBRANCH   5   8
ENDBRANCH   4   5
ENDBRANCH   1   3
BRANCH   1  11
ATOM     11  C   UNL     1     132.364 133.952 138.513  1.00  0.00     0.002 C 
ATOM     12  C   UNL     1     132.601 133.596 139.981  1.00  0.00     0.005 C 
ATOM     13  C   UNL     1     132.018 132.611 137.792  1.00  0.00    -0.023 C 
ATOM     14  C   UNL     1     131.799 132.323 140.227  1.00  0.00     0.009 C 
ATOM     15  C   UNL     1     131.181 131.878 138.878  1.00  0.00     0.021 C 
ATOM     16  C   UNL     1     133.288 131.768 137.456  1.00  0.00     0.008 C 
ATOM     17  C   UNL     1     131.197 132.935 136.513  1.00  0.00     0.012 C 
ATOM     18  C   UNL     1     131.144 130.355 138.740  1.00  0.00    -0.067 C 
ATOM     19  C   UNL     1     133.064 130.265 137.144  1.00  0.00     0.009 C 
ATOM     20  C   UNL     1     131.648 129.722 137.446  1.00  0.00     0.021 C 
ATOM     21  C   UNL     1     130.711 129.612 139.786  1.00  0.00    -0.027 C 
ATOM     22  C   UNL     1     131.487 128.146 137.387  1.00  0.00    -0.023 C 
ATOM     23  C   UNL     1     130.788 128.112 139.837  1.00  0.00     0.031 C 
ATOM     24  C   UNL     1     131.776 127.555 138.802  1.00  0.00     0.002 C 
ATOM     25  C   UNL     1     132.462 127.492 136.353  1.00  0.00     0.010 C 
ATOM     26  C   UNL     1     130.024 127.841 136.933  1.00  0.00     0.012 C 
ATOM     27  C   UNL     1     131.775 126.008 138.831  1.00  0.00     0.036 C 
ATOM     28  C   UNL     1     132.413 125.957 136.371  1.00  0.00     0.032 C 
ATOM     29  C   UNL     1     132.730 125.421 137.777  1.00  0.00     0.114 C 
BRANCH  29  30
ATOM     30  O   UNL     1     132.687 124.018 137.799  1.00  0.00    -0.393 OA
ATOM     31  H   UNL     1     133.618 123.684 137.705  1.00  0.00     0.210 HD
ENDBRANCH  29  30
ENDBRANCH   1  11
TORSDOF 6
ENDMDL
MODEL 6
REMARK VINA RESULT:    15.352      2.832      8.200
REMARK INTER + INTRA:          21.993
REMARK INTER:                  21.537
REMARK INTRA:                   0.456
REMARK UNBOUND:                 1.704
REMARK SMILES CC[C@@H](C=C[C@H](C)[C@@H]1CC[C@@H]2C3=CC[C@H]4C[C@@H](O)CC[C@]4(C)[C@@H]3CC[C@@]21C)C(C)C
REMARK SMILES IDX 6 1 7 2 5 3 4 4 3 5 2 6 1 7 28 8 29 9 30 10 8 11 9 12 26 13
REMARK SMILES IDX 10 14 11 15 25 16 27 17 12 18 24 19 23 20 13 21 21 22 14 23
REMARK SMILES IDX 15 24 20 25 22 26 16 27 19 28 17 29 18 30
REMARK H PARENT 18 31
REMARK Flexibility Score: inf
ROOT
ATOM      1  C   UNL     1     136.475 134.935 139.707  1.00  0.00     0.012 C 
ATOM      2  C   UNL     1     136.401 134.381 141.141  1.00  0.00     0.012 C 
ENDROOT
BRANCH   1   3
ATOM      3  C   UNL     1     137.618 134.254 138.967  1.00  0.00    -0.028 C 
ATOM      4  C   UNL     1     138.719 133.720 139.544  1.00  0.00    -0.027 C 
BRANCH   4   5
ATOM      5  C   UNL     1     139.028 133.680 141.036  1.00  0.00     0.014 C 
BRANCH   5   6
ATOM      6  C   UNL     1     140.188 134.661 141.361  1.00  0.00     0.004 C 
ATOM      7  C   UNL     1     140.196 135.148 142.809  1.00  0.00     0.004 C 
ENDBRANCH   5   6
BRANCH   5   8
ATOM      8  C   UNL     1     139.402 132.220 141.455  1.00  0.00    -0.011 C 
ATOM      9  C   UNL     1     139.008 131.182 140.387  1.00  0.00     0.008 C 
ATOM     10  C   UNL     1     140.904 132.067 141.759  1.00  0.00     0.008 C 
ENDBRANCH   5   8
ENDBRANCH   4   5
ENDBRANCH   1   3
BRANCH   1  11
ATOM     11  C   UNL     1     135.066 134.817 139.022  1.00  0.00     0.002 C 
ATOM     12  C   UNL     1     133.861 135.106 139.917  1.00  0.00     0.005 C 
ATOM     13  C   UNL     1     134.708 133.527 138.218  1.00  0.00    -0.023 C 
ATOM     14  C   UNL     1     132.665 134.478 139.209  1.00  0.00     0.009 C 
ATOM     15  C   UNL     1     133.189 133.732 137.957  1.00  0.00     0.021 C 
ATOM     16  C   UNL     1     134.924 132.224 139.050  1.00  0.00     0.008 C 
ATOM     17  C   UNL     1     135.548 133.511 136.911  1.00  0.00     0.012 C 
ATOM     18  C   UNL     1     132.406 132.445 137.688  1.00  0.00    -0.067 C 
ATOM     19  C   UNL     1     134.214 130.943 138.536  1.00  0.00     0.009 C 
ATOM     20  C   UNL     1     133.178 131.160 137.408  1.00  0.00     0.021 C 
ATOM     21  C   UNL     1     131.054 132.475 137.754  1.00  0.00    -0.027 C 
ATOM     22  C   UNL     1     132.262 129.911 137.066  1.00  0.00    -0.023 C 
ATOM     23  C   UNL     1     130.184 131.252 137.680  1.00  0.00     0.031 C 
ATOM     24  C   UNL     1     130.980 129.967 137.954  1.00  0.00     0.002 C 
ATOM     25  C   UNL     1     132.997 128.553 137.318  1.00  0.00     0.010 C 
ATOM     26  C   UNL     1     131.905 129.995 135.547  1.00  0.00     0.012 C 
ATOM     27  C   UNL     1     130.072 128.725 137.796  1.00  0.00     0.036 C 
ATOM     28  C   UNL     1     132.087 127.334 137.115  1.00  0.00     0.032 C 
ATOM     29  C   UNL     1     130.853 127.420 138.029  1.00  0.00     0.114 C 
BRANCH  29  30
ATOM     30  O   UNL     1     130.018 126.305 137.847  1.00  0.00    -0.393 OA
ATOM     31  H   UNL     1     129.368 126.287 138.599  1.00  0.00     0.210 HD
ENDBRANCH  29  30
ENDBRANCH   1  11
TORSDOF 6
ENDMDL
MODEL 7
REMARK VINA RESULT:    15.695      1.780      3.431
REMARK INTER + INTRA:          22.445
REMARK INTER:                  23.301
REMARK INTRA:                  -0.856
REMARK UNBOUND:                 1.704
REMARK SMILES CC[C@@H](C=C[C@H](C)[C@@H]1CC[C@@H]2C3=CC[C@H]4C[C@@H](O)CC[C@]4(C)[C@@H]3CC[C@@]21C)C(C)C
REMARK SMILES IDX 6 1 7 2 5 3 4 4 3 5 2 6 1 7 28 8 29 9 30 10 8 11 9 12 26 13
REMARK SMILES IDX 10 14 11 15 25 16 27 17 12 18 24 19 23 20 13 21 21 22 14 23
REMARK SMILES IDX 15 24 20 25 22 26 16 27 19 28 17 29 18 30
REMARK H PARENT 18 31
REMARK Flexibility Score: inf
ROOT
ATOM      1  C   UNL     1     130.542 126.776 138.499  1.00  0.00     0.012 C 
ATOM      2  C   UNL     1     129.137 126.230 138.190  1.00  0.00     0.012 C 
ENDROOT
BRANCH   1   3
ATOM      3  C   UNL     1     131.505 125.609 138.670  1.00  0.00    -0.028 C 
ATOM      4  C   UNL     1     131.922 125.104 139.854  1.00  0.00    -0.027 C 
BRANCH   4   5
ATOM      5  C   UNL     1     131.508 125.586 141.239  1.00  0.00     0.014 C 
BRANCH   5   6
ATOM      6  C   UNL     1     131.490 127.139 141.275  1.00  0.00     0.004 C 
ATOM      7  C   UNL     1     131.121 127.720 142.638  1.00  0.00     0.004 C 
ENDBRANCH   5   6
BRANCH   5   8
ATOM      8  C   UNL     1     132.497 125.017 142.309  1.00  0.00    -0.011 C 
ATOM      9  C   UNL     1     131.890 123.850 143.110  1.00  0.00     0.008 C 
ATOM     10  C   UNL     1     133.824 124.548 141.684  1.00  0.00     0.008 C 
ENDBRANCH   5   8
ENDBRANCH   4   5
ENDBRANCH   1   3
BRANCH   1  11
ATOM     11  C   UNL     1     130.951 127.829 137.407  1.00  0.00     0.002 C 
ATOM     12  C   UNL     1     132.218 127.511 136.612  1.00  0.00     0.005 C 
ATOM     13  C   UNL     1     131.050 129.338 137.794  1.00  0.00    -0.023 C 
ATOM     14  C   UNL     1     132.661 128.836 136.001  1.00  0.00     0.009 C 
ATOM     15  C   UNL     1     131.714 129.944 136.525  1.00  0.00     0.021 C 
ATOM     16  C   UNL     1     131.971 129.579 139.030  1.00  0.00     0.008 C 
ATOM     17  C   UNL     1     129.615 129.880 138.041  1.00  0.00     0.012 C 
ATOM     18  C   UNL     1     132.452 131.265 136.756  1.00  0.00    -0.067 C 
ATOM     19  C   UNL     1     132.487 131.027 139.244  1.00  0.00     0.009 C 
ATOM     20  C   UNL     1     132.236 132.006 138.073  1.00  0.00     0.021 C 
ATOM     21  C   UNL     1     133.309 131.712 135.808  1.00  0.00    -0.027 C 
ATOM     22  C   UNL     1     132.989 133.399 138.166  1.00  0.00    -0.023 C 
ATOM     23  C   UNL     1     134.215 132.897 135.989  1.00  0.00     0.031 C 
ATOM     24  C   UNL     1     134.380 133.269 137.470  1.00  0.00     0.002 C 
ATOM     25  C   UNL     1     133.201 133.857 139.647  1.00  0.00     0.010 C 
ATOM     26  C   UNL     1     132.095 134.463 137.453  1.00  0.00     0.012 C 
ATOM     27  C   UNL     1     135.257 134.535 137.615  1.00  0.00     0.036 C 
ATOM     28  C   UNL     1     134.039 135.138 139.763  1.00  0.00     0.032 C 
ATOM     29  C   UNL     1     135.409 134.953 139.088  1.00  0.00     0.114 C 
BRANCH  29  30
ATOM     30  O   UNL     1     136.179 136.123 139.192  1.00  0.00    -0.393 OA
ATOM     31  H   UNL     1     136.578 136.304 138.300  1.00  0.00     0.210 HD
ENDBRANCH  29  30
ENDBRANCH   1  11
TORSDOF 6
ENDMDL
MODEL 8
REMARK VINA RESULT:    16.458      1.812      3.923
REMARK INTER + INTRA:          23.453
REMARK INTER:                  22.909
REMARK INTRA:                   0.544
REMARK UNBOUND:                 1.704
REMARK SMILES CC[C@@H](C=C[C@H](C)[C@@H]1CC[C@@H]2C3=CC[C@H]4C[C@@H](O)CC[C@]4(C)[C@@H]3CC[C@@]21C)C(C)C
REMARK SMILES IDX 6 1 7 2 5 3 4 4 3 5 2 6 1 7 28 8 29 9 30 10 8 11 9 12 26 13
REMARK SMILES IDX 10 14 11 15 25 16 27 17 12 18 24 19 23 20 13 21 21 22 14 23
REMARK SMILES IDX 15 24 20 25 22 26 16 27 19 28 17 29 18 30
REMARK H PARENT 18 31
REMARK Flexibility Score: inf
ROOT
ATOM      1  C   UNL     1     132.252 134.165 137.860  1.00  0.00     0.012 C 
ATOM      2  C   UNL     1     131.746 135.617 137.939  1.00  0.00     0.012 C 
ENDROOT
BRANCH   1   3
ATOM      3  C   UNL     1     131.311 133.354 136.981  1.00  0.00    -0.028 C 
ATOM      4  C   UNL     1     131.151 132.012 137.031  1.00  0.00    -0.027 C 
BRANCH   4   5
ATOM      5  C   UNL     1     131.862 131.052 137.977  1.00  0.00     0.014 C 
BRANCH   5   6
ATOM      6  C   UNL     1     133.010 130.324 137.226  1.00  0.00     0.004 C 
ATOM      7  C   UNL     1     132.979 130.521 135.712  1.00  0.00     0.004 C 
ENDBRANCH   5   6
BRANCH   5   8
ATOM      8  C   UNL     1     130.834 130.023 138.550  1.00  0.00    -0.011 C 
ATOM      9  C   UNL     1     131.135 128.579 138.104  1.00  0.00     0.008 C 
ATOM     10  C   UNL     1     130.768 130.059 140.089  1.00  0.00     0.008 C 
ENDBRANCH   5   8
ENDBRANCH   4   5
ENDBRANCH   1   3
BRANCH   1  11
ATOM     11  C   UNL     1     133.760 134.155 137.418  1.00  0.00     0.002 C 
ATOM     12  C   UNL     1     134.227 132.911 136.663  1.00  0.00     0.005 C 
ATOM     13  C   UNL     1     134.871 134.466 138.469  1.00  0.00    -0.023 C 
ATOM     14  C   UNL     1     135.748 132.912 136.774  1.00  0.00     0.009 C 
ATOM     15  C   UNL     1     136.160 134.096 137.682  1.00  0.00     0.021 C 
ATOM     16  C   UNL     1     134.761 133.566 139.740  1.00  0.00     0.008 C 
ATOM     17  C   UNL     1     134.799 135.974 138.835  1.00  0.00     0.012 C 
ATOM     18  C   UNL     1     137.369 133.754 138.556  1.00  0.00    -0.067 C 
ATOM     19  C   UNL     1     136.021 133.474 140.641  1.00  0.00     0.009 C 
ATOM     20  C   UNL     1     137.314 134.078 140.046  1.00  0.00     0.021 C 
ATOM     21  C   UNL     1     138.431 133.131 137.991  1.00  0.00    -0.027 C 
ATOM     22  C   UNL     1     138.652 133.752 140.832  1.00  0.00    -0.023 C 
ATOM     23  C   UNL     1     139.598 132.592 138.769  1.00  0.00     0.031 C 
ATOM     24  C   UNL     1     139.266 132.436 140.261  1.00  0.00     0.002 C 
ATOM     25  C   UNL     1     138.406 133.575 142.367  1.00  0.00     0.010 C 
ATOM     26  C   UNL     1     139.619 134.962 140.633  1.00  0.00     0.012 C 
ATOM     27  C   UNL     1     140.510 131.951 141.043  1.00  0.00     0.036 C 
ATOM     28  C   UNL     1     139.664 133.134 143.128  1.00  0.00     0.032 C 
ATOM     29  C   UNL     1     140.217 131.820 142.548  1.00  0.00     0.114 C 
BRANCH  29  30
ATOM     30  O   UNL     1     141.368 131.413 143.241  1.00  0.00    -0.393 OA
ATOM     31  H   UNL     1     142.138 131.926 142.879  1.00  0.00     0.210 HD
ENDBRANCH  29  30
ENDBRANCH   1  11
TORSDOF 6
ENDMDL
