MODEL 1
REMARK VINA RESULT:    -7.419      0.000      0.000
REMARK INTER + INTRA:          -9.353
REMARK INTER:                  -8.937
REMARK INTRA:                  -0.416
REMARK UNBOUND:                -0.416
REMARK SMILES O=c1c(O)c(-c2ccc(O)cc2O)oc2cc(O)cc(O)c12
REMARK SMILES IDX 5 1 3 2 2 3 1 4 22 5 20 6 19 7 17 8 16 9 15 10 14 11 6 12
REMARK SMILES IDX 8 13 7 14 9 15 11 16 12 17 10 18 13 20 4 22 21 24 18 26
REMARK H PARENT 10 19 13 21 4 23 21 25 18 27
REMARK Flexibility Score: inf
ROOT
ATOM      1  C   UNL     1      26.050  37.375  26.219  1.00  0.00     0.184 A 
ATOM      2  C   UNL     1      25.978  38.682  26.726  1.00  0.00     0.208 A 
ATOM      3  C   UNL     1      24.740  39.169  27.177  1.00  0.00     0.238 A 
ATOM      4  O   UNL     1      24.670  40.359  27.580  1.00  0.00    -0.285 OA
ATOM      5  C   UNL     1      23.596  38.336  27.129  1.00  0.00     0.111 A 
ATOM      6  C   UNL     1      22.300  38.710  27.596  1.00  0.00     0.134 A 
ATOM      7  C   UNL     1      21.214  37.854  27.380  1.00  0.00     0.093 A 
ATOM      8  C   UNL     1      21.387  36.610  26.775  1.00  0.00     0.123 A 
ATOM      9  C   UNL     1      22.660  36.208  26.368  1.00  0.00     0.094 A 
ATOM     10  C   UNL     1      23.757  37.056  26.536  1.00  0.00     0.146 A 
ATOM     11  O   UNL     1      24.949  36.639  26.126  1.00  0.00    -0.451 OA
ENDROOT
BRANCH   1  12
ATOM     12  C   UNL     1      27.324  36.795  25.745  1.00  0.00     0.063 A 
ATOM     13  C   UNL     1      29.031  36.663  24.018  1.00  0.00     0.047 A 
ATOM     14  C   UNL     1      27.831  37.195  24.499  1.00  0.00     0.020 A 
ATOM     15  C   UNL     1      29.731  35.717  24.769  1.00  0.00     0.119 A 
ATOM     16  C   UNL     1      29.222  35.293  26.003  1.00  0.00     0.093 A 
ATOM     17  C   UNL     1      28.016  35.818  26.491  1.00  0.00     0.130 A 
BRANCH  15  18
ATOM     18  O   UNL     1      30.928  35.199  24.279  1.00  0.00    -0.508 OA
ATOM     19  H   UNL     1      31.614  35.791  23.824  1.00  0.00     0.293 HD
ENDBRANCH  15  18
BRANCH  17  20
ATOM     20  O   UNL     1      27.494  35.353  27.699  1.00  0.00    -0.507 OA
ATOM     21  H   UNL     1      27.485  34.366  27.928  1.00  0.00     0.293 HD
ENDBRANCH  17  20
ENDBRANCH   1  12
BRANCH   2  22
ATOM     22  O   UNL     1      27.117  39.488  26.745  1.00  0.00    -0.502 OA
ATOM     23  H   UNL     1      27.768  39.492  27.521  1.00  0.00     0.293 HD
ENDBRANCH   2  22
BRANCH   6  24
ATOM     24  O   UNL     1      22.035  39.891  28.295  1.00  0.00    -0.507 OA
ATOM     25  H   UNL     1      22.599  40.252  29.049  1.00  0.00     0.293 HD
ENDBRANCH   6  24
BRANCH   8  26
ATOM     26  O   UNL     1      20.286  35.776  26.590  1.00  0.00    -0.508 OA
ATOM     27  H   UNL     1      20.338  34.780  26.769  1.00  0.00     0.293 HD
ENDBRANCH   8  26
TORSDOF 6
ENDMDL
MODEL 2
REMARK VINA RESULT:    -7.110      4.061      6.331
REMARK INTER + INTRA:          -8.981
REMARK INTER:                  -8.578
REMARK INTRA:                  -0.403
REMARK UNBOUND:                -0.416
REMARK SMILES O=c1c(O)c(-c2ccc(O)cc2O)oc2cc(O)cc(O)c12
REMARK SMILES IDX 5 1 3 2 2 3 1 4 22 5 20 6 19 7 17 8 16 9 15 10 14 11 6 12
REMARK SMILES IDX 8 13 7 14 9 15 11 16 12 17 10 18 13 20 4 22 21 24 18 26
REMARK H PARENT 10 19 13 21 4 23 21 25 18 27
REMARK Flexibility Score: inf
ROOT
ATOM      1  C   UNL     1      28.503  39.899  27.785  1.00  0.00     0.184 A 
ATOM      2  C   UNL     1      27.198  39.539  27.415  1.00  0.00     0.208 A 
ATOM      3  C   UNL     1      26.653  38.345  27.915  1.00  0.00     0.238 A 
ATOM      4  O   UNL     1      25.504  38.001  27.538  1.00  0.00    -0.285 OA
ATOM      5  C   UNL     1      27.417  37.537  28.792  1.00  0.00     0.111 A 
ATOM      6  C   UNL     1      26.952  36.328  29.391  1.00  0.00     0.134 A 
ATOM      7  C   UNL     1      27.838  35.542  30.139  1.00  0.00     0.093 A 
ATOM      8  C   UNL     1      29.151  35.954  30.364  1.00  0.00     0.123 A 
ATOM      9  C   UNL     1      29.600  37.163  29.831  1.00  0.00     0.094 A 
ATOM     10  C   UNL     1      28.751  37.951  29.051  1.00  0.00     0.146 A 
ATOM     11  O   UNL     1      29.220  39.090  28.555  1.00  0.00    -0.451 OA
ENDROOT
BRANCH   1  12
ATOM     12  C   UNL     1      29.129  41.150  27.307  1.00  0.00     0.063 A 
ATOM     13  C   UNL     1      30.114  42.413  25.479  1.00  0.00     0.047 A 
ATOM     14  C   UNL     1      29.516  41.246  25.962  1.00  0.00     0.020 A 
ATOM     15  C   UNL     1      30.345  43.492  26.335  1.00  0.00     0.119 A 
ATOM     16  C   UNL     1      29.985  43.397  27.685  1.00  0.00     0.093 A 
ATOM     17  C   UNL     1      29.388  42.228  28.179  1.00  0.00     0.130 A 
BRANCH  15  18
ATOM     18  O   UNL     1      30.939  44.650  25.838  1.00  0.00    -0.508 OA
ATOM     19  H   UNL     1      30.486  45.215  25.128  1.00  0.00     0.293 HD
ENDBRANCH  15  18
BRANCH  17  20
ATOM     20  O   UNL     1      29.077  42.127  29.536  1.00  0.00    -0.507 OA
ATOM     21  H   UNL     1      29.284  41.289  30.068  1.00  0.00     0.293 HD
ENDBRANCH  17  20
ENDBRANCH   1  12
BRANCH   2  22
ATOM     22  O   UNL     1      26.473  40.346  26.534  1.00  0.00    -0.502 OA
ATOM     23  H   UNL     1      26.452  40.177  25.535  1.00  0.00     0.293 HD
ENDBRANCH   2  22
BRANCH   6  24
ATOM     24  O   UNL     1      25.634  35.872  29.306  1.00  0.00    -0.507 OA
ATOM     25  H   UNL     1      24.818  36.430  29.512  1.00  0.00     0.293 HD
ENDBRANCH   6  24
BRANCH   8  26
ATOM     26  O   UNL     1      30.001  35.154  31.125  1.00  0.00    -0.508 OA
ATOM     27  H   UNL     1      29.940  35.126  32.136  1.00  0.00     0.293 HD
ENDBRANCH   8  26
TORSDOF 6
ENDMDL
MODEL 3
REMARK VINA RESULT:    -7.048      3.802      6.641
REMARK INTER + INTRA:          -8.906
REMARK INTER:                  -8.494
REMARK INTRA:                  -0.412
REMARK UNBOUND:                -0.416
REMARK SMILES O=c1c(O)c(-c2ccc(O)cc2O)oc2cc(O)cc(O)c12
REMARK SMILES IDX 5 1 3 2 2 3 1 4 22 5 20 6 19 7 17 8 16 9 15 10 14 11 6 12
REMARK SMILES IDX 8 13 7 14 9 15 11 16 12 17 10 18 13 20 4 22 21 24 18 26
REMARK H PARENT 10 19 13 21 4 23 21 25 18 27
REMARK Flexibility Score: inf
ROOT
ATOM      1  C   UNL     1      28.145  40.360  27.657  1.00  0.00     0.184 A 
ATOM      2  C   UNL     1      28.738  39.921  28.851  1.00  0.00     0.208 A 
ATOM      3  C   UNL     1      28.912  38.542  29.057  1.00  0.00     0.238 A 
ATOM      4  O   UNL     1      29.394  38.152  30.151  1.00  0.00    -0.285 OA
ATOM      5  C   UNL     1      28.505  37.625  28.058  1.00  0.00     0.111 A 
ATOM      6  C   UNL     1      28.669  36.210  28.142  1.00  0.00     0.134 A 
ATOM      7  C   UNL     1      28.112  35.390  27.153  1.00  0.00     0.093 A 
ATOM      8  C   UNL     1      27.455  35.935  26.051  1.00  0.00     0.123 A 
ATOM      9  C   UNL     1      27.340  37.321  25.929  1.00  0.00     0.094 A 
ATOM     10  C   UNL     1      27.853  38.164  26.917  1.00  0.00     0.146 A 
ATOM     11  O   UNL     1      27.714  39.476  26.767  1.00  0.00    -0.451 OA
ENDROOT
BRANCH   1  12
ATOM     12  C   UNL     1      27.949  41.797  27.371  1.00  0.00     0.063 A 
ATOM     13  C   UNL     1      26.526  43.764  27.494  1.00  0.00     0.047 A 
ATOM     14  C   UNL     1      26.746  42.409  27.754  1.00  0.00     0.020 A 
ATOM     15  C   UNL     1      27.498  44.521  26.837  1.00  0.00     0.119 A 
ATOM     16  C   UNL     1      28.693  43.915  26.429  1.00  0.00     0.093 A 
ATOM     17  C   UNL     1      28.920  42.554  26.682  1.00  0.00     0.130 A 
BRANCH  15  18
ATOM     18  O   UNL     1      27.266  45.872  26.589  1.00  0.00    -0.508 OA
ATOM     19  H   UNL     1      27.370  46.265  25.660  1.00  0.00     0.293 HD
ENDBRANCH  15  18
BRANCH  17  20
ATOM     20  O   UNL     1      30.093  41.949  26.228  1.00  0.00    -0.507 OA
ATOM     21  H   UNL     1      30.115  41.411  25.370  1.00  0.00     0.293 HD
ENDBRANCH  17  20
ENDBRANCH   1  12
BRANCH   2  22
ATOM     22  O   UNL     1      29.113  40.846  29.828  1.00  0.00    -0.502 OA
ATOM     23  H   UNL     1      28.468  41.530  30.206  1.00  0.00     0.293 HD
ENDBRANCH   2  22
BRANCH   6  24
ATOM     24  O   UNL     1      29.388  35.567  29.154  1.00  0.00    -0.507 OA
ATOM     25  H   UNL     1      28.973  35.094  29.942  1.00  0.00     0.293 HD
ENDBRANCH   6  24
BRANCH   8  26
ATOM     26  O   UNL     1      26.926  35.090  25.078  1.00  0.00    -0.508 OA
ATOM     27  H   UNL     1      27.311  34.168  24.909  1.00  0.00     0.293 HD
ENDBRANCH   8  26
TORSDOF 6
ENDMDL
MODEL 4
REMARK VINA RESULT:    -7.032      3.170      4.543
REMARK INTER + INTRA:          -8.888
REMARK INTER:                  -8.559
REMARK INTRA:                  -0.329
REMARK UNBOUND:                -0.416
REMARK SMILES O=c1c(O)c(-c2ccc(O)cc2O)oc2cc(O)cc(O)c12
REMARK SMILES IDX 5 1 3 2 2 3 1 4 22 5 20 6 19 7 17 8 16 9 15 10 14 11 6 12
REMARK SMILES IDX 8 13 7 14 9 15 11 16 12 17 10 18 13 20 4 22 21 24 18 26
REMARK H PARENT 10 19 13 21 4 23 21 25 18 27
REMARK Flexibility Score: inf
ROOT
ATOM      1  C   UNL     1      26.501  38.216  27.523  1.00  0.00     0.184 A 
ATOM      2  C   UNL     1      25.965  37.585  26.390  1.00  0.00     0.208 A 
ATOM      3  C   UNL     1      25.153  38.328  25.517  1.00  0.00     0.238 A 
ATOM      4  O   UNL     1      24.632  37.743  24.533  1.00  0.00    -0.285 OA
ATOM      5  C   UNL     1      24.903  39.696  25.783  1.00  0.00     0.111 A 
ATOM      6  C   UNL     1      24.129  40.555  24.947  1.00  0.00     0.134 A 
ATOM      7  C   UNL     1      23.839  41.857  25.373  1.00  0.00     0.093 A 
ATOM      8  C   UNL     1      24.349  42.352  26.573  1.00  0.00     0.123 A 
ATOM      9  C   UNL     1      25.156  41.540  27.371  1.00  0.00     0.094 A 
ATOM     10  C   UNL     1      25.433  40.225  26.989  1.00  0.00     0.146 A 
ATOM     11  O   UNL     1      26.196  39.482  27.782  1.00  0.00    -0.451 OA
ENDROOT
BRANCH   1  12
ATOM     12  C   UNL     1      27.377  37.496  28.472  1.00  0.00     0.063 A 
ATOM     13  C   UNL     1      29.605  37.132  29.374  1.00  0.00     0.047 A 
ATOM     14  C   UNL     1      28.747  37.797  28.493  1.00  0.00     0.020 A 
ATOM     15  C   UNL     1      29.106  36.151  30.234  1.00  0.00     0.119 A 
ATOM     16  C   UNL     1      27.744  35.826  30.203  1.00  0.00     0.093 A 
ATOM     17  C   UNL     1      26.878  36.485  29.319  1.00  0.00     0.130 A 
BRANCH  15  18
ATOM     18  O   UNL     1      29.973  35.499  31.109  1.00  0.00    -0.508 OA
ATOM     19  H   UNL     1      30.703  34.883  30.770  1.00  0.00     0.293 HD
ENDBRANCH  15  18
BRANCH  17  20
ATOM     20  O   UNL     1      25.532  36.120  29.263  1.00  0.00    -0.507 OA
ATOM     21  H   UNL     1      25.153  35.609  28.474  1.00  0.00     0.293 HD
ENDBRANCH  17  20
ENDBRANCH   1  12
BRANCH   2  22
ATOM     22  O   UNL     1      26.212  36.229  26.162  1.00  0.00    -0.502 OA
ATOM     23  H   UNL     1      26.336  35.848  25.231  1.00  0.00     0.293 HD
ENDBRANCH   2  22
BRANCH   6  24
ATOM     24  O   UNL     1      23.648  40.191  23.686  1.00  0.00    -0.507 OA
ATOM     25  H   UNL     1      23.785  40.726  22.842  1.00  0.00     0.293 HD
ENDBRANCH   6  24
BRANCH   8  26
ATOM     26  O   UNL     1      24.053  43.657  26.959  1.00  0.00    -0.508 OA
ATOM     27  H   UNL     1      23.139  43.911  27.315  1.00  0.00     0.293 HD
ENDBRANCH   8  26
TORSDOF 6
ENDMDL
MODEL 5
REMARK VINA RESULT:    -6.963      3.370      3.720
REMARK INTER + INTRA:          -8.804
REMARK INTER:                  -8.701
REMARK INTRA:                  -0.103
REMARK UNBOUND:                -0.416
REMARK SMILES O=c1c(O)c(-c2ccc(O)cc2O)oc2cc(O)cc(O)c12
REMARK SMILES IDX 5 1 3 2 2 3 1 4 22 5 20 6 19 7 17 8 16 9 15 10 14 11 6 12
REMARK SMILES IDX 8 13 7 14 9 15 11 16 12 17 10 18 13 20 4 22 21 24 18 26
REMARK H PARENT 10 19 13 21 4 23 21 25 18 27
REMARK Flexibility Score: inf
ROOT
ATOM      1  C   UNL     1      26.594  38.676  27.888  1.00  0.00     0.184 A 
ATOM      2  C   UNL     1      26.620  40.071  28.039  1.00  0.00     0.208 A 
ATOM      3  C   UNL     1      25.780  40.858  27.234  1.00  0.00     0.238 A 
ATOM      4  O   UNL     1      25.846  42.110  27.336  1.00  0.00    -0.285 OA
ATOM      5  C   UNL     1      24.914  40.236  26.302  1.00  0.00     0.111 A 
ATOM      6  C   UNL     1      23.991  40.931  25.464  1.00  0.00     0.134 A 
ATOM      7  C   UNL     1      23.277  40.225  24.488  1.00  0.00     0.093 A 
ATOM      8  C   UNL     1      23.403  38.842  24.363  1.00  0.00     0.123 A 
ATOM      9  C   UNL     1      24.258  38.144  25.217  1.00  0.00     0.094 A 
ATOM     10  C   UNL     1      25.011  38.825  26.176  1.00  0.00     0.146 A 
ATOM     11  O   UNL     1      25.821  38.124  26.962  1.00  0.00    -0.451 OA
ENDROOT
BRANCH   1  12
ATOM     12  C   UNL     1      27.440  37.789  28.716  1.00  0.00     0.063 A 
ATOM     13  C   UNL     1      29.623  37.294  29.664  1.00  0.00     0.047 A 
ATOM     14  C   UNL     1      28.794  38.113  28.892  1.00  0.00     0.020 A 
ATOM     15  C   UNL     1      29.114  36.137  30.257  1.00  0.00     0.119 A 
ATOM     16  C   UNL     1      27.769  35.792  30.068  1.00  0.00     0.093 A 
ATOM     17  C   UNL     1      26.932  36.606  29.291  1.00  0.00     0.130 A 
BRANCH  15  18
ATOM     18  O   UNL     1      29.951  35.333  31.027  1.00  0.00    -0.508 OA
ATOM     19  H   UNL     1      30.960  35.430  30.989  1.00  0.00     0.293 HD
ENDBRANCH  15  18
BRANCH  17  20
ATOM     20  O   UNL     1      25.607  36.227  29.069  1.00  0.00    -0.507 OA
ATOM     21  H   UNL     1      24.959  36.084  29.835  1.00  0.00     0.293 HD
ENDBRANCH  17  20
ENDBRANCH   1  12
BRANCH   2  22
ATOM     22  O   UNL     1      27.497  40.659  28.953  1.00  0.00    -0.502 OA
ATOM     23  H   UNL     1      27.676  41.657  28.970  1.00  0.00     0.293 HD
ENDBRANCH   2  22
BRANCH   6  24
ATOM     24  O   UNL     1      23.722  42.299  25.567  1.00  0.00    -0.507 OA
ATOM     25  H   UNL     1      23.747  42.949  24.797  1.00  0.00     0.293 HD
ENDBRANCH   6  24
BRANCH   8  26
ATOM     26  O   UNL     1      22.666  38.170  23.391  1.00  0.00    -0.508 OA
ATOM     27  H   UNL     1      22.150  37.324  23.606  1.00  0.00     0.293 HD
ENDBRANCH   8  26
TORSDOF 6
ENDMDL
MODEL 6
REMARK VINA RESULT:    -6.957      4.619      6.820
REMARK INTER + INTRA:          -8.797
REMARK INTER:                  -8.387
REMARK INTRA:                  -0.409
REMARK UNBOUND:                -0.416
REMARK SMILES O=c1c(O)c(-c2ccc(O)cc2O)oc2cc(O)cc(O)c12
REMARK SMILES IDX 5 1 3 2 2 3 1 4 22 5 20 6 19 7 17 8 16 9 15 10 14 11 6 12
REMARK SMILES IDX 8 13 7 14 9 15 11 16 12 17 10 18 13 20 4 22 21 24 18 26
REMARK H PARENT 10 19 13 21 4 23 21 25 18 27
REMARK Flexibility Score: inf
ROOT
ATOM      1  C   UNL     1      29.251  38.850  26.572  1.00  0.00     0.184 A 
ATOM      2  C   UNL     1      28.851  38.340  25.327  1.00  0.00     0.208 A 
ATOM      3  C   UNL     1      28.745  39.216  24.235  1.00  0.00     0.238 A 
ATOM      4  O   UNL     1      28.336  38.764  23.135  1.00  0.00    -0.285 OA
ATOM      5  C   UNL     1      29.058  40.588  24.401  1.00  0.00     0.111 A 
ATOM      6  C   UNL     1      29.024  41.558  23.355  1.00  0.00     0.134 A 
ATOM      7  C   UNL     1      29.225  42.910  23.660  1.00  0.00     0.093 A 
ATOM      8  C   UNL     1      29.524  43.318  24.960  1.00  0.00     0.123 A 
ATOM      9  C   UNL     1      29.616  42.370  25.980  1.00  0.00     0.094 A 
ATOM     10  C   UNL     1      29.385  41.019  25.713  1.00  0.00     0.146 A 
ATOM     11  O   UNL     1      29.473  40.151  26.714  1.00  0.00    -0.451 OA
ENDROOT
BRANCH   1  12
ATOM     12  C   UNL     1      29.399  37.979  27.757  1.00  0.00     0.063 A 
ATOM     13  C   UNL     1      30.614  36.205  28.892  1.00  0.00     0.047 A 
ATOM     14  C   UNL     1      30.448  37.047  27.789  1.00  0.00     0.020 A 
ATOM     15  C   UNL     1      29.727  36.273  29.969  1.00  0.00     0.119 A 
ATOM     16  C   UNL     1      28.662  37.183  29.936  1.00  0.00     0.093 A 
ATOM     17  C   UNL     1      28.486  38.028  28.831  1.00  0.00     0.130 A 
BRANCH  15  18
ATOM     18  O   UNL     1      29.908  35.430  31.062  1.00  0.00    -0.508 OA
ATOM     19  H   UNL     1      30.828  35.094  31.326  1.00  0.00     0.293 HD
ENDBRANCH  15  18
BRANCH  17  20
ATOM     20  O   UNL     1      27.394  38.896  28.788  1.00  0.00    -0.507 OA
ATOM     21  H   UNL     1      26.666  38.800  28.090  1.00  0.00     0.293 HD
ENDBRANCH  17  20
ENDBRANCH   1  12
BRANCH   2  22
ATOM     22  O   UNL     1      28.532  36.986  25.196  1.00  0.00    -0.502 OA
ATOM     23  H   UNL     1      28.282  36.571  24.306  1.00  0.00     0.293 HD
ENDBRANCH   2  22
BRANCH   6  24
ATOM     24  O   UNL     1      28.826  41.246  22.007  1.00  0.00    -0.507 OA
ATOM     25  H   UNL     1      28.164  40.566  21.666  1.00  0.00     0.293 HD
ENDBRANCH   6  24
BRANCH   8  26
ATOM     26  O   UNL     1      29.733  44.669  25.225  1.00  0.00    -0.508 OA
ATOM     27  H   UNL     1      30.593  45.136  24.960  1.00  0.00     0.293 HD
ENDBRANCH   8  26
TORSDOF 6
ENDMDL
MODEL 7
REMARK VINA RESULT:    -6.923      3.914      6.834
REMARK INTER + INTRA:          -8.756
REMARK INTER:                  -8.349
REMARK INTRA:                  -0.407
REMARK UNBOUND:                -0.416
REMARK SMILES O=c1c(O)c(-c2ccc(O)cc2O)oc2cc(O)cc(O)c12
REMARK SMILES IDX 5 1 3 2 2 3 1 4 22 5 20 6 19 7 17 8 16 9 15 10 14 11 6 12
REMARK SMILES IDX 8 13 7 14 9 15 11 16 12 17 10 18 13 20 4 22 21 24 18 26
REMARK H PARENT 10 19 13 21 4 23 21 25 18 27
REMARK Flexibility Score: inf
ROOT
ATOM      1  C   UNL     1      27.899  40.086  26.997  1.00  0.00     0.184 A 
ATOM      2  C   UNL     1      28.979  40.004  26.103  1.00  0.00     0.208 A 
ATOM      3  C   UNL     1      29.569  38.752  25.862  1.00  0.00     0.238 A 
ATOM      4  O   UNL     1      30.569  38.693  25.102  1.00  0.00    -0.285 OA
ATOM      5  C   UNL     1      29.059  37.599  26.505  1.00  0.00     0.111 A 
ATOM      6  C   UNL     1      29.552  36.274  26.305  1.00  0.00     0.134 A 
ATOM      7  C   UNL     1      29.058  35.227  27.091  1.00  0.00     0.093 A 
ATOM      8  C   UNL     1      28.044  35.442  28.023  1.00  0.00     0.123 A 
ATOM      9  C   UNL     1      27.513  36.723  28.187  1.00  0.00     0.094 A 
ATOM     10  C   UNL     1      28.010  37.795  27.442  1.00  0.00     0.146 A 
ATOM     11  O   UNL     1      27.484  38.999  27.635  1.00  0.00    -0.451 OA
ENDROOT
BRANCH   1  12
ATOM     12  C   UNL     1      27.223  41.369  27.282  1.00  0.00     0.063 A 
ATOM     13  C   UNL     1      25.821  43.196  26.501  1.00  0.00     0.047 A 
ATOM     14  C   UNL     1      26.470  41.980  26.267  1.00  0.00     0.020 A 
ATOM     15  C   UNL     1      25.927  43.821  27.745  1.00  0.00     0.119 A 
ATOM     16  C   UNL     1      26.696  43.232  28.757  1.00  0.00     0.093 A 
ATOM     17  C   UNL     1      27.354  42.014  28.528  1.00  0.00     0.130 A 
BRANCH  15  18
ATOM     18  O   UNL     1      25.272  45.031  27.965  1.00  0.00    -0.508 OA
ATOM     19  H   UNL     1      25.722  45.796  28.455  1.00  0.00     0.293 HD
ENDBRANCH  15  18
BRANCH  17  20
ATOM     20  O   UNL     1      28.157  41.461  29.527  1.00  0.00    -0.507 OA
ATOM     21  H   UNL     1      27.920  41.550  30.509  1.00  0.00     0.293 HD
ENDBRANCH  17  20
ENDBRANCH   1  12
BRANCH   2  22
ATOM     22  O   UNL     1      29.473  41.161  25.497  1.00  0.00    -0.502 OA
ATOM     23  H   UNL     1      30.292  41.648  25.842  1.00  0.00     0.293 HD
ENDBRANCH   2  22
BRANCH   6  24
ATOM     24  O   UNL     1      30.499  35.934  25.335  1.00  0.00    -0.507 OA
ATOM     25  H   UNL     1      31.456  35.682  25.530  1.00  0.00     0.293 HD
ENDBRANCH   6  24
BRANCH   8  26
ATOM     26  O   UNL     1      27.566  34.374  28.779  1.00  0.00    -0.508 OA
ATOM     27  H   UNL     1      28.080  33.504  28.853  1.00  0.00     0.293 HD
ENDBRANCH   8  26
TORSDOF 6
ENDMDL
MODEL 8
REMARK VINA RESULT:    -6.883      1.881      6.678
REMARK INTER + INTRA:          -8.708
REMARK INTER:                  -8.300
REMARK INTRA:                  -0.408
REMARK UNBOUND:                -0.416
REMARK SMILES O=c1c(O)c(-c2ccc(O)cc2O)oc2cc(O)cc(O)c12
REMARK SMILES IDX 5 1 3 2 2 3 1 4 22 5 20 6 19 7 17 8 16 9 15 10 14 11 6 12
REMARK SMILES IDX 8 13 7 14 9 15 11 16 12 17 10 18 13 20 4 22 21 24 18 26
REMARK H PARENT 10 19 13 21 4 23 21 25 18 27
REMARK Flexibility Score: inf
ROOT
ATOM      1  C   UNL     1      25.898  37.640  26.276  1.00  0.00     0.184 A 
ATOM      2  C   UNL     1      26.440  38.341  25.187  1.00  0.00     0.208 A 
ATOM      3  C   UNL     1      27.835  38.372  25.024  1.00  0.00     0.238 A 
ATOM      4  O   UNL     1      28.317  39.045  24.077  1.00  0.00    -0.285 OA
ATOM      5  C   UNL     1      28.666  37.687  25.944  1.00  0.00     0.111 A 
ATOM      6  C   UNL     1      30.088  37.617  25.854  1.00  0.00     0.134 A 
ATOM      7  C   UNL     1      30.818  37.023  26.891  1.00  0.00     0.093 A 
ATOM      8  C   UNL     1      30.175  36.438  27.980  1.00  0.00     0.123 A 
ATOM      9  C   UNL     1      28.781  36.449  28.050  1.00  0.00     0.094 A 
ATOM     10  C   UNL     1      28.027  37.066  27.049  1.00  0.00     0.146 A 
ATOM     11  O   UNL     1      26.704  37.063  27.159  1.00  0.00    -0.451 OA
ENDROOT
BRANCH   1  12
ATOM     12  C   UNL     1      24.439  37.553  26.495  1.00  0.00     0.063 A 
ATOM     13  C   UNL     1      22.347  36.377  26.107  1.00  0.00     0.047 A 
ATOM     14  C   UNL     1      23.728  36.487  25.924  1.00  0.00     0.020 A 
ATOM     15  C   UNL     1      21.658  37.338  26.851  1.00  0.00     0.119 A 
ATOM     16  C   UNL     1      22.354  38.420  27.405  1.00  0.00     0.093 A 
ATOM     17  C   UNL     1      23.740  38.539  27.222  1.00  0.00     0.130 A 
BRANCH  15  18
ATOM     18  O   UNL     1      20.282  37.213  27.028  1.00  0.00    -0.508 OA
ATOM     19  H   UNL     1      19.682  36.863  26.289  1.00  0.00     0.293 HD
ENDBRANCH  15  18
BRANCH  17  20
ATOM     20  O   UNL     1      24.415  39.646  27.737  1.00  0.00    -0.507 OA
ATOM     21  H   UNL     1      24.021  40.210  28.482  1.00  0.00     0.293 HD
ENDBRANCH  17  20
ENDBRANCH   1  12
BRANCH   2  22
ATOM     22  O   UNL     1      25.598  39.022  24.305  1.00  0.00    -0.502 OA
ATOM     23  H   UNL     1      25.950  39.545  23.512  1.00  0.00     0.293 HD
ENDBRANCH   2  22
BRANCH   6  24
ATOM     24  O   UNL     1      30.825  38.089  24.763  1.00  0.00    -0.507 OA
ATOM     25  H   UNL     1      31.560  37.575  24.301  1.00  0.00     0.293 HD
ENDBRANCH   6  24
BRANCH   8  26
ATOM     26  O   UNL     1      30.931  35.842  28.987  1.00  0.00    -0.508 OA
ATOM     27  H   UNL     1      31.939  35.941  29.023  1.00  0.00     0.293 HD
ENDBRANCH   8  26
TORSDOF 6
ENDMDL
MODEL 9
REMARK VINA RESULT:    -6.867      4.045      6.151
REMARK INTER + INTRA:          -8.689
REMARK INTER:                  -8.269
REMARK INTRA:                  -0.420
REMARK UNBOUND:                -0.416
REMARK SMILES O=c1c(O)c(-c2ccc(O)cc2O)oc2cc(O)cc(O)c12
REMARK SMILES IDX 5 1 3 2 2 3 1 4 22 5 20 6 19 7 17 8 16 9 15 10 14 11 6 12
REMARK SMILES IDX 8 13 7 14 9 15 11 16 12 17 10 18 13 20 4 22 21 24 18 26
REMARK H PARENT 10 19 13 21 4 23 21 25 18 27
REMARK Flexibility Score: inf
ROOT
ATOM      1  C   UNL     1      28.249  39.961  27.183  1.00  0.00     0.184 A 
ATOM      2  C   UNL     1      29.232  40.365  26.266  1.00  0.00     0.208 A 
ATOM      3  C   UNL     1      29.290  41.715  25.882  1.00  0.00     0.238 A 
ATOM      4  O   UNL     1      30.138  42.061  25.020  1.00  0.00    -0.285 OA
ATOM      5  C   UNL     1      28.375  42.644  26.434  1.00  0.00     0.111 A 
ATOM      6  C   UNL     1      28.367  44.042  26.147  1.00  0.00     0.134 A 
ATOM      7  C   UNL     1      27.335  44.844  26.649  1.00  0.00     0.093 A 
ATOM      8  C   UNL     1      26.348  44.313  27.479  1.00  0.00     0.123 A 
ATOM      9  C   UNL     1      26.379  42.959  27.813  1.00  0.00     0.094 A 
ATOM     10  C   UNL     1      27.375  42.125  27.299  1.00  0.00     0.146 A 
ATOM     11  O   UNL     1      27.362  40.840  27.633  1.00  0.00    -0.451 OA
ENDROOT
BRANCH   1  12
ATOM     12  C   UNL     1      28.144  38.560  27.641  1.00  0.00     0.063 A 
ATOM     13  C   UNL     1      27.450  36.274  27.191  1.00  0.00     0.047 A 
ATOM     14  C   UNL     1      27.569  37.606  26.787  1.00  0.00     0.020 A 
ATOM     15  C   UNL     1      27.891  35.881  28.457  1.00  0.00     0.119 A 
ATOM     16  C   UNL     1      28.443  36.830  29.326  1.00  0.00     0.093 A 
ATOM     17  C   UNL     1      28.562  38.170  28.930  1.00  0.00     0.130 A 
BRANCH  15  18
ATOM     18  O   UNL     1      27.769  34.548  28.844  1.00  0.00    -0.508 OA
ATOM     19  H   UNL     1      28.580  33.947  28.936  1.00  0.00     0.293 HD
ENDBRANCH  15  18
BRANCH  17  20
ATOM     20  O   UNL     1      29.070  39.115  29.823  1.00  0.00    -0.507 OA
ATOM     21  H   UNL     1      28.713  40.063  29.852  1.00  0.00     0.293 HD
ENDBRANCH  17  20
ENDBRANCH   1  12
BRANCH   2  22
ATOM     22  O   UNL     1      30.110  39.425  25.723  1.00  0.00    -0.502 OA
ATOM     23  H   UNL     1      29.809  38.717  25.064  1.00  0.00     0.293 HD
ENDBRANCH   2  22
BRANCH   6  24
ATOM     24  O   UNL     1      29.357  44.691  25.405  1.00  0.00    -0.507 OA
ATOM     25  H   UNL     1      29.180  45.374  24.683  1.00  0.00     0.293 HD
ENDBRANCH   6  24
BRANCH   8  26
ATOM     26  O   UNL     1      25.345  45.144  27.972  1.00  0.00    -0.508 OA
ATOM     27  H   UNL     1      25.195  45.262  28.968  1.00  0.00     0.293 HD
ENDBRANCH   8  26
TORSDOF 6
ENDMDL
