MODEL 1
REMARK VINA RESULT:    79.069      0.000      0.000
REMARK INTER + INTRA:          86.422
REMARK INTER:                  86.002
REMARK INTRA:                   0.420
REMARK UNBOUND:                 0.420
REMARK SMILES C[C@@H]1[C@H](C)CC[C@]2(C(=O)[O-])CC[C@]3(C)C(=CC[C@H]4[C@]5(C)CC[C@H](O)C(C)(C)[C@@H]5CC[C@@]43C)[C@@H]12
REMARK SMILES IDX 7 1 6 2 11 3 33 4 5 5 12 6 15 7 2 8 3 9 13 10 16 11 1 12
REMARK SMILES IDX 4 13 14 14 31 15 17 16 18 17 30 18 32 19 19 20 29 21 28 22
REMARK SMILES IDX 21 23 20 24 25 25 22 26 23 27 26 28 27 29 8 30 9 31 10 32
REMARK SMILES IDX 24 33
REMARK H PARENT 24 34
REMARK Flexibility Score: inf
ROOT
ATOM      1  C   UNL     1      14.283 -16.774   2.245  1.00  0.00     0.017 C 
ATOM      2  C   UNL     1      14.898 -16.764   3.678  1.00  0.00     0.014 C 
ATOM      3  C   UNL     1      14.720 -15.471   1.458  1.00  0.00     0.014 C 
ATOM      4  C   UNL     1      12.733 -16.784   2.421  1.00  0.00     0.030 C 
ATOM      5  C   UNL     1      14.380 -17.903   4.599  1.00  0.00     0.004 C 
ATOM      6  C   UNL     1      13.613 -14.397   1.290  1.00  0.00     0.013 C 
ATOM      7  C   UNL     1      12.094 -16.410   1.093  1.00  0.00    -0.063 C 
ATOM      8  C   UNL     1      12.222 -18.031   3.188  1.00  0.00    -0.003 C 
ATOM      9  C   UNL     1      12.837 -18.053   4.626  1.00  0.00    -0.011 C 
ATOM     10  C   UNL     1      12.202 -14.911   0.734  1.00  0.00    -0.006 C 
ATOM     11  C   UNL     1      11.896 -17.376   0.170  1.00  0.00    -0.027 C 
ATOM     12  C   UNL     1      10.683 -18.102   3.220  1.00  0.00     0.008 C 
ATOM     13  C   UNL     1      12.223 -17.031   5.607  1.00  0.00     0.008 C 
ATOM     14  C   UNL     1      11.117 -14.153   1.577  1.00  0.00     0.017 C 
ATOM     15  C   UNL     1      11.930 -14.661  -0.848  1.00  0.00    -0.020 C 
ATOM     16  C   UNL     1      11.920 -17.141  -1.316  1.00  0.00     0.032 C 
ATOM     17  C   UNL     1      12.592 -15.790  -1.694  1.00  0.00     0.006 C 
ATOM     18  C   UNL     1      12.554 -13.335  -1.325  1.00  0.00     0.008 C 
ATOM     19  C   UNL     1      10.382 -14.641  -1.121  1.00  0.00     0.012 C 
ATOM     20  C   UNL     1      12.823 -15.492  -3.279  1.00  0.00    -0.025 C 
ATOM     21  C   UNL     1      12.201 -12.958  -2.756  1.00  0.00     0.005 C 
ATOM     22  C   UNL     1      12.180 -14.121  -3.805  1.00  0.00     0.003 C 
ATOM     23  C   UNL     1      14.364 -15.442  -3.525  1.00  0.00     0.010 C 
ATOM     24  C   UNL     1      12.244 -16.683  -4.104  1.00  0.00     0.012 C 
ATOM     25  C   UNL     1      12.648 -13.624  -5.261  1.00  0.00    -0.006 C 
ATOM     26  C   UNL     1      14.790 -15.053  -4.950  1.00  0.00     0.033 C 
ATOM     27  C   UNL     1      14.202 -13.706  -5.420  1.00  0.00     0.120 C 
ATOM     28  C   UNL     1      12.177 -12.159  -5.549  1.00  0.00     0.014 C 
ATOM     29  C   UNL     1      11.975 -14.465  -6.402  1.00  0.00     0.014 C 
ENDROOT
BRANCH   1  30
ATOM     30  C   UNL     1      14.788 -17.992   1.449  1.00  0.00     0.048 C 
ATOM     31  O   UNL     1      15.120 -19.062   2.023  1.00  0.00    -0.550 OA
ATOM     32  O   UNL     1      14.911 -17.937   0.064  1.00  0.00    -0.550 OA
ENDBRANCH   1  30
BRANCH  27  33
ATOM     33  O   UNL     1      14.872 -12.621  -4.821  1.00  0.00    -0.393 OA
ATOM     34  H   UNL     1      15.830 -12.853  -4.724  1.00  0.00     0.210 HD
ENDBRANCH  27  33
TORSDOF 2
ENDMDL
