MODEL 1
REMARK VINA RESULT:    -5.299      0.000      0.000
REMARK INTER + INTRA:          -5.454
REMARK INTER:                  -5.454
REMARK INTRA:                   0.000
REMARK UNBOUND:                 0.000
REMARK SMILES O=c1ccc2ccc(O)cc2o1
REMARK SMILES IDX 6 1 7 2 8 3 10 4 11 5 5 6 4 7 3 8 2 9 1 10 12 11 9 12
REMARK H PARENT 9 13
REMARK Flexibility Score: inf
ROOT
ATOM      1  C   UNL     1      45.288   6.541  15.156  1.00  0.00     0.016 A 
ATOM      2  C   UNL     1      46.243   5.704  14.568  1.00  0.00     0.047 A 
ATOM      3  C   UNL     1      47.374   5.305  15.289  1.00  0.00     0.119 A 
ATOM      4  C   UNL     1      47.553   5.744  16.610  1.00  0.00     0.094 A 
ATOM      5  C   UNL     1      46.604   6.580  17.207  1.00  0.00     0.142 A 
ATOM      6  C   UNL     1      45.463   6.980  16.476  1.00  0.00     0.018 A 
ATOM      7  C   UNL     1      44.531   7.817  17.098  1.00  0.00     0.019 A 
ATOM      8  C   UNL     1      44.752   8.227  18.413  1.00  0.00     0.094 A 
ATOM      9  C   UNL     1      45.905   7.791  19.075  1.00  0.00     0.336 A 
ATOM     10  O   UNL     1      46.121   8.150  20.262  1.00  0.00    -0.246 OA
ATOM     11  O   UNL     1      46.776   6.995  18.459  1.00  0.00    -0.423 OA
ENDROOT
BRANCH   3  12
ATOM     12  O   UNL     1      48.314   4.472  14.686  1.00  0.00    -0.508 OA
ATOM     13  H   UNL     1      48.092   3.515  14.437  1.00  0.00     0.293 HD
ENDBRANCH   3  12
TORSDOF 1
ENDMDL
MODEL 2
REMARK VINA RESULT:    -5.223      3.086      4.639
REMARK INTER + INTRA:          -5.375
REMARK INTER:                  -5.375
REMARK INTRA:                   0.000
REMARK UNBOUND:                 0.000
REMARK SMILES O=c1ccc2ccc(O)cc2o1
REMARK SMILES IDX 6 1 7 2 8 3 10 4 11 5 5 6 4 7 3 8 2 9 1 10 12 11 9 12
REMARK H PARENT 9 13
REMARK Flexibility Score: inf
ROOT
ATOM      1  C   UNL     1      46.710   7.017  19.008  1.00  0.00     0.016 A 
ATOM      2  C   UNL     1      45.789   7.385  18.021  1.00  0.00     0.047 A 
ATOM      3  C   UNL     1      44.739   8.259  18.325  1.00  0.00     0.119 A 
ATOM      4  C   UNL     1      44.606   8.770  19.625  1.00  0.00     0.094 A 
ATOM      5  C   UNL     1      45.522   8.407  20.618  1.00  0.00     0.142 A 
ATOM      6  C   UNL     1      46.581   7.526  20.308  1.00  0.00     0.018 A 
ATOM      7  C   UNL     1      47.481   7.181  21.322  1.00  0.00     0.019 A 
ATOM      8  C   UNL     1      47.309   7.715  22.599  1.00  0.00     0.094 A 
ATOM      9  C   UNL     1      46.237   8.582  22.833  1.00  0.00     0.336 A 
ATOM     10  O   UNL     1      46.065   9.073  23.979  1.00  0.00    -0.246 OA
ATOM     11  O   UNL     1      45.394   8.893  21.850  1.00  0.00    -0.423 OA
ENDROOT
BRANCH   3  12
ATOM     12  O   UNL     1      43.831   8.614  17.329  1.00  0.00    -0.508 OA
ATOM     13  H   UNL     1      43.170   9.370  17.460  1.00  0.00     0.293 HD
ENDBRANCH   3  12
TORSDOF 1
ENDMDL
MODEL 3
REMARK VINA RESULT:    -5.188      0.799      4.226
REMARK INTER + INTRA:          -5.340
REMARK INTER:                  -5.340
REMARK INTRA:                   0.000
REMARK UNBOUND:                 0.000
REMARK SMILES O=c1ccc2ccc(O)cc2o1
REMARK SMILES IDX 6 1 7 2 8 3 10 4 11 5 5 6 4 7 3 8 2 9 1 10 12 11 9 12
REMARK H PARENT 9 13
REMARK Flexibility Score: inf
ROOT
ATOM      1  C   UNL     1      44.443   7.784  17.017  1.00  0.00     0.016 A 
ATOM      2  C   UNL     1      44.687   8.232  18.320  1.00  0.00     0.047 A 
ATOM      3  C   UNL     1      45.852   7.849  18.993  1.00  0.00     0.119 A 
ATOM      4  C   UNL     1      46.782   7.010  18.361  1.00  0.00     0.094 A 
ATOM      5  C   UNL     1      46.547   6.556  17.059  1.00  0.00     0.142 A 
ATOM      6  C   UNL     1      45.371   6.946  16.382  1.00  0.00     0.018 A 
ATOM      7  C   UNL     1      45.163   6.477  15.081  1.00  0.00     0.019 A 
ATOM      8  C   UNL     1      46.116   5.646  14.493  1.00  0.00     0.094 A 
ATOM      9  C   UNL     1      47.258   5.301  15.225  1.00  0.00     0.336 A 
ATOM     10  O   UNL     1      48.130   4.552  14.711  1.00  0.00    -0.246 OA
ATOM     11  O   UNL     1      47.432   5.762  16.461  1.00  0.00    -0.423 OA
ENDROOT
BRANCH   3  12
ATOM     12  O   UNL     1      46.077   8.305  20.290  1.00  0.00    -0.508 OA
ATOM     13  H   UNL     1      45.678   9.175  20.622  1.00  0.00     0.293 HD
ENDBRANCH   3  12
TORSDOF 1
ENDMDL
MODEL 4
REMARK VINA RESULT:    -5.155      1.548      2.458
REMARK INTER + INTRA:          -5.306
REMARK INTER:                  -5.306
REMARK INTRA:                   0.000
REMARK UNBOUND:                 0.000
REMARK SMILES O=c1ccc2ccc(O)cc2o1
REMARK SMILES IDX 6 1 7 2 8 3 10 4 11 5 5 6 4 7 3 8 2 9 1 10 12 11 9 12
REMARK H PARENT 9 13
REMARK Flexibility Score: inf
ROOT
ATOM      1  C   UNL     1      44.485   8.270  17.592  1.00  0.00     0.016 A 
ATOM      2  C   UNL     1      44.888   7.579  16.444  1.00  0.00     0.047 A 
ATOM      3  C   UNL     1      46.003   6.734  16.483  1.00  0.00     0.119 A 
ATOM      4  C   UNL     1      46.722   6.577  17.677  1.00  0.00     0.094 A 
ATOM      5  C   UNL     1      46.326   7.264  18.830  1.00  0.00     0.142 A 
ATOM      6  C   UNL     1      45.200   8.115  18.787  1.00  0.00     0.018 A 
ATOM      7  C   UNL     1      44.828   8.790  19.955  1.00  0.00     0.019 A 
ATOM      8  C   UNL     1      45.573   8.601  21.119  1.00  0.00     0.094 A 
ATOM      9  C   UNL     1      46.676   7.742  21.087  1.00  0.00     0.336 A 
ATOM     10  O   UNL     1      47.361   7.559  22.128  1.00  0.00    -0.246 OA
ATOM     11  O   UNL     1      47.008   7.113  19.962  1.00  0.00    -0.423 OA
ENDROOT
BRANCH   3  12
ATOM     12  O   UNL     1      46.389   6.054  15.329  1.00  0.00    -0.508 OA
ATOM     13  H   UNL     1      45.806   6.043  14.501  1.00  0.00     0.293 HD
ENDBRANCH   3  12
TORSDOF 1
ENDMDL
MODEL 5
REMARK VINA RESULT:    -5.070      1.594      4.781
REMARK INTER + INTRA:          -5.218
REMARK INTER:                  -5.218
REMARK INTRA:                   0.000
REMARK UNBOUND:                 0.000
REMARK SMILES O=c1ccc2ccc(O)cc2o1
REMARK SMILES IDX 6 1 7 2 8 3 10 4 11 5 5 6 4 7 3 8 2 9 1 10 12 11 9 12
REMARK H PARENT 9 13
REMARK Flexibility Score: inf
ROOT
ATOM      1  C   UNL     1      44.555   8.849  19.767  1.00  0.00     0.016 A 
ATOM      2  C   UNL     1      44.970   8.793  21.102  1.00  0.00     0.047 A 
ATOM      3  C   UNL     1      46.054   7.988  21.472  1.00  0.00     0.119 A 
ATOM      4  C   UNL     1      46.728   7.232  20.502  1.00  0.00     0.094 A 
ATOM      5  C   UNL     1      46.320   7.282  19.165  1.00  0.00     0.142 A 
ATOM      6  C   UNL     1      45.227   8.096  18.795  1.00  0.00     0.018 A 
ATOM      7  C   UNL     1      44.841   8.125  17.451  1.00  0.00     0.019 A 
ATOM      8  C   UNL     1      45.542   7.356  16.522  1.00  0.00     0.094 A 
ATOM      9  C   UNL     1      46.615   6.573  16.961  1.00  0.00     0.336 A 
ATOM     10  O   UNL     1      47.260   5.873  16.137  1.00  0.00    -0.246 OA
ATOM     11  O   UNL     1      46.961   6.564  18.246  1.00  0.00    -0.423 OA
ENDROOT
BRANCH   3  12
ATOM     12  O   UNL     1      46.453   7.946  22.807  1.00  0.00    -0.508 OA
ATOM     13  H   UNL     1      46.448   7.080  23.333  1.00  0.00     0.293 HD
ENDBRANCH   3  12
TORSDOF 1
ENDMDL
MODEL 6
REMARK VINA RESULT:    -5.047      5.021      7.364
REMARK INTER + INTRA:          -5.195
REMARK INTER:                  -5.195
REMARK INTRA:                   0.000
REMARK UNBOUND:                 0.000
REMARK SMILES O=c1ccc2ccc(O)cc2o1
REMARK SMILES IDX 6 1 7 2 8 3 10 4 11 5 5 6 4 7 3 8 2 9 1 10 12 11 9 12
REMARK H PARENT 9 13
REMARK Flexibility Score: inf
ROOT
ATOM      1  C   UNL     1      46.683   8.553  23.500  1.00  0.00     0.016 A 
ATOM      2  C   UNL     1      46.829   8.251  22.141  1.00  0.00     0.047 A 
ATOM      3  C   UNL     1      45.716   8.257  21.292  1.00  0.00     0.119 A 
ATOM      4  C   UNL     1      44.447   8.566  21.804  1.00  0.00     0.094 A 
ATOM      5  C   UNL     1      44.292   8.869  23.161  1.00  0.00     0.142 A 
ATOM      6  C   UNL     1      45.417   8.863  24.014  1.00  0.00     0.018 A 
ATOM      7  C   UNL     1      45.231   9.169  25.367  1.00  0.00     0.019 A 
ATOM      8  C   UNL     1      43.950   9.471  25.829  1.00  0.00     0.094 A 
ATOM      9  C   UNL     1      42.882   9.457  24.925  1.00  0.00     0.336 A 
ATOM     10  O   UNL     1      41.719   9.726  25.324  1.00  0.00    -0.246 OA
ATOM     11  O   UNL     1      43.087   9.162  23.644  1.00  0.00    -0.423 OA
ENDROOT
BRANCH   3  12
ATOM     12  O   UNL     1      45.881   7.954  19.943  1.00  0.00    -0.508 OA
ATOM     13  H   UNL     1      46.635   8.355  19.398  1.00  0.00     0.293 HD
ENDBRANCH   3  12
TORSDOF 1
ENDMDL
MODEL 7
REMARK VINA RESULT:    -4.997      3.199      5.966
REMARK INTER + INTRA:          -5.143
REMARK INTER:                  -5.143
REMARK INTRA:                   0.000
REMARK UNBOUND:                 0.000
REMARK SMILES O=c1ccc2ccc(O)cc2o1
REMARK SMILES IDX 6 1 7 2 8 3 10 4 11 5 5 6 4 7 3 8 2 9 1 10 12 11 9 12
REMARK H PARENT 9 13
REMARK Flexibility Score: inf
ROOT
ATOM      1  C   UNL     1      47.361   7.330  21.472  1.00  0.00     0.016 A 
ATOM      2  C   UNL     1      47.127   7.766  22.781  1.00  0.00     0.047 A 
ATOM      3  C   UNL     1      45.997   8.536  23.079  1.00  0.00     0.119 A 
ATOM      4  C   UNL     1      45.093   8.875  22.061  1.00  0.00     0.094 A 
ATOM      5  C   UNL     1      45.319   8.444  20.749  1.00  0.00     0.142 A 
ATOM      6  C   UNL     1      46.460   7.666  20.453  1.00  0.00     0.018 A 
ATOM      7  C   UNL     1      46.660   7.250  19.133  1.00  0.00     0.019 A 
ATOM      8  C   UNL     1      45.733   7.610  18.155  1.00  0.00     0.094 A 
ATOM      9  C   UNL     1      44.626   8.383  18.522  1.00  0.00     0.336 A 
ATOM     10  O   UNL     1      43.778   8.718  17.653  1.00  0.00    -0.246 OA
ATOM     11  O   UNL     1      44.459   8.766  19.786  1.00  0.00    -0.423 OA
ENDROOT
BRANCH   3  12
ATOM     12  O   UNL     1      45.781   8.961  24.388  1.00  0.00    -0.508 OA
ATOM     13  H   UNL     1      45.338   9.849  24.590  1.00  0.00     0.293 HD
ENDBRANCH   3  12
TORSDOF 1
ENDMDL
MODEL 8
REMARK VINA RESULT:    -4.980      2.078      3.143
REMARK INTER + INTRA:          -5.125
REMARK INTER:                  -5.125
REMARK INTRA:                   0.000
REMARK UNBOUND:                 0.000
REMARK SMILES O=c1ccc2ccc(O)cc2o1
REMARK SMILES IDX 6 1 7 2 8 3 10 4 11 5 5 6 4 7 3 8 2 9 1 10 12 11 9 12
REMARK H PARENT 9 13
REMARK Flexibility Score: inf
ROOT
ATOM      1  C   UNL     1      46.774   6.666  17.676  1.00  0.00     0.016 A 
ATOM      2  C   UNL     1      46.200   6.683  16.399  1.00  0.00     0.047 A 
ATOM      3  C   UNL     1      45.021   7.398  16.164  1.00  0.00     0.119 A 
ATOM      4  C   UNL     1      44.408   8.103  17.211  1.00  0.00     0.094 A 
ATOM      5  C   UNL     1      44.975   8.092  18.490  1.00  0.00     0.142 A 
ATOM      6  C   UNL     1      46.165   7.370  18.724  1.00  0.00     0.018 A 
ATOM      7  C   UNL     1      46.708   7.377  20.013  1.00  0.00     0.019 A 
ATOM      8  C   UNL     1      46.064   8.093  21.022  1.00  0.00     0.094 A 
ATOM      9  C   UNL     1      44.887   8.785  20.717  1.00  0.00     0.336 A 
ATOM     10  O   UNL     1      44.292   9.437  21.614  1.00  0.00    -0.246 OA
ATOM     11  O   UNL     1      44.392   8.762  19.482  1.00  0.00    -0.423 OA
ENDROOT
BRANCH   3  12
ATOM     12  O   UNL     1      44.464   7.403  14.886  1.00  0.00    -0.508 OA
ATOM     13  H   UNL     1      44.591   8.187  14.256  1.00  0.00     0.293 HD
ENDBRANCH   3  12
TORSDOF 1
ENDMDL
MODEL 9
REMARK VINA RESULT:    -4.878      2.120      5.107
REMARK INTER + INTRA:          -5.020
REMARK INTER:                  -5.020
REMARK INTRA:                   0.000
REMARK UNBOUND:                 0.000
REMARK SMILES O=c1ccc2ccc(O)cc2o1
REMARK SMILES IDX 6 1 7 2 8 3 10 4 11 5 5 6 4 7 3 8 2 9 1 10 12 11 9 12
REMARK H PARENT 9 13
REMARK Flexibility Score: inf
ROOT
ATOM      1  C   UNL     1      46.744   7.342  19.944  1.00  0.00     0.016 A 
ATOM      2  C   UNL     1      46.140   8.090  20.961  1.00  0.00     0.047 A 
ATOM      3  C   UNL     1      44.984   8.834  20.699  1.00  0.00     0.119 A 
ATOM      4  C   UNL     1      44.425   8.830  19.412  1.00  0.00     0.094 A 
ATOM      5  C   UNL     1      45.022   8.085  18.390  1.00  0.00     0.142 A 
ATOM      6  C   UNL     1      46.188   7.335  18.658  1.00  0.00     0.018 A 
ATOM      7  C   UNL     1      46.763   6.600  17.616  1.00  0.00     0.019 A 
ATOM      8  C   UNL     1      46.171   6.626  16.354  1.00  0.00     0.094 A 
ATOM      9  C   UNL     1      45.016   7.392  16.162  1.00  0.00     0.336 A 
ATOM     10  O   UNL     1      44.467   7.428  15.029  1.00  0.00    -0.246 OA
ATOM     11  O   UNL     1      44.489   8.082  17.171  1.00  0.00    -0.423 OA
ENDROOT
BRANCH   3  12
ATOM     12  O   UNL     1      44.397   9.574  21.724  1.00  0.00    -0.508 OA
ATOM     13  H   UNL     1      44.282  10.578  21.654  1.00  0.00     0.293 HD
ENDBRANCH   3  12
TORSDOF 1
ENDMDL
