MODEL 1
REMARK VINA RESULT:     0.173      0.000      0.000
REMARK INTER + INTRA:          -0.036
REMARK INTER:                   0.204
REMARK INTRA:                  -0.240
REMARK UNBOUND:                -0.240
REMARK SMILES O=c1c(O)c(-c2ccc(O)cc2)oc2cc(O)cc(O)c12
REMARK SMILES IDX 5 1 3 2 2 3 1 4 21 5 19 6 18 7 16 8 15 9 14 10 13 11 6 12
REMARK SMILES IDX 7 13 8 14 9 15 12 16 11 17 10 18 4 20 20 22 17 24
REMARK H PARENT 10 19 4 21 20 23 17 25
REMARK Flexibility Score: inf
ROOT
ATOM      1  C   UNL     1      13.054 -12.827  28.907  1.00  0.00     0.180 A 
ATOM      2  C   UNL     1      13.333 -13.238  27.592  1.00  0.00     0.208 A 
ATOM      3  C   UNL     1      14.050 -14.428  27.388  1.00  0.00     0.238 A 
ATOM      4  O   UNL     1      14.344 -14.762  26.211  1.00  0.00    -0.285 OA
ATOM      5  C   UNL     1      14.465 -15.199  28.501  1.00  0.00     0.111 A 
ATOM      6  C   UNL     1      15.162 -16.443  28.409  1.00  0.00     0.134 A 
ATOM      7  C   UNL     1      15.638 -17.054  29.576  1.00  0.00     0.093 A 
ATOM      8  C   UNL     1      15.384 -16.501  30.834  1.00  0.00     0.123 A 
ATOM      9  C   UNL     1      14.654 -15.320  30.936  1.00  0.00     0.094 A 
ATOM     10  C   UNL     1      14.197 -14.668  29.788  1.00  0.00     0.146 A 
ATOM     11  O   UNL     1      13.514 -13.538  29.931  1.00  0.00    -0.452 OA
ENDROOT
BRANCH   1  12
ATOM     12  C   UNL     1      12.282 -11.598  29.202  1.00  0.00     0.021 A 
ATOM     13  C   UNL     1      12.940 -10.480  29.742  1.00  0.00     0.016 A 
ATOM     14  C   UNL     1      12.226  -9.318  30.049  1.00  0.00     0.047 A 
ATOM     15  C   UNL     1      10.843  -9.264  29.832  1.00  0.00     0.115 A 
ATOM     16  C   UNL     1      10.890 -11.543  29.007  1.00  0.00     0.016 A 
ATOM     17  C   UNL     1      10.178 -10.379  29.314  1.00  0.00     0.047 A 
BRANCH  15  18
ATOM     18  O   UNL     1      10.122  -8.110  30.134  1.00  0.00    -0.508 OA
ATOM     19  H   UNL     1       9.829  -7.465  29.410  1.00  0.00     0.293 HD
ENDBRANCH  15  18
ENDBRANCH   1  12
BRANCH   2  20
ATOM     20  O   UNL     1      12.934 -12.450  26.509  1.00  0.00    -0.502 OA
ATOM     21  H   UNL     1      12.691 -12.845  25.609  1.00  0.00     0.293 HD
ENDBRANCH   2  20
BRANCH   6  22
ATOM     22  O   UNL     1      15.386 -17.125  27.211  1.00  0.00    -0.507 OA
ATOM     23  H   UNL     1      16.286 -17.226  26.766  1.00  0.00     0.293 HD
ENDBRANCH   6  22
BRANCH   8  24
ATOM     24  O   UNL     1      15.848 -17.125  31.990  1.00  0.00    -0.508 OA
ATOM     25  H   UNL     1      15.281 -17.176  32.829  1.00  0.00     0.293 HD
ENDBRANCH   8  24
TORSDOF 5
ENDMDL
MODEL 2
REMARK VINA RESULT:     2.424      1.989      6.426
REMARK INTER + INTRA:           2.609
REMARK INTER:                   2.833
REMARK INTRA:                  -0.224
REMARK UNBOUND:                -0.240
REMARK SMILES O=c1c(O)c(-c2ccc(O)cc2)oc2cc(O)cc(O)c12
REMARK SMILES IDX 5 1 3 2 2 3 1 4 21 5 19 6 18 7 16 8 15 9 14 10 13 11 6 12
REMARK SMILES IDX 7 13 8 14 9 15 12 16 11 17 10 18 4 20 20 22 17 24
REMARK H PARENT 10 19 4 21 20 23 17 25
REMARK Flexibility Score: inf
ROOT
ATOM      1  C   UNL     1      13.366 -12.922  28.347  1.00  0.00     0.180 A 
ATOM      2  C   UNL     1      12.104 -12.471  27.919  1.00  0.00     0.208 A 
ATOM      3  C   UNL     1      11.490 -11.413  28.609  1.00  0.00     0.238 A 
ATOM      4  O   UNL     1      10.338 -11.050  28.256  1.00  0.00    -0.285 OA
ATOM      5  C   UNL     1      12.150 -10.811  29.707  1.00  0.00     0.111 A 
ATOM      6  C   UNL     1      11.638  -9.706  30.453  1.00  0.00     0.134 A 
ATOM      7  C   UNL     1      12.315  -9.276  31.601  1.00  0.00     0.093 A 
ATOM      8  C   UNL     1      13.520  -9.866  31.990  1.00  0.00     0.123 A 
ATOM      9  C   UNL     1      14.057 -10.904  31.235  1.00  0.00     0.094 A 
ATOM     10  C   UNL     1      13.387 -11.380  30.106  1.00  0.00     0.146 A 
ATOM     11  O   UNL     1      13.930 -12.380  29.420  1.00  0.00    -0.452 OA
ENDROOT
BRANCH   1  12
ATOM     12  C   UNL     1      14.088 -14.015  27.655  1.00  0.00     0.021 A 
ATOM     13  C   UNL     1      14.253 -15.252  28.300  1.00  0.00     0.016 A 
ATOM     14  C   UNL     1      14.951 -16.289  27.675  1.00  0.00     0.047 A 
ATOM     15  C   UNL     1      15.505 -16.098  26.403  1.00  0.00     0.115 A 
ATOM     16  C   UNL     1      14.665 -13.824  26.387  1.00  0.00     0.016 A 
ATOM     17  C   UNL     1      15.363 -14.863  25.763  1.00  0.00     0.047 A 
BRANCH  15  18
ATOM     18  O   UNL     1      16.202 -17.125  25.770  1.00  0.00    -0.508 OA
ATOM     19  H   UNL     1      15.807 -18.053  25.675  1.00  0.00     0.293 HD
ENDBRANCH  15  18
ENDBRANCH   1  12
BRANCH   2  20
ATOM     20  O   UNL     1      11.461 -13.095  26.847  1.00  0.00    -0.502 OA
ATOM     21  H   UNL     1      11.896 -13.832  26.306  1.00  0.00     0.293 HD
ENDBRANCH   2  20
BRANCH   6  22
ATOM     22  O   UNL     1      10.494  -8.988  30.096  1.00  0.00    -0.507 OA
ATOM     23  H   UNL     1       9.712  -9.368  29.585  1.00  0.00     0.293 HD
ENDBRANCH   6  22
BRANCH   8  24
ATOM     24  O   UNL     1      14.195  -9.420  33.124  1.00  0.00    -0.508 OA
ATOM     25  H   UNL     1      14.755  -8.575  33.111  1.00  0.00     0.293 HD
ENDBRANCH   8  24
TORSDOF 5
ENDMDL
