MODEL 1
REMARK VINA RESULT:     4.815      0.000      0.000
REMARK INTER + INTRA:           5.666
REMARK INTER:                   5.800
REMARK INTRA:                  -0.135
REMARK UNBOUND:                -0.135
REMARK SMILES O=c1c(O)c(-c2ccc(O)c(O)c2)oc2cc(O)cc(O)c12
REMARK SMILES IDX 5 1 3 2 2 3 1 4 22 5 20 6 19 7 17 8 16 9 15 10 14 11 6 12
REMARK SMILES IDX 7 13 8 14 9 15 13 16 11 17 10 18 12 20 4 22 21 24 18 26
REMARK H PARENT 10 19 12 21 4 23 21 25 18 27
REMARK Flexibility Score: inf
ROOT
ATOM      1  C   UNL     1      21.059   9.181  -6.444  1.00  0.00     0.180 A 
ATOM      2  C   UNL     1      22.074   9.012  -7.401  1.00  0.00     0.208 A 
ATOM      3  C   UNL     1      22.034   9.776  -8.579  1.00  0.00     0.238 A 
ATOM      4  O   UNL     1      22.975   9.659  -9.407  1.00  0.00    -0.285 OA
ATOM      5  C   UNL     1      20.971  10.688  -8.791  1.00  0.00     0.111 A 
ATOM      6  C   UNL     1      20.809  11.484  -9.965  1.00  0.00     0.134 A 
ATOM      7  C   UNL     1      19.793  12.447 -10.011  1.00  0.00     0.093 A 
ATOM      8  C   UNL     1      18.894  12.597  -8.952  1.00  0.00     0.123 A 
ATOM      9  C   UNL     1      19.008  11.783  -7.827  1.00  0.00     0.094 A 
ATOM     10  C   UNL     1      20.033  10.838  -7.737  1.00  0.00     0.146 A 
ATOM     11  O   UNL     1      20.112  10.091  -6.642  1.00  0.00    -0.452 OA
ENDROOT
BRANCH   1  12
ATOM     12  C   UNL     1      21.019   8.393  -5.190  1.00  0.00     0.025 A 
ATOM     13  C   UNL     1      20.947   6.989  -5.210  1.00  0.00     0.016 A 
ATOM     14  C   UNL     1      20.886   6.269  -4.014  1.00  0.00     0.051 A 
ATOM     15  C   UNL     1      20.883   6.940  -2.785  1.00  0.00     0.157 A 
ATOM     16  C   UNL     1      20.995   9.062  -3.955  1.00  0.00     0.062 A 
ATOM     17  C   UNL     1      20.935   8.340  -2.754  1.00  0.00     0.158 A 
BRANCH  15  18
ATOM     18  O   UNL     1      20.824   6.224  -1.590  1.00  0.00    -0.504 OA
ATOM     19  H   UNL     1      21.647   6.086  -1.015  1.00  0.00     0.293 HD
ENDBRANCH  15  18
BRANCH  17  20
ATOM     20  O   UNL     1      20.925   9.005  -1.530  1.00  0.00    -0.504 OA
ATOM     21  H   UNL     1      20.676   8.530  -0.671  1.00  0.00     0.293 HD
ENDBRANCH  17  20
ENDBRANCH   1  12
BRANCH   2  22
ATOM     22  O   UNL     1      23.125   8.123  -7.162  1.00  0.00    -0.502 OA
ATOM     23  H   UNL     1      23.498   7.957  -6.235  1.00  0.00     0.293 HD
ENDBRANCH   2  22
BRANCH   6  24
ATOM     24  O   UNL     1      21.595  11.350 -11.113  1.00  0.00    -0.507 OA
ATOM     25  H   UNL     1      22.483  11.804 -11.257  1.00  0.00     0.293 HD
ENDBRANCH   6  24
BRANCH   8  26
ATOM     26  O   UNL     1      17.877  13.546  -9.014  1.00  0.00    -0.508 OA
ATOM     27  H   UNL     1      16.910  13.299  -8.837  1.00  0.00     0.293 HD
ENDBRANCH   8  26
TORSDOF 6
ENDMDL
MODEL 2
REMARK VINA RESULT:     5.483      1.472      1.542
REMARK INTER + INTRA:           6.470
REMARK INTER:                   6.755
REMARK INTRA:                  -0.285
REMARK UNBOUND:                -0.135
REMARK SMILES O=c1c(O)c(-c2ccc(O)c(O)c2)oc2cc(O)cc(O)c12
REMARK SMILES IDX 5 1 3 2 2 3 1 4 22 5 20 6 19 7 17 8 16 9 15 10 14 11 6 12
REMARK SMILES IDX 7 13 8 14 9 15 13 16 11 17 10 18 12 20 4 22 21 24 18 26
REMARK H PARENT 10 19 12 21 4 23 21 25 18 27
REMARK Flexibility Score: inf
ROOT
ATOM      1  C   UNL     1      20.499   9.626  -6.802  1.00  0.00     0.180 A 
ATOM      2  C   UNL     1      21.526  10.346  -7.436  1.00  0.00     0.208 A 
ATOM      3  C   UNL     1      21.220  11.109  -8.574  1.00  0.00     0.238 A 
ATOM      4  O   UNL     1      22.133  11.794  -9.105  1.00  0.00    -0.285 OA
ATOM      5  C   UNL     1      19.895  11.129  -9.074  1.00  0.00     0.111 A 
ATOM      6  C   UNL     1      19.481  11.835 -10.243  1.00  0.00     0.134 A 
ATOM      7  C   UNL     1      18.120  11.891 -10.570  1.00  0.00     0.093 A 
ATOM      8  C   UNL     1      17.168  11.213  -9.806  1.00  0.00     0.123 A 
ATOM      9  C   UNL     1      17.570  10.471  -8.697  1.00  0.00     0.094 A 
ATOM     10  C   UNL     1      18.916  10.426  -8.326  1.00  0.00     0.146 A 
ATOM     11  O   UNL     1      19.254   9.717  -7.255  1.00  0.00    -0.452 OA
ENDROOT
BRANCH   1  12
ATOM     12  C   UNL     1      20.749   8.779  -5.613  1.00  0.00     0.025 A 
ATOM     13  C   UNL     1      20.832   7.379  -5.715  1.00  0.00     0.016 A 
ATOM     14  C   UNL     1      21.045   6.600  -4.574  1.00  0.00     0.051 A 
ATOM     15  C   UNL     1      21.163   7.205  -3.317  1.00  0.00     0.157 A 
ATOM     16  C   UNL     1      20.848   9.379  -4.346  1.00  0.00     0.062 A 
ATOM     17  C   UNL     1      21.062   8.598  -3.201  1.00  0.00     0.158 A 
BRANCH  15  18
ATOM     18  O   UNL     1      21.377   6.431  -2.178  1.00  0.00    -0.504 OA
ATOM     19  H   UNL     1      20.840   6.576  -1.330  1.00  0.00     0.293 HD
ENDBRANCH  15  18
BRANCH  17  20
ATOM     20  O   UNL     1      21.173   9.197  -1.948  1.00  0.00    -0.504 OA
ATOM     21  H   UNL     1      20.362   9.560  -1.461  1.00  0.00     0.293 HD
ENDBRANCH  17  20
ENDBRANCH   1  12
BRANCH   2  22
ATOM     22  O   UNL     1      22.822  10.330  -6.914  1.00  0.00    -0.502 OA
ATOM     23  H   UNL     1      23.261  11.153  -6.520  1.00  0.00     0.293 HD
ENDBRANCH   2  22
BRANCH   6  24
ATOM     24  O   UNL     1      20.361  12.469 -11.125  1.00  0.00    -0.507 OA
ATOM     25  H   UNL     1      20.115  12.800 -12.044  1.00  0.00     0.293 HD
ENDBRANCH   6  24
BRANCH   8  26
ATOM     26  O   UNL     1      15.818  11.261 -10.148  1.00  0.00    -0.508 OA
ATOM     27  H   UNL     1      15.518  11.384 -11.107  1.00  0.00     0.293 HD
ENDBRANCH   8  26
TORSDOF 6
ENDMDL
MODEL 3
REMARK VINA RESULT:     6.519      1.614      7.234
REMARK INTER + INTRA:           7.718
REMARK INTER:                   7.802
REMARK INTRA:                  -0.084
REMARK UNBOUND:                -0.135
REMARK SMILES O=c1c(O)c(-c2ccc(O)c(O)c2)oc2cc(O)cc(O)c12
REMARK SMILES IDX 5 1 3 2 2 3 1 4 22 5 20 6 19 7 17 8 16 9 15 10 14 11 6 12
REMARK SMILES IDX 7 13 8 14 9 15 13 16 11 17 10 18 12 20 4 22 21 24 18 26
REMARK H PARENT 10 19 12 21 4 23 21 25 18 27
REMARK Flexibility Score: inf
ROOT
ATOM      1  C   UNL     1      20.936   9.230  -6.335  1.00  0.00     0.180 A 
ATOM      2  C   UNL     1      20.636   9.772  -5.073  1.00  0.00     0.208 A 
ATOM      3  C   UNL     1      20.851   8.989  -3.928  1.00  0.00     0.238 A 
ATOM      4  O   UNL     1      20.632   9.499  -2.797  1.00  0.00    -0.285 OA
ATOM      5  C   UNL     1      21.346   7.669  -4.059  1.00  0.00     0.111 A 
ATOM      6  C   UNL     1      21.562   6.772  -2.969  1.00  0.00     0.134 A 
ATOM      7  C   UNL     1      22.179   5.537  -3.204  1.00  0.00     0.093 A 
ATOM      8  C   UNL     1      22.527   5.139  -4.497  1.00  0.00     0.123 A 
ATOM      9  C   UNL     1      22.264   5.983  -5.574  1.00  0.00     0.094 A 
ATOM     10  C   UNL     1      21.684   7.236  -5.367  1.00  0.00     0.146 A 
ATOM     11  O   UNL     1      21.461   8.014  -6.421  1.00  0.00    -0.452 OA
ENDROOT
BRANCH   1  12
ATOM     12  C   UNL     1      20.713   9.986  -7.589  1.00  0.00     0.025 A 
ATOM     13  C   UNL     1      21.775  10.286  -8.461  1.00  0.00     0.016 A 
ATOM     14  C   UNL     1      21.544  11.022  -9.627  1.00  0.00     0.051 A 
ATOM     15  C   UNL     1      20.255  11.478  -9.930  1.00  0.00     0.157 A 
ATOM     16  C   UNL     1      19.427  10.463  -7.888  1.00  0.00     0.062 A 
ATOM     17  C   UNL     1      19.194  11.201  -9.058  1.00  0.00     0.158 A 
BRANCH  15  18
ATOM     18  O   UNL     1      20.021  12.210 -11.093  1.00  0.00    -0.504 OA
ATOM     19  H   UNL     1      20.714  12.269 -11.831  1.00  0.00     0.293 HD
ENDBRANCH  15  18
BRANCH  17  20
ATOM     20  O   UNL     1      17.915  11.662  -9.360  1.00  0.00    -0.504 OA
ATOM     21  H   UNL     1      17.265  11.936  -8.632  1.00  0.00     0.293 HD
ENDBRANCH  17  20
ENDBRANCH   1  12
BRANCH   2  22
ATOM     22  O   UNL     1      20.169  11.084  -4.964  1.00  0.00    -0.502 OA
ATOM     23  H   UNL     1      19.183  11.309  -4.915  1.00  0.00     0.293 HD
ENDBRANCH   2  22
BRANCH   6  24
ATOM     24  O   UNL     1      21.169   7.034  -1.654  1.00  0.00    -0.507 OA
ATOM     25  H   UNL     1      20.989   7.952  -1.280  1.00  0.00     0.293 HD
ENDBRANCH   6  24
BRANCH   8  26
ATOM     26  O   UNL     1      23.124   3.902  -4.723  1.00  0.00    -0.508 OA
ATOM     27  H   UNL     1      22.584   3.099  -5.023  1.00  0.00     0.293 HD
ENDBRANCH   8  26
TORSDOF 6
ENDMDL
MODEL 4
REMARK VINA RESULT:     6.936      1.180      1.643
REMARK INTER + INTRA:           8.220
REMARK INTER:                   8.236
REMARK INTRA:                  -0.016
REMARK UNBOUND:                -0.135
REMARK SMILES O=c1c(O)c(-c2ccc(O)c(O)c2)oc2cc(O)cc(O)c12
REMARK SMILES IDX 5 1 3 2 2 3 1 4 22 5 20 6 19 7 17 8 16 9 15 10 14 11 6 12
REMARK SMILES IDX 7 13 8 14 9 15 13 16 11 17 10 18 12 20 4 22 21 24 18 26
REMARK H PARENT 10 19 12 21 4 23 21 25 18 27
REMARK Flexibility Score: inf
ROOT
ATOM      1  C   UNL     1      21.035   8.161  -5.211  1.00  0.00     0.180 A 
ATOM      2  C   UNL     1      22.068   7.790  -6.089  1.00  0.00     0.208 A 
ATOM      3  C   UNL     1      22.162   8.429  -7.337  1.00  0.00     0.238 A 
ATOM      4  O   UNL     1      23.121   8.132  -8.097  1.00  0.00    -0.285 OA
ATOM      5  C   UNL     1      21.214   9.417  -7.696  1.00  0.00     0.111 A 
ATOM      6  C   UNL     1      21.189  10.099  -8.950  1.00  0.00     0.134 A 
ATOM      7  C   UNL     1      20.285  11.150  -9.147  1.00  0.00     0.093 A 
ATOM      8  C   UNL     1      19.361  11.499  -8.159  1.00  0.00     0.123 A 
ATOM      9  C   UNL     1      19.337  10.799  -6.955  1.00  0.00     0.094 A 
ATOM     10  C   UNL     1      20.251   9.770  -6.715  1.00  0.00     0.146 A 
ATOM     11  O   UNL     1      20.201   9.136  -5.550  1.00  0.00    -0.452 OA
ENDROOT
BRANCH   1  12
ATOM     12  C   UNL     1      20.857   7.515  -3.890  1.00  0.00     0.025 A 
ATOM     13  C   UNL     1      20.836   6.116  -3.755  1.00  0.00     0.016 A 
ATOM     14  C   UNL     1      20.641   5.530  -2.501  1.00  0.00     0.051 A 
ATOM     15  C   UNL     1      20.451   6.332  -1.369  1.00  0.00     0.157 A 
ATOM     16  C   UNL     1      20.645   8.314  -2.754  1.00  0.00     0.062 A 
ATOM     17  C   UNL     1      20.451   7.727  -1.495  1.00  0.00     0.158 A 
BRANCH  15  18
ATOM     18  O   UNL     1      20.259   5.751  -0.117  1.00  0.00    -0.504 OA
ATOM     19  H   UNL     1      19.386   5.856   0.388  1.00  0.00     0.293 HD
ENDBRANCH  15  18
BRANCH  17  20
ATOM     20  O   UNL     1      20.255   8.522  -0.368  1.00  0.00    -0.504 OA
ATOM     21  H   UNL     1      20.382   9.527  -0.399  1.00  0.00     0.293 HD
ENDBRANCH  17  20
ENDBRANCH   1  12
BRANCH   2  22
ATOM     22  O   UNL     1      23.007   6.829  -5.706  1.00  0.00    -0.502 OA
ATOM     23  H   UNL     1      22.771   5.850  -5.595  1.00  0.00     0.293 HD
ENDBRANCH   2  22
BRANCH   6  24
ATOM     24  O   UNL     1      22.007   9.767 -10.034  1.00  0.00    -0.507 OA
ATOM     25  H   UNL     1      21.764   9.108 -10.757  1.00  0.00     0.293 HD
ENDBRANCH   6  24
BRANCH   8  26
ATOM     26  O   UNL     1      18.454  12.535  -8.369  1.00  0.00    -0.508 OA
ATOM     27  H   UNL     1      18.212  12.846  -9.303  1.00  0.00     0.293 HD
ENDBRANCH   8  26
TORSDOF 6
ENDMDL
MODEL 5
REMARK VINA RESULT:     7.620      1.336      3.225
REMARK INTER + INTRA:           9.045
REMARK INTER:                   9.172
REMARK INTRA:                  -0.127
REMARK UNBOUND:                -0.135
REMARK SMILES O=c1c(O)c(-c2ccc(O)c(O)c2)oc2cc(O)cc(O)c12
REMARK SMILES IDX 5 1 3 2 2 3 1 4 22 5 20 6 19 7 17 8 16 9 15 10 14 11 6 12
REMARK SMILES IDX 7 13 8 14 9 15 13 16 11 17 10 18 12 20 4 22 21 24 18 26
REMARK H PARENT 10 19 12 21 4 23 21 25 18 27
REMARK Flexibility Score: inf
ROOT
ATOM      1  C   UNL     1      20.485   9.830  -5.789  1.00  0.00     0.180 A 
ATOM      2  C   UNL     1      19.427  10.744  -5.930  1.00  0.00     0.208 A 
ATOM      3  C   UNL     1      19.328  11.492  -7.114  1.00  0.00     0.238 A 
ATOM      4  O   UNL     1      18.348  12.269  -7.257  1.00  0.00    -0.285 OA
ATOM      5  C   UNL     1      20.296  11.328  -8.135  1.00  0.00     0.111 A 
ATOM      6  C   UNL     1      20.316  12.062  -9.359  1.00  0.00     0.134 A 
ATOM      7  C   UNL     1      21.244  11.725 -10.351  1.00  0.00     0.093 A 
ATOM      8  C   UNL     1      22.194  10.723 -10.138  1.00  0.00     0.123 A 
ATOM      9  C   UNL     1      22.221  10.042  -8.923  1.00  0.00     0.094 A 
ATOM     10  C   UNL     1      21.285  10.332  -7.928  1.00  0.00     0.146 A 
ATOM     11  O   UNL     1      21.339   9.651  -6.789  1.00  0.00    -0.452 OA
ENDROOT
BRANCH   1  12
ATOM     12  C   UNL     1      20.670   9.024  -4.559  1.00  0.00     0.025 A 
ATOM     13  C   UNL     1      20.837   9.633  -3.303  1.00  0.00     0.016 A 
ATOM     14  C   UNL     1      21.034   8.853  -2.160  1.00  0.00     0.051 A 
ATOM     15  C   UNL     1      21.083   7.457  -2.258  1.00  0.00     0.157 A 
ATOM     16  C   UNL     1      20.740   7.625  -4.655  1.00  0.00     0.062 A 
ATOM     17  C   UNL     1      20.938   6.841  -3.508  1.00  0.00     0.158 A 
BRANCH  15  18
ATOM     18  O   UNL     1      21.278   6.675  -1.121  1.00  0.00    -0.504 OA
ATOM     19  H   UNL     1      21.649   5.734  -1.182  1.00  0.00     0.293 HD
ENDBRANCH  15  18
BRANCH  17  20
ATOM     20  O   UNL     1      20.993   5.452  -3.604  1.00  0.00    -0.504 OA
ATOM     21  H   UNL     1      21.854   4.943  -3.442  1.00  0.00     0.293 HD
ENDBRANCH  17  20
ENDBRANCH   1  12
BRANCH   2  22
ATOM     22  O   UNL     1      18.470  10.875  -4.920  1.00  0.00    -0.502 OA
ATOM     23  H   UNL     1      18.717  10.923  -3.939  1.00  0.00     0.293 HD
ENDBRANCH   2  22
BRANCH   6  24
ATOM     24  O   UNL     1      19.470  13.140  -9.635  1.00  0.00    -0.507 OA
ATOM     25  H   UNL     1      19.727  14.111  -9.542  1.00  0.00     0.293 HD
ENDBRANCH   6  24
BRANCH   8  26
ATOM     26  O   UNL     1      23.125  10.405 -11.125  1.00  0.00    -0.508 OA
ATOM     27  H   UNL     1      22.861   9.892 -11.957  1.00  0.00     0.293 HD
ENDBRANCH   8  26
TORSDOF 6
ENDMDL
