MODEL 1
REMARK VINA RESULT:    -4.983      0.000      0.000
REMARK INTER + INTRA:         -10.835
REMARK INTER:                  -9.353
REMARK INTRA:                  -1.483
REMARK UNBOUND:                -1.483
REMARK SMILES CCCCCCCCC=CCCCCCCCC(=O)[O-]
REMARK SMILES IDX 10 1 9 2 11 3 12 4 13 5 14 6 15 7 16 8 17 9 18 10 19 11
REMARK SMILES IDX 20 12 8 13 7 14 6 15 5 16 4 17 3 18 2 19 1 20
REMARK H PARENT
REMARK Flexibility Score: inf
ROOT
ATOM      1  C   UNL     1       7.661   6.396 -31.718  1.00  0.00    -0.031 C 
ATOM      2  C   UNL     1       7.107   5.173 -31.815  1.00  0.00    -0.031 C 
ENDROOT
BRANCH   1   3
ATOM      3  C   UNL     1       8.578   6.997 -32.756  1.00  0.00     0.027 C 
BRANCH   3   4
ATOM      4  C   UNL     1      10.063   6.913 -32.346  1.00  0.00     0.004 C 
BRANCH   4   5
ATOM      5  C   UNL     1      10.993   6.436 -33.475  1.00  0.00     0.000 C 
BRANCH   5   6
ATOM      6  C   UNL     1      11.122   4.906 -33.534  1.00  0.00     0.000 C 
BRANCH   6   7
ATOM      7  C   UNL     1      12.504   4.414 -33.077  1.00  0.00     0.000 C 
BRANCH   7   8
ATOM      8  C   UNL     1      13.316   5.510 -32.365  1.00  0.00     0.006 C 
BRANCH   8   9
ATOM      9  C   UNL     1      14.384   4.925 -31.432  1.00  0.00     0.053 C 
BRANCH   9  10
ATOM     10  C   UNL     1      13.771   4.229 -30.255  1.00  0.00     0.041 C 
ATOM     11  O   UNL     1      13.134   4.887 -29.390  1.00  0.00    -0.550 OA
ATOM     12  O   UNL     1      13.934   2.860 -30.096  1.00  0.00    -0.550 OA
ENDBRANCH   9  10
ENDBRANCH   8   9
ENDBRANCH   7   8
ENDBRANCH   6   7
ENDBRANCH   5   6
ENDBRANCH   4   5
ENDBRANCH   3   4
ENDBRANCH   1   3
BRANCH   2  13
ATOM     13  C   UNL     1       7.298   4.259 -33.001  1.00  0.00     0.027 C 
BRANCH  13  14
ATOM     14  C   UNL     1       6.203   3.190 -33.057  1.00  0.00     0.004 C 
BRANCH  14  15
ATOM     15  C   UNL     1       5.353   3.209 -31.777  1.00  0.00     0.000 C 
BRANCH  15  16
ATOM     16  C   UNL     1       3.844   3.138 -32.064  1.00  0.00     0.000 C 
BRANCH  16  17
ATOM     17  C   UNL     1       3.027   4.338 -31.546  1.00  0.00    -0.000 C 
BRANCH  17  18
ATOM     18  C   UNL     1       2.613   4.217 -30.065  1.00  0.00    -0.000 C 
BRANCH  18  19
ATOM     19  C   UNL     1       2.979   5.469 -29.252  1.00  0.00    -0.003 C 
ATOM     20  C   UNL     1       4.123   6.237 -29.908  1.00  0.00     0.004 C 
ENDBRANCH  18  19
ENDBRANCH  17  18
ENDBRANCH  16  17
ENDBRANCH  15  16
ENDBRANCH  14  15
ENDBRANCH  13  14
ENDBRANCH   2  13
TORSDOF 15
ENDMDL
MODEL 2
REMARK VINA RESULT:    -4.887      1.048      1.193
REMARK INTER + INTRA:         -10.655
REMARK INTER:                  -9.377
REMARK INTRA:                  -1.278
REMARK UNBOUND:                -1.483
REMARK SMILES CCCCCCCCC=CCCCCCCCC(=O)[O-]
REMARK SMILES IDX 10 1 9 2 11 3 12 4 13 5 14 6 15 7 16 8 17 9 18 10 19 11
REMARK SMILES IDX 20 12 8 13 7 14 6 15 5 16 4 17 3 18 2 19 1 20
REMARK H PARENT
REMARK Flexibility Score: inf
ROOT
ATOM      1  C   UNL     1       7.694   6.348 -31.678  1.00  0.00    -0.031 C 
ATOM      2  C   UNL     1       7.105   5.147 -31.822  1.00  0.00    -0.031 C 
ENDROOT
BRANCH   1   3
ATOM      3  C   UNL     1       8.529   7.017 -32.743  1.00  0.00     0.027 C 
BRANCH   3   4
ATOM      4  C   UNL     1      10.041   6.898 -32.465  1.00  0.00     0.004 C 
BRANCH   4   5
ATOM      5  C   UNL     1      10.842   6.292 -33.631  1.00  0.00     0.000 C 
BRANCH   5   6
ATOM      6  C   UNL     1      12.156   5.638 -33.175  1.00  0.00     0.000 C 
BRANCH   6   7
ATOM      7  C   UNL     1      12.389   5.781 -31.662  1.00  0.00     0.000 C 
BRANCH   7   8
ATOM      8  C   UNL     1      13.863   5.571 -31.269  1.00  0.00     0.006 C 
BRANCH   8   9
ATOM      9  C   UNL     1      14.058   4.318 -30.407  1.00  0.00     0.053 C 
BRANCH   9  10
ATOM     10  C   UNL     1      15.496   3.900 -30.354  1.00  0.00     0.041 C 
ATOM     11  O   UNL     1      16.391   4.641 -30.840  1.00  0.00    -0.550 OA
ATOM     12  O   UNL     1      15.843   2.675 -29.798  1.00  0.00    -0.550 OA
ENDBRANCH   9  10
ENDBRANCH   8   9
ENDBRANCH   7   8
ENDBRANCH   6   7
ENDBRANCH   5   6
ENDBRANCH   4   5
ENDBRANCH   3   4
ENDBRANCH   1   3
BRANCH   2  13
ATOM     13  C   UNL     1       7.166   4.331 -33.090  1.00  0.00     0.027 C 
BRANCH  13  14
ATOM     14  C   UNL     1       6.127   3.205 -33.074  1.00  0.00     0.004 C 
BRANCH  14  15
ATOM     15  C   UNL     1       5.337   3.208 -31.756  1.00  0.00     0.000 C 
BRANCH  15  16
ATOM     16  C   UNL     1       3.818   3.102 -31.972  1.00  0.00     0.000 C 
BRANCH  16  17
ATOM     17  C   UNL     1       3.017   4.356 -31.572  1.00  0.00    -0.000 C 
BRANCH  17  18
ATOM     18  C   UNL     1       2.450   4.302 -30.137  1.00  0.00    -0.000 C 
BRANCH  18  19
ATOM     19  C   UNL     1       2.959   5.459 -29.264  1.00  0.00    -0.003 C 
ATOM     20  C   UNL     1       4.035   6.264 -29.987  1.00  0.00     0.004 C 
ENDBRANCH  18  19
ENDBRANCH  17  18
ENDBRANCH  16  17
ENDBRANCH  15  16
ENDBRANCH  14  15
ENDBRANCH  13  14
ENDBRANCH   2  13
TORSDOF 15
ENDMDL
MODEL 3
REMARK VINA RESULT:    -4.803      3.423      8.274
REMARK INTER + INTRA:         -10.496
REMARK INTER:                  -8.944
REMARK INTRA:                  -1.553
REMARK UNBOUND:                -1.483
REMARK SMILES CCCCCCCCC=CCCCCCCCC(=O)[O-]
REMARK SMILES IDX 10 1 9 2 11 3 12 4 13 5 14 6 15 7 16 8 17 9 18 10 19 11
REMARK SMILES IDX 20 12 8 13 7 14 6 15 5 16 4 17 3 18 2 19 1 20
REMARK H PARENT
REMARK Flexibility Score: inf
ROOT
ATOM      1  C   UNL     1       8.727   6.604 -31.862  1.00  0.00    -0.031 C 
ATOM      2  C   UNL     1       9.944   6.589 -32.436  1.00  0.00    -0.031 C 
ENDROOT
BRANCH   1   3
ATOM      3  C   UNL     1       7.454   6.984 -32.579  1.00  0.00     0.027 C 
BRANCH   3   4
ATOM      4  C   UNL     1       6.373   5.888 -32.476  1.00  0.00     0.004 C 
BRANCH   4   5
ATOM      5  C   UNL     1       6.940   4.476 -32.247  1.00  0.00     0.000 C 
BRANCH   5   6
ATOM      6  C   UNL     1       5.961   3.555 -31.501  1.00  0.00     0.000 C 
BRANCH   6   7
ATOM      7  C   UNL     1       4.670   3.303 -32.297  1.00  0.00     0.000 C 
BRANCH   7   8
ATOM      8  C   UNL     1       3.403   3.529 -31.453  1.00  0.00     0.006 C 
BRANCH   8   9
ATOM      9  C   UNL     1       3.720   4.162 -30.093  1.00  0.00     0.053 C 
BRANCH   9  10
ATOM     10  C   UNL     1       3.158   5.547 -29.981  1.00  0.00     0.041 C 
ATOM     11  O   UNL     1       3.922   6.547 -30.029  1.00  0.00    -0.550 OA
ATOM     12  O   UNL     1       1.795   5.730 -29.788  1.00  0.00    -0.550 OA
ENDBRANCH   9  10
ENDBRANCH   8   9
ENDBRANCH   7   8
ENDBRANCH   6   7
ENDBRANCH   5   6
ENDBRANCH   4   5
ENDBRANCH   3   4
ENDBRANCH   1   3
BRANCH   2  13
ATOM     13  C   UNL     1      10.186   6.909 -33.892  1.00  0.00     0.027 C 
BRANCH  13  14
ATOM     14  C   UNL     1      11.034   5.823 -34.562  1.00  0.00     0.004 C 
BRANCH  14  15
ATOM     15  C   UNL     1      11.827   5.024 -33.517  1.00  0.00     0.000 C 
BRANCH  15  16
ATOM     16  C   UNL     1      13.329   5.354 -33.530  1.00  0.00     0.000 C 
BRANCH  16  17
ATOM     17  C   UNL     1      14.034   5.231 -32.165  1.00  0.00    -0.000 C 
BRANCH  17  18
ATOM     18  C   UNL     1      13.119   5.543 -30.962  1.00  0.00    -0.000 C 
BRANCH  18  19
ATOM     19  C   UNL     1      13.401   4.627 -29.761  1.00  0.00    -0.003 C 
ATOM     20  C   UNL     1      14.087   3.337 -30.200  1.00  0.00     0.004 C 
ENDBRANCH  18  19
ENDBRANCH  17  18
ENDBRANCH  16  17
ENDBRANCH  15  16
ENDBRANCH  14  15
ENDBRANCH  13  14
ENDBRANCH   2  13
TORSDOF 15
ENDMDL
MODEL 4
REMARK VINA RESULT:    -4.784      1.142      1.921
REMARK INTER + INTRA:         -10.461
REMARK INTER:                  -9.099
REMARK INTRA:                  -1.362
REMARK UNBOUND:                -1.483
REMARK SMILES CCCCCCCCC=CCCCCCCCC(=O)[O-]
REMARK SMILES IDX 10 1 9 2 11 3 12 4 13 5 14 6 15 7 16 8 17 9 18 10 19 11
REMARK SMILES IDX 20 12 8 13 7 14 6 15 5 16 4 17 3 18 2 19 1 20
REMARK H PARENT
REMARK Flexibility Score: inf
ROOT
ATOM      1  C   UNL     1       8.948   7.067 -33.072  1.00  0.00    -0.031 C 
ATOM      2  C   UNL     1       7.726   6.689 -32.654  1.00  0.00    -0.031 C 
ENDROOT
BRANCH   1   3
ATOM      3  C   UNL     1      10.235   6.401 -32.647  1.00  0.00     0.027 C 
BRANCH   3   4
ATOM      4  C   UNL     1      10.609   5.213 -33.557  1.00  0.00     0.004 C 
BRANCH   4   5
ATOM      5  C   UNL     1      12.039   4.689 -33.338  1.00  0.00     0.000 C 
BRANCH   5   6
ATOM      6  C   UNL     1      13.063   5.818 -33.141  1.00  0.00     0.000 C 
BRANCH   6   7
ATOM      7  C   UNL     1      14.048   5.526 -31.998  1.00  0.00     0.000 C 
BRANCH   7   8
ATOM      8  C   UNL     1      13.337   5.133 -30.691  1.00  0.00     0.006 C 
BRANCH   8   9
ATOM      9  C   UNL     1      14.118   4.074 -29.903  1.00  0.00     0.053 C 
BRANCH   9  10
ATOM     10  C   UNL     1      14.326   2.826 -30.707  1.00  0.00     0.041 C 
ATOM     11  O   UNL     1      15.490   2.455 -31.013  1.00  0.00    -0.550 OA
ATOM     12  O   UNL     1      13.232   2.093 -31.148  1.00  0.00    -0.550 OA
ENDBRANCH   9  10
ENDBRANCH   8   9
ENDBRANCH   7   8
ENDBRANCH   6   7
ENDBRANCH   5   6
ENDBRANCH   4   5
ENDBRANCH   3   4
ENDBRANCH   1   3
BRANCH   2  13
ATOM     13  C   UNL     1       7.481   5.516 -31.735  1.00  0.00     0.027 C 
BRANCH  13  14
ATOM     14  C   UNL     1       6.727   4.396 -32.460  1.00  0.00     0.004 C 
BRANCH  14  15
ATOM     15  C   UNL     1       5.950   3.524 -31.462  1.00  0.00     0.000 C 
BRANCH  15  16
ATOM     16  C   UNL     1       4.427   3.624 -31.644  1.00  0.00     0.000 C 
BRANCH  16  17
ATOM     17  C   UNL     1       3.850   5.048 -31.523  1.00  0.00    -0.000 C 
BRANCH  17  18
ATOM     18  C   UNL     1       3.846   5.598 -30.081  1.00  0.00    -0.000 C 
BRANCH  18  19
ATOM     19  C   UNL     1       2.552   5.253 -29.328  1.00  0.00    -0.003 C 
ATOM     20  C   UNL     1       1.346   5.281 -30.262  1.00  0.00     0.004 C 
ENDBRANCH  18  19
ENDBRANCH  17  18
ENDBRANCH  16  17
ENDBRANCH  15  16
ENDBRANCH  14  15
ENDBRANCH  13  14
ENDBRANCH   2  13
TORSDOF 15
ENDMDL
MODEL 5
REMARK VINA RESULT:    -4.763      1.409      2.436
REMARK INTER + INTRA:         -10.422
REMARK INTER:                  -8.124
REMARK INTRA:                  -2.298
REMARK UNBOUND:                -1.483
REMARK SMILES CCCCCCCCC=CCCCCCCCC(=O)[O-]
REMARK SMILES IDX 10 1 9 2 11 3 12 4 13 5 14 6 15 7 16 8 17 9 18 10 19 11
REMARK SMILES IDX 20 12 8 13 7 14 6 15 5 16 4 17 3 18 2 19 1 20
REMARK H PARENT
REMARK Flexibility Score: inf
ROOT
ATOM      1  C   UNL     1       6.719   4.408 -31.880  1.00  0.00    -0.031 C 
ATOM      2  C   UNL     1       6.645   3.727 -33.038  1.00  0.00    -0.031 C 
ENDROOT
BRANCH   1   3
ATOM      3  C   UNL     1       6.249   5.832 -31.700  1.00  0.00     0.027 C 
BRANCH   3   4
ATOM      4  C   UNL     1       7.406   6.847 -31.794  1.00  0.00     0.004 C 
BRANCH   4   5
ATOM      5  C   UNL     1       7.633   7.402 -33.211  1.00  0.00     0.000 C 
BRANCH   5   6
ATOM      6  C   UNL     1       9.103   7.327 -33.651  1.00  0.00     0.000 C 
BRANCH   6   7
ATOM      7  C   UNL     1       9.791   6.032 -33.190  1.00  0.00     0.000 C 
BRANCH   7   8
ATOM      8  C   UNL     1      10.986   6.297 -32.257  1.00  0.00     0.006 C 
BRANCH   8   9
ATOM      9  C   UNL     1      12.251   5.562 -32.716  1.00  0.00     0.053 C 
BRANCH   9  10
ATOM     10  C   UNL     1      13.296   5.530 -31.642  1.00  0.00     0.041 C 
ATOM     11  O   UNL     1      14.517   5.587 -31.942  1.00  0.00    -0.550 OA
ATOM     12  O   UNL     1      12.919   5.401 -30.311  1.00  0.00    -0.550 OA
ENDBRANCH   9  10
ENDBRANCH   8   9
ENDBRANCH   7   8
ENDBRANCH   6   7
ENDBRANCH   5   6
ENDBRANCH   4   5
ENDBRANCH   3   4
ENDBRANCH   1   3
BRANCH   2  13
ATOM     13  C   UNL     1       6.039   4.289 -34.302  1.00  0.00     0.027 C 
BRANCH  13  14
ATOM     14  C   UNL     1       4.573   3.866 -34.447  1.00  0.00     0.004 C 
BRANCH  14  15
ATOM     15  C   UNL     1       3.630   5.019 -34.073  1.00  0.00     0.000 C 
BRANCH  15  16
ATOM     16  C   UNL     1       2.662   4.651 -32.936  1.00  0.00     0.000 C 
BRANCH  16  17
ATOM     17  C   UNL     1       3.000   3.345 -32.193  1.00  0.00    -0.000 C 
BRANCH  17  18
ATOM     18  C   UNL     1       3.372   3.550 -30.709  1.00  0.00    -0.000 C 
BRANCH  18  19
ATOM     19  C   UNL     1       2.525   4.643 -30.040  1.00  0.00    -0.003 C 
ATOM     20  C   UNL     1       3.403   5.762 -29.488  1.00  0.00     0.004 C 
ENDBRANCH  18  19
ENDBRANCH  17  18
ENDBRANCH  16  17
ENDBRANCH  15  16
ENDBRANCH  14  15
ENDBRANCH  13  14
ENDBRANCH   2  13
TORSDOF 15
ENDMDL
MODEL 6
REMARK VINA RESULT:    -4.702      1.815      2.876
REMARK INTER + INTRA:         -10.307
REMARK INTER:                  -9.155
REMARK INTRA:                  -1.152
REMARK UNBOUND:                -1.483
REMARK SMILES CCCCCCCCC=CCCCCCCCC(=O)[O-]
REMARK SMILES IDX 10 1 9 2 11 3 12 4 13 5 14 6 15 7 16 8 17 9 18 10 19 11
REMARK SMILES IDX 20 12 8 13 7 14 6 15 5 16 4 17 3 18 2 19 1 20
REMARK H PARENT
REMARK Flexibility Score: inf
ROOT
ATOM      1  C   UNL     1      10.446   6.568 -32.111  1.00  0.00    -0.031 C 
ATOM      2  C   UNL     1       9.118   6.572 -32.332  1.00  0.00    -0.031 C 
ENDROOT
BRANCH   1   3
ATOM      3  C   UNL     1      11.459   5.938 -33.037  1.00  0.00     0.027 C 
BRANCH   3   4
ATOM      4  C   UNL     1      12.609   5.255 -32.270  1.00  0.00     0.004 C 
BRANCH   4   5
ATOM      5  C   UNL     1      12.705   5.672 -30.793  1.00  0.00     0.000 C 
BRANCH   5   6
ATOM      6  C   UNL     1      13.457   4.646 -29.932  1.00  0.00     0.000 C 
BRANCH   6   7
ATOM      7  C   UNL     1      13.692   3.318 -30.670  1.00  0.00     0.000 C 
BRANCH   7   8
ATOM      8  C   UNL     1      15.184   2.950 -30.766  1.00  0.00     0.006 C 
BRANCH   8   9
ATOM      9  C   UNL     1      16.094   4.136 -30.423  1.00  0.00     0.053 C 
BRANCH   9  10
ATOM     10  C   UNL     1      16.587   4.832 -31.656  1.00  0.00     0.041 C 
ATOM     11  O   UNL     1      16.063   5.916 -32.025  1.00  0.00    -0.550 OA
ATOM     12  O   UNL     1      17.602   4.264 -32.415  1.00  0.00    -0.550 OA
ENDBRANCH   9  10
ENDBRANCH   8   9
ENDBRANCH   7   8
ENDBRANCH   6   7
ENDBRANCH   5   6
ENDBRANCH   4   5
ENDBRANCH   3   4
ENDBRANCH   1   3
BRANCH   2  13
ATOM     13  C   UNL     1       8.473   5.982 -33.563  1.00  0.00     0.027 C 
BRANCH  13  14
ATOM     14  C   UNL     1       7.657   4.733 -33.214  1.00  0.00     0.004 C 
BRANCH  14  15
ATOM     15  C   UNL     1       6.966   4.893 -31.851  1.00  0.00     0.000 C 
BRANCH  15  16
ATOM     16  C   UNL     1       5.910   3.807 -31.588  1.00  0.00     0.000 C 
BRANCH  16  17
ATOM     17  C   UNL     1       4.451   4.304 -31.596  1.00  0.00    -0.000 C 
BRANCH  17  18
ATOM     18  C   UNL     1       3.673   3.974 -30.305  1.00  0.00    -0.000 C 
BRANCH  18  19
ATOM     19  C   UNL     1       3.090   5.228 -29.637  1.00  0.00    -0.003 C 
ATOM     20  C   UNL     1       1.613   5.400 -29.980  1.00  0.00     0.004 C 
ENDBRANCH  18  19
ENDBRANCH  17  18
ENDBRANCH  16  17
ENDBRANCH  15  16
ENDBRANCH  14  15
ENDBRANCH  13  14
ENDBRANCH   2  13
TORSDOF 15
ENDMDL
MODEL 7
REMARK VINA RESULT:    -4.671      1.971      2.257
REMARK INTER + INTRA:         -10.249
REMARK INTER:                  -8.749
REMARK INTRA:                  -1.500
REMARK UNBOUND:                -1.483
REMARK SMILES CCCCCCCCC=CCCCCCCCC(=O)[O-]
REMARK SMILES IDX 10 1 9 2 11 3 12 4 13 5 14 6 15 7 16 8 17 9 18 10 19 11
REMARK SMILES IDX 20 12 8 13 7 14 6 15 5 16 4 17 3 18 2 19 1 20
REMARK H PARENT
REMARK Flexibility Score: inf
ROOT
ATOM      1  C   UNL     1       7.385   6.624 -32.093  1.00  0.00    -0.031 C 
ATOM      2  C   UNL     1       7.089   5.314 -32.010  1.00  0.00    -0.031 C 
ENDROOT
BRANCH   1   3
ATOM      3  C   UNL     1       7.834   7.315 -33.358  1.00  0.00     0.027 C 
BRANCH   3   4
ATOM      4  C   UNL     1       9.369   7.342 -33.499  1.00  0.00     0.004 C 
BRANCH   4   5
ATOM      5  C   UNL     1      10.117   6.891 -32.232  1.00  0.00     0.000 C 
BRANCH   5   6
ATOM      6  C   UNL     1      11.325   5.992 -32.542  1.00  0.00     0.000 C 
BRANCH   6   7
ATOM      7  C   UNL     1      11.542   5.800 -34.052  1.00  0.00     0.000 C 
BRANCH   7   8
ATOM      8  C   UNL     1      13.014   5.519 -34.406  1.00  0.00     0.006 C 
BRANCH   8   9
ATOM      9  C   UNL     1      13.832   6.809 -34.541  1.00  0.00     0.053 C 
BRANCH   9  10
ATOM     10  C   UNL     1      15.067   6.774 -33.693  1.00  0.00     0.041 C 
ATOM     11  O   UNL     1      15.641   7.846 -33.364  1.00  0.00    -0.550 OA
ATOM     12  O   UNL     1      15.603   5.556 -33.296  1.00  0.00    -0.550 OA
ENDBRANCH   9  10
ENDBRANCH   8   9
ENDBRANCH   7   8
ENDBRANCH   6   7
ENDBRANCH   5   6
ENDBRANCH   4   5
ENDBRANCH   3   4
ENDBRANCH   1   3
BRANCH   2  13
ATOM     13  C   UNL     1       7.125   4.371 -33.189  1.00  0.00     0.027 C 
BRANCH  13  14
ATOM     14  C   UNL     1       6.188   3.179 -32.972  1.00  0.00     0.004 C 
BRANCH  14  15
ATOM     15  C   UNL     1       5.480   3.279 -31.612  1.00  0.00     0.000 C 
BRANCH  15  16
ATOM     16  C   UNL     1       3.954   3.123 -31.722  1.00  0.00     0.000 C 
BRANCH  16  17
ATOM     17  C   UNL     1       3.171   4.446 -31.833  1.00  0.00    -0.000 C 
BRANCH  17  18
ATOM     18  C   UNL     1       2.307   4.764 -30.594  1.00  0.00    -0.000 C 
BRANCH  18  19
ATOM     19  C   UNL     1       3.134   5.348 -29.439  1.00  0.00    -0.003 C 
ATOM     20  C   UNL     1       4.188   6.324 -29.954  1.00  0.00     0.004 C 
ENDBRANCH  18  19
ENDBRANCH  17  18
ENDBRANCH  16  17
ENDBRANCH  15  16
ENDBRANCH  14  15
ENDBRANCH  13  14
ENDBRANCH   2  13
TORSDOF 15
ENDMDL
MODEL 8
REMARK VINA RESULT:    -4.549      3.623      8.586
REMARK INTER + INTRA:         -10.021
REMARK INTER:                  -8.817
REMARK INTRA:                  -1.205
REMARK UNBOUND:                -1.483
REMARK SMILES CCCCCCCCC=CCCCCCCCC(=O)[O-]
REMARK SMILES IDX 10 1 9 2 11 3 12 4 13 5 14 6 15 7 16 8 17 9 18 10 19 11
REMARK SMILES IDX 20 12 8 13 7 14 6 15 5 16 4 17 3 18 2 19 1 20
REMARK H PARENT
REMARK Flexibility Score: inf
ROOT
ATOM      1  C   UNL     1       9.408   6.618 -32.020  1.00  0.00    -0.031 C 
ATOM      2  C   UNL     1      10.747   6.507 -32.085  1.00  0.00    -0.031 C 
ENDROOT
BRANCH   1   3
ATOM      3  C   UNL     1       8.465   6.181 -33.115  1.00  0.00     0.027 C 
BRANCH   3   4
ATOM      4  C   UNL     1       7.750   4.856 -32.780  1.00  0.00     0.004 C 
BRANCH   4   5
ATOM      5  C   UNL     1       6.658   4.995 -31.704  1.00  0.00     0.000 C 
BRANCH   5   6
ATOM      6  C   UNL     1       5.964   3.661 -31.385  1.00  0.00     0.000 C 
BRANCH   6   7
ATOM      7  C   UNL     1       4.883   3.299 -32.416  1.00  0.00     0.000 C 
BRANCH   7   8
ATOM      8  C   UNL     1       3.521   3.938 -32.093  1.00  0.00     0.006 C 
BRANCH   8   9
ATOM      9  C   UNL     1       3.153   3.796 -30.611  1.00  0.00     0.053 C 
BRANCH   9  10
ATOM     10  C   UNL     1       2.811   5.119 -29.995  1.00  0.00     0.041 C 
ATOM     11  O   UNL     1       1.645   5.338 -29.571  1.00  0.00    -0.550 OA
ATOM     12  O   UNL     1       3.770   6.120 -29.922  1.00  0.00    -0.550 OA
ENDBRANCH   9  10
ENDBRANCH   8   9
ENDBRANCH   7   8
ENDBRANCH   6   7
ENDBRANCH   5   6
ENDBRANCH   4   5
ENDBRANCH   3   4
ENDBRANCH   1   3
BRANCH   2  13
ATOM     13  C   UNL     1      11.480   5.886 -33.251  1.00  0.00     0.027 C 
BRANCH  13  14
ATOM     14  C   UNL     1      12.899   5.469 -32.852  1.00  0.00     0.004 C 
BRANCH  14  15
ATOM     15  C   UNL     1      13.071   5.498 -31.326  1.00  0.00     0.000 C 
BRANCH  15  16
ATOM     16  C   UNL     1      14.239   4.623 -30.841  1.00  0.00     0.000 C 
BRANCH  16  17
ATOM     17  C   UNL     1      13.855   3.181 -30.458  1.00  0.00    -0.000 C 
BRANCH  17  18
ATOM     18  C   UNL     1      14.072   2.156 -31.591  1.00  0.00    -0.000 C 
BRANCH  18  19
ATOM     19  C   UNL     1      12.773   1.839 -32.348  1.00  0.00    -0.003 C 
ATOM     20  C   UNL     1      12.533   0.334 -32.424  1.00  0.00     0.004 C 
ENDBRANCH  18  19
ENDBRANCH  17  18
ENDBRANCH  16  17
ENDBRANCH  15  16
ENDBRANCH  14  15
ENDBRANCH  13  14
ENDBRANCH   2  13
TORSDOF 15
ENDMDL
MODEL 9
REMARK VINA RESULT:    -4.521      4.087      9.282
REMARK INTER + INTRA:          -9.969
REMARK INTER:                  -9.069
REMARK INTRA:                  -0.899
REMARK UNBOUND:                -1.483
REMARK SMILES CCCCCCCCC=CCCCCCCCC(=O)[O-]
REMARK SMILES IDX 10 1 9 2 11 3 12 4 13 5 14 6 15 7 16 8 17 9 18 10 19 11
REMARK SMILES IDX 20 12 8 13 7 14 6 15 5 16 4 17 3 18 2 19 1 20
REMARK H PARENT
REMARK Flexibility Score: inf
ROOT
ATOM      1  C   UNL     1       8.851   6.655 -32.074  1.00  0.00    -0.031 C 
ATOM      2  C   UNL     1      10.159   6.803 -32.352  1.00  0.00    -0.031 C 
ENDROOT
BRANCH   1   3
ATOM      3  C   UNL     1       7.825   6.150 -33.060  1.00  0.00     0.027 C 
BRANCH   3   4
ATOM      4  C   UNL     1       7.448   4.675 -32.811  1.00  0.00     0.004 C 
BRANCH   4   5
ATOM      5  C   UNL     1       5.931   4.421 -32.765  1.00  0.00     0.000 C 
BRANCH   5   6
ATOM      6  C   UNL     1       5.358   4.498 -31.341  1.00  0.00     0.000 C 
BRANCH   6   7
ATOM      7  C   UNL     1       4.880   5.912 -30.975  1.00  0.00     0.000 C 
BRANCH   7   8
ATOM      8  C   UNL     1       3.888   5.915 -29.798  1.00  0.00     0.006 C 
BRANCH   8   9
ATOM      9  C   UNL     1       2.899   4.745 -29.873  1.00  0.00     0.053 C 
BRANCH   9  10
ATOM     10  C   UNL     1       1.705   5.081 -30.714  1.00  0.00     0.041 C 
ATOM     11  O   UNL     1       0.610   5.383 -30.170  1.00  0.00    -0.550 OA
ATOM     12  O   UNL     1       1.794   5.025 -32.099  1.00  0.00    -0.550 OA
ENDBRANCH   9  10
ENDBRANCH   8   9
ENDBRANCH   7   8
ENDBRANCH   6   7
ENDBRANCH   5   6
ENDBRANCH   4   5
ENDBRANCH   3   4
ENDBRANCH   1   3
BRANCH   2  13
ATOM     13  C   UNL     1      10.779   6.437 -33.679  1.00  0.00     0.027 C 
BRANCH  13  14
ATOM     14  C   UNL     1      11.822   5.327 -33.515  1.00  0.00     0.004 C 
BRANCH  14  15
ATOM     15  C   UNL     1      12.588   5.486 -32.193  1.00  0.00     0.000 C 
BRANCH  15  16
ATOM     16  C   UNL     1      13.436   4.251 -31.844  1.00  0.00     0.000 C 
BRANCH  16  17
ATOM     17  C   UNL     1      14.138   4.311 -30.473  1.00  0.00    -0.000 C 
BRANCH  17  18
ATOM     18  C   UNL     1      15.675   4.206 -30.555  1.00  0.00    -0.000 C 
BRANCH  18  19
ATOM     19  C   UNL     1      16.209   2.928 -29.890  1.00  0.00    -0.003 C 
ATOM     20  C   UNL     1      17.548   3.182 -29.203  1.00  0.00     0.004 C 
ENDBRANCH  18  19
ENDBRANCH  17  18
ENDBRANCH  16  17
ENDBRANCH  15  16
ENDBRANCH  14  15
ENDBRANCH  13  14
ENDBRANCH   2  13
TORSDOF 15
ENDMDL
