MODEL 1
REMARK VINA RESULT:    -5.162      0.000      0.000
REMARK INTER + INTRA:         -19.237
REMARK INTER:                 -13.611
REMARK INTRA:                  -5.626
REMARK UNBOUND:                -5.626
REMARK SMILES CCCCCCCCCCCCCCCCCCCCCCCCCCCCCC(=O)[O-]
REMARK SMILES IDX 16 1 17 2 18 3 19 4 20 5 21 6 22 7 23 8 24 9 25 10 26 11
REMARK SMILES IDX 27 12 28 13 29 14 30 15 31 16 32 17 15 18 14 19 13 20 12 21
REMARK SMILES IDX 11 22 10 23 9 24 8 25 7 26 6 27 5 28 4 29 3 30 2 31 1 32
REMARK H PARENT
REMARK Flexibility Score: inf
ROOT
ATOM      1  C   UNL     1      19.450 -15.235  23.978  1.00  0.00     0.000 C 
ENDROOT
BRANCH   1   2
ATOM      2  C   UNL     1      19.324 -16.769  23.969  1.00  0.00     0.000 C 
BRANCH   2   3
ATOM      3  C   UNL     1      19.143 -17.341  22.552  1.00  0.00     0.000 C 
BRANCH   3   4
ATOM      4  C   UNL     1      18.640 -16.276  21.560  1.00  0.00     0.000 C 
BRANCH   4   5
ATOM      5  C   UNL     1      17.126 -16.392  21.305  1.00  0.00     0.000 C 
BRANCH   5   6
ATOM      6  C   UNL     1      16.507 -15.084  20.772  1.00  0.00     0.000 C 
BRANCH   6   7
ATOM      7  C   UNL     1      16.974 -13.816  21.512  1.00  0.00     0.000 C 
BRANCH   7   8
ATOM      8  C   UNL     1      15.917 -12.705  21.643  1.00  0.00     0.000 C 
BRANCH   8   9
ATOM      9  C   UNL     1      15.971 -11.989  23.001  1.00  0.00     0.000 C 
BRANCH   9  10
ATOM     10  C   UNL     1      14.583 -11.941  23.657  1.00  0.00     0.000 C 
BRANCH  10  11
ATOM     11  C   UNL     1      13.582 -12.908  23.002  1.00  0.00     0.000 C 
BRANCH  11  12
ATOM     12  C   UNL     1      12.433 -13.372  23.917  1.00  0.00     0.000 C 
BRANCH  12  13
ATOM     13  C   UNL     1      11.662 -12.217  24.587  1.00  0.00     0.006 C 
BRANCH  13  14
ATOM     14  C   UNL     1      10.181 -12.186  24.183  1.00  0.00     0.053 C 
BRANCH  14  15
ATOM     15  C   UNL     1       9.348 -11.626  25.294  1.00  0.00     0.041 C 
ATOM     16  O   UNL     1       8.988 -10.420  25.270  1.00  0.00    -0.550 OA
ATOM     17  O   UNL     1       8.933 -12.450  26.333  1.00  0.00    -0.550 OA
ENDBRANCH  14  15
ENDBRANCH  13  14
ENDBRANCH  12  13
ENDBRANCH  11  12
ENDBRANCH  10  11
ENDBRANCH   9  10
ENDBRANCH   8   9
ENDBRANCH   7   8
ENDBRANCH   6   7
ENDBRANCH   5   6
ENDBRANCH   4   5
ENDBRANCH   3   4
ENDBRANCH   2   3
ENDBRANCH   1   2
BRANCH   1  18
ATOM     18  C   UNL     1      18.319 -14.501  24.724  1.00  0.00     0.000 C 
BRANCH  18  19
ATOM     19  C   UNL     1      17.281 -15.463  25.326  1.00  0.00     0.000 C 
BRANCH  19  20
ATOM     20  C   UNL     1      15.873 -15.289  24.724  1.00  0.00     0.000 C 
BRANCH  20  21
ATOM     21  C   UNL     1      14.710 -15.433  25.723  1.00  0.00     0.000 C 
BRANCH  21  22
ATOM     22  C   UNL     1      15.005 -14.794  27.095  1.00  0.00     0.000 C 
BRANCH  22  23
ATOM     23  C   UNL     1      14.419 -13.372  27.229  1.00  0.00     0.000 C 
BRANCH  23  24
ATOM     24  C   UNL     1      15.470 -12.243  27.195  1.00  0.00    -0.000 C 
BRANCH  24  25
ATOM     25  C   UNL     1      16.888 -12.649  27.633  1.00  0.00    -0.000 C 
BRANCH  25  26
ATOM     26  C   UNL     1      17.930 -11.545  27.389  1.00  0.00    -0.000 C 
BRANCH  26  27
ATOM     27  C   UNL     1      18.093 -11.270  25.888  1.00  0.00    -0.000 C 
BRANCH  27  28
ATOM     28  C   UNL     1      19.517 -10.817  25.510  1.00  0.00    -0.000 C 
BRANCH  28  29
ATOM     29  C   UNL     1      20.641 -11.364  26.411  1.00  0.00    -0.000 C 
BRANCH  29  30
ATOM     30  C   UNL     1      21.259 -12.672  25.883  1.00  0.00    -0.000 C 
BRANCH  30  31
ATOM     31  C   UNL     1      22.509 -12.427  25.026  1.00  0.00    -0.003 C 
ATOM     32  C   UNL     1      22.214 -12.466  23.527  1.00  0.00     0.004 C 
ENDBRANCH  30  31
ENDBRANCH  29  30
ENDBRANCH  28  29
ENDBRANCH  27  28
ENDBRANCH  26  27
ENDBRANCH  25  26
ENDBRANCH  24  25
ENDBRANCH  23  24
ENDBRANCH  22  23
ENDBRANCH  21  22
ENDBRANCH  20  21
ENDBRANCH  19  20
ENDBRANCH  18  19
ENDBRANCH   1  18
TORSDOF 28
ENDMDL
MODEL 2
REMARK VINA RESULT:    -5.064      3.816      6.549
REMARK INTER + INTRA:         -18.978
REMARK INTER:                 -12.824
REMARK INTRA:                  -6.154
REMARK UNBOUND:                -5.626
REMARK SMILES CCCCCCCCCCCCCCCCCCCCCCCCCCCCCC(=O)[O-]
REMARK SMILES IDX 16 1 17 2 18 3 19 4 20 5 21 6 22 7 23 8 24 9 25 10 26 11
REMARK SMILES IDX 27 12 28 13 29 14 30 15 31 16 32 17 15 18 14 19 13 20 12 21
REMARK SMILES IDX 11 22 10 23 9 24 8 25 7 26 6 27 5 28 4 29 3 30 2 31 1 32
REMARK H PARENT
REMARK Flexibility Score: inf
ROOT
ATOM      1  C   UNL     1      16.295 -14.573  23.057  1.00  0.00     0.000 C 
ENDROOT
BRANCH   1   2
ATOM      2  C   UNL     1      17.108 -13.737  24.061  1.00  0.00     0.000 C 
BRANCH   2   3
ATOM      3  C   UNL     1      17.957 -14.605  25.006  1.00  0.00     0.000 C 
BRANCH   3   4
ATOM      4  C   UNL     1      17.932 -16.091  24.603  1.00  0.00     0.000 C 
BRANCH   4   5
ATOM      5  C   UNL     1      19.349 -16.679  24.475  1.00  0.00     0.000 C 
BRANCH   5   6
ATOM      6  C   UNL     1      19.573 -17.415  23.138  1.00  0.00     0.000 C 
BRANCH   6   7
ATOM      7  C   UNL     1      18.807 -16.810  21.947  1.00  0.00     0.000 C 
BRANCH   7   8
ATOM      8  C   UNL     1      19.517 -16.917  20.586  1.00  0.00     0.000 C 
BRANCH   8   9
ATOM      9  C   UNL     1      19.625 -15.566  19.863  1.00  0.00     0.000 C 
BRANCH   9  10
ATOM     10  C   UNL     1      19.184 -14.412  20.778  1.00  0.00     0.000 C 
BRANCH  10  11
ATOM     11  C   UNL     1      20.353 -13.503  21.193  1.00  0.00     0.000 C 
BRANCH  11  12
ATOM     12  C   UNL     1      20.176 -12.798  22.552  1.00  0.00     0.000 C 
BRANCH  12  13
ATOM     13  C   UNL     1      21.108 -13.332  23.659  1.00  0.00     0.006 C 
BRANCH  13  14
ATOM     14  C   UNL     1      21.136 -12.419  24.894  1.00  0.00     0.053 C 
BRANCH  14  15
ATOM     15  C   UNL     1      22.499 -12.421  25.513  1.00  0.00     0.041 C 
ATOM     16  O   UNL     1      23.525 -12.491  24.787  1.00  0.00    -0.550 OA
ATOM     17  O   UNL     1      22.636 -12.300  26.890  1.00  0.00    -0.550 OA
ENDBRANCH  14  15
ENDBRANCH  13  14
ENDBRANCH  12  13
ENDBRANCH  11  12
ENDBRANCH  10  11
ENDBRANCH   9  10
ENDBRANCH   8   9
ENDBRANCH   7   8
ENDBRANCH   6   7
ENDBRANCH   5   6
ENDBRANCH   4   5
ENDBRANCH   3   4
ENDBRANCH   2   3
ENDBRANCH   1   2
BRANCH   1  18
ATOM     18  C   UNL     1      15.727 -13.778  21.866  1.00  0.00     0.000 C 
BRANCH  18  19
ATOM     19  C   UNL     1      15.925 -12.259  22.017  1.00  0.00     0.000 C 
BRANCH  19  20
ATOM     20  C   UNL     1      14.601 -11.491  22.198  1.00  0.00     0.000 C 
BRANCH  20  21
ATOM     21  C   UNL     1      13.618 -12.108  23.210  1.00  0.00     0.000 C 
BRANCH  21  22
ATOM     22  C   UNL     1      14.054 -11.916  24.676  1.00  0.00     0.000 C 
BRANCH  22  23
ATOM     23  C   UNL     1      13.306 -12.852  25.649  1.00  0.00     0.000 C 
BRANCH  23  24
ATOM     24  C   UNL     1      13.679 -14.343  25.513  1.00  0.00    -0.000 C 
BRANCH  24  25
ATOM     25  C   UNL     1      14.667 -14.873  26.567  1.00  0.00    -0.000 C 
BRANCH  25  26
ATOM     26  C   UNL     1      14.812 -13.935  27.777  1.00  0.00    -0.000 C 
BRANCH  26  27
ATOM     27  C   UNL     1      16.290 -13.624  28.053  1.00  0.00    -0.000 C 
BRANCH  27  28
ATOM     28  C   UNL     1      16.485 -12.470  29.057  1.00  0.00    -0.000 C 
BRANCH  28  29
ATOM     29  C   UNL     1      17.029 -11.160  28.455  1.00  0.00    -0.000 C 
BRANCH  29  30
ATOM     30  C   UNL     1      16.627 -10.957  26.983  1.00  0.00    -0.000 C 
BRANCH  30  31
ATOM     31  C   UNL     1      17.841 -10.902  26.044  1.00  0.00    -0.003 C 
ATOM     32  C   UNL     1      17.541 -10.178  24.733  1.00  0.00     0.004 C 
ENDBRANCH  30  31
ENDBRANCH  29  30
ENDBRANCH  28  29
ENDBRANCH  27  28
ENDBRANCH  26  27
ENDBRANCH  25  26
ENDBRANCH  24  25
ENDBRANCH  23  24
ENDBRANCH  22  23
ENDBRANCH  21  22
ENDBRANCH  20  21
ENDBRANCH  19  20
ENDBRANCH  18  19
ENDBRANCH   1  18
TORSDOF 28
ENDMDL
MODEL 3
REMARK VINA RESULT:    -5.051      2.180      5.106
REMARK INTER + INTRA:         -18.945
REMARK INTER:                 -15.311
REMARK INTRA:                  -3.635
REMARK UNBOUND:                -5.626
REMARK SMILES CCCCCCCCCCCCCCCCCCCCCCCCCCCCCC(=O)[O-]
REMARK SMILES IDX 16 1 17 2 18 3 19 4 20 5 21 6 22 7 23 8 24 9 25 10 26 11
REMARK SMILES IDX 27 12 28 13 29 14 30 15 31 16 32 17 15 18 14 19 13 20 12 21
REMARK SMILES IDX 11 22 10 23 9 24 8 25 7 26 6 27 5 28 4 29 3 30 2 31 1 32
REMARK H PARENT
REMARK Flexibility Score: inf
ROOT
ATOM      1  C   UNL     1      17.447 -15.318  25.746  1.00  0.00     0.000 C 
ENDROOT
BRANCH   1   2
ATOM      2  C   UNL     1      16.301 -14.665  26.540  1.00  0.00     0.000 C 
BRANCH   2   3
ATOM      3  C   UNL     1      14.935 -15.311  26.250  1.00  0.00     0.000 C 
BRANCH   3   4
ATOM      4  C   UNL     1      13.990 -14.353  25.503  1.00  0.00     0.000 C 
BRANCH   4   5
ATOM      5  C   UNL     1      14.581 -12.936  25.382  1.00  0.00     0.000 C 
BRANCH   5   6
ATOM      6  C   UNL     1      13.564 -11.908  24.844  1.00  0.00     0.000 C 
BRANCH   6   7
ATOM      7  C   UNL     1      12.101 -12.391  24.871  1.00  0.00     0.000 C 
BRANCH   7   8
ATOM      8  C   UNL     1      11.422 -12.508  23.496  1.00  0.00     0.000 C 
BRANCH   8   9
ATOM      9  C   UNL     1       9.889 -12.502  23.587  1.00  0.00     0.000 C 
BRANCH   9  10
ATOM     10  C   UNL     1       9.364 -11.120  24.005  1.00  0.00     0.000 C 
BRANCH  10  11
ATOM     11  C   UNL     1       8.626 -11.148  25.354  1.00  0.00     0.000 C 
BRANCH  11  12
ATOM     12  C   UNL     1       8.657 -12.505  26.084  1.00  0.00     0.000 C 
BRANCH  12  13
ATOM     13  C   UNL     1       9.400 -12.471  27.435  1.00  0.00     0.006 C 
BRANCH  13  14
ATOM     14  C   UNL     1       8.478 -12.792  28.621  1.00  0.00     0.053 C 
BRANCH  14  15
ATOM     15  C   UNL     1       9.208 -12.606  29.914  1.00  0.00     0.041 C 
ATOM     16  O   UNL     1      10.377 -13.053  30.053  1.00  0.00    -0.550 OA
ATOM     17  O   UNL     1       8.613 -11.898  30.951  1.00  0.00    -0.550 OA
ENDBRANCH  14  15
ENDBRANCH  13  14
ENDBRANCH  12  13
ENDBRANCH  11  12
ENDBRANCH  10  11
ENDBRANCH   9  10
ENDBRANCH   8   9
ENDBRANCH   7   8
ENDBRANCH   6   7
ENDBRANCH   5   6
ENDBRANCH   4   5
ENDBRANCH   3   4
ENDBRANCH   2   3
ENDBRANCH   1   2
BRANCH   1  18
ATOM     18  C   UNL     1      17.266 -15.294  24.216  1.00  0.00     0.000 C 
BRANCH  18  19
ATOM     19  C   UNL     1      18.112 -14.204  23.534  1.00  0.00     0.000 C 
BRANCH  19  20
ATOM     20  C   UNL     1      19.610 -14.555  23.465  1.00  0.00     0.000 C 
BRANCH  20  21
ATOM     21  C   UNL     1      20.572 -13.380  23.719  1.00  0.00     0.000 C 
BRANCH  21  22
ATOM     22  C   UNL     1      20.893 -13.168  25.212  1.00  0.00     0.000 C 
BRANCH  22  23
ATOM     23  C   UNL     1      22.376 -12.821  25.460  1.00  0.00     0.000 C 
BRANCH  23  24
ATOM     24  C   UNL     1      22.794 -12.836  26.946  1.00  0.00    -0.000 C 
BRANCH  24  25
ATOM     25  C   UNL     1      22.804 -11.463  27.640  1.00  0.00    -0.000 C 
BRANCH  25  26
ATOM     26  C   UNL     1      21.500 -11.167  28.400  1.00  0.00    -0.000 C 
BRANCH  26  27
ATOM     27  C   UNL     1      20.878  -9.847  27.926  1.00  0.00    -0.000 C 
BRANCH  27  28
ATOM     28  C   UNL     1      19.352  -9.787  28.142  1.00  0.00    -0.000 C 
BRANCH  28  29
ATOM     29  C   UNL     1      18.642 -11.154  28.192  1.00  0.00    -0.000 C 
BRANCH  29  30
ATOM     30  C   UNL     1      18.052 -11.581  26.836  1.00  0.00    -0.000 C 
BRANCH  30  31
ATOM     31  C   UNL     1      18.282 -10.533  25.739  1.00  0.00    -0.003 C 
ATOM     32  C   UNL     1      17.378 -10.738  24.525  1.00  0.00     0.004 C 
ENDBRANCH  30  31
ENDBRANCH  29  30
ENDBRANCH  28  29
ENDBRANCH  27  28
ENDBRANCH  26  27
ENDBRANCH  25  26
ENDBRANCH  24  25
ENDBRANCH  23  24
ENDBRANCH  22  23
ENDBRANCH  21  22
ENDBRANCH  20  21
ENDBRANCH  19  20
ENDBRANCH  18  19
ENDBRANCH   1  18
TORSDOF 28
ENDMDL
MODEL 4
REMARK VINA RESULT:    -5.030      1.465      3.731
REMARK INTER + INTRA:         -18.889
REMARK INTER:                 -13.445
REMARK INTRA:                  -5.443
REMARK UNBOUND:                -5.626
REMARK SMILES CCCCCCCCCCCCCCCCCCCCCCCCCCCCCC(=O)[O-]
REMARK SMILES IDX 16 1 17 2 18 3 19 4 20 5 21 6 22 7 23 8 24 9 25 10 26 11
REMARK SMILES IDX 27 12 28 13 29 14 30 15 31 16 32 17 15 18 14 19 13 20 12 21
REMARK SMILES IDX 11 22 10 23 9 24 8 25 7 26 6 27 5 28 4 29 3 30 2 31 1 32
REMARK H PARENT
REMARK Flexibility Score: inf
ROOT
ATOM      1  C   UNL     1      16.926 -17.473  20.176  1.00  0.00     0.000 C 
ENDROOT
BRANCH   1   2
ATOM      2  C   UNL     1      16.627 -17.502  18.666  1.00  0.00     0.000 C 
BRANCH   2   3
ATOM      3  C   UNL     1      16.059 -16.169  18.149  1.00  0.00     0.000 C 
BRANCH   3   4
ATOM      4  C   UNL     1      17.062 -15.012  18.311  1.00  0.00     0.000 C 
BRANCH   4   5
ATOM      5  C   UNL     1      16.413 -13.770  18.950  1.00  0.00     0.000 C 
BRANCH   5   6
ATOM      6  C   UNL     1      15.365 -14.129  20.024  1.00  0.00     0.000 C 
BRANCH   6   7
ATOM      7  C   UNL     1      15.926 -14.200  21.457  1.00  0.00     0.000 C 
BRANCH   7   8
ATOM      8  C   UNL     1      16.337 -12.850  22.070  1.00  0.00     0.000 C 
BRANCH   8   9
ATOM      9  C   UNL     1      15.177 -11.845  22.126  1.00  0.00     0.000 C 
BRANCH   9  10
ATOM     10  C   UNL     1      14.255 -12.131  23.321  1.00  0.00     0.000 C 
BRANCH  10  11
ATOM     11  C   UNL     1      12.889 -12.695  22.895  1.00  0.00     0.000 C 
BRANCH  11  12
ATOM     12  C   UNL     1      12.006 -13.204  24.051  1.00  0.00     0.000 C 
BRANCH  12  13
ATOM     13  C   UNL     1      12.009 -12.286  25.290  1.00  0.00     0.006 C 
BRANCH  13  14
ATOM     14  C   UNL     1      10.755 -12.467  26.158  1.00  0.00     0.053 C 
BRANCH  14  15
ATOM     15  C   UNL     1       9.530 -12.066  25.396  1.00  0.00     0.041 C 
ATOM     16  O   UNL     1       9.379 -10.874  25.021  1.00  0.00    -0.550 OA
ATOM     17  O   UNL     1       8.578 -13.021  25.061  1.00  0.00    -0.550 OA
ENDBRANCH  14  15
ENDBRANCH  13  14
ENDBRANCH  12  13
ENDBRANCH  11  12
ENDBRANCH  10  11
ENDBRANCH   9  10
ENDBRANCH   8   9
ENDBRANCH   7   8
ENDBRANCH   6   7
ENDBRANCH   5   6
ENDBRANCH   4   5
ENDBRANCH   3   4
ENDBRANCH   2   3
ENDBRANCH   1   2
BRANCH   1  18
ATOM     18  C   UNL     1      18.362 -17.881  20.556  1.00  0.00     0.000 C 
BRANCH  18  19
ATOM     19  C   UNL     1      19.311 -16.675  20.677  1.00  0.00     0.000 C 
BRANCH  19  20
ATOM     20  C   UNL     1      19.289 -16.025  22.073  1.00  0.00     0.000 C 
BRANCH  20  21
ATOM     21  C   UNL     1      19.632 -16.967  23.241  1.00  0.00     0.000 C 
BRANCH  21  22
ATOM     22  C   UNL     1      18.738 -16.752  24.479  1.00  0.00     0.000 C 
BRANCH  22  23
ATOM     23  C   UNL     1      17.630 -15.705  24.239  1.00  0.00     0.000 C 
BRANCH  23  24
ATOM     24  C   UNL     1      16.727 -15.441  25.462  1.00  0.00    -0.000 C 
BRANCH  24  25
ATOM     25  C   UNL     1      15.256 -15.126  25.138  1.00  0.00    -0.000 C 
BRANCH  25  26
ATOM     26  C   UNL     1      14.428 -14.779  26.388  1.00  0.00    -0.000 C 
BRANCH  26  27
ATOM     27  C   UNL     1      15.248 -13.927  27.366  1.00  0.00    -0.000 C 
BRANCH  27  28
ATOM     28  C   UNL     1      15.276 -12.433  26.987  1.00  0.00    -0.000 C 
BRANCH  28  29
ATOM     29  C   UNL     1      16.679 -11.800  26.915  1.00  0.00    -0.000 C 
BRANCH  29  30
ATOM     30  C   UNL     1      17.158 -11.548  25.474  1.00  0.00    -0.000 C 
BRANCH  30  31
ATOM     31  C   UNL     1      18.489 -12.249  25.166  1.00  0.00    -0.003 C 
ATOM     32  C   UNL     1      19.274 -11.563  24.049  1.00  0.00     0.004 C 
ENDBRANCH  30  31
ENDBRANCH  29  30
ENDBRANCH  28  29
ENDBRANCH  27  28
ENDBRANCH  26  27
ENDBRANCH  25  26
ENDBRANCH  24  25
ENDBRANCH  23  24
ENDBRANCH  22  23
ENDBRANCH  21  22
ENDBRANCH  20  21
ENDBRANCH  19  20
ENDBRANCH  18  19
ENDBRANCH   1  18
TORSDOF 28
ENDMDL
MODEL 5
REMARK VINA RESULT:    -5.009      2.645      5.421
REMARK INTER + INTRA:         -18.835
REMARK INTER:                 -13.255
REMARK INTRA:                  -5.580
REMARK UNBOUND:                -5.626
REMARK SMILES CCCCCCCCCCCCCCCCCCCCCCCCCCCCCC(=O)[O-]
REMARK SMILES IDX 16 1 17 2 18 3 19 4 20 5 21 6 22 7 23 8 24 9 25 10 26 11
REMARK SMILES IDX 27 12 28 13 29 14 30 15 31 16 32 17 15 18 14 19 13 20 12 21
REMARK SMILES IDX 11 22 10 23 9 24 8 25 7 26 6 27 5 28 4 29 3 30 2 31 1 32
REMARK H PARENT
REMARK Flexibility Score: inf
ROOT
ATOM      1  C   UNL     1      17.996 -15.940  24.691  1.00  0.00     0.000 C 
ENDROOT
BRANCH   1   2
ATOM      2  C   UNL     1      17.634 -14.770  23.758  1.00  0.00     0.000 C 
BRANCH   2   3
ATOM      3  C   UNL     1      17.814 -13.398  24.430  1.00  0.00     0.000 C 
BRANCH   3   4
ATOM      4  C   UNL     1      17.004 -12.298  23.720  1.00  0.00     0.000 C 
BRANCH   4   5
ATOM      5  C   UNL     1      16.146 -12.860  22.572  1.00  0.00     0.000 C 
BRANCH   5   6
ATOM      6  C   UNL     1      14.633 -12.789  22.866  1.00  0.00     0.000 C 
BRANCH   6   7
ATOM      7  C   UNL     1      14.272 -11.987  24.131  1.00  0.00     0.000 C 
BRANCH   7   8
ATOM      8  C   UNL     1      13.689 -12.815  25.289  1.00  0.00     0.000 C 
BRANCH   8   9
ATOM      9  C   UNL     1      13.576 -14.310  24.955  1.00  0.00     0.000 C 
BRANCH   9  10
ATOM     10  C   UNL     1      14.580 -15.137  25.773  1.00  0.00     0.000 C 
BRANCH  10  11
ATOM     11  C   UNL     1      14.809 -14.568  27.184  1.00  0.00     0.000 C 
BRANCH  11  12
ATOM     12  C   UNL     1      16.285 -14.330  27.556  1.00  0.00     0.000 C 
BRANCH  12  13
ATOM     13  C   UNL     1      16.521 -13.059  28.398  1.00  0.00     0.006 C 
BRANCH  13  14
ATOM     14  C   UNL     1      16.331 -11.772  27.583  1.00  0.00     0.053 C 
BRANCH  14  15
ATOM     15  C   UNL     1      16.423 -10.572  28.474  1.00  0.00     0.041 C 
ATOM     16  O   UNL     1      16.073 -10.651  29.681  1.00  0.00    -0.550 OA
ATOM     17  O   UNL     1      16.939  -9.379  27.982  1.00  0.00    -0.550 OA
ENDBRANCH  14  15
ENDBRANCH  13  14
ENDBRANCH  12  13
ENDBRANCH  11  12
ENDBRANCH  10  11
ENDBRANCH   9  10
ENDBRANCH   8   9
ENDBRANCH   7   8
ENDBRANCH   6   7
ENDBRANCH   5   6
ENDBRANCH   4   5
ENDBRANCH   3   4
ENDBRANCH   2   3
ENDBRANCH   1   2
BRANCH   1  18
ATOM     18  C   UNL     1      19.202 -16.781  24.231  1.00  0.00     0.000 C 
BRANCH  18  19
ATOM     19  C   UNL     1      19.449 -16.688  22.715  1.00  0.00     0.000 C 
BRANCH  19  20
ATOM     20  C   UNL     1      18.773 -17.821  21.920  1.00  0.00     0.000 C 
BRANCH  20  21
ATOM     21  C   UNL     1      18.288 -17.435  20.510  1.00  0.00     0.000 C 
BRANCH  21  22
ATOM     22  C   UNL     1      16.987 -16.608  20.520  1.00  0.00     0.000 C 
BRANCH  22  23
ATOM     23  C   UNL     1      17.140 -15.247  19.810  1.00  0.00     0.000 C 
BRANCH  23  24
ATOM     24  C   UNL     1      18.597 -14.759  19.673  1.00  0.00    -0.000 C 
BRANCH  24  25
ATOM     25  C   UNL     1      18.938 -13.475  20.451  1.00  0.00    -0.000 C 
BRANCH  25  26
ATOM     26  C   UNL     1      20.210 -13.612  21.305  1.00  0.00    -0.000 C 
BRANCH  26  27
ATOM     27  C   UNL     1      20.969 -12.280  21.371  1.00  0.00    -0.000 C 
BRANCH  27  28
ATOM     28  C   UNL     1      21.182 -11.778  22.814  1.00  0.00    -0.000 C 
BRANCH  28  29
ATOM     29  C   UNL     1      22.079 -12.671  23.693  1.00  0.00    -0.000 C 
BRANCH  29  30
ATOM     30  C   UNL     1      21.495 -12.927  25.093  1.00  0.00    -0.000 C 
BRANCH  30  31
ATOM     31  C   UNL     1      22.578 -12.992  26.179  1.00  0.00    -0.003 C 
ATOM     32  C   UNL     1      22.393 -11.931  27.263  1.00  0.00     0.004 C 
ENDBRANCH  30  31
ENDBRANCH  29  30
ENDBRANCH  28  29
ENDBRANCH  27  28
ENDBRANCH  26  27
ENDBRANCH  25  26
ENDBRANCH  24  25
ENDBRANCH  23  24
ENDBRANCH  22  23
ENDBRANCH  21  22
ENDBRANCH  20  21
ENDBRANCH  19  20
ENDBRANCH  18  19
ENDBRANCH   1  18
TORSDOF 28
ENDMDL
MODEL 6
REMARK VINA RESULT:    -5.007      2.973      7.926
REMARK INTER + INTRA:         -18.828
REMARK INTER:                 -15.458
REMARK INTRA:                  -3.370
REMARK UNBOUND:                -5.626
REMARK SMILES CCCCCCCCCCCCCCCCCCCCCCCCCCCCCC(=O)[O-]
REMARK SMILES IDX 16 1 17 2 18 3 19 4 20 5 21 6 22 7 23 8 24 9 25 10 26 11
REMARK SMILES IDX 27 12 28 13 29 14 30 15 31 16 32 17 15 18 14 19 13 20 12 21
REMARK SMILES IDX 11 22 10 23 9 24 8 25 7 26 6 27 5 28 4 29 3 30 2 31 1 32
REMARK H PARENT
REMARK Flexibility Score: inf
ROOT
ATOM      1  C   UNL     1      11.310 -12.258  25.381  1.00  0.00     0.000 C 
ENDROOT
BRANCH   1   2
ATOM      2  C   UNL     1      10.003 -11.709  24.783  1.00  0.00     0.000 C 
BRANCH   2   3
ATOM      3  C   UNL     1       8.827 -11.766  25.773  1.00  0.00     0.000 C 
BRANCH   3   4
ATOM      4  C   UNL     1       9.112 -12.714  26.953  1.00  0.00     0.000 C 
BRANCH   4   5
ATOM      5  C   UNL     1       8.493 -12.203  28.266  1.00  0.00     0.000 C 
BRANCH   5   6
ATOM      6  C   UNL     1       9.318 -12.597  29.509  1.00  0.00     0.000 C 
BRANCH   6   7
ATOM      7  C   UNL     1      10.627 -13.344  29.189  1.00  0.00     0.000 C 
BRANCH   7   8
ATOM      8  C   UNL     1      11.579 -13.542  30.381  1.00  0.00     0.000 C 
BRANCH   8   9
ATOM      9  C   UNL     1      13.043 -13.718  29.951  1.00  0.00     0.000 C 
BRANCH   9  10
ATOM     10  C   UNL     1      13.181 -13.664  28.421  1.00  0.00     0.000 C 
BRANCH  10  11
ATOM     11  C   UNL     1      14.646 -13.585  27.959  1.00  0.00     0.000 C 
BRANCH  11  12
ATOM     12  C   UNL     1      14.944 -12.473  26.934  1.00  0.00     0.000 C 
BRANCH  12  13
ATOM     13  C   UNL     1      16.328 -11.815  27.111  1.00  0.00     0.006 C 
BRANCH  13  14
ATOM     14  C   UNL     1      17.085 -12.358  28.332  1.00  0.00     0.053 C 
BRANCH  14  15
ATOM     15  C   UNL     1      17.162 -11.316  29.404  1.00  0.00     0.041 C 
ATOM     16  O   UNL     1      16.131 -10.998  30.053  1.00  0.00    -0.550 OA
ATOM     17  O   UNL     1      18.382 -10.731  29.716  1.00  0.00    -0.550 OA
ENDBRANCH  14  15
ENDBRANCH  13  14
ENDBRANCH  12  13
ENDBRANCH  11  12
ENDBRANCH  10  11
ENDBRANCH   9  10
ENDBRANCH   8   9
ENDBRANCH   7   8
ENDBRANCH   6   7
ENDBRANCH   5   6
ENDBRANCH   4   5
ENDBRANCH   3   4
ENDBRANCH   2   3
ENDBRANCH   1   2
BRANCH   1  18
ATOM     18  C   UNL     1      12.514 -12.246  24.420  1.00  0.00     0.000 C 
BRANCH  18  19
ATOM     19  C   UNL     1      12.458 -13.381  23.382  1.00  0.00     0.000 C 
BRANCH  19  20
ATOM     20  C   UNL     1      11.735 -12.978  22.083  1.00  0.00     0.000 C 
BRANCH  20  21
ATOM     21  C   UNL     1      12.601 -13.017  20.810  1.00  0.00     0.000 C 
BRANCH  21  22
ATOM     22  C   UNL     1      14.115 -13.007  21.105  1.00  0.00     0.000 C 
BRANCH  22  23
ATOM     23  C   UNL     1      14.964 -13.403  19.879  1.00  0.00     0.000 C 
BRANCH  23  24
ATOM     24  C   UNL     1      15.752 -14.719  20.046  1.00  0.00    -0.000 C 
BRANCH  24  25
ATOM     25  C   UNL     1      16.502 -14.872  21.381  1.00  0.00    -0.000 C 
BRANCH  25  26
ATOM     26  C   UNL     1      17.026 -16.299  21.614  1.00  0.00    -0.000 C 
BRANCH  26  27
ATOM     27  C   UNL     1      18.558 -16.338  21.539  1.00  0.00    -0.000 C 
BRANCH  27  28
ATOM     28  C   UNL     1      19.190 -17.261  22.602  1.00  0.00    -0.000 C 
BRANCH  28  29
ATOM     29  C   UNL     1      19.076 -16.762  24.055  1.00  0.00    -0.000 C 
BRANCH  29  30
ATOM     30  C   UNL     1      19.435 -15.274  24.216  1.00  0.00    -0.000 C 
BRANCH  30  31
ATOM     31  C   UNL     1      18.274 -14.448  24.787  1.00  0.00    -0.003 C 
ATOM     32  C   UNL     1      17.171 -15.316  25.391  1.00  0.00     0.004 C 
ENDBRANCH  30  31
ENDBRANCH  29  30
ENDBRANCH  28  29
ENDBRANCH  27  28
ENDBRANCH  26  27
ENDBRANCH  25  26
ENDBRANCH  24  25
ENDBRANCH  23  24
ENDBRANCH  22  23
ENDBRANCH  21  22
ENDBRANCH  20  21
ENDBRANCH  19  20
ENDBRANCH  18  19
ENDBRANCH   1  18
TORSDOF 28
ENDMDL
MODEL 7
REMARK VINA RESULT:    -5.001      3.380      8.074
REMARK INTER + INTRA:         -18.814
REMARK INTER:                 -14.929
REMARK INTRA:                  -3.885
REMARK UNBOUND:                -5.626
REMARK SMILES CCCCCCCCCCCCCCCCCCCCCCCCCCCCCC(=O)[O-]
REMARK SMILES IDX 16 1 17 2 18 3 19 4 20 5 21 6 22 7 23 8 24 9 25 10 26 11
REMARK SMILES IDX 27 12 28 13 29 14 30 15 31 16 32 17 15 18 14 19 13 20 12 21
REMARK SMILES IDX 11 22 10 23 9 24 8 25 7 26 6 27 5 28 4 29 3 30 2 31 1 32
REMARK H PARENT
REMARK Flexibility Score: inf
ROOT
ATOM      1  C   UNL     1      17.141 -12.101  26.979  1.00  0.00     0.000 C 
ENDROOT
BRANCH   1   2
ATOM      2  C   UNL     1      18.133 -12.573  25.902  1.00  0.00     0.000 C 
BRANCH   2   3
ATOM      3  C   UNL     1      18.392 -11.505  24.825  1.00  0.00     0.000 C 
BRANCH   3   4
ATOM      4  C   UNL     1      18.021 -12.004  23.416  1.00  0.00     0.000 C 
BRANCH   4   5
ATOM      5  C   UNL     1      19.212 -12.676  22.709  1.00  0.00     0.000 C 
BRANCH   5   6
ATOM      6  C   UNL     1      20.493 -11.817  22.748  1.00  0.00     0.000 C 
BRANCH   6   7
ATOM      7  C   UNL     1      21.799 -12.631  22.831  1.00  0.00     0.000 C 
BRANCH   7   8
ATOM      8  C   UNL     1      22.604 -12.451  24.129  1.00  0.00     0.000 C 
BRANCH   8   9
ATOM      9  C   UNL     1      21.867 -12.986  25.366  1.00  0.00     0.000 C 
BRANCH   9  10
ATOM     10  C   UNL     1      22.761 -12.920  26.615  1.00  0.00     0.000 C 
BRANCH  10  11
ATOM     11  C   UNL     1      22.190 -11.998  27.705  1.00  0.00     0.000 C 
BRANCH  11  12
ATOM     12  C   UNL     1      22.608 -10.519  27.590  1.00  0.00     0.000 C 
BRANCH  12  13
ATOM     13  C   UNL     1      21.498  -9.524  27.984  1.00  0.00     0.006 C 
BRANCH  13  14
ATOM     14  C   UNL     1      20.185 -10.226  28.360  1.00  0.00     0.053 C 
BRANCH  14  15
ATOM     15  C   UNL     1      19.027  -9.293  28.189  1.00  0.00     0.041 C 
ATOM     16  O   UNL     1      18.782  -8.787  27.063  1.00  0.00    -0.550 OA
ATOM     17  O   UNL     1      18.192  -9.019  29.265  1.00  0.00    -0.550 OA
ENDBRANCH  14  15
ENDBRANCH  13  14
ENDBRANCH  12  13
ENDBRANCH  11  12
ENDBRANCH  10  11
ENDBRANCH   9  10
ENDBRANCH   8   9
ENDBRANCH   7   8
ENDBRANCH   6   7
ENDBRANCH   5   6
ENDBRANCH   4   5
ENDBRANCH   3   4
ENDBRANCH   2   3
ENDBRANCH   1   2
BRANCH   1  18
ATOM     18  C   UNL     1      16.617 -13.215  27.905  1.00  0.00     0.000 C 
BRANCH  18  19
ATOM     19  C   UNL     1      15.140 -13.021  28.293  1.00  0.00     0.000 C 
BRANCH  19  20
ATOM     20  C   UNL     1      14.216 -14.114  27.722  1.00  0.00     0.000 C 
BRANCH  20  21
ATOM     21  C   UNL     1      14.849 -15.009  26.640  1.00  0.00     0.000 C 
BRANCH  21  22
ATOM     22  C   UNL     1      14.152 -14.892  25.270  1.00  0.00     0.000 C 
BRANCH  22  23
ATOM     23  C   UNL     1      14.852 -13.891  24.327  1.00  0.00     0.000 C 
BRANCH  23  24
ATOM     24  C   UNL     1      14.539 -12.409  24.624  1.00  0.00    -0.000 C 
BRANCH  24  25
ATOM     25  C   UNL     1      13.046 -12.070  24.776  1.00  0.00    -0.000 C 
BRANCH  25  26
ATOM     26  C   UNL     1      12.194 -12.573  23.599  1.00  0.00    -0.000 C 
BRANCH  26  27
ATOM     27  C   UNL     1      10.865 -13.157  24.096  1.00  0.00    -0.000 C 
BRANCH  27  28
ATOM     28  C   UNL     1       9.707 -12.138  24.058  1.00  0.00    -0.000 C 
BRANCH  28  29
ATOM     29  C   UNL     1       9.441 -11.397  25.382  1.00  0.00    -0.000 C 
BRANCH  29  30
ATOM     30  C   UNL     1       8.778 -12.284  26.451  1.00  0.00    -0.000 C 
BRANCH  30  31
ATOM     31  C   UNL     1       9.720 -12.595  27.623  1.00  0.00    -0.003 C 
ATOM     32  C   UNL     1       8.989 -12.683  28.962  1.00  0.00     0.004 C 
ENDBRANCH  30  31
ENDBRANCH  29  30
ENDBRANCH  28  29
ENDBRANCH  27  28
ENDBRANCH  26  27
ENDBRANCH  25  26
ENDBRANCH  24  25
ENDBRANCH  23  24
ENDBRANCH  22  23
ENDBRANCH  21  22
ENDBRANCH  20  21
ENDBRANCH  19  20
ENDBRANCH  18  19
ENDBRANCH   1  18
TORSDOF 28
ENDMDL
MODEL 8
REMARK VINA RESULT:    -4.997      3.553      7.329
REMARK INTER + INTRA:         -18.802
REMARK INTER:                 -14.780
REMARK INTRA:                  -4.022
REMARK UNBOUND:                -5.626
REMARK SMILES CCCCCCCCCCCCCCCCCCCCCCCCCCCCCC(=O)[O-]
REMARK SMILES IDX 16 1 17 2 18 3 19 4 20 5 21 6 22 7 23 8 24 9 25 10 26 11
REMARK SMILES IDX 27 12 28 13 29 14 30 15 31 16 32 17 15 18 14 19 13 20 12 21
REMARK SMILES IDX 11 22 10 23 9 24 8 25 7 26 6 27 5 28 4 29 3 30 2 31 1 32
REMARK H PARENT
REMARK Flexibility Score: inf
ROOT
ATOM      1  C   UNL     1      19.238 -16.246  23.993  1.00  0.00     0.000 C 
ENDROOT
BRANCH   1   2
ATOM      2  C   UNL     1      19.147 -17.449  23.038  1.00  0.00     0.000 C 
BRANCH   2   3
ATOM      3  C   UNL     1      19.486 -17.080  21.584  1.00  0.00     0.000 C 
BRANCH   3   4
ATOM      4  C   UNL     1      18.680 -17.916  20.573  1.00  0.00     0.000 C 
BRANCH   4   5
ATOM      5  C   UNL     1      17.204 -17.484  20.513  1.00  0.00     0.000 C 
BRANCH   5   6
ATOM      6  C   UNL     1      16.790 -16.960  19.122  1.00  0.00     0.000 C 
BRANCH   6   7
ATOM      7  C   UNL     1      16.332 -15.489  19.110  1.00  0.00     0.000 C 
BRANCH   7   8
ATOM      8  C   UNL     1      16.756 -14.660  20.335  1.00  0.00     0.000 C 
BRANCH   8   9
ATOM      9  C   UNL     1      18.100 -13.944  20.134  1.00  0.00     0.000 C 
BRANCH   9  10
ATOM     10  C   UNL     1      18.667 -13.444  21.471  1.00  0.00     0.000 C 
BRANCH  10  11
ATOM     11  C   UNL     1      20.201 -13.532  21.536  1.00  0.00     0.000 C 
BRANCH  11  12
ATOM     12  C   UNL     1      20.865 -12.559  22.530  1.00  0.00     0.000 C 
BRANCH  12  13
ATOM     13  C   UNL     1      20.957 -13.103  23.970  1.00  0.00     0.006 C 
BRANCH  13  14
ATOM     14  C   UNL     1      22.242 -12.660  24.685  1.00  0.00     0.053 C 
BRANCH  14  15
ATOM     15  C   UNL     1      21.943 -12.267  26.099  1.00  0.00     0.041 C 
ATOM     16  O   UNL     1      20.940 -11.552  26.359  1.00  0.00    -0.550 OA
ATOM     17  O   UNL     1      22.748 -12.730  27.133  1.00  0.00    -0.550 OA
ENDBRANCH  14  15
ENDBRANCH  13  14
ENDBRANCH  12  13
ENDBRANCH  11  12
ENDBRANCH  10  11
ENDBRANCH   9  10
ENDBRANCH   8   9
ENDBRANCH   7   8
ENDBRANCH   6   7
ENDBRANCH   5   6
ENDBRANCH   4   5
ENDBRANCH   3   4
ENDBRANCH   2   3
ENDBRANCH   1   2
BRANCH   1  18
ATOM     18  C   UNL     1      17.941 -15.935  24.764  1.00  0.00     0.000 C 
BRANCH  18  19
ATOM     19  C   UNL     1      16.975 -15.042  23.966  1.00  0.00     0.000 C 
BRANCH  19  20
ATOM     20  C   UNL     1      16.588 -13.750  24.711  1.00  0.00     0.000 C 
BRANCH  20  21
ATOM     21  C   UNL     1      17.681 -13.170  25.628  1.00  0.00     0.000 C 
BRANCH  21  22
ATOM     22  C   UNL     1      17.114 -12.397  26.836  1.00  0.00     0.000 C 
BRANCH  22  23
ATOM     23  C   UNL     1      16.640 -13.330  27.971  1.00  0.00     0.000 C 
BRANCH  23  24
ATOM     24  C   UNL     1      15.151 -13.175  28.344  1.00  0.00    -0.000 C 
BRANCH  24  25
ATOM     25  C   UNL     1      14.165 -13.951  27.454  1.00  0.00    -0.000 C 
BRANCH  25  26
ATOM     26  C   UNL     1      13.116 -13.044  26.789  1.00  0.00    -0.000 C 
BRANCH  26  27
ATOM     27  C   UNL     1      13.134 -13.214  25.264  1.00  0.00    -0.000 C 
BRANCH  27  28
ATOM     28  C   UNL     1      11.779 -12.885  24.605  1.00  0.00    -0.000 C 
BRANCH  28  29
ATOM     29  C   UNL     1      10.755 -12.189  25.522  1.00  0.00    -0.000 C 
BRANCH  29  30
ATOM     30  C   UNL     1       9.298 -12.567  25.201  1.00  0.00    -0.000 C 
BRANCH  30  31
ATOM     31  C   UNL     1       8.510 -12.983  26.451  1.00  0.00    -0.003 C 
ATOM     32  C   UNL     1       9.135 -12.462  27.745  1.00  0.00     0.004 C 
ENDBRANCH  30  31
ENDBRANCH  29  30
ENDBRANCH  28  29
ENDBRANCH  27  28
ENDBRANCH  26  27
ENDBRANCH  25  26
ENDBRANCH  24  25
ENDBRANCH  23  24
ENDBRANCH  22  23
ENDBRANCH  21  22
ENDBRANCH  20  21
ENDBRANCH  19  20
ENDBRANCH  18  19
ENDBRANCH   1  18
TORSDOF 28
ENDMDL
MODEL 9
REMARK VINA RESULT:    -4.942      3.845      6.054
REMARK INTER + INTRA:         -18.658
REMARK INTER:                 -12.654
REMARK INTRA:                  -6.004
REMARK UNBOUND:                -5.626
REMARK SMILES CCCCCCCCCCCCCCCCCCCCCCCCCCCCCC(=O)[O-]
REMARK SMILES IDX 16 1 17 2 18 3 19 4 20 5 21 6 22 7 23 8 24 9 25 10 26 11
REMARK SMILES IDX 27 12 28 13 29 14 30 15 31 16 32 17 15 18 14 19 13 20 12 21
REMARK SMILES IDX 11 22 10 23 9 24 8 25 7 26 6 27 5 28 4 29 3 30 2 31 1 32
REMARK H PARENT
REMARK Flexibility Score: inf
ROOT
ATOM      1  C   UNL     1      19.443 -15.980  24.252  1.00  0.00     0.000 C 
ENDROOT
BRANCH   1   2
ATOM      2  C   UNL     1      19.130 -17.183  23.344  1.00  0.00     0.000 C 
BRANCH   2   3
ATOM      3  C   UNL     1      19.343 -16.872  21.853  1.00  0.00     0.000 C 
BRANCH   3   4
ATOM      4  C   UNL     1      18.683 -17.925  20.944  1.00  0.00     0.000 C 
BRANCH   4   5
ATOM      5  C   UNL     1      17.581 -17.315  20.058  1.00  0.00     0.000 C 
BRANCH   5   6
ATOM      6  C   UNL     1      16.766 -16.224  20.783  1.00  0.00     0.000 C 
BRANCH   6   7
ATOM      7  C   UNL     1      16.740 -14.866  20.056  1.00  0.00     0.000 C 
BRANCH   7   8
ATOM      8  C   UNL     1      17.253 -13.671  20.878  1.00  0.00     0.000 C 
BRANCH   8   9
ATOM      9  C   UNL     1      18.549 -13.072  20.311  1.00  0.00     0.000 C 
BRANCH   9  10
ATOM     10  C   UNL     1      19.786 -13.726  20.945  1.00  0.00     0.000 C 
BRANCH  10  11
ATOM     11  C   UNL     1      20.794 -12.696  21.482  1.00  0.00     0.000 C 
BRANCH  11  12
ATOM     12  C   UNL     1      20.640 -12.354  22.976  1.00  0.00     0.000 C 
BRANCH  12  13
ATOM     13  C   UNL     1      21.668 -13.056  23.887  1.00  0.00     0.006 C 
BRANCH  13  14
ATOM     14  C   UNL     1      21.375 -12.839  25.379  1.00  0.00     0.053 C 
BRANCH  14  15
ATOM     15  C   UNL     1      22.592 -12.320  26.080  1.00  0.00     0.041 C 
ATOM     16  O   UNL     1      23.415 -11.593  25.465  1.00  0.00    -0.550 OA
ATOM     17  O   UNL     1      22.792 -12.604  27.426  1.00  0.00    -0.550 OA
ENDBRANCH  14  15
ENDBRANCH  13  14
ENDBRANCH  12  13
ENDBRANCH  11  12
ENDBRANCH  10  11
ENDBRANCH   9  10
ENDBRANCH   8   9
ENDBRANCH   7   8
ENDBRANCH   6   7
ENDBRANCH   5   6
ENDBRANCH   4   5
ENDBRANCH   3   4
ENDBRANCH   2   3
ENDBRANCH   1   2
BRANCH   1  18
ATOM     18  C   UNL     1      18.377 -14.868  24.239  1.00  0.00     0.000 C 
BRANCH  18  19
ATOM     19  C   UNL     1      16.941 -15.421  24.292  1.00  0.00     0.000 C 
BRANCH  19  20
ATOM     20  C   UNL     1      16.323 -15.366  25.702  1.00  0.00     0.000 C 
BRANCH  20  21
ATOM     21  C   UNL     1      16.848 -14.234  26.605  1.00  0.00     0.000 C 
BRANCH  21  22
ATOM     22  C   UNL     1      15.727 -13.485  27.354  1.00  0.00     0.000 C 
BRANCH  22  23
ATOM     23  C   UNL     1      14.322 -14.035  27.029  1.00  0.00     0.000 C 
BRANCH  23  24
ATOM     24  C   UNL     1      13.463 -13.106  26.145  1.00  0.00    -0.000 C 
BRANCH  24  25
ATOM     25  C   UNL     1      14.243 -12.036  25.361  1.00  0.00    -0.000 C 
BRANCH  25  26
ATOM     26  C   UNL     1      14.622 -12.491  23.942  1.00  0.00    -0.000 C 
BRANCH  26  27
ATOM     27  C   UNL     1      15.548 -11.468  23.269  1.00  0.00    -0.000 C 
BRANCH  27  28
ATOM     28  C   UNL     1      16.988 -11.504  23.820  1.00  0.00    -0.000 C 
BRANCH  28  29
ATOM     29  C   UNL     1      17.730 -10.154  23.804  1.00  0.00    -0.000 C 
BRANCH  29  30
ATOM     30  C   UNL     1      17.928  -9.554  25.208  1.00  0.00    -0.000 C 
BRANCH  30  31
ATOM     31  C   UNL     1      17.525 -10.526  26.325  1.00  0.00    -0.003 C 
ATOM     32  C   UNL     1      18.719 -11.012  27.145  1.00  0.00     0.004 C 
ENDBRANCH  30  31
ENDBRANCH  29  30
ENDBRANCH  28  29
ENDBRANCH  27  28
ENDBRANCH  26  27
ENDBRANCH  25  26
ENDBRANCH  24  25
ENDBRANCH  23  24
ENDBRANCH  22  23
ENDBRANCH  21  22
ENDBRANCH  20  21
ENDBRANCH  19  20
ENDBRANCH  18  19
ENDBRANCH   1  18
TORSDOF 28
ENDMDL
