MODEL 1
REMARK VINA RESULT:     6.723      0.000      0.000
REMARK INTER + INTRA:           8.560
REMARK INTER:                   8.099
REMARK INTRA:                   0.461
REMARK UNBOUND:                 0.461
REMARK SMILES O=c1c(O)c(-c2ccc(O)c(O)c2)oc2cc(O)cc(O)c12
REMARK SMILES IDX 5 1 3 2 2 3 1 4 22 5 20 6 19 7 17 8 16 9 15 10 14 11 6 12
REMARK SMILES IDX 7 13 8 14 9 15 13 16 11 17 10 18 12 20 4 22 21 24 18 26
REMARK H PARENT 10 19 12 21 4 23 21 25 18 27
REMARK Flexibility Score: inf
ROOT
ATOM      1  C   UNL     1      -9.010  -2.904  17.005  1.00  0.00     0.180 A 
ATOM      2  C   UNL     1      -9.125  -2.016  15.917  1.00  0.00     0.208 A 
ATOM      3  C   UNL     1      -9.450  -2.532  14.653  1.00  0.00     0.238 A 
ATOM      4  O   UNL     1      -9.565  -1.746  13.674  1.00  0.00    -0.285 OA
ATOM      5  C   UNL     1      -9.633  -3.921  14.493  1.00  0.00     0.111 A 
ATOM      6  C   UNL     1      -9.957  -4.521  13.253  1.00  0.00     0.134 A 
ATOM      7  C   UNL     1     -10.116  -5.913  13.172  1.00  0.00     0.093 A 
ATOM      8  C   UNL     1      -9.954  -6.714  14.305  1.00  0.00     0.123 A 
ATOM      9  C   UNL     1      -9.634  -6.127  15.533  1.00  0.00     0.094 A 
ATOM     10  C   UNL     1      -9.475  -4.742  15.634  1.00  0.00     0.146 A 
ATOM     11  O   UNL     1      -9.176  -4.210  16.814  1.00  0.00    -0.452 OA
ENDROOT
BRANCH   1  12
ATOM     12  C   UNL     1      -8.690  -2.436  18.373  1.00  0.00     0.025 A 
ATOM     13  C   UNL     1      -8.524  -1.068  18.659  1.00  0.00     0.016 A 
ATOM     14  C   UNL     1      -8.246  -0.648  19.962  1.00  0.00     0.051 A 
ATOM     15  C   UNL     1      -8.142  -1.585  20.999  1.00  0.00     0.157 A 
ATOM     16  C   UNL     1      -8.606  -3.368  19.421  1.00  0.00     0.062 A 
ATOM     17  C   UNL     1      -8.325  -2.946  20.729  1.00  0.00     0.158 A 
BRANCH  15  18
ATOM     18  O   UNL     1      -7.863  -1.170  22.300  1.00  0.00    -0.504 OA
ATOM     19  H   UNL     1      -7.717  -0.192  22.525  1.00  0.00     0.293 HD
ENDBRANCH  15  18
BRANCH  17  20
ATOM     20  O   UNL     1      -8.230  -3.875  21.763  1.00  0.00    -0.504 OA
ATOM     21  H   UNL     1      -7.905  -3.611  22.685  1.00  0.00     0.293 HD
ENDBRANCH  17  20
ENDBRANCH   1  12
BRANCH   2  22
ATOM     22  O   UNL     1      -8.890  -0.650  16.094  1.00  0.00    -0.502 OA
ATOM     23  H   UNL     1      -7.958  -0.253  16.064  1.00  0.00     0.293 HD
ENDBRANCH   2  22
BRANCH   6  24
ATOM     24  O   UNL     1     -10.124  -3.748  12.102  1.00  0.00    -0.507 OA
ATOM     25  H   UNL     1      -9.342  -3.289  11.650  1.00  0.00     0.293 HD
ENDBRANCH   6  24
BRANCH   8  26
ATOM     26  O   UNL     1     -10.116  -8.094  14.198  1.00  0.00    -0.508 OA
ATOM     27  H   UNL     1     -10.490  -8.519  13.357  1.00  0.00     0.293 HD
ENDBRANCH   8  26
TORSDOF 6
ENDMDL
