MODEL 1
REMARK VINA RESULT:    -5.323      0.000      0.000
REMARK INTER + INTRA:         -11.497
REMARK INTER:                 -10.302
REMARK INTRA:                  -1.195
REMARK UNBOUND:                -1.195
REMARK SMILES CCCCCCCCCCCCCCCCCC(=O)[O-]
REMARK SMILES IDX 10 1 11 2 12 3 13 4 14 5 15 6 16 7 17 8 18 9 19 10 20 11
REMARK SMILES IDX 9 12 8 13 7 14 6 15 5 16 4 17 3 18 2 19 1 20
REMARK H PARENT
REMARK Flexibility Score: inf
ROOT
ATOM      1  C   UNL     1      56.828 144.033 -28.412  1.00  0.00     0.000 C 
ENDROOT
BRANCH   1   2
ATOM      2  C   UNL     1      55.399 144.455 -28.016  1.00  0.00     0.000 C 
BRANCH   2   3
ATOM      3  C   UNL     1      54.464 143.300 -27.606  1.00  0.00     0.000 C 
BRANCH   3   4
ATOM      4  C   UNL     1      55.175 142.060 -27.034  1.00  0.00     0.000 C 
BRANCH   4   5
ATOM      5  C   UNL     1      55.186 142.034 -25.498  1.00  0.00     0.000 C 
BRANCH   5   6
ATOM      6  C   UNL     1      56.358 142.853 -24.945  1.00  0.00     0.000 C 
BRANCH   6   7
ATOM      7  C   UNL     1      55.930 143.663 -23.712  1.00  0.00     0.006 C 
BRANCH   7   8
ATOM      8  C   UNL     1      54.407 143.669 -23.521  1.00  0.00     0.053 C 
BRANCH   8   9
ATOM      9  C   UNL     1      53.827 145.037 -23.716  1.00  0.00     0.041 C 
ATOM     10  O   UNL     1      54.052 145.674 -24.778  1.00  0.00    -0.550 OA
ATOM     11  O   UNL     1      53.001 145.588 -22.745  1.00  0.00    -0.550 OA
ENDBRANCH   8   9
ENDBRANCH   7   8
ENDBRANCH   6   7
ENDBRANCH   5   6
ENDBRANCH   4   5
ENDBRANCH   3   4
ENDBRANCH   2   3
ENDBRANCH   1   2
BRANCH   1  12
ATOM     12  C   UNL     1      57.031 143.755 -29.912  1.00  0.00     0.000 C 
BRANCH  12  13
ATOM     13  C   UNL     1      58.502 143.849 -30.344  1.00  0.00    -0.000 C 
BRANCH  13  14
ATOM     14  C   UNL     1      58.621 144.386 -31.776  1.00  0.00    -0.000 C 
BRANCH  14  15
ATOM     15  C   UNL     1      59.805 143.742 -32.510  1.00  0.00    -0.000 C 
BRANCH  15  16
ATOM     16  C   UNL     1      60.104 144.417 -33.858  1.00  0.00    -0.000 C 
BRANCH  16  17
ATOM     17  C   UNL     1      61.199 145.489 -33.754  1.00  0.00    -0.000 C 
BRANCH  17  18
ATOM     18  C   UNL     1      61.133 146.459 -34.944  1.00  0.00    -0.000 C 
BRANCH  18  19
ATOM     19  C   UNL     1      60.195 147.648 -34.686  1.00  0.00    -0.003 C 
ATOM     20  C   UNL     1      59.945 147.895 -33.198  1.00  0.00     0.004 C 
ENDBRANCH  18  19
ENDBRANCH  17  18
ENDBRANCH  16  17
ENDBRANCH  15  16
ENDBRANCH  14  15
ENDBRANCH  13  14
ENDBRANCH  12  13
ENDBRANCH   1  12
TORSDOF 16
ENDMDL
MODEL 2
REMARK VINA RESULT:    -5.129      2.020      2.524
REMARK INTER + INTRA:         -11.120
REMARK INTER:                 -10.119
REMARK INTRA:                  -1.002
REMARK UNBOUND:                -1.195
REMARK SMILES CCCCCCCCCCCCCCCCCC(=O)[O-]
REMARK SMILES IDX 10 1 11 2 12 3 13 4 14 5 15 6 16 7 17 8 18 9 19 10 20 11
REMARK SMILES IDX 9 12 8 13 7 14 6 15 5 16 4 17 3 18 2 19 1 20
REMARK H PARENT
REMARK Flexibility Score: inf
ROOT
ATOM      1  C   UNL     1      57.004 144.126 -28.832  1.00  0.00     0.000 C 
ENDROOT
BRANCH   1   2
ATOM      2  C   UNL     1      55.541 143.879 -28.410  1.00  0.00     0.000 C 
BRANCH   2   3
ATOM      3  C   UNL     1      55.180 144.350 -26.988  1.00  0.00     0.000 C 
BRANCH   3   4
ATOM      4  C   UNL     1      56.054 143.761 -25.866  1.00  0.00     0.000 C 
BRANCH   4   5
ATOM      5  C   UNL     1      55.436 143.939 -24.471  1.00  0.00     0.000 C 
BRANCH   5   6
ATOM      6  C   UNL     1      55.834 142.784 -23.545  1.00  0.00     0.000 C 
BRANCH   6   7
ATOM      7  C   UNL     1      55.994 141.475 -24.334  1.00  0.00     0.006 C 
BRANCH   7   8
ATOM      8  C   UNL     1      54.980 140.408 -23.901  1.00  0.00     0.053 C 
BRANCH   8   9
ATOM      9  C   UNL     1      53.843 140.296 -24.871  1.00  0.00     0.041 C 
ATOM     10  O   UNL     1      52.864 139.547 -24.614  1.00  0.00    -0.550 OA
ATOM     11  O   UNL     1      53.844 141.052 -26.035  1.00  0.00    -0.550 OA
ENDBRANCH   8   9
ENDBRANCH   7   8
ENDBRANCH   6   7
ENDBRANCH   5   6
ENDBRANCH   4   5
ENDBRANCH   3   4
ENDBRANCH   2   3
ENDBRANCH   1   2
BRANCH   1  12
ATOM     12  C   UNL     1      57.344 143.705 -30.273  1.00  0.00     0.000 C 
BRANCH  12  13
ATOM     13  C   UNL     1      58.793 144.032 -30.664  1.00  0.00    -0.000 C 
BRANCH  13  14
ATOM     14  C   UNL     1      58.884 144.436 -32.141  1.00  0.00    -0.000 C 
BRANCH  14  15
ATOM     15  C   UNL     1      59.993 143.654 -32.859  1.00  0.00    -0.000 C 
BRANCH  15  16
ATOM     16  C   UNL     1      60.475 144.351 -34.142  1.00  0.00    -0.000 C 
BRANCH  16  17
ATOM     17  C   UNL     1      61.359 145.574 -33.855  1.00  0.00    -0.000 C 
BRANCH  17  18
ATOM     18  C   UNL     1      61.181 146.647 -34.939  1.00  0.00    -0.000 C 
BRANCH  18  19
ATOM     19  C   UNL     1      60.581 147.950 -34.389  1.00  0.00    -0.003 C 
ATOM     20  C   UNL     1      60.021 147.795 -32.976  1.00  0.00     0.004 C 
ENDBRANCH  18  19
ENDBRANCH  17  18
ENDBRANCH  16  17
ENDBRANCH  15  16
ENDBRANCH  14  15
ENDBRANCH  13  14
ENDBRANCH  12  13
ENDBRANCH   1  12
TORSDOF 16
ENDMDL
MODEL 3
REMARK VINA RESULT:    -4.858      2.328      2.615
REMARK INTER + INTRA:         -10.597
REMARK INTER:                  -9.672
REMARK INTRA:                  -0.925
REMARK UNBOUND:                -1.195
REMARK SMILES CCCCCCCCCCCCCCCCCC(=O)[O-]
REMARK SMILES IDX 10 1 11 2 12 3 13 4 14 5 15 6 16 7 17 8 18 9 19 10 20 11
REMARK SMILES IDX 9 12 8 13 7 14 6 15 5 16 4 17 3 18 2 19 1 20
REMARK H PARENT
REMARK Flexibility Score: inf
ROOT
ATOM      1  C   UNL     1      57.149 144.136 -28.627  1.00  0.00     0.000 C 
ENDROOT
BRANCH   1   2
ATOM      2  C   UNL     1      55.717 144.494 -28.180  1.00  0.00     0.000 C 
BRANCH   2   3
ATOM      3  C   UNL     1      54.760 143.297 -28.020  1.00  0.00     0.000 C 
BRANCH   3   4
ATOM      4  C   UNL     1      55.217 142.230 -27.008  1.00  0.00     0.000 C 
BRANCH   4   5
ATOM      5  C   UNL     1      55.248 142.752 -25.564  1.00  0.00     0.000 C 
BRANCH   5   6
ATOM      6  C   UNL     1      56.452 142.186 -24.803  1.00  0.00     0.000 C 
BRANCH   6   7
ATOM      7  C   UNL     1      56.512 142.744 -23.372  1.00  0.00     0.006 C 
BRANCH   7   8
ATOM      8  C   UNL     1      57.309 141.835 -22.427  1.00  0.00     0.053 C 
BRANCH   8   9
ATOM      9  C   UNL     1      58.261 142.618 -21.574  1.00  0.00     0.041 C 
ATOM     10  O   UNL     1      59.050 142.022 -20.796  1.00  0.00    -0.550 OA
ATOM     11  O   UNL     1      58.306 144.002 -21.672  1.00  0.00    -0.550 OA
ENDBRANCH   8   9
ENDBRANCH   7   8
ENDBRANCH   6   7
ENDBRANCH   5   6
ENDBRANCH   4   5
ENDBRANCH   3   4
ENDBRANCH   2   3
ENDBRANCH   1   2
BRANCH   1  12
ATOM     12  C   UNL     1      57.298 143.806 -30.122  1.00  0.00     0.000 C 
BRANCH  12  13
ATOM     13  C   UNL     1      58.755 143.869 -30.605  1.00  0.00    -0.000 C 
BRANCH  13  14
ATOM     14  C   UNL     1      58.831 144.367 -32.054  1.00  0.00    -0.000 C 
BRANCH  14  15
ATOM     15  C   UNL     1      59.931 143.631 -32.832  1.00  0.00    -0.000 C 
BRANCH  15  16
ATOM     16  C   UNL     1      60.362 144.382 -34.103  1.00  0.00    -0.000 C 
BRANCH  16  17
ATOM     17  C   UNL     1      59.577 145.684 -34.316  1.00  0.00    -0.000 C 
BRANCH  17  18
ATOM     18  C   UNL     1      60.473 146.771 -34.929  1.00  0.00    -0.000 C 
BRANCH  18  19
ATOM     19  C   UNL     1      60.325 148.128 -34.223  1.00  0.00    -0.003 C 
ATOM     20  C   UNL     1      59.901 147.992 -32.761  1.00  0.00     0.004 C 
ENDBRANCH  18  19
ENDBRANCH  17  18
ENDBRANCH  16  17
ENDBRANCH  15  16
ENDBRANCH  14  15
ENDBRANCH  13  14
ENDBRANCH  12  13
ENDBRANCH   1  12
TORSDOF 16
ENDMDL
MODEL 4
REMARK VINA RESULT:    -4.835     11.729     16.309
REMARK INTER + INTRA:         -10.552
REMARK INTER:                  -9.379
REMARK INTRA:                  -1.173
REMARK UNBOUND:                -1.195
REMARK SMILES CCCCCCCCCCCCCCCCCC(=O)[O-]
REMARK SMILES IDX 10 1 11 2 12 3 13 4 14 5 15 6 16 7 17 8 18 9 19 10 20 11
REMARK SMILES IDX 9 12 8 13 7 14 6 15 5 16 4 17 3 18 2 19 1 20
REMARK H PARENT
REMARK Flexibility Score: inf
ROOT
ATOM      1  C   UNL     1      50.008 152.357 -23.034  1.00  0.00     0.000 C 
ENDROOT
BRANCH   1   2
ATOM      2  C   UNL     1      51.072 153.282 -23.658  1.00  0.00     0.000 C 
BRANCH   2   3
ATOM      3  C   UNL     1      51.780 152.721 -24.907  1.00  0.00     0.000 C 
BRANCH   3   4
ATOM      4  C   UNL     1      52.520 153.767 -25.760  1.00  0.00     0.000 C 
BRANCH   4   5
ATOM      5  C   UNL     1      52.611 155.139 -25.077  1.00  0.00     0.000 C 
BRANCH   5   6
ATOM      6  C   UNL     1      52.392 156.270 -26.088  1.00  0.00     0.000 C 
BRANCH   6   7
ATOM      7  C   UNL     1      50.945 156.785 -26.034  1.00  0.00     0.006 C 
BRANCH   7   8
ATOM      8  C   UNL     1      50.151 156.417 -27.294  1.00  0.00     0.053 C 
BRANCH   8   9
ATOM      9  C   UNL     1      49.542 155.051 -27.189  1.00  0.00     0.041 C 
ATOM     10  O   UNL     1      48.981 154.689 -26.122  1.00  0.00    -0.550 OA
ATOM     11  O   UNL     1      49.555 154.197 -28.284  1.00  0.00    -0.550 OA
ENDBRANCH   8   9
ENDBRANCH   7   8
ENDBRANCH   6   7
ENDBRANCH   5   6
ENDBRANCH   4   5
ENDBRANCH   3   4
ENDBRANCH   2   3
ENDBRANCH   1   2
BRANCH   1  12
ATOM     12  C   UNL     1      49.169 152.996 -21.914  1.00  0.00     0.000 C 
BRANCH  12  13
ATOM     13  C   UNL     1      50.024 153.510 -20.747  1.00  0.00    -0.000 C 
BRANCH  13  14
ATOM     14  C   UNL     1      49.260 153.411 -19.420  1.00  0.00    -0.000 C 
BRANCH  14  15
ATOM     15  C   UNL     1      50.105 153.942 -18.255  1.00  0.00    -0.000 C 
BRANCH  15  16
ATOM     16  C   UNL     1      49.257 154.628 -17.171  1.00  0.00    -0.000 C 
BRANCH  16  17
ATOM     17  C   UNL     1      49.415 153.971 -15.792  1.00  0.00    -0.000 C 
BRANCH  17  18
ATOM     18  C   UNL     1      49.232 152.448 -15.885  1.00  0.00    -0.000 C 
BRANCH  18  19
ATOM     19  C   UNL     1      50.104 151.685 -14.876  1.00  0.00    -0.003 C 
ATOM     20  C   UNL     1      51.570 151.606 -15.298  1.00  0.00     0.004 C 
ENDBRANCH  18  19
ENDBRANCH  17  18
ENDBRANCH  16  17
ENDBRANCH  15  16
ENDBRANCH  14  15
ENDBRANCH  13  14
ENDBRANCH  12  13
ENDBRANCH   1  12
TORSDOF 16
ENDMDL
MODEL 5
REMARK VINA RESULT:    -4.800      2.597      3.150
REMARK INTER + INTRA:         -10.485
REMARK INTER:                  -9.778
REMARK INTRA:                  -0.707
REMARK UNBOUND:                -1.195
REMARK SMILES CCCCCCCCCCCCCCCCCC(=O)[O-]
REMARK SMILES IDX 10 1 11 2 12 3 13 4 14 5 15 6 16 7 17 8 18 9 19 10 20 11
REMARK SMILES IDX 9 12 8 13 7 14 6 15 5 16 4 17 3 18 2 19 1 20
REMARK H PARENT
REMARK Flexibility Score: inf
ROOT
ATOM      1  C   UNL     1      55.123 143.681 -28.138  1.00  0.00     0.000 C 
ENDROOT
BRANCH   1   2
ATOM      2  C   UNL     1      55.035 142.438 -27.230  1.00  0.00     0.000 C 
BRANCH   2   3
ATOM      3  C   UNL     1      55.661 142.601 -25.830  1.00  0.00     0.000 C 
BRANCH   3   4
ATOM      4  C   UNL     1      55.492 141.388 -24.897  1.00  0.00     0.000 C 
BRANCH   4   5
ATOM      5  C   UNL     1      55.879 141.694 -23.443  1.00  0.00     0.000 C 
BRANCH   5   6
ATOM      6  C   UNL     1      56.965 142.775 -23.381  1.00  0.00     0.000 C 
BRANCH   6   7
ATOM      7  C   UNL     1      58.270 142.211 -22.796  1.00  0.00     0.006 C 
BRANCH   7   8
ATOM      8  C   UNL     1      59.279 143.317 -22.459  1.00  0.00     0.053 C 
BRANCH   8   9
ATOM      9  C   UNL     1      59.011 143.924 -21.115  1.00  0.00     0.041 C 
ATOM     10  O   UNL     1      59.198 145.155 -20.928  1.00  0.00    -0.550 OA
ATOM     11  O   UNL     1      58.513 143.139 -20.084  1.00  0.00    -0.550 OA
ENDBRANCH   8   9
ENDBRANCH   7   8
ENDBRANCH   6   7
ENDBRANCH   5   6
ENDBRANCH   4   5
ENDBRANCH   3   4
ENDBRANCH   2   3
ENDBRANCH   1   2
BRANCH   1  12
ATOM     12  C   UNL     1      56.553 144.147 -28.464  1.00  0.00     0.000 C 
BRANCH  12  13
ATOM     13  C   UNL     1      57.000 143.755 -29.881  1.00  0.00    -0.000 C 
BRANCH  13  14
ATOM     14  C   UNL     1      58.447 144.191 -30.140  1.00  0.00    -0.000 C 
BRANCH  14  15
ATOM     15  C   UNL     1      58.928 143.715 -31.518  1.00  0.00    -0.000 C 
BRANCH  15  16
ATOM     16  C   UNL     1      59.172 144.877 -32.495  1.00  0.00    -0.000 C 
BRANCH  16  17
ATOM     17  C   UNL     1      60.191 144.526 -33.589  1.00  0.00    -0.000 C 
BRANCH  17  18
ATOM     18  C   UNL     1      60.917 145.786 -34.087  1.00  0.00    -0.000 C 
BRANCH  18  19
ATOM     19  C   UNL     1      60.504 147.050 -33.317  1.00  0.00    -0.003 C 
ATOM     20  C   UNL     1      60.416 148.286 -34.210  1.00  0.00     0.004 C 
ENDBRANCH  18  19
ENDBRANCH  17  18
ENDBRANCH  16  17
ENDBRANCH  15  16
ENDBRANCH  14  15
ENDBRANCH  13  14
ENDBRANCH  12  13
ENDBRANCH   1  12
TORSDOF 16
ENDMDL
MODEL 6
REMARK VINA RESULT:    -4.575     12.431     16.493
REMARK INTER + INTRA:         -10.050
REMARK INTER:                  -9.249
REMARK INTRA:                  -0.801
REMARK UNBOUND:                -1.195
REMARK SMILES CCCCCCCCCCCCCCCCCC(=O)[O-]
REMARK SMILES IDX 10 1 11 2 12 3 13 4 14 5 15 6 16 7 17 8 18 9 19 10 20 11
REMARK SMILES IDX 9 12 8 13 7 14 6 15 5 16 4 17 3 18 2 19 1 20
REMARK H PARENT
REMARK Flexibility Score: inf
ROOT
ATOM      1  C   UNL     1      50.793 153.521 -22.737  1.00  0.00     0.000 C 
ENDROOT
BRANCH   1   2
ATOM      2  C   UNL     1      51.253 153.623 -24.206  1.00  0.00     0.000 C 
BRANCH   2   3
ATOM      3  C   UNL     1      51.036 154.998 -24.868  1.00  0.00     0.000 C 
BRANCH   3   4
ATOM      4  C   UNL     1      51.848 155.234 -26.154  1.00  0.00     0.000 C 
BRANCH   4   5
ATOM      5  C   UNL     1      52.223 156.709 -26.362  1.00  0.00     0.000 C 
BRANCH   5   6
ATOM      6  C   UNL     1      53.420 157.099 -25.487  1.00  0.00     0.000 C 
BRANCH   6   7
ATOM      7  C   UNL     1      54.550 156.063 -25.607  1.00  0.00     0.006 C 
BRANCH   7   8
ATOM      8  C   UNL     1      55.818 156.498 -24.860  1.00  0.00     0.053 C 
BRANCH   8   9
ATOM      9  C   UNL     1      56.994 156.612 -25.781  1.00  0.00     0.041 C 
ATOM     10  O   UNL     1      57.269 157.714 -26.324  1.00  0.00    -0.550 OA
ATOM     11  O   UNL     1      57.813 155.513 -26.004  1.00  0.00    -0.550 OA
ENDBRANCH   8   9
ENDBRANCH   7   8
ENDBRANCH   6   7
ENDBRANCH   5   6
ENDBRANCH   4   5
ENDBRANCH   3   4
ENDBRANCH   2   3
ENDBRANCH   1   2
BRANCH   1  12
ATOM     12  C   UNL     1      49.320 153.118 -22.545  1.00  0.00     0.000 C 
BRANCH  12  13
ATOM     13  C   UNL     1      48.995 152.718 -21.098  1.00  0.00    -0.000 C 
BRANCH  13  14
ATOM     14  C   UNL     1      49.754 153.602 -20.100  1.00  0.00    -0.000 C 
BRANCH  14  15
ATOM     15  C   UNL     1      49.304 153.320 -18.660  1.00  0.00    -0.000 C 
BRANCH  15  16
ATOM     16  C   UNL     1      49.755 154.409 -17.674  1.00  0.00    -0.000 C 
BRANCH  16  17
ATOM     17  C   UNL     1      49.117 154.253 -16.286  1.00  0.00    -0.000 C 
BRANCH  17  18
ATOM     18  C   UNL     1      50.080 153.552 -15.315  1.00  0.00    -0.000 C 
BRANCH  18  19
ATOM     19  C   UNL     1      49.828 152.039 -15.221  1.00  0.00    -0.003 C 
ATOM     20  C   UNL     1      51.120 151.222 -15.221  1.00  0.00     0.004 C 
ENDBRANCH  18  19
ENDBRANCH  17  18
ENDBRANCH  16  17
ENDBRANCH  15  16
ENDBRANCH  14  15
ENDBRANCH  13  14
ENDBRANCH  12  13
ENDBRANCH   1  12
TORSDOF 16
ENDMDL
MODEL 7
REMARK VINA RESULT:    -4.482     10.727     12.372
REMARK INTER + INTRA:          -9.868
REMARK INTER:                  -8.225
REMARK INTRA:                  -1.643
REMARK UNBOUND:                -1.195
REMARK SMILES CCCCCCCCCCCCCCCCCC(=O)[O-]
REMARK SMILES IDX 10 1 11 2 12 3 13 4 14 5 15 6 16 7 17 8 18 9 19 10 20 11
REMARK SMILES IDX 9 12 8 13 7 14 6 15 5 16 4 17 3 18 2 19 1 20
REMARK H PARENT
REMARK Flexibility Score: inf
ROOT
ATOM      1  C   UNL     1      49.837 154.308 -28.868  1.00  0.00     0.000 C 
ENDROOT
BRANCH   1   2
ATOM      2  C   UNL     1      48.466 154.803 -28.366  1.00  0.00     0.000 C 
BRANCH   2   3
ATOM      3  C   UNL     1      48.497 156.113 -27.554  1.00  0.00     0.000 C 
BRANCH   3   4
ATOM      4  C   UNL     1      49.893 156.743 -27.391  1.00  0.00     0.000 C 
BRANCH   4   5
ATOM      5  C   UNL     1      50.298 156.925 -25.921  1.00  0.00     0.000 C 
BRANCH   5   6
ATOM      6  C   UNL     1      51.558 156.116 -25.595  1.00  0.00     0.000 C 
BRANCH   6   7
ATOM      7  C   UNL     1      51.253 154.610 -25.567  1.00  0.00     0.006 C 
BRANCH   7   8
ATOM      8  C   UNL     1      52.523 153.758 -25.704  1.00  0.00     0.053 C 
BRANCH   8   9
ATOM      9  C   UNL     1      52.222 152.395 -26.251  1.00  0.00     0.041 C 
ATOM     10  O   UNL     1      52.167 152.211 -27.495  1.00  0.00    -0.550 OA
ATOM     11  O   UNL     1      52.047 151.322 -25.388  1.00  0.00    -0.550 OA
ENDBRANCH   8   9
ENDBRANCH   7   8
ENDBRANCH   6   7
ENDBRANCH   5   6
ENDBRANCH   4   5
ENDBRANCH   3   4
ENDBRANCH   2   3
ENDBRANCH   1   2
BRANCH   1  12
ATOM     12  C   UNL     1      49.779 153.148 -29.878  1.00  0.00     0.000 C 
BRANCH  12  13
ATOM     13  C   UNL     1      48.361 152.893 -30.412  1.00  0.00    -0.000 C 
BRANCH  13  14
ATOM     14  C   UNL     1      48.200 153.454 -31.831  1.00  0.00    -0.000 C 
BRANCH  14  15
ATOM     15  C   UNL     1      49.566 153.714 -32.480  1.00  0.00    -0.000 C 
BRANCH  15  16
ATOM     16  C   UNL     1      49.707 155.150 -33.009  1.00  0.00    -0.000 C 
BRANCH  16  17
ATOM     17  C   UNL     1      51.138 155.477 -33.460  1.00  0.00    -0.000 C 
BRANCH  17  18
ATOM     18  C   UNL     1      52.089 154.307 -33.164  1.00  0.00    -0.000 C 
BRANCH  18  19
ATOM     19  C   UNL     1      53.565 154.676 -33.374  1.00  0.00    -0.003 C 
ATOM     20  C   UNL     1      54.525 153.649 -32.774  1.00  0.00     0.004 C 
ENDBRANCH  18  19
ENDBRANCH  17  18
ENDBRANCH  16  17
ENDBRANCH  15  16
ENDBRANCH  14  15
ENDBRANCH  13  14
ENDBRANCH  12  13
ENDBRANCH   1  12
TORSDOF 16
ENDMDL
MODEL 8
REMARK VINA RESULT:    -4.467      4.158     10.068
REMARK INTER + INTRA:          -9.841
REMARK INTER:                  -9.131
REMARK INTRA:                  -0.710
REMARK UNBOUND:                -1.195
REMARK SMILES CCCCCCCCCCCCCCCCCC(=O)[O-]
REMARK SMILES IDX 10 1 11 2 12 3 13 4 14 5 15 6 16 7 17 8 18 9 19 10 20 11
REMARK SMILES IDX 9 12 8 13 7 14 6 15 5 16 4 17 3 18 2 19 1 20
REMARK H PARENT
REMARK Flexibility Score: inf
ROOT
ATOM      1  C   UNL     1      55.912 144.240 -28.472  1.00  0.00     0.000 C 
ENDROOT
BRANCH   1   2
ATOM      2  C   UNL     1      56.619 143.751 -29.753  1.00  0.00     0.000 C 
BRANCH   2   3
ATOM      3  C   UNL     1      58.102 144.150 -29.878  1.00  0.00     0.000 C 
BRANCH   3   4
ATOM      4  C   UNL     1      58.859 143.482 -31.040  1.00  0.00     0.000 C 
BRANCH   4   5
ATOM      5  C   UNL     1      59.212 144.464 -32.167  1.00  0.00     0.000 C 
BRANCH   5   6
ATOM      6  C   UNL     1      59.974 143.756 -33.293  1.00  0.00     0.000 C 
BRANCH   6   7
ATOM      7  C   UNL     1      60.408 144.755 -34.377  1.00  0.00     0.006 C 
BRANCH   7   8
ATOM      8  C   UNL     1      59.555 146.030 -34.366  1.00  0.00     0.053 C 
BRANCH   8   9
ATOM      9  C   UNL     1      60.403 147.266 -34.329  1.00  0.00     0.041 C 
ATOM     10  O   UNL     1      61.455 147.332 -35.016  1.00  0.00    -0.550 OA
ATOM     11  O   UNL     1      60.006 148.360 -33.572  1.00  0.00    -0.550 OA
ENDBRANCH   8   9
ENDBRANCH   7   8
ENDBRANCH   6   7
ENDBRANCH   5   6
ENDBRANCH   4   5
ENDBRANCH   3   4
ENDBRANCH   2   3
ENDBRANCH   1   2
BRANCH   1  12
ATOM     12  C   UNL     1      55.265 143.130 -27.625  1.00  0.00     0.000 C 
BRANCH  12  13
ATOM     13  C   UNL     1      55.888 143.006 -26.227  1.00  0.00    -0.000 C 
BRANCH  13  14
ATOM     14  C   UNL     1      55.434 141.713 -25.537  1.00  0.00    -0.000 C 
BRANCH  14  15
ATOM     15  C   UNL     1      55.524 141.841 -24.010  1.00  0.00    -0.000 C 
BRANCH  15  16
ATOM     16  C   UNL     1      56.405 143.020 -23.565  1.00  0.00    -0.000 C 
BRANCH  16  17
ATOM     17  C   UNL     1      57.810 142.578 -23.130  1.00  0.00    -0.000 C 
BRANCH  17  18
ATOM     18  C   UNL     1      57.751 141.771 -21.823  1.00  0.00    -0.000 C 
BRANCH  18  19
ATOM     19  C   UNL     1      58.698 142.321 -20.746  1.00  0.00    -0.003 C 
ATOM     20  C   UNL     1      58.902 143.832 -20.851  1.00  0.00     0.004 C 
ENDBRANCH  18  19
ENDBRANCH  17  18
ENDBRANCH  16  17
ENDBRANCH  15  16
ENDBRANCH  14  15
ENDBRANCH  13  14
ENDBRANCH  12  13
ENDBRANCH   1  12
TORSDOF 16
ENDMDL
MODEL 9
REMARK VINA RESULT:    -4.429      4.031     10.370
REMARK INTER + INTRA:          -9.767
REMARK INTER:                  -8.886
REMARK INTRA:                  -0.881
REMARK UNBOUND:                -1.195
REMARK SMILES CCCCCCCCCCCCCCCCCC(=O)[O-]
REMARK SMILES IDX 10 1 11 2 12 3 13 4 14 5 15 6 16 7 17 8 18 9 19 10 20 11
REMARK SMILES IDX 9 12 8 13 7 14 6 15 5 16 4 17 3 18 2 19 1 20
REMARK H PARENT
REMARK Flexibility Score: inf
ROOT
ATOM      1  C   UNL     1      55.853 144.488 -28.543  1.00  0.00     0.000 C 
ENDROOT
BRANCH   1   2
ATOM      2  C   UNL     1      56.705 143.658 -29.523  1.00  0.00     0.000 C 
BRANCH   2   3
ATOM      3  C   UNL     1      58.127 144.198 -29.778  1.00  0.00     0.000 C 
BRANCH   3   4
ATOM      4  C   UNL     1      58.848 143.583 -30.991  1.00  0.00     0.000 C 
BRANCH   4   5
ATOM      5  C   UNL     1      58.885 144.523 -32.205  1.00  0.00     0.000 C 
BRANCH   5   6
ATOM      6  C   UNL     1      60.083 144.206 -33.107  1.00  0.00     0.000 C 
BRANCH   6   7
ATOM      7  C   UNL     1      60.054 145.064 -34.382  1.00  0.00     0.006 C 
BRANCH   7   8
ATOM      8  C   UNL     1      59.185 146.318 -34.218  1.00  0.00     0.053 C 
BRANCH   8   9
ATOM      9  C   UNL     1      60.011 147.532 -33.915  1.00  0.00     0.041 C 
ATOM     10  O   UNL     1      59.814 148.182 -32.856  1.00  0.00    -0.550 OA
ATOM     11  O   UNL     1      61.026 147.916 -34.780  1.00  0.00    -0.550 OA
ENDBRANCH   8   9
ENDBRANCH   7   8
ENDBRANCH   6   7
ENDBRANCH   5   6
ENDBRANCH   4   5
ENDBRANCH   3   4
ENDBRANCH   2   3
ENDBRANCH   1   2
BRANCH   1  12
ATOM     12  C   UNL     1      55.774 143.924 -27.113  1.00  0.00     0.000 C 
BRANCH  12  13
ATOM     13  C   UNL     1      55.381 142.440 -27.078  1.00  0.00    -0.000 C 
BRANCH  13  14
ATOM     14  C   UNL     1      55.699 141.821 -25.711  1.00  0.00    -0.000 C 
BRANCH  14  15
ATOM     15  C   UNL     1      55.239 142.737 -24.569  1.00  0.00    -0.000 C 
BRANCH  15  16
ATOM     16  C   UNL     1      54.412 141.993 -23.508  1.00  0.00    -0.000 C 
BRANCH  16  17
ATOM     17  C   UNL     1      53.871 140.648 -24.015  1.00  0.00    -0.000 C 
BRANCH  17  18
ATOM     18  C   UNL     1      52.339 140.678 -24.122  1.00  0.00    -0.000 C 
BRANCH  18  19
ATOM     19  C   UNL     1      51.676 141.370 -22.921  1.00  0.00    -0.003 C 
ATOM     20  C   UNL     1      50.168 141.547 -23.097  1.00  0.00     0.004 C 
ENDBRANCH  18  19
ENDBRANCH  17  18
ENDBRANCH  16  17
ENDBRANCH  15  16
ENDBRANCH  14  15
ENDBRANCH  13  14
ENDBRANCH  12  13
ENDBRANCH   1  12
TORSDOF 16
ENDMDL
