MODEL 1
REMARK VINA RESULT:    -3.716      0.000      0.000
REMARK INTER + INTRA:          -8.860
REMARK INTER:                  -6.756
REMARK INTRA:                  -2.104
REMARK UNBOUND:                -2.104
REMARK SMILES CCCCCCCCCCCCCCCC(=O)[O-]
REMARK SMILES IDX 9 1 10 2 11 3 12 4 13 5 14 6 15 7 16 8 17 9 18 10 8 11 7 12
REMARK SMILES IDX 6 13 5 14 4 15 3 16 2 17 1 18
REMARK H PARENT
REMARK Flexibility Score: inf
ROOT
ATOM      1  C   UNL     1      19.414  13.331 -19.932  1.00  0.00     0.000 C 
ENDROOT
BRANCH   1   2
ATOM      2  C   UNL     1      18.116  12.808 -19.281  1.00  0.00     0.000 C 
BRANCH   2   3
ATOM      3  C   UNL     1      18.062  13.028 -17.760  1.00  0.00     0.000 C 
BRANCH   3   4
ATOM      4  C   UNL     1      17.723  11.746 -16.983  1.00  0.00     0.000 C 
BRANCH   4   5
ATOM      5  C   UNL     1      18.948  11.135 -16.285  1.00  0.00     0.000 C 
BRANCH   5   6
ATOM      6  C   UNL     1      19.579   9.993 -17.093  1.00  0.00     0.006 C 
BRANCH   6   7
ATOM      7  C   UNL     1      19.428   8.656 -16.362  1.00  0.00     0.053 C 
BRANCH   7   8
ATOM      8  C   UNL     1      20.099   7.560 -17.128  1.00  0.00     0.041 C 
ATOM      9  O   UNL     1      21.072   7.818 -17.884  1.00  0.00    -0.550 OA
ATOM     10  O   UNL     1      19.614   6.260 -17.050  1.00  0.00    -0.550 OA
ENDBRANCH   7   8
ENDBRANCH   6   7
ENDBRANCH   5   6
ENDBRANCH   4   5
ENDBRANCH   3   4
ENDBRANCH   2   3
ENDBRANCH   1   2
BRANCH   1  11
ATOM     11  C   UNL     1      20.655  12.559 -19.450  1.00  0.00     0.000 C 
BRANCH  11  12
ATOM     12  C   UNL     1      21.724  13.485 -18.846  1.00  0.00    -0.000 C 
BRANCH  12  13
ATOM     13  C   UNL     1      22.077  13.099 -17.398  1.00  0.00    -0.000 C 
BRANCH  13  14
ATOM     14  C   UNL     1      21.309  13.934 -16.361  1.00  0.00    -0.000 C 
BRANCH  14  15
ATOM     15  C   UNL     1      21.749  15.409 -16.345  1.00  0.00    -0.000 C 
BRANCH  15  16
ATOM     16  C   UNL     1      20.628  16.370 -16.779  1.00  0.00    -0.000 C 
BRANCH  16  17
ATOM     17  C   UNL     1      20.881  17.092 -18.115  1.00  0.00    -0.003 C 
ATOM     18  C   UNL     1      19.828  16.774 -19.176  1.00  0.00     0.004 C 
ENDBRANCH  16  17
ENDBRANCH  15  16
ENDBRANCH  14  15
ENDBRANCH  13  14
ENDBRANCH  12  13
ENDBRANCH  11  12
ENDBRANCH   1  11
TORSDOF 14
ENDMDL
MODEL 2
REMARK VINA RESULT:    -3.668      1.093      2.438
REMARK INTER + INTRA:          -8.774
REMARK INTER:                  -6.198
REMARK INTRA:                  -2.576
REMARK UNBOUND:                -2.104
REMARK SMILES CCCCCCCCCCCCCCCC(=O)[O-]
REMARK SMILES IDX 9 1 10 2 11 3 12 4 13 5 14 6 15 7 16 8 17 9 18 10 8 11 7 12
REMARK SMILES IDX 6 13 5 14 4 15 3 16 2 17 1 18
REMARK H PARENT
REMARK Flexibility Score: inf
ROOT
ATOM      1  C   UNL     1      21.570  14.012 -16.403  1.00  0.00     0.000 C 
ENDROOT
BRANCH   1   2
ATOM      2  C   UNL     1      20.098  14.141 -15.959  1.00  0.00     0.000 C 
BRANCH   2   3
ATOM      3  C   UNL     1      19.402  12.786 -15.746  1.00  0.00     0.000 C 
BRANCH   3   4
ATOM      4  C   UNL     1      18.242  12.551 -16.726  1.00  0.00     0.000 C 
BRANCH   4   5
ATOM      5  C   UNL     1      18.259  11.140 -17.337  1.00  0.00     0.000 C 
BRANCH   5   6
ATOM      6  C   UNL     1      19.302  10.226 -16.679  1.00  0.00     0.006 C 
BRANCH   6   7
ATOM      7  C   UNL     1      20.108   9.464 -17.734  1.00  0.00     0.053 C 
BRANCH   7   8
ATOM      8  C   UNL     1      19.671   8.035 -17.798  1.00  0.00     0.041 C 
ATOM      9  O   UNL     1      18.720   7.695 -18.550  1.00  0.00    -0.550 OA
ATOM     10  O   UNL     1      20.279   7.086 -16.986  1.00  0.00    -0.550 OA
ENDBRANCH   7   8
ENDBRANCH   6   7
ENDBRANCH   5   6
ENDBRANCH   4   5
ENDBRANCH   3   4
ENDBRANCH   2   3
ENDBRANCH   1   2
BRANCH   1  11
ATOM     11  C   UNL     1      21.778  12.847 -17.387  1.00  0.00     0.000 C 
BRANCH  11  12
ATOM     12  C   UNL     1      21.950  13.328 -18.838  1.00  0.00    -0.000 C 
BRANCH  12  13
ATOM     13  C   UNL     1      20.698  13.061 -19.691  1.00  0.00    -0.000 C 
BRANCH  13  14
ATOM     14  C   UNL     1      19.661  14.191 -19.585  1.00  0.00    -0.000 C 
BRANCH  14  15
ATOM     15  C   UNL     1      20.255  15.574 -19.906  1.00  0.00    -0.000 C 
BRANCH  15  16
ATOM     16  C   UNL     1      19.870  16.644 -18.869  1.00  0.00    -0.000 C 
BRANCH  16  17
ATOM     17  C   UNL     1      21.034  17.141 -17.993  1.00  0.00    -0.003 C 
ATOM     18  C   UNL     1      22.399  16.962 -18.656  1.00  0.00     0.004 C 
ENDBRANCH  16  17
ENDBRANCH  15  16
ENDBRANCH  14  15
ENDBRANCH  13  14
ENDBRANCH  12  13
ENDBRANCH  11  12
ENDBRANCH   1  11
TORSDOF 14
ENDMDL
MODEL 3
REMARK VINA RESULT:    -3.667      1.429      2.976
REMARK INTER + INTRA:          -8.773
REMARK INTER:                  -6.220
REMARK INTRA:                  -2.552
REMARK UNBOUND:                -2.104
REMARK SMILES CCCCCCCCCCCCCCCC(=O)[O-]
REMARK SMILES IDX 9 1 10 2 11 3 12 4 13 5 14 6 15 7 16 8 17 9 18 10 8 11 7 12
REMARK SMILES IDX 6 13 5 14 4 15 3 16 2 17 1 18
REMARK H PARENT
REMARK Flexibility Score: inf
ROOT
ATOM      1  C   UNL     1      20.726  15.172 -20.830  1.00  0.00     0.000 C 
ENDROOT
BRANCH   1   2
ATOM      2  C   UNL     1      19.425  14.673 -20.166  1.00  0.00     0.000 C 
BRANCH   2   3
ATOM      3  C   UNL     1      19.540  13.253 -19.585  1.00  0.00     0.000 C 
BRANCH   3   4
ATOM      4  C   UNL     1      18.309  12.844 -18.762  1.00  0.00     0.000 C 
BRANCH   4   5
ATOM      5  C   UNL     1      18.372  13.350 -17.311  1.00  0.00     0.000 C 
BRANCH   5   6
ATOM      6  C   UNL     1      18.845  12.268 -16.329  1.00  0.00     0.006 C 
BRANCH   6   7
ATOM      7  C   UNL     1      18.343  10.886 -16.753  1.00  0.00     0.053 C 
BRANCH   7   8
ATOM      8  C   UNL     1      19.487   9.932 -16.895  1.00  0.00     0.041 C 
ATOM      9  O   UNL     1      20.396  10.154 -17.737  1.00  0.00    -0.550 OA
ATOM     10  O   UNL     1      19.521   8.770 -16.134  1.00  0.00    -0.550 OA
ENDBRANCH   7   8
ENDBRANCH   6   7
ENDBRANCH   5   6
ENDBRANCH   4   5
ENDBRANCH   3   4
ENDBRANCH   2   3
ENDBRANCH   1   2
BRANCH   1  11
ATOM     11  C   UNL     1      21.255  16.459 -20.172  1.00  0.00     0.000 C 
BRANCH  11  12
ATOM     12  C   UNL     1      20.292  17.012 -19.108  1.00  0.00    -0.000 C 
BRANCH  12  13
ATOM     13  C   UNL     1      20.990  17.240 -17.755  1.00  0.00    -0.000 C 
BRANCH  13  14
ATOM     14  C   UNL     1      20.703  16.115 -16.747  1.00  0.00    -0.000 C 
BRANCH  14  15
ATOM     15  C   UNL     1      21.972  15.346 -16.338  1.00  0.00    -0.000 C 
BRANCH  15  16
ATOM     16  C   UNL     1      22.029  13.929 -16.936  1.00  0.00    -0.000 C 
BRANCH  16  17
ATOM     17  C   UNL     1      22.951  13.783 -18.159  1.00  0.00    -0.003 C 
ATOM     18  C   UNL     1      23.988  14.901 -18.262  1.00  0.00     0.004 C 
ENDBRANCH  16  17
ENDBRANCH  15  16
ENDBRANCH  14  15
ENDBRANCH  13  14
ENDBRANCH  12  13
ENDBRANCH  11  12
ENDBRANCH   1  11
TORSDOF 14
ENDMDL
MODEL 4
REMARK VINA RESULT:    -3.664      1.422      3.565
REMARK INTER + INTRA:          -8.766
REMARK INTER:                  -6.313
REMARK INTRA:                  -2.453
REMARK UNBOUND:                -2.104
REMARK SMILES CCCCCCCCCCCCCCCC(=O)[O-]
REMARK SMILES IDX 9 1 10 2 11 3 12 4 13 5 14 6 15 7 16 8 17 9 18 10 8 11 7 12
REMARK SMILES IDX 6 13 5 14 4 15 3 16 2 17 1 18
REMARK H PARENT
REMARK Flexibility Score: inf
ROOT
ATOM      1  C   UNL     1      21.054  14.966 -16.004  1.00  0.00     0.000 C 
ENDROOT
BRANCH   1   2
ATOM      2  C   UNL     1      19.872  14.192 -15.385  1.00  0.00     0.000 C 
BRANCH   2   3
ATOM      3  C   UNL     1      19.574  12.859 -16.093  1.00  0.00     0.000 C 
BRANCH   3   4
ATOM      4  C   UNL     1      18.419  12.965 -17.101  1.00  0.00     0.000 C 
BRANCH   4   5
ATOM      5  C   UNL     1      17.736  11.612 -17.362  1.00  0.00     0.000 C 
BRANCH   5   6
ATOM      6  C   UNL     1      18.219  10.948 -18.659  1.00  0.00     0.006 C 
BRANCH   6   7
ATOM      7  C   UNL     1      18.558   9.474 -18.426  1.00  0.00     0.053 C 
BRANCH   7   8
ATOM      8  C   UNL     1      19.746   9.344 -17.525  1.00  0.00     0.041 C 
ATOM      9  O   UNL     1      19.618   8.847 -16.376  1.00  0.00    -0.550 OA
ATOM     10  O   UNL     1      20.984   9.822 -17.935  1.00  0.00    -0.550 OA
ENDBRANCH   7   8
ENDBRANCH   6   7
ENDBRANCH   5   6
ENDBRANCH   4   5
ENDBRANCH   3   4
ENDBRANCH   2   3
ENDBRANCH   1   2
BRANCH   1  11
ATOM     11  C   UNL     1      20.654  16.390 -16.430  1.00  0.00     0.000 C 
BRANCH  11  12
ATOM     12  C   UNL     1      21.040  16.698 -17.887  1.00  0.00    -0.000 C 
BRANCH  12  13
ATOM     13  C   UNL     1      19.850  16.536 -18.850  1.00  0.00    -0.000 C 
BRANCH  13  14
ATOM     14  C   UNL     1      19.876  15.194 -19.598  1.00  0.00    -0.000 C 
BRANCH  14  15
ATOM     15  C   UNL     1      21.300  14.630 -19.756  1.00  0.00    -0.000 C 
BRANCH  15  16
ATOM     16  C   UNL     1      21.411  13.159 -19.319  1.00  0.00    -0.000 C 
BRANCH  16  17
ATOM     17  C   UNL     1      22.619  12.843 -18.420  1.00  0.00    -0.003 C 
ATOM     18  C   UNL     1      23.661  13.962 -18.405  1.00  0.00     0.004 C 
ENDBRANCH  16  17
ENDBRANCH  15  16
ENDBRANCH  14  15
ENDBRANCH  13  14
ENDBRANCH  12  13
ENDBRANCH  11  12
ENDBRANCH   1  11
TORSDOF 14
ENDMDL
MODEL 5
REMARK VINA RESULT:    -3.657      1.663      3.259
REMARK INTER + INTRA:          -8.753
REMARK INTER:                  -7.113
REMARK INTRA:                  -1.640
REMARK UNBOUND:                -2.104
REMARK SMILES CCCCCCCCCCCCCCCC(=O)[O-]
REMARK SMILES IDX 9 1 10 2 11 3 12 4 13 5 14 6 15 7 16 8 17 9 18 10 8 11 7 12
REMARK SMILES IDX 6 13 5 14 4 15 3 16 2 17 1 18
REMARK H PARENT
REMARK Flexibility Score: inf
ROOT
ATOM      1  C   UNL     1      18.510  12.890 -16.846  1.00  0.00     0.000 C 
ENDROOT
BRANCH   1   2
ATOM      2  C   UNL     1      17.848  11.503 -16.969  1.00  0.00     0.000 C 
BRANCH   2   3
ATOM      3  C   UNL     1      18.679  10.497 -17.784  1.00  0.00     0.000 C 
BRANCH   3   4
ATOM      4  C   UNL     1      19.607   9.642 -16.907  1.00  0.00     0.000 C 
BRANCH   4   5
ATOM      5  C   UNL     1      19.040   8.239 -16.638  1.00  0.00     0.000 C 
BRANCH   5   6
ATOM      6  C   UNL     1      18.902   7.402 -17.918  1.00  0.00     0.006 C 
BRANCH   6   7
ATOM      7  C   UNL     1      17.845   6.308 -17.746  1.00  0.00     0.053 C 
BRANCH   7   8
ATOM      8  C   UNL     1      18.497   4.972 -17.574  1.00  0.00     0.041 C 
ATOM      9  O   UNL     1      19.751   4.881 -17.515  1.00  0.00    -0.550 OA
ATOM     10  O   UNL     1      17.719   3.821 -17.532  1.00  0.00    -0.550 OA
ENDBRANCH   7   8
ENDBRANCH   6   7
ENDBRANCH   5   6
ENDBRANCH   4   5
ENDBRANCH   3   4
ENDBRANCH   2   3
ENDBRANCH   1   2
BRANCH   1  11
ATOM     11  C   UNL     1      19.481  12.964 -15.654  1.00  0.00     0.000 C 
BRANCH  11  12
ATOM     12  C   UNL     1      19.879  14.409 -15.307  1.00  0.00    -0.000 C 
BRANCH  12  13
ATOM     13  C   UNL     1      20.394  15.180 -16.535  1.00  0.00    -0.000 C 
BRANCH  13  14
ATOM     14  C   UNL     1      21.924  15.325 -16.540  1.00  0.00    -0.000 C 
BRANCH  14  15
ATOM     15  C   UNL     1      22.576  14.690 -17.782  1.00  0.00    -0.000 C 
BRANCH  15  16
ATOM     16  C   UNL     1      22.846  13.185 -17.611  1.00  0.00    -0.000 C 
BRANCH  16  17
ATOM     17  C   UNL     1      21.884  12.267 -18.386  1.00  0.00    -0.003 C 
ATOM     18  C   UNL     1      21.174  12.981 -19.537  1.00  0.00     0.004 C 
ENDBRANCH  16  17
ENDBRANCH  15  16
ENDBRANCH  14  15
ENDBRANCH  13  14
ENDBRANCH  12  13
ENDBRANCH  11  12
ENDBRANCH   1  11
TORSDOF 14
ENDMDL
MODEL 6
REMARK VINA RESULT:    -3.632      3.033      6.755
REMARK INTER + INTRA:          -8.708
REMARK INTER:                  -6.839
REMARK INTRA:                  -1.869
REMARK UNBOUND:                -2.104
REMARK SMILES CCCCCCCCCCCCCCCC(=O)[O-]
REMARK SMILES IDX 9 1 10 2 11 3 12 4 13 5 14 6 15 7 16 8 17 9 18 10 8 11 7 12
REMARK SMILES IDX 6 13 5 14 4 15 3 16 2 17 1 18
REMARK H PARENT
REMARK Flexibility Score: inf
ROOT
ATOM      1  C   UNL     1      19.427  12.031 -16.053  1.00  0.00     0.000 C 
ENDROOT
BRANCH   1   2
ATOM      2  C   UNL     1      19.954  13.457 -16.316  1.00  0.00     0.000 C 
BRANCH   2   3
ATOM      3  C   UNL     1      21.416  13.492 -16.792  1.00  0.00     0.000 C 
BRANCH   3   4
ATOM      4  C   UNL     1      22.062  14.877 -16.632  1.00  0.00     0.000 C 
BRANCH   4   5
ATOM      5  C   UNL     1      21.038  15.973 -16.294  1.00  0.00     0.000 C 
BRANCH   5   6
ATOM      6  C   UNL     1      20.842  16.972 -17.443  1.00  0.00     0.006 C 
BRANCH   6   7
ATOM      7  C   UNL     1      19.639  16.585 -18.306  1.00  0.00     0.053 C 
BRANCH   7   8
ATOM      8  C   UNL     1      20.085  15.841 -19.525  1.00  0.00     0.041 C 
ATOM      9  O   UNL     1      19.423  14.855 -19.943  1.00  0.00    -0.550 OA
ATOM     10  O   UNL     1      21.262  16.204 -20.169  1.00  0.00    -0.550 OA
ENDBRANCH   7   8
ENDBRANCH   6   7
ENDBRANCH   5   6
ENDBRANCH   4   5
ENDBRANCH   3   4
ENDBRANCH   2   3
ENDBRANCH   1   2
BRANCH   1  11
ATOM     11  C   UNL     1      17.968  11.859 -16.511  1.00  0.00     0.000 C 
BRANCH  11  12
ATOM     12  C   UNL     1      17.723  12.427 -17.919  1.00  0.00    -0.000 C 
BRANCH  12  13
ATOM     13  C   UNL     1      17.705  11.327 -18.995  1.00  0.00    -0.000 C 
BRANCH  13  14
ATOM     14  C   UNL     1      19.103  11.039 -19.566  1.00  0.00    -0.000 C 
BRANCH  14  15
ATOM     15  C   UNL     1      19.707   9.730 -19.025  1.00  0.00    -0.000 C 
BRANCH  15  16
ATOM     16  C   UNL     1      18.647   8.642 -18.777  1.00  0.00    -0.000 C 
BRANCH  16  17
ATOM     17  C   UNL     1      18.960   7.695 -17.605  1.00  0.00    -0.003 C 
ATOM     18  C   UNL     1      19.560   8.415 -16.398  1.00  0.00     0.004 C 
ENDBRANCH  16  17
ENDBRANCH  15  16
ENDBRANCH  14  15
ENDBRANCH  13  14
ENDBRANCH  12  13
ENDBRANCH  11  12
ENDBRANCH   1  11
TORSDOF 14
ENDMDL
MODEL 7
REMARK VINA RESULT:    -3.616      1.362      3.648
REMARK INTER + INTRA:          -8.678
REMARK INTER:                  -6.311
REMARK INTRA:                  -2.367
REMARK UNBOUND:                -2.104
REMARK SMILES CCCCCCCCCCCCCCCC(=O)[O-]
REMARK SMILES IDX 9 1 10 2 11 3 12 4 13 5 14 6 15 7 16 8 17 9 18 10 8 11 7 12
REMARK SMILES IDX 6 13 5 14 4 15 3 16 2 17 1 18
REMARK H PARENT
REMARK Flexibility Score: inf
ROOT
ATOM      1  C   UNL     1      20.790  16.505 -16.753  1.00  0.00     0.000 C 
ENDROOT
BRANCH   1   2
ATOM      2  C   UNL     1      21.815  15.381 -16.499  1.00  0.00     0.000 C 
BRANCH   2   3
ATOM      3  C   UNL     1      21.170  14.003 -16.271  1.00  0.00     0.000 C 
BRANCH   3   4
ATOM      4  C   UNL     1      19.739  14.099 -15.718  1.00  0.00     0.000 C 
BRANCH   4   5
ATOM      5  C   UNL     1      19.052  12.728 -15.612  1.00  0.00     0.000 C 
BRANCH   5   6
ATOM      6  C   UNL     1      19.811  11.628 -16.368  1.00  0.00     0.006 C 
BRANCH   6   7
ATOM      7  C   UNL     1      18.871  10.487 -16.764  1.00  0.00     0.053 C 
BRANCH   7   8
ATOM      8  C   UNL     1      19.654   9.292 -17.209  1.00  0.00     0.041 C 
ATOM      9  O   UNL     1      20.057   9.205 -18.398  1.00  0.00    -0.550 OA
ATOM     10  O   UNL     1      19.892   8.248 -16.323  1.00  0.00    -0.550 OA
ENDBRANCH   7   8
ENDBRANCH   6   7
ENDBRANCH   5   6
ENDBRANCH   4   5
ENDBRANCH   3   4
ENDBRANCH   2   3
ENDBRANCH   1   2
BRANCH   1  11
ATOM     11  C   UNL     1      21.040  17.225 -18.091  1.00  0.00     0.000 C 
BRANCH  11  12
ATOM     12  C   UNL     1      22.460  16.986 -18.630  1.00  0.00    -0.000 C 
BRANCH  12  13
ATOM     13  C   UNL     1      22.451  16.425 -20.063  1.00  0.00    -0.000 C 
BRANCH  13  14
ATOM     14  C   UNL     1      21.234  15.528 -20.337  1.00  0.00    -0.000 C 
BRANCH  14  15
ATOM     15  C   UNL     1      21.594  14.031 -20.362  1.00  0.00    -0.000 C 
BRANCH  15  16
ATOM     16  C   UNL     1      20.513  13.147 -19.715  1.00  0.00    -0.000 C 
BRANCH  16  17
ATOM     17  C   UNL     1      19.163  13.848 -19.483  1.00  0.00    -0.003 C 
ATOM     18  C   UNL     1      17.997  12.869 -19.346  1.00  0.00     0.004 C 
ENDBRANCH  16  17
ENDBRANCH  15  16
ENDBRANCH  14  15
ENDBRANCH  13  14
ENDBRANCH  12  13
ENDBRANCH  11  12
ENDBRANCH   1  11
TORSDOF 14
ENDMDL
MODEL 8
REMARK VINA RESULT:    -3.577      3.379      6.370
REMARK INTER + INTRA:          -8.608
REMARK INTER:                  -6.143
REMARK INTRA:                  -2.465
REMARK UNBOUND:                -2.104
REMARK SMILES CCCCCCCCCCCCCCCC(=O)[O-]
REMARK SMILES IDX 9 1 10 2 11 3 12 4 13 5 14 6 15 7 16 8 17 9 18 10 8 11 7 12
REMARK SMILES IDX 6 13 5 14 4 15 3 16 2 17 1 18
REMARK H PARENT
REMARK Flexibility Score: inf
ROOT
ATOM      1  C   UNL     1      22.542  13.080 -19.630  1.00  0.00     0.000 C 
ENDROOT
BRANCH   1   2
ATOM      2  C   UNL     1      22.899  13.626 -18.232  1.00  0.00     0.000 C 
BRANCH   2   3
ATOM      3  C   UNL     1      22.073  12.995 -17.098  1.00  0.00     0.000 C 
BRANCH   3   4
ATOM      4  C   UNL     1      21.326  14.039 -16.253  1.00  0.00     0.000 C 
BRANCH   4   5
ATOM      5  C   UNL     1      21.821  15.472 -16.509  1.00  0.00     0.000 C 
BRANCH   5   6
ATOM      6  C   UNL     1      20.701  16.405 -16.992  1.00  0.00     0.006 C 
BRANCH   6   7
ATOM      7  C   UNL     1      21.212  17.361 -18.072  1.00  0.00     0.053 C 
BRANCH   7   8
ATOM      8  C   UNL     1      20.697  16.959 -19.418  1.00  0.00     0.041 C 
ATOM      9  O   UNL     1      19.476  17.088 -19.694  1.00  0.00    -0.550 OA
ATOM     10  O   UNL     1      21.557  16.389 -20.349  1.00  0.00    -0.550 OA
ENDBRANCH   7   8
ENDBRANCH   6   7
ENDBRANCH   5   6
ENDBRANCH   4   5
ENDBRANCH   3   4
ENDBRANCH   2   3
ENDBRANCH   1   2
BRANCH   1  11
ATOM     11  C   UNL     1      21.194  12.336 -19.634  1.00  0.00     0.000 C 
BRANCH  11  12
ATOM     12  C   UNL     1      20.058  13.183 -20.231  1.00  0.00    -0.000 C 
BRANCH  12  13
ATOM     13  C   UNL     1      19.042  13.630 -19.165  1.00  0.00    -0.000 C 
BRANCH  13  14
ATOM     14  C   UNL     1      18.184  12.466 -18.644  1.00  0.00    -0.000 C 
BRANCH  14  15
ATOM     15  C   UNL     1      18.019  12.488 -17.114  1.00  0.00    -0.000 C 
BRANCH  15  16
ATOM     16  C   UNL     1      18.831  11.386 -16.410  1.00  0.00    -0.000 C 
BRANCH  16  17
ATOM     17  C   UNL     1      19.204  10.191 -17.305  1.00  0.00    -0.003 C 
ATOM     18  C   UNL     1      19.492   8.917 -16.512  1.00  0.00     0.004 C 
ENDBRANCH  16  17
ENDBRANCH  15  16
ENDBRANCH  14  15
ENDBRANCH  13  14
ENDBRANCH  12  13
ENDBRANCH  11  12
ENDBRANCH   1  11
TORSDOF 14
ENDMDL
MODEL 9
REMARK VINA RESULT:    -3.568      1.180      3.036
REMARK INTER + INTRA:          -8.591
REMARK INTER:                  -6.658
REMARK INTRA:                  -1.934
REMARK UNBOUND:                -2.104
REMARK SMILES CCCCCCCCCCCCCCCC(=O)[O-]
REMARK SMILES IDX 9 1 10 2 11 3 12 4 13 5 14 6 15 7 16 8 17 9 18 10 8 11 7 12
REMARK SMILES IDX 6 13 5 14 4 15 3 16 2 17 1 18
REMARK H PARENT
REMARK Flexibility Score: inf
ROOT
ATOM      1  C   UNL     1      20.883  13.601 -16.333  1.00  0.00     0.000 C 
ENDROOT
BRANCH   1   2
ATOM      2  C   UNL     1      19.356  13.779 -16.460  1.00  0.00     0.000 C 
BRANCH   2   3
ATOM      3  C   UNL     1      18.683  12.702 -17.328  1.00  0.00     0.000 C 
BRANCH   3   4
ATOM      4  C   UNL     1      18.463  11.381 -16.576  1.00  0.00     0.000 C 
BRANCH   4   5
ATOM      5  C   UNL     1      19.475  10.295 -16.976  1.00  0.00     0.000 C 
BRANCH   5   6
ATOM      6  C   UNL     1      19.154   8.930 -16.351  1.00  0.00     0.006 C 
BRANCH   6   7
ATOM      7  C   UNL     1      20.061   7.838 -16.924  1.00  0.00     0.053 C 
BRANCH   7   8
ATOM      8  C   UNL     1      19.243   6.719 -17.488  1.00  0.00     0.041 C 
ATOM      9  O   UNL     1      18.283   6.964 -18.264  1.00  0.00    -0.550 OA
ATOM     10  O   UNL     1      19.509   5.407 -17.114  1.00  0.00    -0.550 OA
ENDBRANCH   7   8
ENDBRANCH   6   7
ENDBRANCH   5   6
ENDBRANCH   4   5
ENDBRANCH   3   4
ENDBRANCH   2   3
ENDBRANCH   1   2
BRANCH   1  11
ATOM     11  C   UNL     1      21.634  14.938 -16.462  1.00  0.00     0.000 C 
BRANCH  11  12
ATOM     12  C   UNL     1      20.682  16.144 -16.516  1.00  0.00    -0.000 C 
BRANCH  12  13
ATOM     13  C   UNL     1      21.121  17.187 -17.559  1.00  0.00    -0.000 C 
BRANCH  13  14
ATOM     14  C   UNL     1      21.204  16.602 -18.978  1.00  0.00    -0.000 C 
BRANCH  14  15
ATOM     15  C   UNL     1      19.851  16.061 -19.476  1.00  0.00    -0.000 C 
BRANCH  15  16
ATOM     16  C   UNL     1      19.980  14.712 -20.206  1.00  0.00    -0.000 C 
BRANCH  16  17
ATOM     17  C   UNL     1      21.391  14.099 -20.180  1.00  0.00    -0.003 C 
ATOM     18  C   UNL     1      21.392  12.615 -19.817  1.00  0.00     0.004 C 
ENDBRANCH  16  17
ENDBRANCH  15  16
ENDBRANCH  14  15
ENDBRANCH  13  14
ENDBRANCH  12  13
ENDBRANCH  11  12
ENDBRANCH   1  11
TORSDOF 14
ENDMDL
