MODEL 1
REMARK VINA RESULT:    -2.908      0.000      0.000
REMARK INTER + INTRA:          -3.636
REMARK INTER:                  -3.503
REMARK INTRA:                  -0.133
REMARK UNBOUND:                -0.133
REMARK SMILES O=c1c(O)c(-c2ccc(O)c(O)c2)oc2cc(O)cc(O)c12
REMARK SMILES IDX 5 1 3 2 2 3 1 4 22 5 20 6 19 7 17 8 16 9 15 10 14 11 6 12
REMARK SMILES IDX 7 13 8 14 9 15 13 16 11 17 10 18 12 20 4 22 21 24 18 26
REMARK H PARENT 10 19 12 21 4 23 21 25 18 27
REMARK Flexibility Score: inf
ROOT
ATOM      1  C   UNL     1      30.811  23.380  36.408  1.00  0.00     0.180 A 
ATOM      2  C   UNL     1      31.509  23.000  35.249  1.00  0.00     0.208 A 
ATOM      3  C   UNL     1      31.545  21.643  34.891  1.00  0.00     0.238 A 
ATOM      4  O   UNL     1      32.125  21.315  33.823  1.00  0.00    -0.285 OA
ATOM      5  C   UNL     1      30.895  20.682  35.703  1.00  0.00     0.111 A 
ATOM      6  C   UNL     1      30.900  19.276  35.458  1.00  0.00     0.134 A 
ATOM      7  C   UNL     1      30.115  18.433  36.254  1.00  0.00     0.093 A 
ATOM      8  C   UNL     1      29.378  18.938  37.327  1.00  0.00     0.123 A 
ATOM      9  C   UNL     1      29.414  20.301  37.612  1.00  0.00     0.094 A 
ATOM     10  C   UNL     1      30.159  21.172  36.813  1.00  0.00     0.146 A 
ATOM     11  O   UNL     1      30.158  22.466  37.113  1.00  0.00    -0.452 OA
ENDROOT
BRANCH   1  12
ATOM     12  C   UNL     1      30.750  24.788  36.864  1.00  0.00     0.025 A 
ATOM     13  C   UNL     1      31.938  25.457  37.199  1.00  0.00     0.016 A 
ATOM     14  C   UNL     1      31.906  26.792  37.611  1.00  0.00     0.051 A 
ATOM     15  C   UNL     1      30.689  27.482  37.680  1.00  0.00     0.157 A 
ATOM     16  C   UNL     1      29.532  25.490  36.916  1.00  0.00     0.062 A 
ATOM     17  C   UNL     1      29.497  26.828  37.326  1.00  0.00     0.158 A 
BRANCH  15  18
ATOM     18  O   UNL     1      30.659  28.813  38.094  1.00  0.00    -0.504 OA
ATOM     19  H   UNL     1      30.104  29.109  38.888  1.00  0.00     0.293 HD
ENDBRANCH  15  18
BRANCH  17  20
ATOM     20  O   UNL     1      28.271  27.490  37.370  1.00  0.00    -0.504 OA
ATOM     21  H   UNL     1      28.203  28.484  37.555  1.00  0.00     0.293 HD
ENDBRANCH  17  20
ENDBRANCH   1  12
BRANCH   2  22
ATOM     22  O   UNL     1      32.125  23.967  34.449  1.00  0.00    -0.502 OA
ATOM     23  H   UNL     1      31.616  24.748  34.051  1.00  0.00     0.293 HD
ENDBRANCH   2  22
BRANCH   6  24
ATOM     24  O   UNL     1      31.673  18.659  34.469  1.00  0.00    -0.507 OA
ATOM     25  H   UNL     1      31.321  17.994  33.797  1.00  0.00     0.293 HD
ENDBRANCH   6  24
BRANCH   8  26
ATOM     26  O   UNL     1      28.612  18.090  38.125  1.00  0.00    -0.508 OA
ATOM     27  H   UNL     1      27.997  18.451  38.844  1.00  0.00     0.293 HD
ENDBRANCH   8  26
TORSDOF 6
ENDMDL
MODEL 2
REMARK VINA RESULT:    -2.372      2.550      7.342
REMARK INTER + INTRA:          -2.991
REMARK INTER:                  -3.386
REMARK INTRA:                   0.395
REMARK UNBOUND:                -0.133
REMARK SMILES O=c1c(O)c(-c2ccc(O)c(O)c2)oc2cc(O)cc(O)c12
REMARK SMILES IDX 5 1 3 2 2 3 1 4 22 5 20 6 19 7 17 8 16 9 15 10 14 11 6 12
REMARK SMILES IDX 7 13 8 14 9 15 13 16 11 17 10 18 12 20 4 22 21 24 18 26
REMARK H PARENT 10 19 12 21 4 23 21 25 18 27
REMARK Flexibility Score: inf
ROOT
ATOM      1  C   UNL     1      31.718  24.007  35.730  1.00  0.00     0.180 A 
ATOM      2  C   UNL     1      31.917  24.767  36.896  1.00  0.00     0.208 A 
ATOM      3  C   UNL     1      31.867  26.168  36.812  1.00  0.00     0.238 A 
ATOM      4  O   UNL     1      31.992  26.841  37.868  1.00  0.00    -0.285 OA
ATOM      5  C   UNL     1      31.633  26.791  35.563  1.00  0.00     0.111 A 
ATOM      6  C   UNL     1      31.602  28.202  35.354  1.00  0.00     0.134 A 
ATOM      7  C   UNL     1      31.232  28.707  34.101  1.00  0.00     0.093 A 
ATOM      8  C   UNL     1      30.959  27.851  33.032  1.00  0.00     0.123 A 
ATOM      9  C   UNL     1      31.046  26.472  33.210  1.00  0.00     0.094 A 
ATOM     10  C   UNL     1      31.375  25.938  34.457  1.00  0.00     0.146 A 
ATOM     11  O   UNL     1      31.437  24.618  34.587  1.00  0.00    -0.452 OA
ENDROOT
BRANCH   1  12
ATOM     12  C   UNL     1      31.782  22.527  35.735  1.00  0.00     0.025 A 
ATOM     13  C   UNL     1      32.039  21.844  34.536  1.00  0.00     0.016 A 
ATOM     14  C   UNL     1      32.125  20.449  34.520  1.00  0.00     0.051 A 
ATOM     15  C   UNL     1      31.970  19.718  35.706  1.00  0.00     0.157 A 
ATOM     16  C   UNL     1      31.646  21.791  36.926  1.00  0.00     0.062 A 
ATOM     17  C   UNL     1      31.733  20.395  36.915  1.00  0.00     0.158 A 
BRANCH  15  18
ATOM     18  O   UNL     1      32.053  18.327  35.688  1.00  0.00    -0.504 OA
ATOM     19  H   UNL     1      31.808  17.792  34.863  1.00  0.00     0.293 HD
ENDBRANCH  15  18
BRANCH  17  20
ATOM     20  O   UNL     1      31.589  19.698  38.114  1.00  0.00    -0.504 OA
ATOM     21  H   UNL     1      31.820  18.715  38.195  1.00  0.00     0.293 HD
ENDBRANCH  17  20
ENDBRANCH   1  12
BRANCH   2  22
ATOM     22  O   UNL     1      32.125  24.131  38.124  1.00  0.00    -0.502 OA
ATOM     23  H   UNL     1      31.689  23.248  38.359  1.00  0.00     0.293 HD
ENDBRANCH   2  22
BRANCH   6  24
ATOM     24  O   UNL     1      31.947  29.143  36.329  1.00  0.00    -0.507 OA
ATOM     25  H   UNL     1      31.536  29.194  37.249  1.00  0.00     0.293 HD
ENDBRANCH   6  24
BRANCH   8  26
ATOM     26  O   UNL     1      30.608  28.363  31.784  1.00  0.00    -0.508 OA
ATOM     27  H   UNL     1      30.020  29.183  31.694  1.00  0.00     0.293 HD
ENDBRANCH   8  26
TORSDOF 6
ENDMDL
MODEL 3
REMARK VINA RESULT:    -1.084      5.163      8.146
REMARK INTER + INTRA:          -1.439
REMARK INTER:                  -1.155
REMARK INTRA:                  -0.284
REMARK UNBOUND:                -0.133
REMARK SMILES O=c1c(O)c(-c2ccc(O)c(O)c2)oc2cc(O)cc(O)c12
REMARK SMILES IDX 5 1 3 2 2 3 1 4 22 5 20 6 19 7 17 8 16 9 15 10 14 11 6 12
REMARK SMILES IDX 7 13 8 14 9 15 13 16 11 17 10 18 12 20 4 22 21 24 18 26
REMARK H PARENT 10 19 12 21 4 23 21 25 18 27
REMARK Flexibility Score: inf
ROOT
ATOM      1  C   UNL     1      25.954  19.899  36.230  1.00  0.00     0.180 A 
ATOM      2  C   UNL     1      25.328  18.974  37.084  1.00  0.00     0.208 A 
ATOM      3  C   UNL     1      23.972  19.153  37.404  1.00  0.00     0.238 A 
ATOM      4  O   UNL     1      23.403  18.292  38.125  1.00  0.00    -0.285 OA
ATOM      5  C   UNL     1      23.264  20.260  36.879  1.00  0.00     0.111 A 
ATOM      6  C   UNL     1      21.900  20.561  37.168  1.00  0.00     0.134 A 
ATOM      7  C   UNL     1      21.264  21.608  36.490  1.00  0.00     0.093 A 
ATOM      8  C   UNL     1      21.963  22.407  35.582  1.00  0.00     0.123 A 
ATOM      9  C   UNL     1      23.312  22.159  35.337  1.00  0.00     0.094 A 
ATOM     10  C   UNL     1      23.963  21.098  35.971  1.00  0.00     0.146 A 
ATOM     11  O   UNL     1      25.246  20.890  35.702  1.00  0.00    -0.452 OA
ENDROOT
BRANCH   1  12
ATOM     12  C   UNL     1      27.386  19.792  35.867  1.00  0.00     0.025 A 
ATOM     13  C   UNL     1      27.741  19.376  34.575  1.00  0.00     0.016 A 
ATOM     14  C   UNL     1      29.086  19.288  34.205  1.00  0.00     0.051 A 
ATOM     15  C   UNL     1      30.094  19.629  35.116  1.00  0.00     0.157 A 
ATOM     16  C   UNL     1      28.400  20.153  36.773  1.00  0.00     0.062 A 
ATOM     17  C   UNL     1      29.748  20.068  36.405  1.00  0.00     0.158 A 
BRANCH  15  18
ATOM     18  O   UNL     1      31.435  19.539  34.745  1.00  0.00    -0.504 OA
ATOM     19  H   UNL     1      32.085  18.947  35.249  1.00  0.00     0.293 HD
ENDBRANCH  15  18
BRANCH  17  20
ATOM     20  O   UNL     1      30.726  20.430  37.330  1.00  0.00    -0.504 OA
ATOM     21  H   UNL     1      30.565  20.383  38.329  1.00  0.00     0.293 HD
ENDBRANCH  17  20
ENDBRANCH   1  12
BRANCH   2  22
ATOM     22  O   UNL     1      26.039  17.875  37.574  1.00  0.00    -0.502 OA
ATOM     23  H   UNL     1      26.586  17.269  36.973  1.00  0.00     0.293 HD
ENDBRANCH   2  22
BRANCH   6  24
ATOM     24  O   UNL     1      21.137  19.884  38.125  1.00  0.00    -0.507 OA
ATOM     25  H   UNL     1      21.328  19.883  39.116  1.00  0.00     0.293 HD
ENDBRANCH   6  24
BRANCH   8  26
ATOM     26  O   UNL     1      21.327  23.457  34.923  1.00  0.00    -0.508 OA
ATOM     27  H   UNL     1      21.572  23.713  33.973  1.00  0.00     0.293 HD
ENDBRANCH   8  26
TORSDOF 6
ENDMDL
MODEL 4
REMARK VINA RESULT:    -0.261      1.615      2.262
REMARK INTER + INTRA:          -0.448
REMARK INTER:                  -0.840
REMARK INTRA:                   0.392
REMARK UNBOUND:                -0.133
REMARK SMILES O=c1c(O)c(-c2ccc(O)c(O)c2)oc2cc(O)cc(O)c12
REMARK SMILES IDX 5 1 3 2 2 3 1 4 22 5 20 6 19 7 17 8 16 9 15 10 14 11 6 12
REMARK SMILES IDX 7 13 8 14 9 15 13 16 11 17 10 18 12 20 4 22 21 24 18 26
REMARK H PARENT 10 19 12 21 4 23 21 25 18 27
REMARK Flexibility Score: inf
ROOT
ATOM      1  C   UNL     1      31.155  25.009  35.766  1.00  0.00     0.180 A 
ATOM      2  C   UNL     1      31.592  24.660  34.475  1.00  0.00     0.208 A 
ATOM      3  C   UNL     1      31.715  23.301  34.143  1.00  0.00     0.238 A 
ATOM      4  O   UNL     1      32.054  22.995  32.970  1.00  0.00    -0.285 OA
ATOM      5  C   UNL     1      31.416  22.309  35.107  1.00  0.00     0.111 A 
ATOM      6  C   UNL     1      31.544  20.905  34.893  1.00  0.00     0.134 A 
ATOM      7  C   UNL     1      31.095  20.012  35.874  1.00  0.00     0.093 A 
ATOM      8  C   UNL     1      30.584  20.474  37.088  1.00  0.00     0.123 A 
ATOM      9  C   UNL     1      30.511  21.844  37.332  1.00  0.00     0.094 A 
ATOM     10  C   UNL     1      30.916  22.760  36.358  1.00  0.00     0.146 A 
ATOM     11  O   UNL     1      30.820  24.056  36.626  1.00  0.00    -0.452 OA
ENDROOT
BRANCH   1  12
ATOM     12  C   UNL     1      31.025  26.419  36.199  1.00  0.00     0.025 A 
ATOM     13  C   UNL     1      30.331  26.717  37.382  1.00  0.00     0.016 A 
ATOM     14  C   UNL     1      30.214  28.038  37.820  1.00  0.00     0.051 A 
ATOM     15  C   UNL     1      30.801  29.080  37.090  1.00  0.00     0.157 A 
ATOM     16  C   UNL     1      31.630  27.465  35.479  1.00  0.00     0.062 A 
ATOM     17  C   UNL     1      31.517  28.790  35.916  1.00  0.00     0.158 A 
BRANCH  15  18
ATOM     18  O   UNL     1      30.681  30.398  37.528  1.00  0.00    -0.504 OA
ATOM     19  H   UNL     1      30.306  31.123  36.929  1.00  0.00     0.293 HD
ENDBRANCH  15  18
BRANCH  17  20
ATOM     20  O   UNL     1      32.125  29.802  35.175  1.00  0.00    -0.504 OA
ATOM     21  H   UNL     1      31.705  30.180  34.334  1.00  0.00     0.293 HD
ENDBRANCH  17  20
ENDBRANCH   1  12
BRANCH   2  22
ATOM     22  O   UNL     1      31.861  25.655  33.531  1.00  0.00    -0.502 OA
ATOM     23  H   UNL     1      31.694  25.523  32.540  1.00  0.00     0.293 HD
ENDBRANCH   2  22
BRANCH   6  24
ATOM     24  O   UNL     1      32.125  20.339  33.754  1.00  0.00    -0.507 OA
ATOM     25  H   UNL     1      33.108  20.382  33.528  1.00  0.00     0.293 HD
ENDBRANCH   6  24
BRANCH   8  26
ATOM     26  O   UNL     1      30.155  19.579  38.066  1.00  0.00    -0.508 OA
ATOM     27  H   UNL     1      30.151  18.578  37.903  1.00  0.00     0.293 HD
ENDBRANCH   8  26
TORSDOF 6
ENDMDL
MODEL 5
REMARK VINA RESULT:    -0.114      5.310      8.386
REMARK INTER + INTRA:          -0.270
REMARK INTER:                  -0.047
REMARK INTRA:                  -0.223
REMARK UNBOUND:                -0.133
REMARK SMILES O=c1c(O)c(-c2ccc(O)c(O)c2)oc2cc(O)cc(O)c12
REMARK SMILES IDX 5 1 3 2 2 3 1 4 22 5 20 6 19 7 17 8 16 9 15 10 14 11 6 12
REMARK SMILES IDX 7 13 8 14 9 15 13 16 11 17 10 18 12 20 4 22 21 24 18 26
REMARK H PARENT 10 19 12 21 4 23 21 25 18 27
REMARK Flexibility Score: inf
ROOT
ATOM      1  C   UNL     1      25.718  19.944  36.501  1.00  0.00     0.180 A 
ATOM      2  C   UNL     1      24.984  19.022  37.267  1.00  0.00     0.208 A 
ATOM      3  C   UNL     1      23.616  19.254  37.483  1.00  0.00     0.238 A 
ATOM      4  O   UNL     1      22.952  18.397  38.123  1.00  0.00    -0.285 OA
ATOM      5  C   UNL     1      23.003  20.410  36.944  1.00  0.00     0.111 A 
ATOM      6  C   UNL     1      21.634  20.766  37.133  1.00  0.00     0.134 A 
ATOM      7  C   UNL     1      21.104  21.864  36.445  1.00  0.00     0.093 A 
ATOM      8  C   UNL     1      21.909  22.658  35.627  1.00  0.00     0.123 A 
ATOM      9  C   UNL     1      23.261  22.355  35.483  1.00  0.00     0.094 A 
ATOM     10  C   UNL     1      23.811  21.244  36.127  1.00  0.00     0.146 A 
ATOM     11  O   UNL     1      25.101  20.984  35.954  1.00  0.00    -0.452 OA
ENDROOT
BRANCH   1  12
ATOM     12  C   UNL     1      27.169  19.782  36.251  1.00  0.00     0.025 A 
ATOM     13  C   UNL     1      28.075  19.954  37.309  1.00  0.00     0.016 A 
ATOM     14  C   UNL     1      29.446  19.784  37.101  1.00  0.00     0.051 A 
ATOM     15  C   UNL     1      29.931  19.426  35.836  1.00  0.00     0.157 A 
ATOM     16  C   UNL     1      27.657  19.404  34.987  1.00  0.00     0.062 A 
ATOM     17  C   UNL     1      29.030  19.231  34.775  1.00  0.00     0.158 A 
BRANCH  15  18
ATOM     18  O   UNL     1      31.299  19.261  35.630  1.00  0.00    -0.504 OA
ATOM     19  H   UNL     1      31.855  18.657  36.224  1.00  0.00     0.293 HD
ENDBRANCH  15  18
BRANCH  17  20
ATOM     20  O   UNL     1      29.478  18.861  33.508  1.00  0.00    -0.504 OA
ATOM     21  H   UNL     1      30.215  19.365  33.030  1.00  0.00     0.293 HD
ENDBRANCH  17  20
ENDBRANCH   1  12
BRANCH   2  22
ATOM     22  O   UNL     1      25.603  17.875  37.771  1.00  0.00    -0.502 OA
ATOM     23  H   UNL     1      25.274  16.941  37.559  1.00  0.00     0.293 HD
ENDBRANCH   2  22
BRANCH   6  24
ATOM     24  O   UNL     1      20.766  20.094  38.000  1.00  0.00    -0.507 OA
ATOM     25  H   UNL     1      21.016  19.287  38.551  1.00  0.00     0.293 HD
ENDBRANCH   6  24
BRANCH   8  26
ATOM     26  O   UNL     1      21.377  23.759  34.959  1.00  0.00    -0.508 OA
ATOM     27  H   UNL     1      20.996  24.551  35.462  1.00  0.00     0.293 HD
ENDBRANCH   8  26
TORSDOF 6
ENDMDL
