MODEL 1
REMARK VINA RESULT:    -5.023      0.000      0.000
REMARK INTER + INTRA:         -13.979
REMARK INTER:                 -10.895
REMARK INTRA:                  -3.083
REMARK UNBOUND:                -3.083
REMARK SMILES CCCCCCCCCCCCCCCCCCCCCC(=O)[O-]
REMARK SMILES IDX 12 1 11 2 10 3 9 4 8 5 7 6 6 7 5 8 4 9 3 10 2 11 1 12 13 13
REMARK SMILES IDX 14 14 15 15 16 16 17 17 18 18 19 19 20 20 21 21 22 22 23 23
REMARK SMILES IDX 24 24
REMARK H PARENT
REMARK Flexibility Score: inf
ROOT
ATOM      1  C   UNL     1       7.613 -13.633  -2.374  1.00  0.00     0.000 C 
ENDROOT
BRANCH   1   2
ATOM      2  C   UNL     1       7.489 -12.941  -1.010  1.00  0.00     0.000 C 
BRANCH   2   3
ATOM      3  C   UNL     1       8.875 -12.621  -0.429  1.00  0.00     0.000 C 
BRANCH   3   4
ATOM      4  C   UNL     1       9.071 -11.118  -0.162  1.00  0.00    -0.000 C 
BRANCH   4   5
ATOM      5  C   UNL     1       7.845 -10.471   0.503  1.00  0.00    -0.000 C 
BRANCH   5   6
ATOM      6  C   UNL     1       7.482  -9.112  -0.133  1.00  0.00    -0.000 C 
BRANCH   6   7
ATOM      7  C   UNL     1       6.041  -9.049  -0.670  1.00  0.00    -0.000 C 
BRANCH   7   8
ATOM      8  C   UNL     1       5.876  -9.772  -2.011  1.00  0.00    -0.000 C 
BRANCH   8   9
ATOM      9  C   UNL     1       4.512 -10.476  -2.094  1.00  0.00    -0.000 C 
BRANCH   9  10
ATOM     10  C   UNL     1       4.332 -11.531  -0.982  1.00  0.00    -0.000 C 
BRANCH  10  11
ATOM     11  C   UNL     1       3.337 -12.643  -1.350  1.00  0.00    -0.003 C 
ATOM     12  C   UNL     1       3.978 -14.028  -1.408  1.00  0.00     0.004 C 
ENDBRANCH  10  11
ENDBRANCH   9  10
ENDBRANCH   8   9
ENDBRANCH   7   8
ENDBRANCH   6   7
ENDBRANCH   5   6
ENDBRANCH   4   5
ENDBRANCH   3   4
ENDBRANCH   2   3
ENDBRANCH   1   2
BRANCH   1  13
ATOM     13  C   UNL     1       7.254 -12.705  -3.551  1.00  0.00     0.000 C 
BRANCH  13  14
ATOM     14  C   UNL     1       6.332 -13.329  -4.618  1.00  0.00     0.000 C 
BRANCH  14  15
ATOM     15  C   UNL     1       5.191 -12.423  -5.123  1.00  0.00     0.000 C 
BRANCH  15  16
ATOM     16  C   UNL     1       3.785 -13.040  -4.971  1.00  0.00     0.000 C 
BRANCH  16  17
ATOM     17  C   UNL     1       2.673 -12.090  -5.438  1.00  0.00     0.000 C 
BRANCH  17  18
ATOM     18  C   UNL     1       3.194 -11.095  -6.483  1.00  0.00     0.000 C 
BRANCH  18  19
ATOM     19  C   UNL     1       2.059 -10.365  -7.221  1.00  0.00     0.000 C 
BRANCH  19  20
ATOM     20  C   UNL     1       2.555  -9.202  -8.109  1.00  0.00     0.006 C 
BRANCH  20  21
ATOM     21  C   UNL     1       3.108  -8.035  -7.278  1.00  0.00     0.053 C 
BRANCH  21  22
ATOM     22  C   UNL     1       4.516  -7.728  -7.675  1.00  0.00     0.041 C 
ATOM     23  O   UNL     1       5.375  -7.445  -6.799  1.00  0.00    -0.550 OA
ATOM     24  O   UNL     1       4.892  -7.801  -9.009  1.00  0.00    -0.550 OA
ENDBRANCH  21  22
ENDBRANCH  20  21
ENDBRANCH  19  20
ENDBRANCH  18  19
ENDBRANCH  17  18
ENDBRANCH  16  17
ENDBRANCH  15  16
ENDBRANCH  14  15
ENDBRANCH  13  14
ENDBRANCH   1  13
TORSDOF 20
ENDMDL
MODEL 2
REMARK VINA RESULT:    -5.013      2.913      5.195
REMARK INTER + INTRA:         -13.958
REMARK INTER:                 -10.923
REMARK INTRA:                  -3.035
REMARK UNBOUND:                -3.083
REMARK SMILES CCCCCCCCCCCCCCCCCCCCCC(=O)[O-]
REMARK SMILES IDX 12 1 11 2 10 3 9 4 8 5 7 6 6 7 5 8 4 9 3 10 2 11 1 12 13 13
REMARK SMILES IDX 14 14 15 15 16 16 17 17 18 18 19 19 20 20 21 21 22 22 23 23
REMARK SMILES IDX 24 24
REMARK H PARENT
REMARK Flexibility Score: inf
ROOT
ATOM      1  C   UNL     1       3.874 -10.981  -5.009  1.00  0.00     0.000 C 
ENDROOT
BRANCH   1   2
ATOM      2  C   UNL     1       4.558 -12.161  -5.710  1.00  0.00     0.000 C 
BRANCH   2   3
ATOM      3  C   UNL     1       5.040 -13.203  -4.688  1.00  0.00     0.000 C 
BRANCH   3   4
ATOM      4  C   UNL     1       6.567 -13.185  -4.501  1.00  0.00    -0.000 C 
BRANCH   4   5
ATOM      5  C   UNL     1       6.982 -13.208  -3.021  1.00  0.00    -0.000 C 
BRANCH   5   6
ATOM      6  C   UNL     1       5.771 -13.099  -2.070  1.00  0.00    -0.000 C 
BRANCH   6   7
ATOM      7  C   UNL     1       5.718 -11.773  -1.292  1.00  0.00    -0.000 C 
BRANCH   7   8
ATOM      8  C   UNL     1       6.165 -10.573  -2.134  1.00  0.00    -0.000 C 
BRANCH   8   9
ATOM      9  C   UNL     1       7.349  -9.846  -1.475  1.00  0.00    -0.000 C 
BRANCH   9  10
ATOM     10  C   UNL     1       7.564 -10.289  -0.013  1.00  0.00    -0.000 C 
BRANCH  10  11
ATOM     11  C   UNL     1       8.955 -10.891   0.244  1.00  0.00    -0.003 C 
ATOM     12  C   UNL     1       9.022 -12.390  -0.036  1.00  0.00     0.004 C 
ENDBRANCH  10  11
ENDBRANCH   9  10
ENDBRANCH   8   9
ENDBRANCH   7   8
ENDBRANCH   6   7
ENDBRANCH   5   6
ENDBRANCH   4   5
ENDBRANCH   3   4
ENDBRANCH   2   3
ENDBRANCH   1   2
BRANCH   1  13
ATOM     13  C   UNL     1       4.335  -9.613  -5.551  1.00  0.00     0.000 C 
BRANCH  13  14
ATOM     14  C   UNL     1       4.633  -9.577  -7.064  1.00  0.00     0.000 C 
BRANCH  14  15
ATOM     15  C   UNL     1       3.424  -9.281  -7.973  1.00  0.00     0.000 C 
BRANCH  15  16
ATOM     16  C   UNL     1       2.493  -8.171  -7.440  1.00  0.00     0.000 C 
BRANCH  16  17
ATOM     17  C   UNL     1       1.013  -8.576  -7.480  1.00  0.00     0.000 C 
BRANCH  17  18
ATOM     18  C   UNL     1       0.619  -9.367  -6.225  1.00  0.00     0.000 C 
BRANCH  18  19
ATOM     19  C   UNL     1      -0.053 -10.709  -6.560  1.00  0.00     0.000 C 
BRANCH  19  20
ATOM     20  C   UNL     1       0.950 -11.813  -6.962  1.00  0.00     0.006 C 
BRANCH  20  21
ATOM     21  C   UNL     1       0.829 -13.058  -6.071  1.00  0.00     0.053 C 
BRANCH  21  22
ATOM     22  C   UNL     1       0.525 -14.267  -6.895  1.00  0.00     0.041 C 
ATOM     23  O   UNL     1       1.145 -15.344  -6.695  1.00  0.00    -0.550 OA
ATOM     24  O   UNL     1      -0.478 -14.218  -7.854  1.00  0.00    -0.550 OA
ENDBRANCH  21  22
ENDBRANCH  20  21
ENDBRANCH  19  20
ENDBRANCH  18  19
ENDBRANCH  17  18
ENDBRANCH  16  17
ENDBRANCH  15  16
ENDBRANCH  14  15
ENDBRANCH  13  14
ENDBRANCH   1  13
TORSDOF 20
ENDMDL
MODEL 3
REMARK VINA RESULT:    -4.913      1.645      2.509
REMARK INTER + INTRA:         -13.741
REMARK INTER:                 -10.649
REMARK INTRA:                  -3.092
REMARK UNBOUND:                -3.083
REMARK SMILES CCCCCCCCCCCCCCCCCCCCCC(=O)[O-]
REMARK SMILES IDX 12 1 11 2 10 3 9 4 8 5 7 6 6 7 5 8 4 9 3 10 2 11 1 12 13 13
REMARK SMILES IDX 14 14 15 15 16 16 17 17 18 18 19 19 20 20 21 21 22 22 23 23
REMARK SMILES IDX 24 24
REMARK H PARENT
REMARK Flexibility Score: inf
ROOT
ATOM      1  C   UNL     1       5.911 -13.186  -3.500  1.00  0.00     0.000 C 
ENDROOT
BRANCH   1   2
ATOM      2  C   UNL     1       7.430 -13.362  -3.380  1.00  0.00     0.000 C 
BRANCH   2   3
ATOM      3  C   UNL     1       7.811 -13.935  -2.005  1.00  0.00     0.000 C 
BRANCH   3   4
ATOM      4  C   UNL     1       7.648 -12.908  -0.872  1.00  0.00    -0.000 C 
BRANCH   4   5
ATOM      5  C   UNL     1       8.948 -12.143  -0.575  1.00  0.00    -0.000 C 
BRANCH   5   6
ATOM      6  C   UNL     1       8.715 -10.925   0.345  1.00  0.00    -0.000 C 
BRANCH   6   7
ATOM      7  C   UNL     1       7.324 -10.288   0.181  1.00  0.00    -0.000 C 
BRANCH   7   8
ATOM      8  C   UNL     1       7.222  -9.400  -1.064  1.00  0.00    -0.000 C 
BRANCH   8   9
ATOM      9  C   UNL     1       5.972  -9.747  -1.889  1.00  0.00    -0.000 C 
BRANCH   9  10
ATOM     10  C   UNL     1       4.933 -10.540  -1.068  1.00  0.00    -0.000 C 
BRANCH  10  11
ATOM     11  C   UNL     1       3.617 -10.786  -1.822  1.00  0.00    -0.003 C 
ATOM     12  C   UNL     1       3.562 -10.088  -3.179  1.00  0.00     0.004 C 
ENDBRANCH  10  11
ENDBRANCH   9  10
ENDBRANCH   8   9
ENDBRANCH   7   8
ENDBRANCH   6   7
ENDBRANCH   5   6
ENDBRANCH   4   5
ENDBRANCH   3   4
ENDBRANCH   2   3
ENDBRANCH   1   2
BRANCH   1  13
ATOM     13  C   UNL     1       5.472 -12.707  -4.898  1.00  0.00     0.000 C 
BRANCH  13  14
ATOM     14  C   UNL     1       4.190 -13.368  -5.443  1.00  0.00     0.000 C 
BRANCH  14  15
ATOM     15  C   UNL     1       3.115 -13.702  -4.389  1.00  0.00     0.000 C 
BRANCH  15  16
ATOM     16  C   UNL     1       1.740 -13.061  -4.669  1.00  0.00     0.000 C 
BRANCH  16  17
ATOM     17  C   UNL     1       1.211 -13.393  -6.072  1.00  0.00     0.000 C 
BRANCH  17  18
ATOM     18  C   UNL     1       0.883 -12.118  -6.859  1.00  0.00     0.000 C 
BRANCH  18  19
ATOM     19  C   UNL     1       1.400 -10.846  -6.165  1.00  0.00     0.000 C 
BRANCH  19  20
ATOM     20  C   UNL     1       2.663 -10.255  -6.831  1.00  0.00     0.006 C 
BRANCH  20  21
ATOM     21  C   UNL     1       2.322  -9.394  -8.056  1.00  0.00     0.053 C 
BRANCH  21  22
ATOM     22  C   UNL     1       1.373  -8.301  -7.682  1.00  0.00     0.041 C 
ATOM     23  O   UNL     1       1.702  -7.441  -6.825  1.00  0.00    -0.550 OA
ATOM     24  O   UNL     1       0.142  -8.205  -8.317  1.00  0.00    -0.550 OA
ENDBRANCH  21  22
ENDBRANCH  20  21
ENDBRANCH  19  20
ENDBRANCH  18  19
ENDBRANCH  17  18
ENDBRANCH  16  17
ENDBRANCH  15  16
ENDBRANCH  14  15
ENDBRANCH  13  14
ENDBRANCH   1  13
TORSDOF 20
ENDMDL
MODEL 4
REMARK VINA RESULT:    -4.893      2.666      3.688
REMARK INTER + INTRA:         -13.697
REMARK INTER:                 -10.226
REMARK INTRA:                  -3.471
REMARK UNBOUND:                -3.083
REMARK SMILES CCCCCCCCCCCCCCCCCCCCCC(=O)[O-]
REMARK SMILES IDX 12 1 11 2 10 3 9 4 8 5 7 6 6 7 5 8 4 9 3 10 2 11 1 12 13 13
REMARK SMILES IDX 14 14 15 15 16 16 17 17 18 18 19 19 20 20 21 21 22 22 23 23
REMARK SMILES IDX 24 24
REMARK H PARENT
REMARK Flexibility Score: inf
ROOT
ATOM      1  C   UNL     1       8.508 -12.544  -0.459  1.00  0.00     0.000 C 
ENDROOT
BRANCH   1   2
ATOM      2  C   UNL     1       8.576 -11.023  -0.275  1.00  0.00     0.000 C 
BRANCH   2   3
ATOM      3  C   UNL     1       7.722 -10.303  -1.332  1.00  0.00     0.000 C 
BRANCH   3   4
ATOM      4  C   UNL     1       6.876  -9.166  -0.733  1.00  0.00    -0.000 C 
BRANCH   4   5
ATOM      5  C   UNL     1       5.370  -9.477  -0.752  1.00  0.00    -0.000 C 
BRANCH   5   6
ATOM      6  C   UNL     1       4.927 -10.153  -2.067  1.00  0.00    -0.000 C 
BRANCH   6   7
ATOM      7  C   UNL     1       3.673 -11.030  -1.916  1.00  0.00    -0.000 C 
BRANCH   7   8
ATOM      8  C   UNL     1       3.532 -11.625  -0.511  1.00  0.00    -0.000 C 
BRANCH   8   9
ATOM      9  C   UNL     1       3.752 -13.147  -0.531  1.00  0.00    -0.000 C 
BRANCH   9  10
ATOM     10  C   UNL     1       2.638 -13.886  -1.302  1.00  0.00    -0.000 C 
BRANCH  10  11
ATOM     11  C   UNL     1       3.117 -15.183  -1.973  1.00  0.00    -0.003 C 
ATOM     12  C   UNL     1       2.005 -15.925  -2.711  1.00  0.00     0.004 C 
ENDBRANCH  10  11
ENDBRANCH   9  10
ENDBRANCH   8   9
ENDBRANCH   7   8
ENDBRANCH   6   7
ENDBRANCH   5   6
ENDBRANCH   4   5
ENDBRANCH   3   4
ENDBRANCH   2   3
ENDBRANCH   1   2
BRANCH   1  13
ATOM     13  C   UNL     1       7.290 -12.993  -1.291  1.00  0.00     0.000 C 
BRANCH  13  14
ATOM     14  C   UNL     1       7.630 -13.735  -2.599  1.00  0.00     0.000 C 
BRANCH  14  15
ATOM     15  C   UNL     1       6.978 -13.166  -3.875  1.00  0.00     0.000 C 
BRANCH  15  16
ATOM     16  C   UNL     1       5.441 -13.302  -3.910  1.00  0.00     0.000 C 
BRANCH  16  17
ATOM     17  C   UNL     1       4.854 -12.983  -5.293  1.00  0.00     0.000 C 
BRANCH  17  18
ATOM     18  C   UNL     1       3.485 -13.650  -5.482  1.00  0.00     0.000 C 
BRANCH  18  19
ATOM     19  C   UNL     1       2.344 -12.851  -4.831  1.00  0.00     0.000 C 
BRANCH  19  20
ATOM     20  C   UNL     1       2.175 -11.433  -5.422  1.00  0.00     0.006 C 
BRANCH  20  21
ATOM     21  C   UNL     1       1.582 -11.463  -6.838  1.00  0.00     0.053 C 
BRANCH  21  22
ATOM     22  C   UNL     1       0.271 -12.181  -6.845  1.00  0.00     0.041 C 
ATOM     23  O   UNL     1      -0.718 -11.702  -6.234  1.00  0.00    -0.550 OA
ATOM     24  O   UNL     1       0.130 -13.359  -7.567  1.00  0.00    -0.550 OA
ENDBRANCH  21  22
ENDBRANCH  20  21
ENDBRANCH  19  20
ENDBRANCH  18  19
ENDBRANCH  17  18
ENDBRANCH  16  17
ENDBRANCH  15  16
ENDBRANCH  14  15
ENDBRANCH  13  14
ENDBRANCH   1  13
TORSDOF 20
ENDMDL
MODEL 5
REMARK VINA RESULT:    -4.874      0.973      1.770
REMARK INTER + INTRA:         -13.657
REMARK INTER:                 -11.009
REMARK INTRA:                  -2.648
REMARK UNBOUND:                -3.083
REMARK SMILES CCCCCCCCCCCCCCCCCCCCCC(=O)[O-]
REMARK SMILES IDX 12 1 11 2 10 3 9 4 8 5 7 6 6 7 5 8 4 9 3 10 2 11 1 12 13 13
REMARK SMILES IDX 14 14 15 15 16 16 17 17 18 18 19 19 20 20 21 21 22 22 23 23
REMARK SMILES IDX 24 24
REMARK H PARENT
REMARK Flexibility Score: inf
ROOT
ATOM      1  C   UNL     1       7.172 -13.009  -1.427  1.00  0.00     0.000 C 
ENDROOT
BRANCH   1   2
ATOM      2  C   UNL     1       8.285 -12.502  -0.501  1.00  0.00     0.000 C 
BRANCH   2   3
ATOM      3  C   UNL     1       8.445 -10.978  -0.618  1.00  0.00     0.000 C 
BRANCH   3   4
ATOM      4  C   UNL     1       7.409 -10.346  -1.564  1.00  0.00    -0.000 C 
BRANCH   4   5
ATOM      5  C   UNL     1       6.740  -9.100  -0.962  1.00  0.00    -0.000 C 
BRANCH   5   6
ATOM      6  C   UNL     1       5.265  -9.353  -0.580  1.00  0.00    -0.000 C 
BRANCH   6   7
ATOM      7  C   UNL     1       4.592 -10.449  -1.423  1.00  0.00    -0.000 C 
BRANCH   7   8
ATOM      8  C   UNL     1       3.950 -11.546  -0.567  1.00  0.00    -0.000 C 
BRANCH   8   9
ATOM      9  C   UNL     1       3.137 -12.520  -1.434  1.00  0.00    -0.000 C 
BRANCH   9  10
ATOM     10  C   UNL     1       3.604 -13.981  -1.265  1.00  0.00    -0.000 C 
BRANCH  10  11
ATOM     11  C   UNL     1       3.154 -14.902  -2.409  1.00  0.00    -0.003 C 
ATOM     12  C   UNL     1       2.337 -16.100  -1.931  1.00  0.00     0.004 C 
ENDBRANCH  10  11
ENDBRANCH   9  10
ENDBRANCH   8   9
ENDBRANCH   7   8
ENDBRANCH   6   7
ENDBRANCH   5   6
ENDBRANCH   4   5
ENDBRANCH   3   4
ENDBRANCH   2   3
ENDBRANCH   1   2
BRANCH   1  13
ATOM     13  C   UNL     1       7.714 -13.758  -2.661  1.00  0.00     0.000 C 
BRANCH  13  14
ATOM     14  C   UNL     1       7.177 -13.259  -4.017  1.00  0.00     0.000 C 
BRANCH  14  15
ATOM     15  C   UNL     1       5.698 -12.826  -4.027  1.00  0.00     0.000 C 
BRANCH  15  16
ATOM     16  C   UNL     1       5.002 -12.998  -5.394  1.00  0.00     0.000 C 
BRANCH  16  17
ATOM     17  C   UNL     1       4.652 -11.655  -6.049  1.00  0.00     0.000 C 
BRANCH  17  18
ATOM     18  C   UNL     1       3.347 -11.083  -5.481  1.00  0.00     0.000 C 
BRANCH  18  19
ATOM     19  C   UNL     1       2.447 -10.471  -6.568  1.00  0.00     0.000 C 
BRANCH  19  20
ATOM     20  C   UNL     1       3.235  -9.712  -7.659  1.00  0.00     0.006 C 
BRANCH  20  21
ATOM     21  C   UNL     1       3.229  -8.194  -7.428  1.00  0.00     0.053 C 
BRANCH  21  22
ATOM     22  C   UNL     1       4.555  -7.603  -7.785  1.00  0.00     0.041 C 
ATOM     23  O   UNL     1       5.342  -7.218  -6.881  1.00  0.00    -0.550 OA
ATOM     24  O   UNL     1       4.942  -7.521  -9.115  1.00  0.00    -0.550 OA
ENDBRANCH  21  22
ENDBRANCH  20  21
ENDBRANCH  19  20
ENDBRANCH  18  19
ENDBRANCH  17  18
ENDBRANCH  16  17
ENDBRANCH  15  16
ENDBRANCH  14  15
ENDBRANCH  13  14
ENDBRANCH   1  13
TORSDOF 20
ENDMDL
MODEL 6
REMARK VINA RESULT:    -4.828      3.437      4.611
REMARK INTER + INTRA:         -13.556
REMARK INTER:                 -10.323
REMARK INTRA:                  -3.234
REMARK UNBOUND:                -3.083
REMARK SMILES CCCCCCCCCCCCCCCCCCCCCC(=O)[O-]
REMARK SMILES IDX 12 1 11 2 10 3 9 4 8 5 7 6 6 7 5 8 4 9 3 10 2 11 1 12 13 13
REMARK SMILES IDX 14 14 15 15 16 16 17 17 18 18 19 19 20 20 21 21 22 22 23 23
REMARK SMILES IDX 24 24
REMARK H PARENT
REMARK Flexibility Score: inf
ROOT
ATOM      1  C   UNL     1       7.324 -12.802  -1.229  1.00  0.00     0.000 C 
ENDROOT
BRANCH   1   2
ATOM      2  C   UNL     1       8.547 -12.402  -0.394  1.00  0.00     0.000 C 
BRANCH   2   3
ATOM      3  C   UNL     1       8.631 -10.875  -0.239  1.00  0.00     0.000 C 
BRANCH   3   4
ATOM      4  C   UNL     1       7.742 -10.130  -1.249  1.00  0.00    -0.000 C 
BRANCH   4   5
ATOM      5  C   UNL     1       6.686  -9.244  -0.567  1.00  0.00    -0.000 C 
BRANCH   5   6
ATOM      6  C   UNL     1       5.298  -9.367  -1.232  1.00  0.00    -0.000 C 
BRANCH   6   7
ATOM      7  C   UNL     1       4.606 -10.714  -0.964  1.00  0.00    -0.000 C 
BRANCH   7   8
ATOM      8  C   UNL     1       3.267 -10.848  -1.696  1.00  0.00    -0.000 C 
BRANCH   8   9
ATOM      9  C   UNL     1       2.683 -12.261  -1.527  1.00  0.00    -0.000 C 
BRANCH   9  10
ATOM     10  C   UNL     1       3.675 -13.222  -0.838  1.00  0.00    -0.000 C 
BRANCH  10  11
ATOM     11  C   UNL     1       3.944 -14.502  -1.644  1.00  0.00    -0.003 C 
ATOM     12  C   UNL     1       2.693 -15.349  -1.863  1.00  0.00     0.004 C 
ENDBRANCH  10  11
ENDBRANCH   9  10
ENDBRANCH   8   9
ENDBRANCH   7   8
ENDBRANCH   6   7
ENDBRANCH   5   6
ENDBRANCH   4   5
ENDBRANCH   3   4
ENDBRANCH   2   3
ENDBRANCH   1   2
BRANCH   1  13
ATOM     13  C   UNL     1       7.660 -13.828  -2.330  1.00  0.00     0.000 C 
BRANCH  13  14
ATOM     14  C   UNL     1       7.323 -13.380  -3.766  1.00  0.00     0.000 C 
BRANCH  14  15
ATOM     15  C   UNL     1       6.074 -12.487  -3.908  1.00  0.00     0.000 C 
BRANCH  15  16
ATOM     16  C   UNL     1       5.085 -12.957  -4.994  1.00  0.00     0.000 C 
BRANCH  16  17
ATOM     17  C   UNL     1       3.871 -12.027  -5.126  1.00  0.00     0.000 C 
BRANCH  17  18
ATOM     18  C   UNL     1       2.638 -12.790  -5.627  1.00  0.00     0.000 C 
BRANCH  18  19
ATOM     19  C   UNL     1       2.701 -14.292  -5.302  1.00  0.00     0.000 C 
BRANCH  19  20
ATOM     20  C   UNL     1       1.510 -15.093  -5.875  1.00  0.00     0.006 C 
BRANCH  20  21
ATOM     21  C   UNL     1       1.966 -16.199  -6.837  1.00  0.00     0.053 C 
BRANCH  21  22
ATOM     22  C   UNL     1       0.846 -16.604  -7.741  1.00  0.00     0.041 C 
ATOM     23  O   UNL     1       0.820 -16.208  -8.935  1.00  0.00    -0.550 OA
ATOM     24  O   UNL     1      -0.145 -17.458  -7.277  1.00  0.00    -0.550 OA
ENDBRANCH  21  22
ENDBRANCH  20  21
ENDBRANCH  19  20
ENDBRANCH  18  19
ENDBRANCH  17  18
ENDBRANCH  16  17
ENDBRANCH  15  16
ENDBRANCH  14  15
ENDBRANCH  13  14
ENDBRANCH   1  13
TORSDOF 20
ENDMDL
MODEL 7
REMARK VINA RESULT:    -4.771      3.822      5.821
REMARK INTER + INTRA:         -13.433
REMARK INTER:                 -10.255
REMARK INTRA:                  -3.178
REMARK UNBOUND:                -3.083
REMARK SMILES CCCCCCCCCCCCCCCCCCCCCC(=O)[O-]
REMARK SMILES IDX 12 1 11 2 10 3 9 4 8 5 7 6 6 7 5 8 4 9 3 10 2 11 1 12 13 13
REMARK SMILES IDX 14 14 15 15 16 16 17 17 18 18 19 19 20 20 21 21 22 22 23 23
REMARK SMILES IDX 24 24
REMARK H PARENT
REMARK Flexibility Score: inf
ROOT
ATOM      1  C   UNL     1       4.407 -10.566  -2.206  1.00  0.00     0.000 C 
ENDROOT
BRANCH   1   2
ATOM      2  C   UNL     1       4.997  -9.477  -1.302  1.00  0.00     0.000 C 
BRANCH   2   3
ATOM      3  C   UNL     1       6.528  -9.428  -1.427  1.00  0.00     0.000 C 
BRANCH   3   4
ATOM      4  C   UNL     1       7.229  -9.317  -0.062  1.00  0.00    -0.000 C 
BRANCH   4   5
ATOM      5  C   UNL     1       8.137 -10.521   0.236  1.00  0.00    -0.000 C 
BRANCH   5   6
ATOM      6  C   UNL     1       8.357 -11.412  -1.006  1.00  0.00    -0.000 C 
BRANCH   6   7
ATOM      7  C   UNL     1       8.045 -12.898  -0.760  1.00  0.00    -0.000 C 
BRANCH   7   8
ATOM      8  C   UNL     1       7.697 -13.652  -2.047  1.00  0.00    -0.000 C 
BRANCH   8   9
ATOM      9  C   UNL     1       7.324 -12.676  -3.175  1.00  0.00    -0.000 C 
BRANCH   9  10
ATOM     10  C   UNL     1       6.519 -13.363  -4.298  1.00  0.00    -0.000 C 
BRANCH  10  11
ATOM     11  C   UNL     1       5.546 -12.417  -5.019  1.00  0.00    -0.003 C 
ATOM     12  C   UNL     1       4.188 -13.054  -5.303  1.00  0.00     0.004 C 
ENDBRANCH  10  11
ENDBRANCH   9  10
ENDBRANCH   8   9
ENDBRANCH   7   8
ENDBRANCH   6   7
ENDBRANCH   5   6
ENDBRANCH   4   5
ENDBRANCH   3   4
ENDBRANCH   2   3
ENDBRANCH   1   2
BRANCH   1  13
ATOM     13  C   UNL     1       3.549 -11.587  -1.432  1.00  0.00     0.000 C 
BRANCH  13  14
ATOM     14  C   UNL     1       4.318 -12.806  -0.886  1.00  0.00     0.000 C 
BRANCH  14  15
ATOM     15  C   UNL     1       4.040 -14.143  -1.601  1.00  0.00     0.000 C 
BRANCH  15  16
ATOM     16  C   UNL     1       3.061 -15.068  -0.849  1.00  0.00     0.000 C 
BRANCH  16  17
ATOM     17  C   UNL     1       2.353 -16.061  -1.782  1.00  0.00     0.000 C 
BRANCH  17  18
ATOM     18  C   UNL     1       2.562 -15.684  -3.255  1.00  0.00     0.000 C 
BRANCH  18  19
ATOM     19  C   UNL     1       1.330 -15.990  -4.123  1.00  0.00     0.000 C 
BRANCH  19  20
ATOM     20  C   UNL     1       1.336 -15.247  -5.478  1.00  0.00     0.006 C 
BRANCH  20  21
ATOM     21  C   UNL     1       1.943 -16.098  -6.602  1.00  0.00     0.053 C 
BRANCH  21  22
ATOM     22  C   UNL     1       0.993 -17.177  -7.015  1.00  0.00     0.041 C 
ATOM     23  O   UNL     1       1.344 -18.384  -6.964  1.00  0.00    -0.550 OA
ATOM     24  O   UNL     1      -0.297 -16.851  -7.411  1.00  0.00    -0.550 OA
ENDBRANCH  21  22
ENDBRANCH  20  21
ENDBRANCH  19  20
ENDBRANCH  18  19
ENDBRANCH  17  18
ENDBRANCH  16  17
ENDBRANCH  15  16
ENDBRANCH  14  15
ENDBRANCH  13  14
ENDBRANCH   1  13
TORSDOF 20
ENDMDL
MODEL 8
REMARK VINA RESULT:    -4.768      1.895      4.560
REMARK INTER + INTRA:         -13.426
REMARK INTER:                 -10.276
REMARK INTRA:                  -3.150
REMARK UNBOUND:                -3.083
REMARK SMILES CCCCCCCCCCCCCCCCCCCCCC(=O)[O-]
REMARK SMILES IDX 12 1 11 2 10 3 9 4 8 5 7 6 6 7 5 8 4 9 3 10 2 11 1 12 13 13
REMARK SMILES IDX 14 14 15 15 16 16 17 17 18 18 19 19 20 20 21 21 22 22 23 23
REMARK SMILES IDX 24 24
REMARK H PARENT
REMARK Flexibility Score: inf
ROOT
ATOM      1  C   UNL     1       8.093 -10.091  -0.056  1.00  0.00     0.000 C 
ENDROOT
BRANCH   1   2
ATOM      2  C   UNL     1       6.826  -9.256  -0.279  1.00  0.00     0.000 C 
BRANCH   2   3
ATOM      3  C   UNL     1       5.925  -9.898  -1.346  1.00  0.00     0.000 C 
BRANCH   3   4
ATOM      4  C   UNL     1       4.809 -10.763  -0.734  1.00  0.00    -0.000 C 
BRANCH   4   5
ATOM      5  C   UNL     1       3.638 -10.991  -1.704  1.00  0.00    -0.000 C 
BRANCH   5   6
ATOM      6  C   UNL     1       2.781 -12.214  -1.311  1.00  0.00    -0.000 C 
BRANCH   6   7
ATOM      7  C   UNL     1       3.569 -13.300  -0.558  1.00  0.00    -0.000 C 
BRANCH   7   8
ATOM      8  C   UNL     1       3.543 -14.654  -1.274  1.00  0.00    -0.000 C 
BRANCH   8   9
ATOM      9  C   UNL     1       2.412 -15.544  -0.731  1.00  0.00    -0.000 C 
BRANCH   9  10
ATOM     10  C   UNL     1       2.047 -16.682  -1.708  1.00  0.00    -0.000 C 
BRANCH  10  11
ATOM     11  C   UNL     1       1.976 -16.229  -3.174  1.00  0.00    -0.003 C 
ATOM     12  C   UNL     1       0.973 -15.102  -3.408  1.00  0.00     0.004 C 
ENDBRANCH  10  11
ENDBRANCH   9  10
ENDBRANCH   8   9
ENDBRANCH   7   8
ENDBRANCH   6   7
ENDBRANCH   5   6
ENDBRANCH   4   5
ENDBRANCH   3   4
ENDBRANCH   2   3
ENDBRANCH   1   2
BRANCH   1  13
ATOM     13  C   UNL     1       8.279 -11.192  -1.119  1.00  0.00     0.000 C 
BRANCH  13  14
ATOM     14  C   UNL     1       8.272 -12.634  -0.575  1.00  0.00     0.000 C 
BRANCH  14  15
ATOM     15  C   UNL     1       7.860 -13.724  -1.584  1.00  0.00     0.000 C 
BRANCH  15  16
ATOM     16  C   UNL     1       6.735 -13.294  -2.549  1.00  0.00     0.000 C 
BRANCH  16  17
ATOM     17  C   UNL     1       7.229 -13.133  -3.994  1.00  0.00     0.000 C 
BRANCH  17  18
ATOM     18  C   UNL     1       6.055 -12.979  -4.968  1.00  0.00     0.000 C 
BRANCH  18  19
ATOM     19  C   UNL     1       4.708 -13.369  -4.337  1.00  0.00     0.000 C 
BRANCH  19  20
ATOM     20  C   UNL     1       3.516 -13.249  -5.314  1.00  0.00     0.006 C 
BRANCH  20  21
ATOM     21  C   UNL     1       2.820 -11.885  -5.213  1.00  0.00     0.053 C 
BRANCH  21  22
ATOM     22  C   UNL     1       2.984 -11.116  -6.485  1.00  0.00     0.041 C 
ATOM     23  O   UNL     1       2.006 -10.953  -7.259  1.00  0.00    -0.550 OA
ATOM     24  O   UNL     1       4.208 -10.537  -6.792  1.00  0.00    -0.550 OA
ENDBRANCH  21  22
ENDBRANCH  20  21
ENDBRANCH  19  20
ENDBRANCH  18  19
ENDBRANCH  17  18
ENDBRANCH  16  17
ENDBRANCH  15  16
ENDBRANCH  14  15
ENDBRANCH  13  14
ENDBRANCH   1  13
TORSDOF 20
ENDMDL
MODEL 9
REMARK VINA RESULT:    -4.755      2.179      2.909
REMARK INTER + INTRA:         -13.398
REMARK INTER:                 -10.170
REMARK INTRA:                  -3.227
REMARK UNBOUND:                -3.083
REMARK SMILES CCCCCCCCCCCCCCCCCCCCCC(=O)[O-]
REMARK SMILES IDX 12 1 11 2 10 3 9 4 8 5 7 6 6 7 5 8 4 9 3 10 2 11 1 12 13 13
REMARK SMILES IDX 14 14 15 15 16 16 17 17 18 18 19 19 20 20 21 21 22 22 23 23
REMARK SMILES IDX 24 24
REMARK H PARENT
REMARK Flexibility Score: inf
ROOT
ATOM      1  C   UNL     1       5.425 -13.292  -2.854  1.00  0.00     0.000 C 
ENDROOT
BRANCH   1   2
ATOM      2  C   UNL     1       6.149 -13.050  -1.524  1.00  0.00     0.000 C 
BRANCH   2   3
ATOM      3  C   UNL     1       7.639 -13.408  -1.636  1.00  0.00     0.000 C 
BRANCH   3   4
ATOM      4  C   UNL     1       8.477 -12.818  -0.488  1.00  0.00    -0.000 C 
BRANCH   4   5
ATOM      5  C   UNL     1       8.762 -11.319  -0.674  1.00  0.00    -0.000 C 
BRANCH   5   6
ATOM      6  C   UNL     1       8.197 -10.467   0.484  1.00  0.00    -0.000 C 
BRANCH   6   7
ATOM      7  C   UNL     1       7.033  -9.553   0.064  1.00  0.00    -0.000 C 
BRANCH   7   8
ATOM      8  C   UNL     1       6.955  -9.353  -1.453  1.00  0.00    -0.000 C 
BRANCH   8   9
ATOM      9  C   UNL     1       5.599  -8.755  -1.862  1.00  0.00    -0.000 C 
BRANCH   9  10
ATOM     10  C   UNL     1       4.939  -9.541  -3.014  1.00  0.00    -0.000 C 
BRANCH  10  11
ATOM     11  C   UNL     1       3.524 -10.041  -2.681  1.00  0.00    -0.003 C 
ATOM     12  C   UNL     1       3.391 -10.558  -1.251  1.00  0.00     0.004 C 
ENDBRANCH  10  11
ENDBRANCH   9  10
ENDBRANCH   8   9
ENDBRANCH   7   8
ENDBRANCH   6   7
ENDBRANCH   5   6
ENDBRANCH   4   5
ENDBRANCH   3   4
ENDBRANCH   2   3
ENDBRANCH   1   2
BRANCH   1  13
ATOM     13  C   UNL     1       6.337 -13.083  -4.079  1.00  0.00     0.000 C 
BRANCH  13  14
ATOM     14  C   UNL     1       5.655 -12.431  -5.298  1.00  0.00     0.000 C 
BRANCH  14  15
ATOM     15  C   UNL     1       4.119 -12.560  -5.349  1.00  0.00     0.000 C 
BRANCH  15  16
ATOM     16  C   UNL     1       3.420 -11.441  -6.148  1.00  0.00     0.000 C 
BRANCH  16  17
ATOM     17  C   UNL     1       4.379 -10.304  -6.530  1.00  0.00     0.000 C 
BRANCH  17  18
ATOM     18  C   UNL     1       3.740  -9.359  -7.556  1.00  0.00     0.000 C 
BRANCH  18  19
ATOM     19  C   UNL     1       3.228  -8.056  -6.919  1.00  0.00     0.000 C 
BRANCH  19  20
ATOM     20  C   UNL     1       1.727  -8.102  -6.554  1.00  0.00     0.006 C 
BRANCH  20  21
ATOM     21  C   UNL     1       0.856  -8.549  -7.737  1.00  0.00     0.053 C 
BRANCH  21  22
ATOM     22  C   UNL     1      -0.186  -9.521  -7.285  1.00  0.00     0.041 C 
ATOM     23  O   UNL     1       0.138 -10.692  -6.958  1.00  0.00    -0.550 OA
ATOM     24  O   UNL     1      -1.510  -9.118  -7.179  1.00  0.00    -0.550 OA
ENDBRANCH  21  22
ENDBRANCH  20  21
ENDBRANCH  19  20
ENDBRANCH  18  19
ENDBRANCH  17  18
ENDBRANCH  16  17
ENDBRANCH  15  16
ENDBRANCH  14  15
ENDBRANCH  13  14
ENDBRANCH   1  13
TORSDOF 20
ENDMDL
