MODEL 1
REMARK VINA RESULT:    -5.134      0.000      0.000
REMARK INTER + INTRA:         -11.072
REMARK INTER:                  -9.937
REMARK INTRA:                  -1.136
REMARK UNBOUND:                -1.136
REMARK SMILES CCCCCCCCCCCCCCCCCC(=O)[O-]
REMARK SMILES IDX 10 1 11 2 12 3 13 4 14 5 15 6 16 7 17 8 18 9 19 10 20 11
REMARK SMILES IDX 9 12 8 13 7 14 6 15 5 16 4 17 3 18 2 19 1 20
REMARK H PARENT
REMARK Flexibility Score: inf
ROOT
ATOM      1  C   UNL     1      -3.388   8.978 -38.962  1.00  0.00     0.000 C 
ENDROOT
BRANCH   1   2
ATOM      2  C   UNL     1      -4.144   9.671 -40.114  1.00  0.00     0.000 C 
BRANCH   2   3
ATOM      3  C   UNL     1      -5.668   9.473 -40.054  1.00  0.00     0.000 C 
BRANCH   3   4
ATOM      4  C   UNL     1      -6.120   8.674 -38.824  1.00  0.00     0.000 C 
BRANCH   4   5
ATOM      5  C   UNL     1      -7.154   7.608 -39.206  1.00  0.00     0.000 C 
BRANCH   5   6
ATOM      6  C   UNL     1      -7.299   7.506 -40.732  1.00  0.00     0.000 C 
BRANCH   6   7
ATOM      7  C   UNL     1      -7.706   6.100 -41.199  1.00  0.00     0.006 C 
BRANCH   7   8
ATOM      8  C   UNL     1      -7.817   5.100 -40.040  1.00  0.00     0.053 C 
BRANCH   8   9
ATOM      9  C   UNL     1      -9.011   4.217 -40.225  1.00  0.00     0.041 C 
ATOM     10  O   UNL     1      -9.962   4.257 -39.401  1.00  0.00    -0.550 OA
ATOM     11  O   UNL     1      -9.089   3.375 -41.327  1.00  0.00    -0.550 OA
ENDBRANCH   8   9
ENDBRANCH   7   8
ENDBRANCH   6   7
ENDBRANCH   5   6
ENDBRANCH   4   5
ENDBRANCH   3   4
ENDBRANCH   2   3
ENDBRANCH   1   2
BRANCH   1  12
ATOM     12  C   UNL     1      -2.036   9.653 -38.665  1.00  0.00     0.000 C 
BRANCH  12  13
ATOM     13  C   UNL     1      -0.846   8.704 -38.872  1.00  0.00    -0.000 C 
BRANCH  13  14
ATOM     14  C   UNL     1      -0.980   7.874 -40.162  1.00  0.00    -0.000 C 
BRANCH  14  15
ATOM     15  C   UNL     1      -0.732   6.375 -39.928  1.00  0.00    -0.000 C 
BRANCH  15  16
ATOM     16  C   UNL     1      -0.028   5.700 -41.114  1.00  0.00    -0.000 C 
BRANCH  16  17
ATOM     17  C   UNL     1       0.617   6.743 -42.035  1.00  0.00    -0.000 C 
BRANCH  17  18
ATOM     18  C   UNL     1       2.081   6.384 -42.332  1.00  0.00    -0.000 C 
BRANCH  18  19
ATOM     19  C   UNL     1       2.528   5.094 -41.626  1.00  0.00    -0.003 C 
ATOM     20  C   UNL     1       4.016   5.099 -41.277  1.00  0.00     0.004 C 
ENDBRANCH  18  19
ENDBRANCH  17  18
ENDBRANCH  16  17
ENDBRANCH  15  16
ENDBRANCH  14  15
ENDBRANCH  13  14
ENDBRANCH  12  13
ENDBRANCH   1  12
TORSDOF 16
ENDMDL
MODEL 2
REMARK VINA RESULT:    -5.101      2.828      4.671
REMARK INTER + INTRA:         -11.009
REMARK INTER:                  -9.891
REMARK INTRA:                  -1.118
REMARK UNBOUND:                -1.136
REMARK SMILES CCCCCCCCCCCCCCCCCC(=O)[O-]
REMARK SMILES IDX 10 1 11 2 12 3 13 4 14 5 15 6 16 7 17 8 18 9 19 10 20 11
REMARK SMILES IDX 9 12 8 13 7 14 6 15 5 16 4 17 3 18 2 19 1 20
REMARK H PARENT
REMARK Flexibility Score: inf
ROOT
ATOM      1  C   UNL     1      -4.102   9.442 -39.804  1.00  0.00     0.000 C 
ENDROOT
BRANCH   1   2
ATOM      2  C   UNL     1      -4.498   8.776 -38.469  1.00  0.00     0.000 C 
BRANCH   2   3
ATOM      3  C   UNL     1      -6.017   8.720 -38.238  1.00  0.00     0.000 C 
BRANCH   3   4
ATOM      4  C   UNL     1      -6.827   9.098 -39.486  1.00  0.00     0.000 C 
BRANCH   4   5
ATOM      5  C   UNL     1      -7.078   7.873 -40.374  1.00  0.00     0.000 C 
BRANCH   5   6
ATOM      6  C   UNL     1      -7.785   6.760 -39.587  1.00  0.00     0.000 C 
BRANCH   6   7
ATOM      7  C   UNL     1      -7.454   5.355 -40.115  1.00  0.00     0.006 C 
BRANCH   7   8
ATOM      8  C   UNL     1      -8.414   4.896 -41.220  1.00  0.00     0.053 C 
BRANCH   8   9
ATOM      9  C   UNL     1      -9.272   3.771 -40.731  1.00  0.00     0.041 C 
ATOM     10  O   UNL     1      -9.963   3.909 -39.687  1.00  0.00    -0.550 OA
ATOM     11  O   UNL     1      -9.334   2.582 -41.446  1.00  0.00    -0.550 OA
ENDBRANCH   8   9
ENDBRANCH   7   8
ENDBRANCH   6   7
ENDBRANCH   5   6
ENDBRANCH   4   5
ENDBRANCH   3   4
ENDBRANCH   2   3
ENDBRANCH   1   2
BRANCH   1  12
ATOM     12  C   UNL     1      -2.604   9.274 -40.115  1.00  0.00     0.000 C 
BRANCH  12  13
ATOM     13  C   UNL     1      -1.926   8.240 -39.203  1.00  0.00    -0.000 C 
BRANCH  13  14
ATOM     14  C   UNL     1      -0.809   8.862 -38.344  1.00  0.00    -0.000 C 
BRANCH  14  15
ATOM     15  C   UNL     1      -0.770  10.395 -38.447  1.00  0.00    -0.000 C 
BRANCH  15  16
ATOM     16  C   UNL     1       0.633  10.968 -38.198  1.00  0.00    -0.000 C 
BRANCH  16  17
ATOM     17  C   UNL     1       0.557  12.437 -37.766  1.00  0.00    -0.000 C 
BRANCH  17  18
ATOM     18  C   UNL     1      -0.898  12.924 -37.723  1.00  0.00    -0.000 C 
BRANCH  18  19
ATOM     19  C   UNL     1      -1.368  13.258 -36.299  1.00  0.00    -0.003 C 
ATOM     20  C   UNL     1      -2.269  12.175 -35.706  1.00  0.00     0.004 C 
ENDBRANCH  18  19
ENDBRANCH  17  18
ENDBRANCH  16  17
ENDBRANCH  15  16
ENDBRANCH  14  15
ENDBRANCH  13  14
ENDBRANCH  12  13
ENDBRANCH   1  12
TORSDOF 16
ENDMDL
MODEL 3
REMARK VINA RESULT:    -5.053      4.692      8.926
REMARK INTER + INTRA:         -10.914
REMARK INTER:                  -9.820
REMARK INTRA:                  -1.094
REMARK UNBOUND:                -1.136
REMARK SMILES CCCCCCCCCCCCCCCCCC(=O)[O-]
REMARK SMILES IDX 10 1 11 2 12 3 13 4 14 5 15 6 16 7 17 8 18 9 19 10 20 11
REMARK SMILES IDX 9 12 8 13 7 14 6 15 5 16 4 17 3 18 2 19 1 20
REMARK H PARENT
REMARK Flexibility Score: inf
ROOT
ATOM      1  C   UNL     1      -4.346   9.311 -39.827  1.00  0.00     0.000 C 
ENDROOT
BRANCH   1   2
ATOM      2  C   UNL     1      -2.829   9.339 -40.102  1.00  0.00     0.000 C 
BRANCH   2   3
ATOM      3  C   UNL     1      -2.042   8.280 -39.311  1.00  0.00     0.000 C 
BRANCH   3   4
ATOM      4  C   UNL     1      -0.986   8.891 -38.380  1.00  0.00     0.000 C 
BRANCH   4   5
ATOM      5  C   UNL     1      -0.880  10.407 -38.583  1.00  0.00     0.000 C 
BRANCH   5   6
ATOM      6  C   UNL     1       0.517  10.916 -38.197  1.00  0.00     0.000 C 
BRANCH   6   7
ATOM      7  C   UNL     1       0.507  12.377 -37.721  1.00  0.00     0.006 C 
BRANCH   7   8
ATOM      8  C   UNL     1      -0.909  12.962 -37.635  1.00  0.00     0.053 C 
BRANCH   8   9
ATOM      9  C   UNL     1      -1.405  12.920 -36.223  1.00  0.00     0.041 C 
ATOM     10  O   UNL     1      -1.026  13.788 -35.392  1.00  0.00    -0.550 OA
ATOM     11  O   UNL     1      -2.313  11.943 -35.834  1.00  0.00    -0.550 OA
ENDBRANCH   8   9
ENDBRANCH   7   8
ENDBRANCH   6   7
ENDBRANCH   5   6
ENDBRANCH   4   5
ENDBRANCH   3   4
ENDBRANCH   2   3
ENDBRANCH   1   2
BRANCH   1  12
ATOM     12  C   UNL     1      -4.673   8.740 -38.435  1.00  0.00     0.000 C 
BRANCH  12  13
ATOM     13  C   UNL     1      -6.152   8.922 -38.056  1.00  0.00    -0.000 C 
BRANCH  13  14
ATOM     14  C   UNL     1      -7.085   8.792 -39.274  1.00  0.00    -0.000 C 
BRANCH  14  15
ATOM     15  C   UNL     1      -7.446   7.331 -39.588  1.00  0.00    -0.000 C 
BRANCH  15  16
ATOM     16  C   UNL     1      -7.363   7.011 -41.087  1.00  0.00    -0.000 C 
BRANCH  16  17
ATOM     17  C   UNL     1      -7.912   5.610 -41.381  1.00  0.00    -0.000 C 
BRANCH  17  18
ATOM     18  C   UNL     1      -8.102   4.810 -40.084  1.00  0.00    -0.000 C 
BRANCH  18  19
ATOM     19  C   UNL     1      -9.456   4.087 -40.029  1.00  0.00    -0.003 C 
ATOM     20  C   UNL     1      -9.667   3.140 -41.210  1.00  0.00     0.004 C 
ENDBRANCH  18  19
ENDBRANCH  17  18
ENDBRANCH  16  17
ENDBRANCH  15  16
ENDBRANCH  14  15
ENDBRANCH  13  14
ENDBRANCH  12  13
ENDBRANCH   1  12
TORSDOF 16
ENDMDL
MODEL 4
REMARK VINA RESULT:    -4.963      2.765      4.970
REMARK INTER + INTRA:         -10.740
REMARK INTER:                  -9.283
REMARK INTRA:                  -1.457
REMARK UNBOUND:                -1.136
REMARK SMILES CCCCCCCCCCCCCCCCCC(=O)[O-]
REMARK SMILES IDX 10 1 11 2 12 3 13 4 14 5 15 6 16 7 17 8 18 9 19 10 20 11
REMARK SMILES IDX 9 12 8 13 7 14 6 15 5 16 4 17 3 18 2 19 1 20
REMARK H PARENT
REMARK Flexibility Score: inf
ROOT
ATOM      1  C   UNL     1      -2.642   9.366 -40.067  1.00  0.00     0.000 C 
ENDROOT
BRANCH   1   2
ATOM      2  C   UNL     1      -4.148   9.353 -39.729  1.00  0.00     0.000 C 
BRANCH   2   3
ATOM      3  C   UNL     1      -4.446   8.981 -38.267  1.00  0.00     0.000 C 
BRANCH   3   4
ATOM      4  C   UNL     1      -5.927   8.668 -38.019  1.00  0.00     0.000 C 
BRANCH   4   5
ATOM      5  C   UNL     1      -6.806   9.217 -39.149  1.00  0.00     0.000 C 
BRANCH   5   6
ATOM      6  C   UNL     1      -7.854   8.181 -39.582  1.00  0.00     0.000 C 
BRANCH   6   7
ATOM      7  C   UNL     1      -7.235   6.974 -40.304  1.00  0.00     0.006 C 
BRANCH   7   8
ATOM      8  C   UNL     1      -7.882   5.644 -39.896  1.00  0.00     0.053 C 
BRANCH   8   9
ATOM      9  C   UNL     1      -8.194   4.823 -41.109  1.00  0.00     0.041 C 
ATOM     10  O   UNL     1      -8.863   3.762 -41.000  1.00  0.00    -0.550 OA
ATOM     11  O   UNL     1      -7.775   5.248 -42.363  1.00  0.00    -0.550 OA
ENDBRANCH   8   9
ENDBRANCH   7   8
ENDBRANCH   6   7
ENDBRANCH   5   6
ENDBRANCH   4   5
ENDBRANCH   3   4
ENDBRANCH   2   3
ENDBRANCH   1   2
BRANCH   1  12
ATOM     12  C   UNL     1      -1.889   8.198 -39.404  1.00  0.00     0.000 C 
BRANCH  12  13
ATOM     13  C   UNL     1      -0.697   8.672 -38.557  1.00  0.00    -0.000 C 
BRANCH  13  14
ATOM     14  C   UNL     1      -0.734  10.190 -38.297  1.00  0.00    -0.000 C 
BRANCH  14  15
ATOM     15  C   UNL     1       0.666  10.825 -38.312  1.00  0.00    -0.000 C 
BRANCH  15  16
ATOM     16  C   UNL     1       0.681  12.235 -37.703  1.00  0.00    -0.000 C 
BRANCH  16  17
ATOM     17  C   UNL     1      -0.319  13.151 -38.416  1.00  0.00    -0.000 C 
BRANCH  17  18
ATOM     18  C   UNL     1      -1.357  13.707 -37.429  1.00  0.00    -0.000 C 
BRANCH  18  19
ATOM     19  C   UNL     1      -1.225  13.095 -36.026  1.00  0.00    -0.003 C 
ATOM     20  C   UNL     1      -2.388  12.166 -35.677  1.00  0.00     0.004 C 
ENDBRANCH  18  19
ENDBRANCH  17  18
ENDBRANCH  16  17
ENDBRANCH  15  16
ENDBRANCH  14  15
ENDBRANCH  13  14
ENDBRANCH  12  13
ENDBRANCH   1  12
TORSDOF 16
ENDMDL
MODEL 5
REMARK VINA RESULT:    -4.915      1.011      1.668
REMARK INTER + INTRA:         -10.647
REMARK INTER:                  -9.781
REMARK INTRA:                  -0.867
REMARK UNBOUND:                -1.136
REMARK SMILES CCCCCCCCCCCCCCCCCC(=O)[O-]
REMARK SMILES IDX 10 1 11 2 12 3 13 4 14 5 15 6 16 7 17 8 18 9 19 10 20 11
REMARK SMILES IDX 9 12 8 13 7 14 6 15 5 16 4 17 3 18 2 19 1 20
REMARK H PARENT
REMARK Flexibility Score: inf
ROOT
ATOM      1  C   UNL     1      -1.771  10.508 -37.869  1.00  0.00     0.000 C 
ENDROOT
BRANCH   1   2
ATOM      2  C   UNL     1      -3.102   9.736 -37.749  1.00  0.00     0.000 C 
BRANCH   2   3
ATOM      3  C   UNL     1      -3.791   9.488 -39.101  1.00  0.00     0.000 C 
BRANCH   3   4
ATOM      4  C   UNL     1      -4.960   8.499 -39.005  1.00  0.00     0.000 C 
BRANCH   4   5
ATOM      5  C   UNL     1      -6.287   9.172 -39.376  1.00  0.00     0.000 C 
BRANCH   5   6
ATOM      6  C   UNL     1      -7.437   8.154 -39.376  1.00  0.00     0.000 C 
BRANCH   6   7
ATOM      7  C   UNL     1      -7.301   7.103 -40.489  1.00  0.00     0.006 C 
BRANCH   7   8
ATOM      8  C   UNL     1      -7.786   5.713 -40.054  1.00  0.00     0.053 C 
BRANCH   8   9
ATOM      9  C   UNL     1      -8.152   4.891 -41.249  1.00  0.00     0.041 C 
ATOM     10  O   UNL     1      -7.752   5.226 -42.396  1.00  0.00    -0.550 OA
ATOM     11  O   UNL     1      -8.906   3.734 -41.094  1.00  0.00    -0.550 OA
ENDBRANCH   8   9
ENDBRANCH   7   8
ENDBRANCH   6   7
ENDBRANCH   5   6
ENDBRANCH   4   5
ENDBRANCH   3   4
ENDBRANCH   2   3
ENDBRANCH   1   2
BRANCH   1  12
ATOM     12  C   UNL     1      -0.692   9.692 -38.604  1.00  0.00     0.000 C 
BRANCH  12  13
ATOM     13  C   UNL     1      -0.841   8.180 -38.376  1.00  0.00    -0.000 C 
BRANCH  13  14
ATOM     14  C   UNL     1      -0.906   7.394 -39.699  1.00  0.00    -0.000 C 
BRANCH  14  15
ATOM     15  C   UNL     1      -0.301   8.173 -40.878  1.00  0.00    -0.000 C 
BRANCH  15  16
ATOM     16  C   UNL     1       0.005   7.274 -42.085  1.00  0.00    -0.000 C 
BRANCH  16  17
ATOM     17  C   UNL     1       0.759   6.012 -41.652  1.00  0.00    -0.000 C 
BRANCH  17  18
ATOM     18  C   UNL     1       2.144   5.945 -42.313  1.00  0.00    -0.000 C 
BRANCH  18  19
ATOM     19  C   UNL     1       3.080   4.941 -41.623  1.00  0.00    -0.003 C 
ATOM     20  C   UNL     1       4.500   5.480 -41.451  1.00  0.00     0.004 C 
ENDBRANCH  18  19
ENDBRANCH  17  18
ENDBRANCH  16  17
ENDBRANCH  15  16
ENDBRANCH  14  15
ENDBRANCH  13  14
ENDBRANCH  12  13
ENDBRANCH   1  12
TORSDOF 16
ENDMDL
MODEL 6
REMARK VINA RESULT:    -4.657      4.585      8.963
REMARK INTER + INTRA:         -10.148
REMARK INTER:                  -9.140
REMARK INTRA:                  -1.008
REMARK UNBOUND:                -1.136
REMARK SMILES CCCCCCCCCCCCCCCCCC(=O)[O-]
REMARK SMILES IDX 10 1 11 2 12 3 13 4 14 5 15 6 16 7 17 8 18 9 19 10 20 11
REMARK SMILES IDX 9 12 8 13 7 14 6 15 5 16 4 17 3 18 2 19 1 20
REMARK H PARENT
REMARK Flexibility Score: inf
ROOT
ATOM      1  C   UNL     1      -2.258   9.382 -38.506  1.00  0.00     0.000 C 
ENDROOT
BRANCH   1   2
ATOM      2  C   UNL     1      -0.890   8.868 -39.000  1.00  0.00     0.000 C 
BRANCH   2   3
ATOM      3  C   UNL     1      -0.987   7.959 -40.237  1.00  0.00     0.000 C 
BRANCH   3   4
ATOM      4  C   UNL     1      -0.854   6.469 -39.898  1.00  0.00     0.000 C 
BRANCH   4   5
ATOM      5  C   UNL     1       0.031   5.745 -40.920  1.00  0.00     0.000 C 
BRANCH   5   6
ATOM      6  C   UNL     1       0.655   6.741 -41.908  1.00  0.00     0.000 C 
BRANCH   6   7
ATOM      7  C   UNL     1       2.087   6.358 -42.314  1.00  0.00     0.006 C 
BRANCH   7   8
ATOM      8  C   UNL     1       2.605   5.123 -41.564  1.00  0.00     0.053 C 
BRANCH   8   9
ATOM      9  C   UNL     1       4.088   5.208 -41.383  1.00  0.00     0.041 C 
ATOM     10  O   UNL     1       4.632   6.313 -41.119  1.00  0.00    -0.550 OA
ATOM     11  O   UNL     1       4.867   4.061 -41.470  1.00  0.00    -0.550 OA
ENDBRANCH   8   9
ENDBRANCH   7   8
ENDBRANCH   6   7
ENDBRANCH   5   6
ENDBRANCH   4   5
ENDBRANCH   3   4
ENDBRANCH   2   3
ENDBRANCH   1   2
BRANCH   1  12
ATOM     12  C   UNL     1      -3.359   9.216 -39.569  1.00  0.00     0.000 C 
BRANCH  12  13
ATOM     13  C   UNL     1      -4.685   8.720 -38.970  1.00  0.00    -0.000 C 
BRANCH  13  14
ATOM     14  C   UNL     1      -5.906   9.410 -39.606  1.00  0.00    -0.000 C 
BRANCH  14  15
ATOM     15  C   UNL     1      -7.238   8.808 -39.130  1.00  0.00    -0.000 C 
BRANCH  15  16
ATOM     16  C   UNL     1      -7.377   7.322 -39.490  1.00  0.00    -0.000 C 
BRANCH  16  17
ATOM     17  C   UNL     1      -7.283   7.113 -41.006  1.00  0.00    -0.000 C 
BRANCH  17  18
ATOM     18  C   UNL     1      -7.758   5.706 -41.398  1.00  0.00    -0.000 C 
BRANCH  18  19
ATOM     19  C   UNL     1      -8.443   4.969 -40.238  1.00  0.00    -0.003 C 
ATOM     20  C   UNL     1      -9.218   3.735 -40.699  1.00  0.00     0.004 C 
ENDBRANCH  18  19
ENDBRANCH  17  18
ENDBRANCH  16  17
ENDBRANCH  15  16
ENDBRANCH  14  15
ENDBRANCH  13  14
ENDBRANCH  12  13
ENDBRANCH   1  12
TORSDOF 16
ENDMDL
MODEL 7
REMARK VINA RESULT:    -4.393      2.764      3.976
REMARK INTER + INTRA:          -9.638
REMARK INTER:                  -8.941
REMARK INTRA:                  -0.697
REMARK UNBOUND:                -1.136
REMARK SMILES CCCCCCCCCCCCCCCCCC(=O)[O-]
REMARK SMILES IDX 10 1 11 2 12 3 13 4 14 5 15 6 16 7 17 8 18 9 19 10 20 11
REMARK SMILES IDX 9 12 8 13 7 14 6 15 5 16 4 17 3 18 2 19 1 20
REMARK H PARENT
REMARK Flexibility Score: inf
ROOT
ATOM      1  C   UNL     1      -2.882   8.652 -38.995  1.00  0.00     0.000 C 
ENDROOT
BRANCH   1   2
ATOM      2  C   UNL     1      -3.687   9.343 -40.115  1.00  0.00     0.000 C 
BRANCH   2   3
ATOM      3  C   UNL     1      -5.192   9.445 -39.815  1.00  0.00     0.000 C 
BRANCH   3   4
ATOM      4  C   UNL     1      -5.602   8.686 -38.545  1.00  0.00     0.000 C 
BRANCH   4   5
ATOM      5  C   UNL     1      -7.128   8.620 -38.408  1.00  0.00     0.000 C 
BRANCH   5   6
ATOM      6  C   UNL     1      -7.789   8.327 -39.764  1.00  0.00     0.000 C 
BRANCH   6   7
ATOM      7  C   UNL     1      -7.212   7.078 -40.448  1.00  0.00     0.006 C 
BRANCH   7   8
ATOM      8  C   UNL     1      -7.919   5.786 -40.017  1.00  0.00     0.053 C 
BRANCH   8   9
ATOM      9  C   UNL     1      -8.195   4.921 -41.207  1.00  0.00     0.041 C 
ATOM     10  O   UNL     1      -7.758   5.246 -42.342  1.00  0.00    -0.550 OA
ATOM     11  O   UNL     1      -8.906   3.737 -41.056  1.00  0.00    -0.550 OA
ENDBRANCH   8   9
ENDBRANCH   7   8
ENDBRANCH   6   7
ENDBRANCH   5   6
ENDBRANCH   4   5
ENDBRANCH   3   4
ENDBRANCH   2   3
ENDBRANCH   1   2
BRANCH   1  12
ATOM     12  C   UNL     1      -1.377   8.590 -39.315  1.00  0.00     0.000 C 
BRANCH  12  13
ATOM     13  C   UNL     1      -0.566   9.635 -38.533  1.00  0.00    -0.000 C 
BRANCH  13  14
ATOM     14  C   UNL     1      -1.466  10.586 -37.723  1.00  0.00    -0.000 C 
BRANCH  14  15
ATOM     15  C   UNL     1      -0.856  11.988 -37.570  1.00  0.00    -0.000 C 
BRANCH  15  16
ATOM     16  C   UNL     1       0.679  11.971 -37.598  1.00  0.00    -0.000 C 
BRANCH  16  17
ATOM     17  C   UNL     1       1.216  12.781 -38.782  1.00  0.00    -0.000 C 
BRANCH  17  18
ATOM     18  C   UNL     1       1.834  11.860 -39.845  1.00  0.00    -0.000 C 
BRANCH  18  19
ATOM     19  C   UNL     1       2.564  12.639 -40.950  1.00  0.00    -0.003 C 
ATOM     20  C   UNL     1       3.096  11.730 -42.058  1.00  0.00     0.004 C 
ENDBRANCH  18  19
ENDBRANCH  17  18
ENDBRANCH  16  17
ENDBRANCH  15  16
ENDBRANCH  14  15
ENDBRANCH  13  14
ENDBRANCH  12  13
ENDBRANCH   1  12
TORSDOF 16
ENDMDL
MODEL 8
REMARK VINA RESULT:    -4.304      2.807      4.129
REMARK INTER + INTRA:          -9.465
REMARK INTER:                  -8.635
REMARK INTRA:                  -0.830
REMARK UNBOUND:                -1.136
REMARK SMILES CCCCCCCCCCCCCCCCCC(=O)[O-]
REMARK SMILES IDX 10 1 11 2 12 3 13 4 14 5 15 6 16 7 17 8 18 9 19 10 20 11
REMARK SMILES IDX 9 12 8 13 7 14 6 15 5 16 4 17 3 18 2 19 1 20
REMARK H PARENT
REMARK Flexibility Score: inf
ROOT
ATOM      1  C   UNL     1      -0.797  12.246 -37.838  1.00  0.00     0.000 C 
ENDROOT
BRANCH   1   2
ATOM      2  C   UNL     1      -1.253  12.532 -36.392  1.00  0.00     0.000 C 
BRANCH   2   3
ATOM      3  C   UNL     1      -2.483  11.713 -35.964  1.00  0.00     0.000 C 
BRANCH   3   4
ATOM      4  C   UNL     1      -2.615  10.388 -36.728  1.00  0.00     0.000 C 
BRANCH   4   5
ATOM      5  C   UNL     1      -4.064   9.885 -36.715  1.00  0.00     0.000 C 
BRANCH   5   6
ATOM      6  C   UNL     1      -4.239   8.694 -37.669  1.00  0.00     0.000 C 
BRANCH   6   7
ATOM      7  C   UNL     1      -4.755   9.112 -39.055  1.00  0.00     0.006 C 
BRANCH   7   8
ATOM      8  C   UNL     1      -6.156   8.565 -39.356  1.00  0.00     0.053 C 
BRANCH   8   9
ATOM      9  C   UNL     1      -7.184   9.639 -39.178  1.00  0.00     0.041 C 
ATOM     10  O   UNL     1      -7.182  10.649 -39.930  1.00  0.00    -0.550 OA
ATOM     11  O   UNL     1      -8.166   9.508 -38.203  1.00  0.00    -0.550 OA
ENDBRANCH   8   9
ENDBRANCH   7   8
ENDBRANCH   6   7
ENDBRANCH   5   6
ENDBRANCH   4   5
ENDBRANCH   3   4
ENDBRANCH   2   3
ENDBRANCH   1   2
BRANCH   1  12
ATOM     12  C   UNL     1       0.389  11.265 -37.890  1.00  0.00     0.000 C 
BRANCH  12  13
ATOM     13  C   UNL     1       0.217  10.192 -38.976  1.00  0.00    -0.000 C 
BRANCH  13  14
ATOM     14  C   UNL     1      -0.517   8.943 -38.453  1.00  0.00    -0.000 C 
BRANCH  14  15
ATOM     15  C   UNL     1      -1.363   8.258 -39.538  1.00  0.00    -0.000 C 
BRANCH  15  16
ATOM     16  C   UNL     1      -0.579   7.182 -40.305  1.00  0.00    -0.000 C 
BRANCH  16  17
ATOM     17  C   UNL     1       0.001   7.749 -41.605  1.00  0.00    -0.000 C 
BRANCH  17  18
ATOM     18  C   UNL     1       0.770   6.670 -42.382  1.00  0.00    -0.000 C 
BRANCH  18  19
ATOM     19  C   UNL     1       1.308   5.557 -41.470  1.00  0.00    -0.003 C 
ATOM     20  C   UNL     1       2.804   5.309 -41.663  1.00  0.00     0.004 C 
ENDBRANCH  18  19
ENDBRANCH  17  18
ENDBRANCH  16  17
ENDBRANCH  15  16
ENDBRANCH  14  15
ENDBRANCH  13  14
ENDBRANCH  12  13
ENDBRANCH   1  12
TORSDOF 16
ENDMDL
MODEL 9
REMARK VINA RESULT:    -4.268      5.333      9.421
REMARK INTER + INTRA:          -9.395
REMARK INTER:                  -8.605
REMARK INTRA:                  -0.791
REMARK UNBOUND:                -1.136
REMARK SMILES CCCCCCCCCCCCCCCCCC(=O)[O-]
REMARK SMILES IDX 10 1 11 2 12 3 13 4 14 5 15 6 16 7 17 8 18 9 19 10 20 11
REMARK SMILES IDX 9 12 8 13 7 14 6 15 5 16 4 17 3 18 2 19 1 20
REMARK H PARENT
REMARK Flexibility Score: inf
ROOT
ATOM      1  C   UNL     1      -1.498   8.248 -39.629  1.00  0.00     0.000 C 
ENDROOT
BRANCH   1   2
ATOM      2  C   UNL     1      -1.062   8.728 -38.229  1.00  0.00     0.000 C 
BRANCH   2   3
ATOM      3  C   UNL     1      -0.403  10.117 -38.235  1.00  0.00     0.000 C 
BRANCH   3   4
ATOM      4  C   UNL     1      -1.283  11.200 -37.596  1.00  0.00     0.000 C 
BRANCH   4   5
ATOM      5  C   UNL     1      -0.580  12.563 -37.609  1.00  0.00     0.000 C 
BRANCH   5   6
ATOM      6  C   UNL     1       0.934  12.398 -37.806  1.00  0.00     0.000 C 
BRANCH   6   7
ATOM      7  C   UNL     1       1.399  12.805 -39.213  1.00  0.00     0.006 C 
BRANCH   7   8
ATOM      8  C   UNL     1       1.973  11.627 -40.011  1.00  0.00     0.053 C 
BRANCH   8   9
ATOM      9  C   UNL     1       2.706  12.124 -41.219  1.00  0.00     0.041 C 
ATOM     10  O   UNL     1       2.796  11.402 -42.247  1.00  0.00    -0.550 OA
ATOM     11  O   UNL     1       3.261  13.398 -41.221  1.00  0.00    -0.550 OA
ENDBRANCH   8   9
ENDBRANCH   7   8
ENDBRANCH   6   7
ENDBRANCH   5   6
ENDBRANCH   4   5
ENDBRANCH   3   4
ENDBRANCH   2   3
ENDBRANCH   1   2
BRANCH   1  12
ATOM     12  C   UNL     1      -2.780   8.952 -40.111  1.00  0.00     0.000 C 
BRANCH  12  13
ATOM     13  C   UNL     1      -3.841   9.063 -39.006  1.00  0.00    -0.000 C 
BRANCH  13  14
ATOM     14  C   UNL     1      -5.272   9.115 -39.574  1.00  0.00    -0.000 C 
BRANCH  14  15
ATOM     15  C   UNL     1      -6.324   8.617 -38.570  1.00  0.00    -0.000 C 
BRANCH  15  16
ATOM     16  C   UNL     1      -7.404   7.747 -39.230  1.00  0.00    -0.000 C 
BRANCH  16  17
ATOM     17  C   UNL     1      -7.122   7.561 -40.725  1.00  0.00    -0.000 C 
BRANCH  17  18
ATOM     18  C   UNL     1      -7.690   6.228 -41.231  1.00  0.00    -0.000 C 
BRANCH  18  19
ATOM     19  C   UNL     1      -8.213   5.338 -40.092  1.00  0.00    -0.003 C 
ATOM     20  C   UNL     1      -8.882   4.062 -40.601  1.00  0.00     0.004 C 
ENDBRANCH  18  19
ENDBRANCH  17  18
ENDBRANCH  16  17
ENDBRANCH  15  16
ENDBRANCH  14  15
ENDBRANCH  13  14
ENDBRANCH  12  13
ENDBRANCH   1  12
TORSDOF 16
ENDMDL
