MODEL 1
REMARK VINA RESULT:    -5.914      0.000      0.000
REMARK INTER + INTRA:          -6.916
REMARK INTER:                  -6.778
REMARK INTRA:                  -0.139
REMARK UNBOUND:                -0.139
REMARK SMILES O=C([O-])C=Cc1ccc(O)cc1
REMARK SMILES IDX 6 1 7 2 12 3 8 4 11 5 9 6 5 7 4 8 2 9 1 10 3 11 10 12
REMARK H PARENT 10 13
REMARK Flexibility Score: inf
ROOT
ATOM      1  C   UNL     1      72.810  41.437  -4.102  1.00  0.00    -0.025 A 
ATOM      2  C   UNL     1      73.680  41.217  -5.183  1.00  0.00     0.012 A 
ATOM      3  C   UNL     1      71.607  40.703  -4.038  1.00  0.00     0.012 A 
ATOM      4  C   UNL     1      73.372  40.270  -6.164  1.00  0.00     0.047 A 
ATOM      5  C   UNL     1      71.301  39.759  -5.022  1.00  0.00     0.047 A 
ATOM      6  C   UNL     1      72.185  39.537  -6.086  1.00  0.00     0.115 A 
ENDROOT
BRANCH   1   7
ATOM      7  C   UNL     1      73.177  42.460  -3.092  1.00  0.00     0.010 C 
ATOM      8  C   UNL     1      73.160  43.779  -3.326  1.00  0.00     0.025 C 
BRANCH   8   9
ATOM      9  C   UNL     1      73.519  44.766  -2.294  1.00  0.00     0.064 C 
ATOM     10  O   UNL     1      73.189  44.599  -1.089  1.00  0.00    -0.545 OA
ATOM     11  O   UNL     1      74.236  45.899  -2.654  1.00  0.00    -0.545 OA
ENDBRANCH   8   9
ENDBRANCH   1   7
BRANCH   6  12
ATOM     12  O   UNL     1      71.890  38.596  -7.070  1.00  0.00    -0.508 OA
ATOM     13  H   UNL     1      71.709  37.626  -6.839  1.00  0.00     0.293 HD
ENDBRANCH   6  12
TORSDOF 3
ENDMDL
MODEL 2
REMARK VINA RESULT:    -4.990      1.581      5.699
REMARK INTER + INTRA:          -5.858
REMARK INTER:                  -5.719
REMARK INTRA:                  -0.139
REMARK UNBOUND:                -0.139
REMARK SMILES O=C([O-])C=Cc1ccc(O)cc1
REMARK SMILES IDX 6 1 7 2 12 3 8 4 11 5 9 6 5 7 4 8 2 9 1 10 3 11 10 12
REMARK H PARENT 10 13
REMARK Flexibility Score: inf
ROOT
ATOM      1  C   UNL     1      73.922  42.789  -4.488  1.00  0.00    -0.025 A 
ATOM      2  C   UNL     1      74.326  44.132  -4.407  1.00  0.00     0.012 A 
ATOM      3  C   UNL     1      73.216  42.225  -3.405  1.00  0.00     0.012 A 
ATOM      4  C   UNL     1      74.012  44.904  -3.284  1.00  0.00     0.047 A 
ATOM      5  C   UNL     1      72.905  42.999  -2.284  1.00  0.00     0.047 A 
ATOM      6  C   UNL     1      73.300  44.342  -2.221  1.00  0.00     0.115 A 
ENDROOT
BRANCH   1   7
ATOM      7  C   UNL     1      74.288  42.009  -5.697  1.00  0.00     0.010 C 
ATOM      8  C   UNL     1      73.672  40.879  -6.070  1.00  0.00     0.025 C 
BRANCH   8   9
ATOM      9  C   UNL     1      74.055  40.138  -7.283  1.00  0.00     0.064 C 
ATOM     10  O   UNL     1      73.426  39.106  -7.643  1.00  0.00    -0.545 OA
ATOM     11  O   UNL     1      75.125  40.584  -8.046  1.00  0.00    -0.545 OA
ENDBRANCH   8   9
ENDBRANCH   1   7
BRANCH   6  12
ATOM     12  O   UNL     1      72.994  45.121  -1.108  1.00  0.00    -0.508 OA
ATOM     13  H   UNL     1      72.849  46.121  -1.185  1.00  0.00     0.293 HD
ENDBRANCH   6  12
TORSDOF 3
ENDMDL
MODEL 3
REMARK VINA RESULT:    -4.968      1.755      2.145
REMARK INTER + INTRA:          -5.832
REMARK INTER:                  -5.692
REMARK INTRA:                  -0.140
REMARK UNBOUND:                -0.139
REMARK SMILES O=C([O-])C=Cc1ccc(O)cc1
REMARK SMILES IDX 6 1 7 2 12 3 8 4 11 5 9 6 5 7 4 8 2 9 1 10 3 11 10 12
REMARK H PARENT 10 13
REMARK Flexibility Score: inf
ROOT
ATOM      1  C   UNL     1      73.505  42.415  -3.748  1.00  0.00    -0.025 A 
ATOM      2  C   UNL     1      74.488  42.982  -4.575  1.00  0.00     0.012 A 
ATOM      3  C   UNL     1      72.879  41.219  -4.157  1.00  0.00     0.012 A 
ATOM      4  C   UNL     1      74.860  42.359  -5.770  1.00  0.00     0.047 A 
ATOM      5  C   UNL     1      73.252  40.599  -5.353  1.00  0.00     0.047 A 
ATOM      6  C   UNL     1      74.246  41.167  -6.162  1.00  0.00     0.115 A 
ENDROOT
BRANCH   1   7
ATOM      7  C   UNL     1      73.138  43.120  -2.494  1.00  0.00     0.010 C 
ATOM      8  C   UNL     1      72.496  44.296  -2.460  1.00  0.00     0.025 C 
BRANCH   8   9
ATOM      9  C   UNL     1      72.138  44.961  -1.197  1.00  0.00     0.064 C 
ATOM     10  O   UNL     1      72.666  44.616  -0.105  1.00  0.00    -0.545 OA
ATOM     11  O   UNL     1      71.203  45.987  -1.206  1.00  0.00    -0.545 OA
ENDBRANCH   8   9
ENDBRANCH   1   7
BRANCH   6  12
ATOM     12  O   UNL     1      74.626  40.556  -7.354  1.00  0.00    -0.508 OA
ATOM     13  H   UNL     1      75.100  41.071  -8.087  1.00  0.00     0.293 HD
ENDBRANCH   6  12
TORSDOF 3
ENDMDL
MODEL 4
REMARK VINA RESULT:    -4.430     14.059     14.910
REMARK INTER + INTRA:          -5.216
REMARK INTER:                  -5.065
REMARK INTRA:                  -0.150
REMARK UNBOUND:                -0.139
REMARK SMILES O=C([O-])C=Cc1ccc(O)cc1
REMARK SMILES IDX 6 1 7 2 12 3 8 4 11 5 9 6 5 7 4 8 2 9 1 10 3 11 10 12
REMARK H PARENT 10 13
REMARK Flexibility Score: inf
ROOT
ATOM      1  C   UNL     1      68.492  48.711   8.426  1.00  0.00    -0.025 A 
ATOM      2  C   UNL     1      68.352  47.936   7.263  1.00  0.00     0.012 A 
ATOM      3  C   UNL     1      67.357  48.938   9.233  1.00  0.00     0.012 A 
ATOM      4  C   UNL     1      67.116  47.376   6.924  1.00  0.00     0.047 A 
ATOM      5  C   UNL     1      66.123  48.378   8.890  1.00  0.00     0.047 A 
ATOM      6  C   UNL     1      66.000  47.593   7.736  1.00  0.00     0.115 A 
ENDROOT
BRANCH   1   7
ATOM      7  C   UNL     1      69.822  49.292   8.737  1.00  0.00     0.010 C 
ATOM      8  C   UNL     1      70.820  49.387   7.848  1.00  0.00     0.025 C 
BRANCH   8   9
ATOM      9  C   UNL     1      72.123  49.981   8.189  1.00  0.00     0.064 C 
ATOM     10  O   UNL     1      72.420  51.152   7.832  1.00  0.00    -0.545 OA
ATOM     11  O   UNL     1      73.041  49.238   8.920  1.00  0.00    -0.545 OA
ENDBRANCH   8   9
ENDBRANCH   1   7
BRANCH   6  12
ATOM     12  O   UNL     1      64.774  47.030   7.388  1.00  0.00    -0.508 OA
ATOM     13  H   UNL     1      64.383  46.251   7.905  1.00  0.00     0.293 HD
ENDBRANCH   6  12
TORSDOF 3
ENDMDL
MODEL 5
REMARK VINA RESULT:    -4.311     14.782     15.904
REMARK INTER + INTRA:          -5.079
REMARK INTER:                  -4.926
REMARK INTRA:                  -0.153
REMARK UNBOUND:                -0.139
REMARK SMILES O=C([O-])C=Cc1ccc(O)cc1
REMARK SMILES IDX 6 1 7 2 12 3 8 4 11 5 9 6 5 7 4 8 2 9 1 10 3 11 10 12
REMARK H PARENT 10 13
REMARK Flexibility Score: inf
ROOT
ATOM      1  C   UNL     1      63.616  45.222   8.656  1.00  0.00    -0.025 A 
ATOM      2  C   UNL     1      63.981  44.112   7.876  1.00  0.00     0.012 A 
ATOM      3  C   UNL     1      62.427  45.160   9.412  1.00  0.00     0.012 A 
ATOM      4  C   UNL     1      63.194  42.956   7.869  1.00  0.00     0.047 A 
ATOM      5  C   UNL     1      61.641  44.004   9.401  1.00  0.00     0.047 A 
ATOM      6  C   UNL     1      62.025  42.898   8.632  1.00  0.00     0.115 A 
ENDROOT
BRANCH   1   7
ATOM      7  C   UNL     1      64.480  46.429   8.622  1.00  0.00     0.010 C 
ATOM      8  C   UNL     1      65.659  46.484   7.988  1.00  0.00     0.025 C 
BRANCH   8   9
ATOM      9  C   UNL     1      66.483  47.703   7.965  1.00  0.00     0.064 C 
ATOM     10  O   UNL     1      66.216  48.685   8.710  1.00  0.00    -0.545 OA
ATOM     11  O   UNL     1      67.576  47.773   7.112  1.00  0.00    -0.545 OA
ENDBRANCH   8   9
ENDBRANCH   1   7
BRANCH   6  12
ATOM     12  O   UNL     1      61.249  41.740   8.616  1.00  0.00    -0.508 OA
ATOM     13  H   UNL     1      60.523  41.598   7.924  1.00  0.00     0.293 HD
ENDBRANCH   6  12
TORSDOF 3
ENDMDL
MODEL 6
REMARK VINA RESULT:    -4.272     14.162     15.604
REMARK INTER + INTRA:          -5.035
REMARK INTER:                  -4.892
REMARK INTRA:                  -0.143
REMARK UNBOUND:                -0.139
REMARK SMILES O=C([O-])C=Cc1ccc(O)cc1
REMARK SMILES IDX 6 1 7 2 12 3 8 4 11 5 9 6 5 7 4 8 2 9 1 10 3 11 10 12
REMARK H PARENT 10 13
REMARK Flexibility Score: inf
ROOT
ATOM      1  C   UNL     1      70.523  48.937   9.125  1.00  0.00    -0.025 A 
ATOM      2  C   UNL     1      71.022  49.198   7.838  1.00  0.00     0.012 A 
ATOM      3  C   UNL     1      71.417  48.501  10.125  1.00  0.00     0.012 A 
ATOM      4  C   UNL     1      72.385  49.054   7.559  1.00  0.00     0.047 A 
ATOM      5  C   UNL     1      72.779  48.356   9.842  1.00  0.00     0.047 A 
ATOM      6  C   UNL     1      73.266  48.636   8.559  1.00  0.00     0.115 A 
ENDROOT
BRANCH   1   7
ATOM      7  C   UNL     1      69.068  49.095   9.368  1.00  0.00     0.010 C 
ATOM      8  C   UNL     1      68.123  48.410   8.709  1.00  0.00     0.025 C 
BRANCH   8   9
ATOM      9  C   UNL     1      66.688  48.584   8.986  1.00  0.00     0.064 C 
ATOM     10  O   UNL     1      66.291  49.268   9.968  1.00  0.00    -0.545 OA
ATOM     11  O   UNL     1      65.754  47.987   8.150  1.00  0.00    -0.545 OA
ENDBRANCH   8   9
ENDBRANCH   1   7
BRANCH   6  12
ATOM     12  O   UNL     1      74.622  48.496   8.268  1.00  0.00    -0.508 OA
ATOM     13  H   UNL     1      74.945  48.308   7.327  1.00  0.00     0.293 HD
ENDBRANCH   6  12
TORSDOF 3
ENDMDL
MODEL 7
REMARK VINA RESULT:    -4.179     14.346     15.626
REMARK INTER + INTRA:          -4.928
REMARK INTER:                  -4.793
REMARK INTRA:                  -0.136
REMARK UNBOUND:                -0.139
REMARK SMILES O=C([O-])C=Cc1ccc(O)cc1
REMARK SMILES IDX 6 1 7 2 12 3 8 4 11 5 9 6 5 7 4 8 2 9 1 10 3 11 10 12
REMARK H PARENT 10 13
REMARK Flexibility Score: inf
ROOT
ATOM      1  C   UNL     1      70.178  48.911   8.926  1.00  0.00    -0.025 A 
ATOM      2  C   UNL     1      70.960  48.487  10.012  1.00  0.00     0.012 A 
ATOM      3  C   UNL     1      70.823  49.302   7.734  1.00  0.00     0.012 A 
ATOM      4  C   UNL     1      72.354  48.428   9.906  1.00  0.00     0.047 A 
ATOM      5  C   UNL     1      72.216  49.243   7.632  1.00  0.00     0.047 A 
ATOM      6  C   UNL     1      72.985  48.803   8.718  1.00  0.00     0.115 A 
ENDROOT
BRANCH   1   7
ATOM      7  C   UNL     1      68.704  48.966   9.092  1.00  0.00     0.010 C 
ATOM      8  C   UNL     1      67.846  48.213   8.390  1.00  0.00     0.025 C 
BRANCH   8   9
ATOM      9  C   UNL     1      66.389  48.286   8.590  1.00  0.00     0.064 C 
ATOM     10  O   UNL     1      65.591  47.743   7.779  1.00  0.00    -0.545 OA
ATOM     11  O   UNL     1      65.885  48.962   9.693  1.00  0.00    -0.545 OA
ENDBRANCH   8   9
ENDBRANCH   1   7
BRANCH   6  12
ATOM     12  O   UNL     1      74.373  48.739   8.625  1.00  0.00    -0.508 OA
ATOM     13  H   UNL     1      74.887  49.311   7.965  1.00  0.00     0.293 HD
ENDBRANCH   6  12
TORSDOF 3
ENDMDL
MODEL 8
REMARK VINA RESULT:    -4.143      9.870     13.515
REMARK INTER + INTRA:          -4.887
REMARK INTER:                  -4.750
REMARK INTRA:                  -0.137
REMARK UNBOUND:                -0.139
REMARK SMILES O=C([O-])C=Cc1ccc(O)cc1
REMARK SMILES IDX 6 1 7 2 12 3 8 4 11 5 9 6 5 7 4 8 2 9 1 10 3 11 10 12
REMARK H PARENT 10 13
REMARK Flexibility Score: inf
ROOT
ATOM      1  C   UNL     1      71.386  48.443   6.711  1.00  0.00    -0.025 A 
ATOM      2  C   UNL     1      70.002  48.271   6.546  1.00  0.00     0.012 A 
ATOM      3  C   UNL     1      71.855  49.131   7.850  1.00  0.00     0.012 A 
ATOM      4  C   UNL     1      69.105  48.750   7.506  1.00  0.00     0.047 A 
ATOM      5  C   UNL     1      70.955  49.610   8.806  1.00  0.00     0.047 A 
ATOM      6  C   UNL     1      69.578  49.418   8.638  1.00  0.00     0.115 A 
ENDROOT
BRANCH   1   7
ATOM      7  C   UNL     1      72.297  47.925   5.660  1.00  0.00     0.010 C 
ATOM      8  C   UNL     1      72.452  46.623   5.382  1.00  0.00     0.025 C 
BRANCH   8   9
ATOM      9  C   UNL     1      73.356  46.147   4.323  1.00  0.00     0.064 C 
ATOM     10  O   UNL     1      74.608  46.213   4.455  1.00  0.00    -0.545 OA
ATOM     11  O   UNL     1      72.821  45.612   3.159  1.00  0.00    -0.545 OA
ENDBRANCH   8   9
ENDBRANCH   1   7
BRANCH   6  12
ATOM     12  O   UNL     1      68.674  49.890   9.587  1.00  0.00    -0.508 OA
ATOM     13  H   UNL     1      68.611  50.876   9.816  1.00  0.00     0.293 HD
ENDBRANCH   6  12
TORSDOF 3
ENDMDL
MODEL 9
REMARK VINA RESULT:    -4.061     11.858     14.898
REMARK INTER + INTRA:          -4.794
REMARK INTER:                  -4.657
REMARK INTRA:                  -0.137
REMARK UNBOUND:                -0.139
REMARK SMILES O=C([O-])C=Cc1ccc(O)cc1
REMARK SMILES IDX 6 1 7 2 12 3 8 4 11 5 9 6 5 7 4 8 2 9 1 10 3 11 10 12
REMARK H PARENT 10 13
REMARK Flexibility Score: inf
ROOT
ATOM      1  C   UNL     1      68.339  48.306   8.006  1.00  0.00    -0.025 A 
ATOM      2  C   UNL     1      67.171  47.648   7.586  1.00  0.00     0.012 A 
ATOM      3  C   UNL     1      68.263  49.197   9.096  1.00  0.00     0.012 A 
ATOM      4  C   UNL     1      65.959  47.854   8.253  1.00  0.00     0.047 A 
ATOM      5  C   UNL     1      67.050  49.402   9.760  1.00  0.00     0.047 A 
ATOM      6  C   UNL     1      65.894  48.728   9.341  1.00  0.00     0.115 A 
ENDROOT
BRANCH   1   7
ATOM      7  C   UNL     1      69.598  48.062   7.259  1.00  0.00     0.010 C 
ATOM      8  C   UNL     1      69.916  48.678   6.113  1.00  0.00     0.025 C 
BRANCH   8   9
ATOM      9  C   UNL     1      71.181  48.420   5.406  1.00  0.00     0.064 C 
ATOM     10  O   UNL     1      71.264  48.534   4.153  1.00  0.00    -0.545 OA
ATOM     11  O   UNL     1      72.305  48.047   6.131  1.00  0.00    -0.545 OA
ENDBRANCH   8   9
ENDBRANCH   1   7
BRANCH   6  12
ATOM     12  O   UNL     1      64.681  48.924   9.997  1.00  0.00    -0.508 OA
ATOM     13  H   UNL     1      63.918  49.428   9.561  1.00  0.00     0.293 HD
ENDBRANCH   6  12
TORSDOF 3
ENDMDL
