MODEL 1
REMARK VINA RESULT:    -5.554      0.000      0.000
REMARK INTER + INTRA:          -7.025
REMARK INTER:                  -6.690
REMARK INTRA:                  -0.334
REMARK UNBOUND:                -0.334
REMARK SMILES O=c1c(O)c(-c2ccc(O)c(O)c2)oc2cc(O)cc(O)c12
REMARK SMILES IDX 5 1 3 2 2 3 1 4 22 5 20 6 19 7 17 8 16 9 15 10 14 11 6 12
REMARK SMILES IDX 7 13 8 14 9 15 13 16 11 17 10 18 12 20 4 22 21 24 18 26
REMARK H PARENT 10 19 12 21 4 23 21 25 18 27
REMARK Flexibility Score: inf
ROOT
ATOM      1  C   UNL     1      95.685  -3.894  -8.224  1.00  0.00     0.180 A 
ATOM      2  C   UNL     1      94.974  -5.106  -8.215  1.00  0.00     0.208 A 
ATOM      3  C   UNL     1      95.115  -5.970  -7.116  1.00  0.00     0.238 A 
ATOM      4  O   UNL     1      94.433  -7.028  -7.089  1.00  0.00    -0.285 OA
ATOM      5  C   UNL     1      95.978  -5.620  -6.051  1.00  0.00     0.111 A 
ATOM      6  C   UNL     1      96.227  -6.437  -4.908  1.00  0.00     0.134 A 
ATOM      7  C   UNL     1      96.998  -5.934  -3.853  1.00  0.00     0.093 A 
ATOM      8  C   UNL     1      97.581  -4.669  -3.927  1.00  0.00     0.123 A 
ATOM      9  C   UNL     1      97.392  -3.885  -5.065  1.00  0.00     0.094 A 
ATOM     10  C   UNL     1      96.599  -4.345  -6.119  1.00  0.00     0.146 A 
ATOM     11  O   UNL     1      96.435  -3.564  -7.179  1.00  0.00    -0.452 OA
ENDROOT
BRANCH   1  12
ATOM     12  C   UNL     1      95.608  -2.944  -9.357  1.00  0.00     0.025 A 
ATOM     13  C   UNL     1      94.686  -1.886  -9.310  1.00  0.00     0.016 A 
ATOM     14  C   UNL     1      94.610  -0.966 -10.359  1.00  0.00     0.051 A 
ATOM     15  C   UNL     1      95.463  -1.079 -11.461  1.00  0.00     0.157 A 
ATOM     16  C   UNL     1      96.479  -3.042 -10.457  1.00  0.00     0.062 A 
ATOM     17  C   UNL     1      96.406  -2.119 -11.509  1.00  0.00     0.158 A 
BRANCH  15  18
ATOM     18  O   UNL     1      95.363  -0.146 -12.493  1.00  0.00    -0.504 OA
ATOM     19  H   UNL     1      94.890   0.742 -12.371  1.00  0.00     0.293 HD
ENDBRANCH  15  18
BRANCH  17  20
ATOM     20  O   UNL     1      97.269  -2.228 -12.598  1.00  0.00    -0.504 OA
ATOM     21  H   UNL     1      97.462  -3.121 -13.035  1.00  0.00     0.293 HD
ENDBRANCH  17  20
ENDBRANCH   1  12
BRANCH   2  22
ATOM     22  O   UNL     1      94.110  -5.423  -9.267  1.00  0.00    -0.502 OA
ATOM     23  H   UNL     1      93.807  -4.738  -9.948  1.00  0.00     0.293 HD
ENDBRANCH   2  22
BRANCH   6  24
ATOM     24  O   UNL     1      95.769  -7.752  -4.773  1.00  0.00    -0.507 OA
ATOM     25  H   UNL     1      95.247  -8.253  -5.476  1.00  0.00     0.293 HD
ENDBRANCH   6  24
BRANCH   8  26
ATOM     26  O   UNL     1      98.354  -4.205  -2.865  1.00  0.00    -0.508 OA
ATOM     27  H   UNL     1      99.263  -3.784  -3.016  1.00  0.00     0.293 HD
ENDBRANCH   8  26
TORSDOF 6
ENDMDL
MODEL 2
REMARK VINA RESULT:    -5.367      1.673      3.404
REMARK INTER + INTRA:          -6.800
REMARK INTER:                  -6.593
REMARK INTRA:                  -0.207
REMARK UNBOUND:                -0.334
REMARK SMILES O=c1c(O)c(-c2ccc(O)c(O)c2)oc2cc(O)cc(O)c12
REMARK SMILES IDX 5 1 3 2 2 3 1 4 22 5 20 6 19 7 17 8 16 9 15 10 14 11 6 12
REMARK SMILES IDX 7 13 8 14 9 15 13 16 11 17 10 18 12 20 4 22 21 24 18 26
REMARK H PARENT 10 19 12 21 4 23 21 25 18 27
REMARK Flexibility Score: inf
ROOT
ATOM      1  C   UNL     1      95.094  -4.016  -8.513  1.00  0.00     0.180 A 
ATOM      2  C   UNL     1      96.063  -4.309  -7.537  1.00  0.00     0.208 A 
ATOM      3  C   UNL     1      95.773  -5.272  -6.557  1.00  0.00     0.238 A 
ATOM      4  O   UNL     1      96.665  -5.569  -5.720  1.00  0.00    -0.285 OA
ATOM      5  C   UNL     1      94.514  -5.918  -6.555  1.00  0.00     0.111 A 
ATOM      6  C   UNL     1      94.099  -6.880  -5.586  1.00  0.00     0.134 A 
ATOM      7  C   UNL     1      92.881  -7.551  -5.756  1.00  0.00     0.093 A 
ATOM      8  C   UNL     1      92.035  -7.249  -6.823  1.00  0.00     0.123 A 
ATOM      9  C   UNL     1      92.405  -6.267  -7.743  1.00  0.00     0.094 A 
ATOM     10  C   UNL     1      93.629  -5.607  -7.620  1.00  0.00     0.146 A 
ATOM     11  O   UNL     1      93.948  -4.687  -8.523  1.00  0.00    -0.452 OA
ENDROOT
BRANCH   1  12
ATOM     12  C   UNL     1      95.316  -2.996  -9.563  1.00  0.00     0.025 A 
ATOM     13  C   UNL     1      94.623  -1.777  -9.499  1.00  0.00     0.016 A 
ATOM     14  C   UNL     1      94.832  -0.793 -10.468  1.00  0.00     0.051 A 
ATOM     15  C   UNL     1      95.746  -1.004 -11.505  1.00  0.00     0.157 A 
ATOM     16  C   UNL     1      96.250  -3.198 -10.595  1.00  0.00     0.062 A 
ATOM     17  C   UNL     1      96.463  -2.211 -11.567  1.00  0.00     0.158 A 
BRANCH  15  18
ATOM     18  O   UNL     1      95.932  -0.003 -12.459  1.00  0.00    -0.504 OA
ATOM     19  H   UNL     1      96.827   0.452 -12.592  1.00  0.00     0.293 HD
ENDBRANCH  15  18
BRANCH  17  20
ATOM     20  O   UNL     1      97.385  -2.422 -12.590  1.00  0.00    -0.504 OA
ATOM     21  H   UNL     1      98.137  -1.766 -12.771  1.00  0.00     0.293 HD
ENDBRANCH  17  20
ENDBRANCH   1  12
BRANCH   2  22
ATOM     22  O   UNL     1      97.308  -3.675  -7.571  1.00  0.00    -0.502 OA
ATOM     23  H   UNL     1      97.837  -3.559  -8.426  1.00  0.00     0.293 HD
ENDBRANCH   2  22
BRANCH   6  24
ATOM     24  O   UNL     1      94.826  -7.191  -4.432  1.00  0.00    -0.507 OA
ATOM     25  H   UNL     1      95.758  -7.575  -4.427  1.00  0.00     0.293 HD
ENDBRANCH   6  24
BRANCH   8  26
ATOM     26  O   UNL     1      90.824  -7.925  -6.953  1.00  0.00    -0.508 OA
ATOM     27  H   UNL     1      89.937  -7.441  -6.878  1.00  0.00     0.293 HD
ENDBRANCH   8  26
TORSDOF 6
ENDMDL
MODEL 3
REMARK VINA RESULT:    -4.979      3.313      8.203
REMARK INTER + INTRA:          -6.333
REMARK INTER:                  -6.000
REMARK INTRA:                  -0.332
REMARK UNBOUND:                -0.334
REMARK SMILES O=c1c(O)c(-c2ccc(O)c(O)c2)oc2cc(O)cc(O)c12
REMARK SMILES IDX 5 1 3 2 2 3 1 4 22 5 20 6 19 7 17 8 16 9 15 10 14 11 6 12
REMARK SMILES IDX 7 13 8 14 9 15 13 16 11 17 10 18 12 20 4 22 21 24 18 26
REMARK H PARENT 10 19 12 21 4 23 21 25 18 27
REMARK Flexibility Score: inf
ROOT
ATOM      1  C   UNL     1      97.310  -5.826  -3.469  1.00  0.00     0.180 A 
ATOM      2  C   UNL     1      97.474  -4.620  -4.171  1.00  0.00     0.208 A 
ATOM      3  C   UNL     1      96.698  -4.390  -5.319  1.00  0.00     0.238 A 
ATOM      4  O   UNL     1      96.811  -3.285  -5.912  1.00  0.00    -0.285 OA
ATOM      5  C   UNL     1      95.781  -5.374  -5.759  1.00  0.00     0.111 A 
ATOM      6  C   UNL     1      94.973  -5.262  -6.930  1.00  0.00     0.134 A 
ATOM      7  C   UNL     1      94.007  -6.239  -7.198  1.00  0.00     0.093 A 
ATOM      8  C   UNL     1      93.862  -7.355  -6.374  1.00  0.00     0.123 A 
ATOM      9  C   UNL     1      94.687  -7.503  -5.258  1.00  0.00     0.094 A 
ATOM     10  C   UNL     1      95.636  -6.527  -4.945  1.00  0.00     0.146 A 
ATOM     11  O   UNL     1      96.393  -6.701  -3.869  1.00  0.00    -0.452 OA
ENDROOT
BRANCH   1  12
ATOM     12  C   UNL     1      98.108  -6.153  -2.265  1.00  0.00     0.025 A 
ATOM     13  C   UNL     1      97.577  -5.894  -0.992  1.00  0.00     0.016 A 
ATOM     14  C   UNL     1      98.305  -6.213   0.157  1.00  0.00     0.051 A 
ATOM     15  C   UNL     1      99.565  -6.807   0.053  1.00  0.00     0.157 A 
ATOM     16  C   UNL     1      99.368  -6.770  -2.367  1.00  0.00     0.062 A 
ATOM     17  C   UNL     1     100.099  -7.093  -1.215  1.00  0.00     0.158 A 
BRANCH  15  18
ATOM     18  O   UNL     1     100.269  -7.113   1.218  1.00  0.00    -0.504 OA
ATOM     19  H   UNL     1     101.241  -7.398   1.200  1.00  0.00     0.293 HD
ENDBRANCH  15  18
BRANCH  17  20
ATOM     20  O   UNL     1     101.349  -7.698  -1.325  1.00  0.00    -0.504 OA
ATOM     21  H   UNL     1     101.685  -8.066  -2.208  1.00  0.00     0.293 HD
ENDBRANCH  17  20
ENDBRANCH   1  12
BRANCH   2  22
ATOM     22  O   UNL     1      98.370  -3.652  -3.707  1.00  0.00    -0.502 OA
ATOM     23  H   UNL     1      99.239  -3.442  -4.182  1.00  0.00     0.293 HD
ENDBRANCH   2  22
BRANCH   6  24
ATOM     24  O   UNL     1      95.100  -4.235  -7.872  1.00  0.00    -0.507 OA
ATOM     25  H   UNL     1      95.189  -3.257  -7.645  1.00  0.00     0.293 HD
ENDBRANCH   6  24
BRANCH   8  26
ATOM     26  O   UNL     1      92.900  -8.315  -6.679  1.00  0.00    -0.508 OA
ATOM     27  H   UNL     1      93.138  -9.161  -7.184  1.00  0.00     0.293 HD
ENDBRANCH   8  26
TORSDOF 6
ENDMDL
MODEL 4
REMARK VINA RESULT:    -4.954      1.913      2.708
REMARK INTER + INTRA:          -6.302
REMARK INTER:                  -6.028
REMARK INTRA:                  -0.274
REMARK UNBOUND:                -0.334
REMARK SMILES O=c1c(O)c(-c2ccc(O)c(O)c2)oc2cc(O)cc(O)c12
REMARK SMILES IDX 5 1 3 2 2 3 1 4 22 5 20 6 19 7 17 8 16 9 15 10 14 11 6 12
REMARK SMILES IDX 7 13 8 14 9 15 13 16 11 17 10 18 12 20 4 22 21 24 18 26
REMARK H PARENT 10 19 12 21 4 23 21 25 18 27
REMARK Flexibility Score: inf
ROOT
ATOM      1  C   UNL     1      95.889  -2.433  -9.302  1.00  0.00     0.180 A 
ATOM      2  C   UNL     1      94.548  -2.513  -8.886  1.00  0.00     0.208 A 
ATOM      3  C   UNL     1      94.225  -3.314  -7.778  1.00  0.00     0.238 A 
ATOM      4  O   UNL     1      93.032  -3.337  -7.377  1.00  0.00    -0.285 OA
ATOM      5  C   UNL     1      95.243  -4.038  -7.112  1.00  0.00     0.111 A 
ATOM      6  C   UNL     1      95.023  -4.911  -6.005  1.00  0.00     0.134 A 
ATOM      7  C   UNL     1      96.119  -5.476  -5.342  1.00  0.00     0.093 A 
ATOM      8  C   UNL     1      97.423  -5.250  -5.784  1.00  0.00     0.123 A 
ATOM      9  C   UNL     1      97.645  -4.445  -6.902  1.00  0.00     0.094 A 
ATOM     10  C   UNL     1      96.574  -3.840  -7.563  1.00  0.00     0.146 A 
ATOM     11  O   UNL     1      96.829  -3.073  -8.615  1.00  0.00    -0.452 OA
ENDROOT
BRANCH   1  12
ATOM     12  C   UNL     1      96.304  -1.630 -10.474  1.00  0.00     0.025 A 
ATOM     13  C   UNL     1      96.544  -2.270 -11.700  1.00  0.00     0.016 A 
ATOM     14  C   UNL     1      96.918  -1.529 -12.824  1.00  0.00     0.051 A 
ATOM     15  C   UNL     1      97.042  -0.139 -12.745  1.00  0.00     0.157 A 
ATOM     16  C   UNL     1      96.409  -0.229 -10.402  1.00  0.00     0.062 A 
ATOM     17  C   UNL     1      96.781   0.516 -11.530  1.00  0.00     0.158 A 
BRANCH  15  18
ATOM     18  O   UNL     1      97.417   0.574 -13.884  1.00  0.00    -0.504 OA
ATOM     19  H   UNL     1      97.679   0.111 -14.746  1.00  0.00     0.293 HD
ENDBRANCH  15  18
BRANCH  17  20
ATOM     20  O   UNL     1      96.889   1.903 -11.448  1.00  0.00    -0.504 OA
ATOM     21  H   UNL     1      96.105   2.510 -11.658  1.00  0.00     0.293 HD
ENDBRANCH  17  20
ENDBRANCH   1  12
BRANCH   2  22
ATOM     22  O   UNL     1      93.563  -1.772  -9.544  1.00  0.00    -0.502 OA
ATOM     23  H   UNL     1      93.784  -1.010 -10.174  1.00  0.00     0.293 HD
ENDBRANCH   2  22
BRANCH   6  24
ATOM     24  O   UNL     1      93.756  -5.278  -5.539  1.00  0.00    -0.507 OA
ATOM     25  H   UNL     1      93.273  -4.830  -4.775  1.00  0.00     0.293 HD
ENDBRANCH   6  24
BRANCH   8  26
ATOM     26  O   UNL     1      98.489  -5.840  -5.109  1.00  0.00    -0.508 OA
ATOM     27  H   UNL     1      98.770  -6.796  -5.295  1.00  0.00     0.293 HD
ENDBRANCH   8  26
TORSDOF 6
ENDMDL
MODEL 5
REMARK VINA RESULT:    -4.920      3.772      5.685
REMARK INTER + INTRA:          -6.261
REMARK INTER:                  -5.996
REMARK INTRA:                  -0.266
REMARK UNBOUND:                -0.334
REMARK SMILES O=c1c(O)c(-c2ccc(O)c(O)c2)oc2cc(O)cc(O)c12
REMARK SMILES IDX 5 1 3 2 2 3 1 4 22 5 20 6 19 7 17 8 16 9 15 10 14 11 6 12
REMARK SMILES IDX 7 13 8 14 9 15 13 16 11 17 10 18 12 20 4 22 21 24 18 26
REMARK H PARENT 10 19 12 21 4 23 21 25 18 27
REMARK Flexibility Score: inf
ROOT
ATOM      1  C   UNL     1      97.473  -5.380  -8.232  1.00  0.00     0.180 A 
ATOM      2  C   UNL     1      96.921  -5.785  -7.005  1.00  0.00     0.208 A 
ATOM      3  C   UNL     1      95.799  -5.104  -6.505  1.00  0.00     0.238 A 
ATOM      4  O   UNL     1      95.276  -5.506  -5.433  1.00  0.00    -0.285 OA
ATOM      5  C   UNL     1      95.254  -4.017  -7.230  1.00  0.00     0.111 A 
ATOM      6  C   UNL     1      94.143  -3.232  -6.799  1.00  0.00     0.134 A 
ATOM      7  C   UNL     1      93.607  -2.264  -7.658  1.00  0.00     0.093 A 
ATOM      8  C   UNL     1      94.179  -2.010  -8.904  1.00  0.00     0.123 A 
ATOM      9  C   UNL     1      95.301  -2.732  -9.311  1.00  0.00     0.094 A 
ATOM     10  C   UNL     1      95.837  -3.728  -8.492  1.00  0.00     0.146 A 
ATOM     11  O   UNL     1      96.899  -4.400  -8.921  1.00  0.00    -0.452 OA
ENDROOT
BRANCH   1  12
ATOM     12  C   UNL     1      98.670  -6.032  -8.811  1.00  0.00     0.025 A 
ATOM     13  C   UNL     1      99.934  -5.774  -8.258  1.00  0.00     0.016 A 
ATOM     14  C   UNL     1     101.074  -6.394  -8.776  1.00  0.00     0.051 A 
ATOM     15  C   UNL     1     100.967  -7.290  -9.843  1.00  0.00     0.157 A 
ATOM     16  C   UNL     1      98.563  -6.950  -9.872  1.00  0.00     0.062 A 
ATOM     17  C   UNL     1      99.706  -7.575 -10.391  1.00  0.00     0.158 A 
BRANCH  15  18
ATOM     18  O   UNL     1     102.123  -7.892 -10.340  1.00  0.00    -0.504 OA
ATOM     19  H   UNL     1     102.818  -7.372 -10.862  1.00  0.00     0.293 HD
ENDBRANCH  15  18
BRANCH  17  20
ATOM     20  O   UNL     1      99.592  -8.478 -11.446  1.00  0.00    -0.504 OA
ATOM     21  H   UNL     1     100.409  -8.869 -11.901  1.00  0.00     0.293 HD
ENDBRANCH  17  20
ENDBRANCH   1  12
BRANCH   2  22
ATOM     22  O   UNL     1      97.461  -6.874  -6.316  1.00  0.00    -0.502 OA
ATOM     23  H   UNL     1      97.420  -6.955  -5.307  1.00  0.00     0.293 HD
ENDBRANCH   2  22
BRANCH   6  24
ATOM     24  O   UNL     1      93.553  -3.340  -5.536  1.00  0.00    -0.507 OA
ATOM     25  H   UNL     1      92.592  -3.594  -5.371  1.00  0.00     0.293 HD
ENDBRANCH   6  24
BRANCH   8  26
ATOM     26  O   UNL     1      93.628  -1.029  -9.726  1.00  0.00    -0.508 OA
ATOM     27  H   UNL     1      94.191  -0.532 -10.406  1.00  0.00     0.293 HD
ENDBRANCH   8  26
TORSDOF 6
ENDMDL
MODEL 6
REMARK VINA RESULT:    -4.849      2.617      4.134
REMARK INTER + INTRA:          -6.176
REMARK INTER:                  -6.388
REMARK INTRA:                   0.212
REMARK UNBOUND:                -0.334
REMARK SMILES O=c1c(O)c(-c2ccc(O)c(O)c2)oc2cc(O)cc(O)c12
REMARK SMILES IDX 5 1 3 2 2 3 1 4 22 5 20 6 19 7 17 8 16 9 15 10 14 11 6 12
REMARK SMILES IDX 7 13 8 14 9 15 13 16 11 17 10 18 12 20 4 22 21 24 18 26
REMARK H PARENT 10 19 12 21 4 23 21 25 18 27
REMARK Flexibility Score: inf
ROOT
ATOM      1  C   UNL     1      96.886  -4.709  -5.707  1.00  0.00     0.180 A 
ATOM      2  C   UNL     1      96.956  -4.392  -4.339  1.00  0.00     0.208 A 
ATOM      3  C   UNL     1      97.831  -5.120  -3.516  1.00  0.00     0.238 A 
ATOM      4  O   UNL     1      97.930  -4.795  -2.303  1.00  0.00    -0.285 OA
ATOM      5  C   UNL     1      98.610  -6.165  -4.066  1.00  0.00     0.111 A 
ATOM      6  C   UNL     1      99.499  -6.993  -3.317  1.00  0.00     0.134 A 
ATOM      7  C   UNL     1     100.317  -7.912  -3.986  1.00  0.00     0.093 A 
ATOM      8  C   UNL     1     100.233  -8.077  -5.369  1.00  0.00     0.123 A 
ATOM      9  C   UNL     1      99.325  -7.314  -6.103  1.00  0.00     0.094 A 
ATOM     10  C   UNL     1      98.521  -6.364  -5.468  1.00  0.00     0.146 A 
ATOM     11  O   UNL     1      97.679  -5.651  -6.205  1.00  0.00    -0.452 OA
ENDROOT
BRANCH   1  12
ATOM     12  C   UNL     1      95.971  -4.004  -6.633  1.00  0.00     0.025 A 
ATOM     13  C   UNL     1      94.703  -3.604  -6.182  1.00  0.00     0.016 A 
ATOM     14  C   UNL     1      93.832  -2.920  -7.034  1.00  0.00     0.051 A 
ATOM     15  C   UNL     1      94.219  -2.613  -8.341  1.00  0.00     0.157 A 
ATOM     16  C   UNL     1      96.365  -3.675  -7.943  1.00  0.00     0.062 A 
ATOM     17  C   UNL     1      95.493  -2.987  -8.798  1.00  0.00     0.158 A 
BRANCH  15  18
ATOM     18  O   UNL     1      93.326  -1.930  -9.168  1.00  0.00    -0.504 OA
ATOM     19  H   UNL     1      92.632  -2.413  -9.725  1.00  0.00     0.293 HD
ENDBRANCH  15  18
BRANCH  17  20
ATOM     20  O   UNL     1      95.890  -2.670 -10.096  1.00  0.00    -0.504 OA
ATOM     21  H   UNL     1      96.838  -2.380 -10.306  1.00  0.00     0.293 HD
ENDBRANCH  17  20
ENDBRANCH   1  12
BRANCH   2  22
ATOM     22  O   UNL     1      96.195  -3.341  -3.821  1.00  0.00    -0.502 OA
ATOM     23  H   UNL     1      96.273  -3.034  -2.859  1.00  0.00     0.293 HD
ENDBRANCH   2  22
BRANCH   6  24
ATOM     24  O   UNL     1      99.594  -6.975  -1.921  1.00  0.00    -0.507 OA
ATOM     25  H   UNL     1     100.456  -7.056  -1.404  1.00  0.00     0.293 HD
ENDBRANCH   6  24
BRANCH   8  26
ATOM     26  O   UNL     1     101.051  -9.011  -6.000  1.00  0.00    -0.508 OA
ATOM     27  H   UNL     1     101.043  -9.988  -5.733  1.00  0.00     0.293 HD
ENDBRANCH   8  26
TORSDOF 6
ENDMDL
MODEL 7
REMARK VINA RESULT:    -4.849      3.037      3.836
REMARK INTER + INTRA:          -6.176
REMARK INTER:                  -5.845
REMARK INTRA:                  -0.331
REMARK UNBOUND:                -0.334
REMARK SMILES O=c1c(O)c(-c2ccc(O)c(O)c2)oc2cc(O)cc(O)c12
REMARK SMILES IDX 5 1 3 2 2 3 1 4 22 5 20 6 19 7 17 8 16 9 15 10 14 11 6 12
REMARK SMILES IDX 7 13 8 14 9 15 13 16 11 17 10 18 12 20 4 22 21 24 18 26
REMARK H PARENT 10 19 12 21 4 23 21 25 18 27
REMARK Flexibility Score: inf
ROOT
ATOM      1  C   UNL     1      95.667  -2.186 -10.080  1.00  0.00     0.180 A 
ATOM      2  C   UNL     1      94.470  -2.300  -9.351  1.00  0.00     0.208 A 
ATOM      3  C   UNL     1      94.162  -3.524  -8.735  1.00  0.00     0.238 A 
ATOM      4  O   UNL     1      93.116  -3.602  -8.039  1.00  0.00    -0.285 OA
ATOM      5  C   UNL     1      95.044  -4.622  -8.869  1.00  0.00     0.111 A 
ATOM      6  C   UNL     1      94.812  -5.919  -8.321  1.00  0.00     0.134 A 
ATOM      7  C   UNL     1      95.814  -6.894  -8.405  1.00  0.00     0.093 A 
ATOM      8  C   UNL     1      97.012  -6.641  -9.072  1.00  0.00     0.123 A 
ATOM      9  C   UNL     1      97.225  -5.395  -9.663  1.00  0.00     0.094 A 
ATOM     10  C   UNL     1      96.259  -4.390  -9.565  1.00  0.00     0.146 A 
ATOM     11  O   UNL     1      96.506  -3.215 -10.132  1.00  0.00    -0.452 OA
ENDROOT
BRANCH   1  12
ATOM     12  C   UNL     1      96.049  -0.938 -10.778  1.00  0.00     0.025 A 
ATOM     13  C   UNL     1      96.860   0.001 -10.121  1.00  0.00     0.016 A 
ATOM     14  C   UNL     1      97.250   1.176 -10.768  1.00  0.00     0.051 A 
ATOM     15  C   UNL     1      96.849   1.424 -12.084  1.00  0.00     0.157 A 
ATOM     16  C   UNL     1      95.665  -0.696 -12.109  1.00  0.00     0.062 A 
ATOM     17  C   UNL     1      96.056   0.482 -12.761  1.00  0.00     0.158 A 
BRANCH  15  18
ATOM     18  O   UNL     1      97.252   2.607 -12.704  1.00  0.00    -0.504 OA
ATOM     19  H   UNL     1      97.906   2.613 -13.477  1.00  0.00     0.293 HD
ENDBRANCH  15  18
BRANCH  17  20
ATOM     20  O   UNL     1      95.665   0.717 -14.078  1.00  0.00    -0.504 OA
ATOM     21  H   UNL     1      96.142   1.397 -14.660  1.00  0.00     0.293 HD
ENDBRANCH  17  20
ENDBRANCH   1  12
BRANCH   2  22
ATOM     22  O   UNL     1      93.624  -1.196  -9.213  1.00  0.00    -0.502 OA
ATOM     23  H   UNL     1      92.862  -1.175  -8.547  1.00  0.00     0.293 HD
ENDBRANCH   2  22
BRANCH   6  24
ATOM     24  O   UNL     1      93.613  -6.308  -7.714  1.00  0.00    -0.507 OA
ATOM     25  H   UNL     1      93.065  -7.109  -7.987  1.00  0.00     0.293 HD
ENDBRANCH   6  24
BRANCH   8  26
ATOM     26  O   UNL     1      97.980  -7.639  -9.150  1.00  0.00    -0.508 OA
ATOM     27  H   UNL     1      97.870  -8.522  -8.666  1.00  0.00     0.293 HD
ENDBRANCH   8  26
TORSDOF 6
ENDMDL
MODEL 8
REMARK VINA RESULT:    -4.840      3.447      7.405
REMARK INTER + INTRA:          -6.165
REMARK INTER:                  -5.869
REMARK INTRA:                  -0.296
REMARK UNBOUND:                -0.334
REMARK SMILES O=c1c(O)c(-c2ccc(O)c(O)c2)oc2cc(O)cc(O)c12
REMARK SMILES IDX 5 1 3 2 2 3 1 4 22 5 20 6 19 7 17 8 16 9 15 10 14 11 6 12
REMARK SMILES IDX 7 13 8 14 9 15 13 16 11 17 10 18 12 20 4 22 21 24 18 26
REMARK H PARENT 10 19 12 21 4 23 21 25 18 27
REMARK Flexibility Score: inf
ROOT
ATOM      1  C   UNL     1      96.555  -5.883  -4.795  1.00  0.00     0.180 A 
ATOM      2  C   UNL     1      96.427  -4.598  -5.351  1.00  0.00     0.208 A 
ATOM      3  C   UNL     1      95.357  -4.337  -6.223  1.00  0.00     0.238 A 
ATOM      4  O   UNL     1      95.217  -3.170  -6.674  1.00  0.00    -0.285 OA
ATOM      5  C   UNL     1      94.440  -5.366  -6.540  1.00  0.00     0.111 A 
ATOM      6  C   UNL     1      93.342  -5.224  -7.441  1.00  0.00     0.134 A 
ATOM      7  C   UNL     1      92.422  -6.271  -7.581  1.00  0.00     0.093 A 
ATOM      8  C   UNL     1      92.594  -7.477  -6.901  1.00  0.00     0.123 A 
ATOM      9  C   UNL     1      93.696  -7.647  -6.062  1.00  0.00     0.094 A 
ATOM     10  C   UNL     1      94.612  -6.609  -5.875  1.00  0.00     0.146 A 
ATOM     11  O   UNL     1      95.640  -6.808  -5.060  1.00  0.00    -0.452 OA
ENDROOT
BRANCH   1  12
ATOM     12  C   UNL     1      97.669  -6.242  -3.889  1.00  0.00     0.025 A 
ATOM     13  C   UNL     1      97.592  -5.902  -2.529  1.00  0.00     0.016 A 
ATOM     14  C   UNL     1      98.622  -6.249  -1.652  1.00  0.00     0.051 A 
ATOM     15  C   UNL     1      99.738  -6.953  -2.116  1.00  0.00     0.157 A 
ATOM     16  C   UNL     1      98.783  -6.968  -4.349  1.00  0.00     0.062 A 
ATOM     17  C   UNL     1      99.817  -7.319  -3.470  1.00  0.00     0.158 A 
BRANCH  15  18
ATOM     18  O   UNL     1     100.752  -7.284  -1.217  1.00  0.00    -0.504 OA
ATOM     19  H   UNL     1     100.632  -7.196  -0.216  1.00  0.00     0.293 HD
ENDBRANCH  15  18
BRANCH  17  20
ATOM     20  O   UNL     1     100.920  -8.033  -3.936  1.00  0.00    -0.504 OA
ATOM     21  H   UNL     1     101.217  -8.896  -3.496  1.00  0.00     0.293 HD
ENDBRANCH  17  20
ENDBRANCH   1  12
BRANCH   2  22
ATOM     22  O   UNL     1      97.332  -3.589  -5.007  1.00  0.00    -0.502 OA
ATOM     23  H   UNL     1      97.149  -2.610  -5.187  1.00  0.00     0.293 HD
ENDBRANCH   2  22
BRANCH   6  24
ATOM     24  O   UNL     1      93.129  -4.096  -8.240  1.00  0.00    -0.507 OA
ATOM     25  H   UNL     1      92.638  -3.266  -7.943  1.00  0.00     0.293 HD
ENDBRANCH   6  24
BRANCH   8  26
ATOM     26  O   UNL     1      91.668  -8.502  -7.075  1.00  0.00    -0.508 OA
ATOM     27  H   UNL     1      91.936  -9.476  -6.999  1.00  0.00     0.293 HD
ENDBRANCH   8  26
TORSDOF 6
ENDMDL
MODEL 9
REMARK VINA RESULT:    -4.820      1.987      7.203
REMARK INTER + INTRA:          -6.141
REMARK INTER:                  -5.878
REMARK INTRA:                  -0.262
REMARK UNBOUND:                -0.334
REMARK SMILES O=c1c(O)c(-c2ccc(O)c(O)c2)oc2cc(O)cc(O)c12
REMARK SMILES IDX 5 1 3 2 2 3 1 4 22 5 20 6 19 7 17 8 16 9 15 10 14 11 6 12
REMARK SMILES IDX 7 13 8 14 9 15 13 16 11 17 10 18 12 20 4 22 21 24 18 26
REMARK H PARENT 10 19 12 21 4 23 21 25 18 27
REMARK Flexibility Score: inf
ROOT
ATOM      1  C   UNL     1      96.739  -5.858  -5.322  1.00  0.00     0.180 A 
ATOM      2  C   UNL     1      95.431  -6.375  -5.326  1.00  0.00     0.208 A 
ATOM      3  C   UNL     1      94.514  -5.898  -6.277  1.00  0.00     0.238 A 
ATOM      4  O   UNL     1      93.362  -6.404  -6.311  1.00  0.00    -0.285 OA
ATOM      5  C   UNL     1      94.910  -4.902  -7.201  1.00  0.00     0.111 A 
ATOM      6  C   UNL     1      94.053  -4.319  -8.181  1.00  0.00     0.134 A 
ATOM      7  C   UNL     1      94.585  -3.435  -9.127  1.00  0.00     0.093 A 
ATOM      8  C   UNL     1      95.929  -3.063  -9.090  1.00  0.00     0.123 A 
ATOM      9  C   UNL     1      96.763  -3.582  -8.099  1.00  0.00     0.094 A 
ATOM     10  C   UNL     1      96.269  -4.494  -7.163  1.00  0.00     0.146 A 
ATOM     11  O   UNL     1      97.099  -4.972  -6.244  1.00  0.00    -0.452 OA
ENDROOT
BRANCH   1  12
ATOM     12  C   UNL     1      97.754  -6.291  -4.336  1.00  0.00     0.025 A 
ATOM     13  C   UNL     1      98.844  -7.068  -4.760  1.00  0.00     0.016 A 
ATOM     14  C   UNL     1      99.824  -7.470  -3.850  1.00  0.00     0.051 A 
ATOM     15  C   UNL     1      99.740  -7.091  -2.507  1.00  0.00     0.157 A 
ATOM     16  C   UNL     1      97.683  -5.894  -2.988  1.00  0.00     0.062 A 
ATOM     17  C   UNL     1      98.667  -6.294  -2.073  1.00  0.00     0.158 A 
BRANCH  15  18
ATOM     18  O   UNL     1     100.733  -7.509  -1.621  1.00  0.00    -0.504 OA
ATOM     19  H   UNL     1     101.667  -7.745  -1.934  1.00  0.00     0.293 HD
ENDBRANCH  15  18
BRANCH  17  20
ATOM     20  O   UNL     1      98.585  -5.901  -0.739  1.00  0.00    -0.504 OA
ATOM     21  H   UNL     1      98.305  -4.963  -0.478  1.00  0.00     0.293 HD
ENDBRANCH  17  20
ENDBRANCH   1  12
BRANCH   2  22
ATOM     22  O   UNL     1      95.068  -7.374  -4.420  1.00  0.00    -0.502 OA
ATOM     23  H   UNL     1      95.433  -7.414  -3.477  1.00  0.00     0.293 HD
ENDBRANCH   2  22
BRANCH   6  24
ATOM     24  O   UNL     1      92.675  -4.550  -8.250  1.00  0.00    -0.507 OA
ATOM     25  H   UNL     1      92.092  -4.317  -9.039  1.00  0.00     0.293 HD
ENDBRANCH   6  24
BRANCH   8  26
ATOM     26  O   UNL     1      96.422  -2.170 -10.038  1.00  0.00    -0.508 OA
ATOM     27  H   UNL     1      95.843  -1.831 -10.798  1.00  0.00     0.293 HD
ENDBRANCH   8  26
TORSDOF 6
ENDMDL
