MODEL 1
REMARK VINA RESULT:    -3.383      0.000      0.000
REMARK INTER + INTRA:          -9.054
REMARK INTER:                  -6.548
REMARK INTRA:                  -2.505
REMARK UNBOUND:                -2.505
REMARK SMILES CCCCCCCCCCCCCCCCCC(=O)[O-]
REMARK SMILES IDX 10 1 11 2 12 3 13 4 14 5 15 6 16 7 17 8 18 9 19 10 20 11
REMARK SMILES IDX 9 12 8 13 7 14 6 15 5 16 4 17 3 18 2 19 1 20
REMARK H PARENT
REMARK Flexibility Score: inf
ROOT
ATOM      1  C   UNL     1      58.018  28.498  52.492  1.00  0.00     0.000 C 
ENDROOT
BRANCH   1   2
ATOM      2  C   UNL     1      58.651  29.472  51.481  1.00  0.00     0.000 C 
BRANCH   2   3
ATOM      3  C   UNL     1      57.967  29.516  50.102  1.00  0.00     0.000 C 
BRANCH   3   4
ATOM      4  C   UNL     1      58.876  29.017  48.964  1.00  0.00     0.000 C 
BRANCH   4   5
ATOM      5  C   UNL     1      59.851  27.919  49.435  1.00  0.00     0.000 C 
BRANCH   5   6
ATOM      6  C   UNL     1      59.292  26.494  49.289  1.00  0.00     0.000 C 
BRANCH   6   7
ATOM      7  C   UNL     1      59.785  25.543  50.388  1.00  0.00     0.006 C 
BRANCH   7   8
ATOM      8  C   UNL     1      61.199  25.036  50.081  1.00  0.00     0.053 C 
BRANCH   8   9
ATOM      9  C   UNL     1      61.263  23.548  50.216  1.00  0.00     0.041 C 
ATOM     10  O   UNL     1      61.823  23.025  51.216  1.00  0.00    -0.550 OA
ATOM     11  O   UNL     1      60.751  22.736  49.212  1.00  0.00    -0.550 OA
ENDBRANCH   8   9
ENDBRANCH   7   8
ENDBRANCH   6   7
ENDBRANCH   5   6
ENDBRANCH   4   5
ENDBRANCH   3   4
ENDBRANCH   2   3
ENDBRANCH   1   2
BRANCH   1  12
ATOM     12  C   UNL     1      56.544  28.190  52.183  1.00  0.00     0.000 C 
BRANCH  12  13
ATOM     13  C   UNL     1      56.182  26.717  52.434  1.00  0.00    -0.000 C 
BRANCH  13  14
ATOM     14  C   UNL     1      56.141  25.885  51.142  1.00  0.00    -0.000 C 
BRANCH  14  15
ATOM     15  C   UNL     1      55.615  26.719  49.968  1.00  0.00    -0.000 C 
BRANCH  15  16
ATOM     16  C   UNL     1      54.246  26.204  49.497  1.00  0.00    -0.000 C 
BRANCH  16  17
ATOM     17  C   UNL     1      53.167  27.299  49.503  1.00  0.00    -0.000 C 
BRANCH  17  18
ATOM     18  C   UNL     1      53.732  28.680  49.882  1.00  0.00    -0.000 C 
BRANCH  18  19
ATOM     19  C   UNL     1      53.053  29.272  51.126  1.00  0.00    -0.003 C 
ATOM     20  C   UNL     1      53.521  30.693  51.438  1.00  0.00     0.004 C 
ENDBRANCH  18  19
ENDBRANCH  17  18
ENDBRANCH  16  17
ENDBRANCH  15  16
ENDBRANCH  14  15
ENDBRANCH  13  14
ENDBRANCH  12  13
ENDBRANCH   1  12
TORSDOF 16
ENDMDL
MODEL 2
REMARK VINA RESULT:    -3.280      3.169      5.375
REMARK INTER + INTRA:          -8.853
REMARK INTER:                  -7.377
REMARK INTRA:                  -1.475
REMARK UNBOUND:                -2.505
REMARK SMILES CCCCCCCCCCCCCCCCCC(=O)[O-]
REMARK SMILES IDX 10 1 11 2 12 3 13 4 14 5 15 6 16 7 17 8 18 9 19 10 20 11
REMARK SMILES IDX 9 12 8 13 7 14 6 15 5 16 4 17 3 18 2 19 1 20
REMARK H PARENT
REMARK Flexibility Score: inf
ROOT
ATOM      1  C   UNL     1      60.237  25.875  51.971  1.00  0.00     0.000 C 
ENDROOT
BRANCH   1   2
ATOM      2  C   UNL     1      60.697  24.406  51.963  1.00  0.00     0.000 C 
BRANCH   2   3
ATOM      3  C   UNL     1      59.886  23.474  51.045  1.00  0.00     0.000 C 
BRANCH   3   4
ATOM      4  C   UNL     1      60.507  23.320  49.644  1.00  0.00     0.000 C 
BRANCH   4   5
ATOM      5  C   UNL     1      60.377  21.881  49.104  1.00  0.00     0.000 C 
BRANCH   5   6
ATOM      6  C   UNL     1      60.273  20.814  50.206  1.00  0.00     0.000 C 
BRANCH   6   7
ATOM      7  C   UNL     1      59.415  19.611  49.795  1.00  0.00     0.006 C 
BRANCH   7   8
ATOM      8  C   UNL     1      58.209  19.453  50.727  1.00  0.00     0.053 C 
BRANCH   8   9
ATOM      9  C   UNL     1      57.189  18.545  50.116  1.00  0.00     0.041 C 
ATOM     10  O   UNL     1      57.552  17.562  49.418  1.00  0.00    -0.550 OA
ATOM     11  O   UNL     1      55.835  18.813  50.276  1.00  0.00    -0.550 OA
ENDBRANCH   8   9
ENDBRANCH   7   8
ENDBRANCH   6   7
ENDBRANCH   5   6
ENDBRANCH   4   5
ENDBRANCH   3   4
ENDBRANCH   2   3
ENDBRANCH   1   2
BRANCH   1  12
ATOM     12  C   UNL     1      61.244  26.821  51.295  1.00  0.00     0.000 C 
BRANCH  12  13
ATOM     13  C   UNL     1      60.982  26.985  49.789  1.00  0.00    -0.000 C 
BRANCH  13  14
ATOM     14  C   UNL     1      59.492  27.165  49.459  1.00  0.00    -0.000 C 
BRANCH  14  15
ATOM     15  C   UNL     1      59.193  28.610  49.044  1.00  0.00    -0.000 C 
BRANCH  15  16
ATOM     16  C   UNL     1      58.012  29.181  49.847  1.00  0.00    -0.000 C 
BRANCH  16  17
ATOM     17  C   UNL     1      57.307  28.115  50.701  1.00  0.00    -0.000 C 
BRANCH  17  18
ATOM     18  C   UNL     1      55.864  27.848  50.235  1.00  0.00    -0.000 C 
BRANCH  18  19
ATOM     19  C   UNL     1      55.553  26.349  50.111  1.00  0.00    -0.003 C 
ATOM     20  C   UNL     1      54.322  26.066  49.251  1.00  0.00     0.004 C 
ENDBRANCH  18  19
ENDBRANCH  17  18
ENDBRANCH  16  17
ENDBRANCH  15  16
ENDBRANCH  14  15
ENDBRANCH  13  14
ENDBRANCH  12  13
ENDBRANCH   1  12
TORSDOF 16
ENDMDL
MODEL 3
REMARK VINA RESULT:    -3.227     10.770     12.859
REMARK INTER + INTRA:          -8.751
REMARK INTER:                  -5.631
REMARK INTRA:                  -3.120
REMARK UNBOUND:                -2.505
REMARK SMILES CCCCCCCCCCCCCCCCCC(=O)[O-]
REMARK SMILES IDX 10 1 11 2 12 3 13 4 14 5 15 6 16 7 17 8 18 9 19 10 20 11
REMARK SMILES IDX 9 12 8 13 7 14 6 15 5 16 4 17 3 18 2 19 1 20
REMARK H PARENT
REMARK Flexibility Score: inf
ROOT
ATOM      1  C   UNL     1      61.437  32.349  58.423  1.00  0.00     0.000 C 
ENDROOT
BRANCH   1   2
ATOM      2  C   UNL     1      60.489  32.717  59.579  1.00  0.00     0.000 C 
BRANCH   2   3
ATOM      3  C   UNL     1      61.086  32.553  60.989  1.00  0.00     0.000 C 
BRANCH   3   4
ATOM      4  C   UNL     1      60.772  31.184  61.619  1.00  0.00     0.000 C 
BRANCH   4   5
ATOM      5  C   UNL     1      62.043  30.336  61.833  1.00  0.00     0.000 C 
BRANCH   5   6
ATOM      6  C   UNL     1      63.348  31.096  61.546  1.00  0.00     0.000 C 
BRANCH   6   7
ATOM      7  C   UNL     1      64.466  30.187  61.020  1.00  0.00     0.006 C 
BRANCH   7   8
ATOM      8  C   UNL     1      64.266  29.873  59.533  1.00  0.00     0.053 C 
BRANCH   8   9
ATOM      9  C   UNL     1      65.582  29.829  58.825  1.00  0.00     0.041 C 
ATOM     10  O   UNL     1      65.830  28.908  58.003  1.00  0.00    -0.550 OA
ATOM     11  O   UNL     1      66.557  30.778  59.109  1.00  0.00    -0.550 OA
ENDBRANCH   8   9
ENDBRANCH   7   8
ENDBRANCH   6   7
ENDBRANCH   5   6
ENDBRANCH   4   5
ENDBRANCH   3   4
ENDBRANCH   2   3
ENDBRANCH   1   2
BRANCH   1  12
ATOM     12  C   UNL     1      61.980  33.581  57.680  1.00  0.00     0.000 C 
BRANCH  12  13
ATOM     13  C   UNL     1      63.508  33.541  57.508  1.00  0.00    -0.000 C 
BRANCH  13  14
ATOM     14  C   UNL     1      64.257  33.465  58.848  1.00  0.00    -0.000 C 
BRANCH  14  15
ATOM     15  C   UNL     1      64.355  34.849  59.500  1.00  0.00    -0.000 C 
BRANCH  15  16
ATOM     16  C   UNL     1      63.979  34.783  60.990  1.00  0.00    -0.000 C 
BRANCH  16  17
ATOM     17  C   UNL     1      62.958  35.860  61.391  1.00  0.00    -0.000 C 
BRANCH  17  18
ATOM     18  C   UNL     1      62.116  36.346  60.197  1.00  0.00    -0.000 C 
BRANCH  18  19
ATOM     19  C   UNL     1      60.609  36.333  60.495  1.00  0.00    -0.003 C 
ATOM     20  C   UNL     1      59.753  36.386  59.231  1.00  0.00     0.004 C 
ENDBRANCH  18  19
ENDBRANCH  17  18
ENDBRANCH  16  17
ENDBRANCH  15  16
ENDBRANCH  14  15
ENDBRANCH  13  14
ENDBRANCH  12  13
ENDBRANCH   1  12
TORSDOF 16
ENDMDL
MODEL 4
REMARK VINA RESULT:    -3.184      2.823      4.891
REMARK INTER + INTRA:          -8.668
REMARK INTER:                  -7.460
REMARK INTRA:                  -1.208
REMARK UNBOUND:                -2.505
REMARK SMILES CCCCCCCCCCCCCCCCCC(=O)[O-]
REMARK SMILES IDX 10 1 11 2 12 3 13 4 14 5 15 6 16 7 17 8 18 9 19 10 20 11
REMARK SMILES IDX 9 12 8 13 7 14 6 15 5 16 4 17 3 18 2 19 1 20
REMARK H PARENT
REMARK Flexibility Score: inf
ROOT
ATOM      1  C   UNL     1      58.863  26.503  49.415  1.00  0.00     0.000 C 
ENDROOT
BRANCH   1   2
ATOM      2  C   UNL     1      59.166  25.285  50.307  1.00  0.00     0.000 C 
BRANCH   2   3
ATOM      3  C   UNL     1      60.655  25.074  50.639  1.00  0.00     0.000 C 
BRANCH   3   4
ATOM      4  C   UNL     1      61.205  23.738  50.108  1.00  0.00     0.000 C 
BRANCH   4   5
ATOM      5  C   UNL     1      60.256  22.558  50.404  1.00  0.00     0.000 C 
BRANCH   5   6
ATOM      6  C   UNL     1      60.268  21.469  49.319  1.00  0.00     0.000 C 
BRANCH   6   7
ATOM      7  C   UNL     1      59.188  20.400  49.533  1.00  0.00     0.006 C 
BRANCH   7   8
ATOM      8  C   UNL     1      59.791  19.122  50.128  1.00  0.00     0.053 C 
BRANCH   8   9
ATOM      9  C   UNL     1      58.884  17.956  49.894  1.00  0.00     0.041 C 
ATOM     10  O   UNL     1      58.574  17.618  48.721  1.00  0.00    -0.550 OA
ATOM     11  O   UNL     1      58.338  17.273  50.973  1.00  0.00    -0.550 OA
ENDBRANCH   8   9
ENDBRANCH   7   8
ENDBRANCH   6   7
ENDBRANCH   5   6
ENDBRANCH   4   5
ENDBRANCH   3   4
ENDBRANCH   2   3
ENDBRANCH   1   2
BRANCH   1  12
ATOM     12  C   UNL     1      59.974  27.565  49.456  1.00  0.00     0.000 C 
BRANCH  12  13
ATOM     13  C   UNL     1      59.470  28.962  49.057  1.00  0.00    -0.000 C 
BRANCH  13  14
ATOM     14  C   UNL     1      58.045  29.248  49.557  1.00  0.00    -0.000 C 
BRANCH  14  15
ATOM     15  C   UNL     1      58.041  29.548  51.060  1.00  0.00    -0.000 C 
BRANCH  15  16
ATOM     16  C   UNL     1      56.629  29.393  51.648  1.00  0.00    -0.000 C 
BRANCH  16  17
ATOM     17  C   UNL     1      55.844  28.237  51.007  1.00  0.00    -0.000 C 
BRANCH  17  18
ATOM     18  C   UNL     1      54.526  28.707  50.364  1.00  0.00    -0.000 C 
BRANCH  18  19
ATOM     19  C   UNL     1      53.777  27.567  49.657  1.00  0.00    -0.003 C 
ATOM     20  C   UNL     1      54.639  26.321  49.462  1.00  0.00     0.004 C 
ENDBRANCH  18  19
ENDBRANCH  17  18
ENDBRANCH  16  17
ENDBRANCH  15  16
ENDBRANCH  14  15
ENDBRANCH  13  14
ENDBRANCH  12  13
ENDBRANCH   1  12
TORSDOF 16
ENDMDL
MODEL 5
REMARK VINA RESULT:    -3.174     11.253     13.077
REMARK INTER + INTRA:          -8.648
REMARK INTER:                  -6.622
REMARK INTRA:                  -2.026
REMARK UNBOUND:                -2.505
REMARK SMILES CCCCCCCCCCCCCCCCCC(=O)[O-]
REMARK SMILES IDX 10 1 11 2 12 3 13 4 14 5 15 6 16 7 17 8 18 9 19 10 20 11
REMARK SMILES IDX 9 12 8 13 7 14 6 15 5 16 4 17 3 18 2 19 1 20
REMARK H PARENT
REMARK Flexibility Score: inf
ROOT
ATOM      1  C   UNL     1      64.468  31.252  60.842  1.00  0.00     0.000 C 
ENDROOT
BRANCH   1   2
ATOM      2  C   UNL     1      65.289  30.181  60.100  1.00  0.00     0.000 C 
BRANCH   2   3
ATOM      3  C   UNL     1      65.833  29.046  60.987  1.00  0.00     0.000 C 
BRANCH   3   4
ATOM      4  C   UNL     1      65.347  27.653  60.546  1.00  0.00     0.000 C 
BRANCH   4   5
ATOM      5  C   UNL     1      64.246  27.734  59.469  1.00  0.00     0.000 C 
BRANCH   5   6
ATOM      6  C   UNL     1      62.958  26.983  59.846  1.00  0.00     0.000 C 
BRANCH   6   7
ATOM      7  C   UNL     1      62.977  26.448  61.284  1.00  0.00     0.006 C 
BRANCH   7   8
ATOM      8  C   UNL     1      61.890  27.115  62.133  1.00  0.00     0.053 C 
BRANCH   8   9
ATOM      9  C   UNL     1      61.097  26.087  62.874  1.00  0.00     0.041 C 
ATOM     10  O   UNL     1      61.683  25.194  63.542  1.00  0.00    -0.550 OA
ATOM     11  O   UNL     1      59.711  26.082  62.788  1.00  0.00    -0.550 OA
ENDBRANCH   8   9
ENDBRANCH   7   8
ENDBRANCH   6   7
ENDBRANCH   5   6
ENDBRANCH   4   5
ENDBRANCH   3   4
ENDBRANCH   2   3
ENDBRANCH   1   2
BRANCH   1  12
ATOM     12  C   UNL     1      63.301  30.657  61.648  1.00  0.00     0.000 C 
BRANCH  12  13
ATOM     13  C   UNL     1      62.030  30.475  60.802  1.00  0.00    -0.000 C 
BRANCH  13  14
ATOM     14  C   UNL     1      60.961  31.540  61.095  1.00  0.00    -0.000 C 
BRANCH  14  15
ATOM     15  C   UNL     1      60.467  32.192  59.798  1.00  0.00    -0.000 C 
BRANCH  15  16
ATOM     16  C   UNL     1      61.194  33.522  59.539  1.00  0.00    -0.000 C 
BRANCH  16  17
ATOM     17  C   UNL     1      61.922  34.051  60.785  1.00  0.00    -0.000 C 
BRANCH  17  18
ATOM     18  C   UNL     1      63.161  34.893  60.429  1.00  0.00    -0.000 C 
BRANCH  18  19
ATOM     19  C   UNL     1      63.330  36.111  61.350  1.00  0.00    -0.003 C 
ATOM     20  C   UNL     1      64.662  36.110  62.098  1.00  0.00     0.004 C 
ENDBRANCH  18  19
ENDBRANCH  17  18
ENDBRANCH  16  17
ENDBRANCH  15  16
ENDBRANCH  14  15
ENDBRANCH  13  14
ENDBRANCH  12  13
ENDBRANCH   1  12
TORSDOF 16
ENDMDL
MODEL 6
REMARK VINA RESULT:    -3.166     11.394     13.055
REMARK INTER + INTRA:          -8.632
REMARK INTER:                  -5.696
REMARK INTRA:                  -2.936
REMARK UNBOUND:                -2.505
REMARK SMILES CCCCCCCCCCCCCCCCCC(=O)[O-]
REMARK SMILES IDX 10 1 11 2 12 3 13 4 14 5 15 6 16 7 17 8 18 9 19 10 20 11
REMARK SMILES IDX 9 12 8 13 7 14 6 15 5 16 4 17 3 18 2 19 1 20
REMARK H PARENT
REMARK Flexibility Score: inf
ROOT
ATOM      1  C   UNL     1      63.715  33.813  60.995  1.00  0.00     0.000 C 
ENDROOT
BRANCH   1   2
ATOM      2  C   UNL     1      63.305  33.275  59.612  1.00  0.00     0.000 C 
BRANCH   2   3
ATOM      3  C   UNL     1      61.919  32.607  59.558  1.00  0.00     0.000 C 
BRANCH   3   4
ATOM      4  C   UNL     1      61.196  32.610  60.917  1.00  0.00     0.000 C 
BRANCH   4   5
ATOM      5  C   UNL     1      60.974  31.184  61.463  1.00  0.00     0.000 C 
BRANCH   5   6
ATOM      6  C   UNL     1      62.274  30.464  61.856  1.00  0.00     0.000 C 
BRANCH   6   7
ATOM      7  C   UNL     1      62.261  28.971  61.505  1.00  0.00     0.006 C 
BRANCH   7   8
ATOM      8  C   UNL     1      62.962  28.715  60.166  1.00  0.00     0.053 C 
BRANCH   8   9
ATOM      9  C   UNL     1      64.346  29.282  60.183  1.00  0.00     0.041 C 
ATOM     10  O   UNL     1      64.684  30.157  59.342  1.00  0.00    -0.550 OA
ATOM     11  O   UNL     1      65.281  28.807  61.094  1.00  0.00    -0.550 OA
ENDBRANCH   8   9
ENDBRANCH   7   8
ENDBRANCH   6   7
ENDBRANCH   5   6
ENDBRANCH   4   5
ENDBRANCH   3   4
ENDBRANCH   2   3
ENDBRANCH   1   2
BRANCH   1  12
ATOM     12  C   UNL     1      64.163  35.283  60.956  1.00  0.00     0.000 C 
BRANCH  12  13
ATOM     13  C   UNL     1      63.138  36.231  61.600  1.00  0.00    -0.000 C 
BRANCH  13  14
ATOM     14  C   UNL     1      62.195  36.877  60.572  1.00  0.00    -0.000 C 
BRANCH  14  15
ATOM     15  C   UNL     1      60.810  36.220  60.610  1.00  0.00    -0.000 C 
BRANCH  15  16
ATOM     16  C   UNL     1      60.295  35.937  59.189  1.00  0.00    -0.000 C 
BRANCH  16  17
ATOM     17  C   UNL     1      61.260  36.436  58.100  1.00  0.00    -0.000 C 
BRANCH  17  18
ATOM     18  C   UNL     1      61.609  35.339  57.077  1.00  0.00    -0.000 C 
BRANCH  18  19
ATOM     19  C   UNL     1      62.987  35.553  56.433  1.00  0.00    -0.003 C 
ATOM     20  C   UNL     1      63.999  36.182  57.390  1.00  0.00     0.004 C 
ENDBRANCH  18  19
ENDBRANCH  17  18
ENDBRANCH  16  17
ENDBRANCH  15  16
ENDBRANCH  14  15
ENDBRANCH  13  14
ENDBRANCH  12  13
ENDBRANCH   1  12
TORSDOF 16
ENDMDL
MODEL 7
REMARK VINA RESULT:    -3.160      1.534      4.014
REMARK INTER + INTRA:          -8.620
REMARK INTER:                  -5.928
REMARK INTRA:                  -2.692
REMARK UNBOUND:                -2.505
REMARK SMILES CCCCCCCCCCCCCCCCCC(=O)[O-]
REMARK SMILES IDX 10 1 11 2 12 3 13 4 14 5 15 6 16 7 17 8 18 9 19 10 20 11
REMARK SMILES IDX 9 12 8 13 7 14 6 15 5 16 4 17 3 18 2 19 1 20
REMARK H PARENT
REMARK Flexibility Score: inf
ROOT
ATOM      1  C   UNL     1      53.700  25.033  52.360  1.00  0.00     0.000 C 
ENDROOT
BRANCH   1   2
ATOM      2  C   UNL     1      54.333  26.214  53.119  1.00  0.00     0.000 C 
BRANCH   2   3
ATOM      3  C   UNL     1      55.865  26.150  53.265  1.00  0.00     0.000 C 
BRANCH   3   4
ATOM      4  C   UNL     1      56.417  24.715  53.174  1.00  0.00     0.000 C 
BRANCH   4   5
ATOM      5  C   UNL     1      57.825  24.671  52.545  1.00  0.00     0.000 C 
BRANCH   5   6
ATOM      6  C   UNL     1      57.930  25.436  51.215  1.00  0.00     0.000 C 
BRANCH   6   7
ATOM      7  C   UNL     1      59.312  26.064  50.994  1.00  0.00     0.006 C 
BRANCH   7   8
ATOM      8  C   UNL     1      59.995  25.469  49.758  1.00  0.00     0.053 C 
BRANCH   8   9
ATOM      9  C   UNL     1      60.745  24.227  50.119  1.00  0.00     0.041 C 
ATOM     10  O   UNL     1      60.627  23.188  49.417  1.00  0.00    -0.550 OA
ATOM     11  O   UNL     1      61.535  24.199  51.261  1.00  0.00    -0.550 OA
ENDBRANCH   8   9
ENDBRANCH   7   8
ENDBRANCH   6   7
ENDBRANCH   5   6
ENDBRANCH   4   5
ENDBRANCH   3   4
ENDBRANCH   2   3
ENDBRANCH   1   2
BRANCH   1  12
ATOM     12  C   UNL     1      52.875  25.480  51.141  1.00  0.00     0.000 C 
BRANCH  12  13
ATOM     13  C   UNL     1      53.640  25.314  49.818  1.00  0.00    -0.000 C 
BRANCH  13  14
ATOM     14  C   UNL     1      54.557  26.506  49.505  1.00  0.00    -0.000 C 
BRANCH  14  15
ATOM     15  C   UNL     1      53.857  27.834  49.818  1.00  0.00    -0.000 C 
BRANCH  15  16
ATOM     16  C   UNL     1      54.806  28.798  50.549  1.00  0.00    -0.000 C 
BRANCH  16  17
ATOM     17  C   UNL     1      56.281  28.569  50.182  1.00  0.00    -0.000 C 
BRANCH  17  18
ATOM     18  C   UNL     1      57.245  29.083  51.267  1.00  0.00    -0.000 C 
BRANCH  18  19
ATOM     19  C   UNL     1      58.587  29.555  50.687  1.00  0.00    -0.003 C 
ATOM     20  C   UNL     1      58.660  29.413  49.167  1.00  0.00     0.004 C 
ENDBRANCH  18  19
ENDBRANCH  17  18
ENDBRANCH  16  17
ENDBRANCH  15  16
ENDBRANCH  14  15
ENDBRANCH  13  14
ENDBRANCH  12  13
ENDBRANCH   1  12
TORSDOF 16
ENDMDL
MODEL 8
REMARK VINA RESULT:    -3.100      2.880      3.380
REMARK INTER + INTRA:          -8.505
REMARK INTER:                  -5.672
REMARK INTRA:                  -2.833
REMARK UNBOUND:                -2.505
REMARK SMILES CCCCCCCCCCCCCCCCCC(=O)[O-]
REMARK SMILES IDX 10 1 11 2 12 3 13 4 14 5 15 6 16 7 17 8 18 9 19 10 20 11
REMARK SMILES IDX 9 12 8 13 7 14 6 15 5 16 4 17 3 18 2 19 1 20
REMARK H PARENT
REMARK Flexibility Score: inf
ROOT
ATOM      1  C   UNL     1      58.002  29.575  52.379  1.00  0.00     0.000 C 
ENDROOT
BRANCH   1   2
ATOM      2  C   UNL     1      58.606  29.911  51.003  1.00  0.00     0.000 C 
BRANCH   2   3
ATOM      3  C   UNL     1      58.058  29.078  49.829  1.00  0.00     0.000 C 
BRANCH   3   4
ATOM      4  C   UNL     1      59.168  28.428  48.984  1.00  0.00     0.000 C 
BRANCH   4   5
ATOM      5  C   UNL     1      59.469  26.982  49.429  1.00  0.00     0.000 C 
BRANCH   5   6
ATOM      6  C   UNL     1      60.844  26.815  50.096  1.00  0.00     0.000 C 
BRANCH   6   7
ATOM      7  C   UNL     1      61.932  27.683  49.449  1.00  0.00     0.006 C 
BRANCH   7   8
ATOM      8  C   UNL     1      62.489  28.703  50.448  1.00  0.00     0.053 C 
BRANCH   8   9
ATOM      9  C   UNL     1      62.697  30.027  49.786  1.00  0.00     0.041 C 
ATOM     10  O   UNL     1      63.804  30.302  49.252  1.00  0.00    -0.550 OA
ATOM     11  O   UNL     1      61.685  30.979  49.802  1.00  0.00    -0.550 OA
ENDBRANCH   8   9
ENDBRANCH   7   8
ENDBRANCH   6   7
ENDBRANCH   5   6
ENDBRANCH   4   5
ENDBRANCH   3   4
ENDBRANCH   2   3
ENDBRANCH   1   2
BRANCH   1  12
ATOM     12  C   UNL     1      57.851  28.063  52.612  1.00  0.00     0.000 C 
BRANCH  12  13
ATOM     13  C   UNL     1      56.699  27.726  53.573  1.00  0.00    -0.000 C 
BRANCH  13  14
ATOM     14  C   UNL     1      55.855  26.532  53.098  1.00  0.00    -0.000 C 
BRANCH  14  15
ATOM     15  C   UNL     1      56.253  26.110  51.678  1.00  0.00    -0.000 C 
BRANCH  15  16
ATOM     16  C   UNL     1      55.015  25.988  50.774  1.00  0.00    -0.000 C 
BRANCH  16  17
ATOM     17  C   UNL     1      54.947  27.095  49.710  1.00  0.00    -0.000 C 
BRANCH  17  18
ATOM     18  C   UNL     1      53.921  28.187  50.063  1.00  0.00    -0.000 C 
BRANCH  18  19
ATOM     19  C   UNL     1      54.586  29.493  50.526  1.00  0.00    -0.003 C 
ATOM     20  C   UNL     1      54.214  29.873  51.958  1.00  0.00     0.004 C 
ENDBRANCH  18  19
ENDBRANCH  17  18
ENDBRANCH  16  17
ENDBRANCH  15  16
ENDBRANCH  14  15
ENDBRANCH  13  14
ENDBRANCH  12  13
ENDBRANCH   1  12
TORSDOF 16
ENDMDL
MODEL 9
REMARK VINA RESULT:    -3.093     10.838     13.328
REMARK INTER + INTRA:          -8.492
REMARK INTER:                  -5.585
REMARK INTRA:                  -2.907
REMARK UNBOUND:                -2.505
REMARK SMILES CCCCCCCCCCCCCCCCCC(=O)[O-]
REMARK SMILES IDX 10 1 11 2 12 3 13 4 14 5 15 6 16 7 17 8 18 9 19 10 20 11
REMARK SMILES IDX 9 12 8 13 7 14 6 15 5 16 4 17 3 18 2 19 1 20
REMARK H PARENT
REMARK Flexibility Score: inf
ROOT
ATOM      1  C   UNL     1      60.447  29.816  60.153  1.00  0.00     0.000 C 
ENDROOT
BRANCH   1   2
ATOM      2  C   UNL     1      59.468  30.416  59.126  1.00  0.00     0.000 C 
BRANCH   2   3
ATOM      3  C   UNL     1      59.751  31.878  58.734  1.00  0.00     0.000 C 
BRANCH   3   4
ATOM      4  C   UNL     1      61.050  32.043  57.925  1.00  0.00     0.000 C 
BRANCH   4   5
ATOM      5  C   UNL     1      61.904  33.226  58.426  1.00  0.00     0.000 C 
BRANCH   5   6
ATOM      6  C   UNL     1      61.092  34.304  59.162  1.00  0.00     0.000 C 
BRANCH   6   7
ATOM      7  C   UNL     1      61.472  34.431  60.643  1.00  0.00     0.006 C 
BRANCH   7   8
ATOM      8  C   UNL     1      62.990  34.333  60.831  1.00  0.00     0.053 C 
BRANCH   8   9
ATOM      9  C   UNL     1      63.525  35.586  61.447  1.00  0.00     0.041 C 
ATOM     10  O   UNL     1      62.768  36.574  61.636  1.00  0.00    -0.550 OA
ATOM     11  O   UNL     1      64.874  35.682  61.766  1.00  0.00    -0.550 OA
ENDBRANCH   8   9
ENDBRANCH   7   8
ENDBRANCH   6   7
ENDBRANCH   5   6
ENDBRANCH   4   5
ENDBRANCH   3   4
ENDBRANCH   2   3
ENDBRANCH   1   2
BRANCH   1  12
ATOM     12  C   UNL     1      60.697  30.743  61.353  1.00  0.00     0.000 C 
BRANCH  12  13
ATOM     13  C   UNL     1      62.176  30.780  61.773  1.00  0.00    -0.000 C 
BRANCH  13  14
ATOM     14  C   UNL     1      63.136  30.523  60.600  1.00  0.00    -0.000 C 
BRANCH  14  15
ATOM     15  C   UNL     1      64.496  30.026  61.103  1.00  0.00    -0.000 C 
BRANCH  15  16
ATOM     16  C   UNL     1      64.698  28.540  60.765  1.00  0.00    -0.000 C 
BRANCH  16  17
ATOM     17  C   UNL     1      63.866  28.089  59.553  1.00  0.00    -0.000 C 
BRANCH  17  18
ATOM     18  C   UNL     1      62.816  27.026  59.924  1.00  0.00    -0.000 C 
BRANCH  18  19
ATOM     19  C   UNL     1      62.903  26.601  61.398  1.00  0.00    -0.003 C 
ATOM     20  C   UNL     1      61.645  26.950  62.192  1.00  0.00     0.004 C 
ENDBRANCH  18  19
ENDBRANCH  17  18
ENDBRANCH  16  17
ENDBRANCH  15  16
ENDBRANCH  14  15
ENDBRANCH  13  14
ENDBRANCH  12  13
ENDBRANCH   1  12
TORSDOF 16
ENDMDL
