MODEL 1
REMARK VINA RESULT:    -7.558      0.000      0.000
REMARK INTER + INTRA:          -9.432
REMARK INTER:                  -9.105
REMARK INTRA:                  -0.328
REMARK UNBOUND:                -0.328
REMARK SMILES O=c1c(O)c(-c2ccc(O)c(O)c2)oc2cc(O)cc(O)c12
REMARK SMILES IDX 5 1 3 2 2 3 1 4 22 5 20 6 19 7 17 8 16 9 15 10 14 11 6 12
REMARK SMILES IDX 7 13 8 14 9 15 13 16 11 17 10 18 12 20 4 22 21 24 18 26
REMARK H PARENT 10 19 12 21 4 23 21 25 18 27
REMARK Flexibility Score: inf
ROOT
ATOM      1  C   UNL     1      23.887 -25.381  27.678  1.00  0.00     0.180 A 
ATOM      2  C   UNL     1      22.820 -25.418  26.763  1.00  0.00     0.208 A 
ATOM      3  C   UNL     1      22.919 -24.682  25.571  1.00  0.00     0.238 A 
ATOM      4  O   UNL     1      21.985 -24.763  24.732  1.00  0.00    -0.285 OA
ATOM      5  C   UNL     1      24.075 -23.905  25.317  1.00  0.00     0.111 A 
ATOM      6  C   UNL     1      24.264 -23.089  24.162  1.00  0.00     0.134 A 
ATOM      7  C   UNL     1      25.501 -22.467  23.951  1.00  0.00     0.093 A 
ATOM      8  C   UNL     1      26.531 -22.577  24.885  1.00  0.00     0.123 A 
ATOM      9  C   UNL     1      26.336 -23.324  26.047  1.00  0.00     0.094 A 
ATOM     10  C   UNL     1      25.126 -23.986  26.267  1.00  0.00     0.146 A 
ATOM     11  O   UNL     1      24.985 -24.695  27.381  1.00  0.00    -0.452 OA
ENDROOT
BRANCH   1  12
ATOM     12  C   UNL     1      23.846 -26.110  28.966  1.00  0.00     0.025 A 
ATOM     13  C   UNL     1      23.387 -25.492  30.143  1.00  0.00     0.016 A 
ATOM     14  C   UNL     1      23.380 -26.191  31.351  1.00  0.00     0.051 A 
ATOM     15  C   UNL     1      23.841 -27.510  31.408  1.00  0.00     0.157 A 
ATOM     16  C   UNL     1      24.329 -27.428  29.031  1.00  0.00     0.062 A 
ATOM     17  C   UNL     1      24.322 -28.131  30.244  1.00  0.00     0.158 A 
BRANCH  15  18
ATOM     18  O   UNL     1      23.820 -28.183  32.630  1.00  0.00    -0.504 OA
ATOM     19  H   UNL     1      22.963 -28.546  33.029  1.00  0.00     0.293 HD
ENDBRANCH  15  18
BRANCH  17  20
ATOM     20  O   UNL     1      24.789 -29.443  30.295  1.00  0.00    -0.504 OA
ATOM     21  H   UNL     1      24.271 -30.209  29.879  1.00  0.00     0.293 HD
ENDBRANCH  17  20
ENDBRANCH   1  12
BRANCH   2  22
ATOM     22  O   UNL     1      21.698 -26.209  27.024  1.00  0.00    -0.502 OA
ATOM     23  H   UNL     1      21.587 -27.139  26.640  1.00  0.00     0.293 HD
ENDBRANCH   2  22
BRANCH   6  24
ATOM     24  O   UNL     1      23.270 -22.837  23.213  1.00  0.00    -0.507 OA
ATOM     25  H   UNL     1      23.192 -21.989  22.673  1.00  0.00     0.293 HD
ENDBRANCH   6  24
BRANCH   8  26
ATOM     26  O   UNL     1      27.743 -21.931  24.651  1.00  0.00    -0.508 OA
ATOM     27  H   UNL     1      27.874 -21.322  23.852  1.00  0.00     0.293 HD
ENDBRANCH   8  26
TORSDOF 6
ENDMDL
MODEL 2
REMARK VINA RESULT:    -7.339      1.787      2.639
REMARK INTER + INTRA:          -9.168
REMARK INTER:                  -9.263
REMARK INTRA:                   0.094
REMARK UNBOUND:                -0.328
REMARK SMILES O=c1c(O)c(-c2ccc(O)c(O)c2)oc2cc(O)cc(O)c12
REMARK SMILES IDX 5 1 3 2 2 3 1 4 22 5 20 6 19 7 17 8 16 9 15 10 14 11 6 12
REMARK SMILES IDX 7 13 8 14 9 15 13 16 11 17 10 18 12 20 4 22 21 24 18 26
REMARK H PARENT 10 19 12 21 4 23 21 25 18 27
REMARK Flexibility Score: inf
ROOT
ATOM      1  C   UNL     1      24.244 -25.583  27.404  1.00  0.00     0.180 A 
ATOM      2  C   UNL     1      24.179 -24.201  27.649  1.00  0.00     0.208 A 
ATOM      3  C   UNL     1      24.041 -23.323  26.562  1.00  0.00     0.238 A 
ATOM      4  O   UNL     1      23.928 -22.090  26.791  1.00  0.00    -0.285 OA
ATOM      5  C   UNL     1      23.987 -23.836  25.244  1.00  0.00     0.111 A 
ATOM      6  C   UNL     1      23.888 -23.035  24.066  1.00  0.00     0.134 A 
ATOM      7  C   UNL     1      23.710 -23.655  22.823  1.00  0.00     0.093 A 
ATOM      8  C   UNL     1      23.693 -25.044  22.707  1.00  0.00     0.123 A 
ATOM      9  C   UNL     1      23.848 -25.837  23.845  1.00  0.00     0.094 A 
ATOM     10  C   UNL     1      23.991 -25.248  25.103  1.00  0.00     0.146 A 
ATOM     11  O   UNL     1      24.125 -26.037  26.161  1.00  0.00    -0.452 OA
ENDROOT
BRANCH   1  12
ATOM     12  C   UNL     1      24.414 -26.570  28.494  1.00  0.00     0.025 A 
ATOM     13  C   UNL     1      23.682 -26.472  29.691  1.00  0.00     0.016 A 
ATOM     14  C   UNL     1      23.876 -27.401  30.716  1.00  0.00     0.051 A 
ATOM     15  C   UNL     1      24.811 -28.430  30.570  1.00  0.00     0.157 A 
ATOM     16  C   UNL     1      25.368 -27.593  28.360  1.00  0.00     0.062 A 
ATOM     17  C   UNL     1      25.564 -28.526  29.388  1.00  0.00     0.158 A 
BRANCH  15  18
ATOM     18  O   UNL     1      24.982 -29.343  31.611  1.00  0.00    -0.504 OA
ATOM     19  H   UNL     1      24.291 -30.054  31.821  1.00  0.00     0.293 HD
ENDBRANCH  15  18
BRANCH  17  20
ATOM     20  O   UNL     1      26.503 -29.545  29.238  1.00  0.00    -0.504 OA
ATOM     21  H   UNL     1      27.380 -29.539  29.746  1.00  0.00     0.293 HD
ENDBRANCH  17  20
ENDBRANCH   1  12
BRANCH   2  22
ATOM     22  O   UNL     1      24.212 -23.717  28.959  1.00  0.00    -0.502 OA
ATOM     23  H   UNL     1      24.676 -22.852  29.209  1.00  0.00     0.293 HD
ENDBRANCH   2  22
BRANCH   6  24
ATOM     24  O   UNL     1      23.986 -21.641  24.060  1.00  0.00    -0.507 OA
ATOM     25  H   UNL     1      23.425 -21.023  24.625  1.00  0.00     0.293 HD
ENDBRANCH   6  24
BRANCH   8  26
ATOM     26  O   UNL     1      23.529 -25.627  21.452  1.00  0.00    -0.508 OA
ATOM     27  H   UNL     1      22.968 -26.459  21.323  1.00  0.00     0.293 HD
ENDBRANCH   8  26
TORSDOF 6
ENDMDL
MODEL 3
REMARK VINA RESULT:    -7.313      3.627      6.476
REMARK INTER + INTRA:          -9.137
REMARK INTER:                  -8.893
REMARK INTRA:                  -0.244
REMARK UNBOUND:                -0.328
REMARK SMILES O=c1c(O)c(-c2ccc(O)c(O)c2)oc2cc(O)cc(O)c12
REMARK SMILES IDX 5 1 3 2 2 3 1 4 22 5 20 6 19 7 17 8 16 9 15 10 14 11 6 12
REMARK SMILES IDX 7 13 8 14 9 15 13 16 11 17 10 18 12 20 4 22 21 24 18 26
REMARK H PARENT 10 19 12 21 4 23 21 25 18 27
REMARK Flexibility Score: inf
ROOT
ATOM      1  C   UNL     1      27.155 -23.143  24.027  1.00  0.00     0.180 A 
ATOM      2  C   UNL     1      28.296 -23.829  23.574  1.00  0.00     0.208 A 
ATOM      3  C   UNL     1      29.441 -23.092  23.232  1.00  0.00     0.238 A 
ATOM      4  O   UNL     1      30.477 -23.715  22.880  1.00  0.00    -0.285 OA
ATOM      5  C   UNL     1      29.427 -21.680  23.329  1.00  0.00     0.111 A 
ATOM      6  C   UNL     1      30.517 -20.832  22.970  1.00  0.00     0.134 A 
ATOM      7  C   UNL     1      30.439 -19.459  23.231  1.00  0.00     0.093 A 
ATOM      8  C   UNL     1      29.287 -18.894  23.777  1.00  0.00     0.123 A 
ATOM      9  C   UNL     1      28.192 -19.706  24.076  1.00  0.00     0.094 A 
ATOM     10  C   UNL     1      28.254 -21.084  23.861  1.00  0.00     0.146 A 
ATOM     11  O   UNL     1      27.195 -21.823  24.169  1.00  0.00    -0.452 OA
ENDROOT
BRANCH   1  12
ATOM     12  C   UNL     1      25.902 -23.846  24.383  1.00  0.00     0.025 A 
ATOM     13  C   UNL     1      25.516 -24.020  25.724  1.00  0.00     0.016 A 
ATOM     14  C   UNL     1      24.342 -24.708  26.037  1.00  0.00     0.051 A 
ATOM     15  C   UNL     1      23.543 -25.244  25.022  1.00  0.00     0.157 A 
ATOM     16  C   UNL     1      25.109 -24.405  23.367  1.00  0.00     0.062 A 
ATOM     17  C   UNL     1      23.930 -25.095  23.680  1.00  0.00     0.158 A 
BRANCH  15  18
ATOM     18  O   UNL     1      22.376 -25.925  25.366  1.00  0.00    -0.504 OA
ATOM     19  H   UNL     1      22.200 -26.876  25.067  1.00  0.00     0.293 HD
ENDBRANCH  15  18
BRANCH  17  20
ATOM     20  O   UNL     1      23.142 -25.633  22.663  1.00  0.00    -0.504 OA
ATOM     21  H   UNL     1      23.122 -26.629  22.476  1.00  0.00     0.293 HD
ENDBRANCH  17  20
ENDBRANCH   1  12
BRANCH   2  22
ATOM     22  O   UNL     1      28.296 -25.224  23.507  1.00  0.00    -0.502 OA
ATOM     23  H   UNL     1      28.962 -25.742  22.947  1.00  0.00     0.293 HD
ENDBRANCH   2  22
BRANCH   6  24
ATOM     24  O   UNL     1      31.679 -21.281  22.335  1.00  0.00    -0.507 OA
ATOM     25  H   UNL     1      32.564 -21.429  22.794  1.00  0.00     0.293 HD
ENDBRANCH   6  24
BRANCH   8  26
ATOM     26  O   UNL     1      29.237 -17.521  24.008  1.00  0.00    -0.508 OA
ATOM     27  H   UNL     1      29.522 -16.854  23.302  1.00  0.00     0.293 HD
ENDBRANCH   8  26
TORSDOF 6
ENDMDL
MODEL 4
REMARK VINA RESULT:    -7.143      1.885      7.187
REMARK INTER + INTRA:          -8.932
REMARK INTER:                  -8.699
REMARK INTRA:                  -0.233
REMARK UNBOUND:                -0.328
REMARK SMILES O=c1c(O)c(-c2ccc(O)c(O)c2)oc2cc(O)cc(O)c12
REMARK SMILES IDX 5 1 3 2 2 3 1 4 22 5 20 6 19 7 17 8 16 9 15 10 14 11 6 12
REMARK SMILES IDX 7 13 8 14 9 15 13 16 11 17 10 18 12 20 4 22 21 24 18 26
REMARK H PARENT 10 19 12 21 4 23 21 25 18 27
REMARK Flexibility Score: inf
ROOT
ATOM      1  C   UNL     1      25.568 -23.409  24.800  1.00  0.00     0.180 A 
ATOM      2  C   UNL     1      24.323 -23.578  24.170  1.00  0.00     0.208 A 
ATOM      3  C   UNL     1      23.310 -24.281  24.843  1.00  0.00     0.238 A 
ATOM      4  O   UNL     1      22.180 -24.382  24.298  1.00  0.00    -0.285 OA
ATOM      5  C   UNL     1      23.561 -24.821  26.128  1.00  0.00     0.111 A 
ATOM      6  C   UNL     1      22.621 -25.585  26.882  1.00  0.00     0.134 A 
ATOM      7  C   UNL     1      22.931 -25.958  28.196  1.00  0.00     0.093 A 
ATOM      8  C   UNL     1      24.170 -25.651  28.759  1.00  0.00     0.123 A 
ATOM      9  C   UNL     1      25.119 -24.956  28.008  1.00  0.00     0.094 A 
ATOM     10  C   UNL     1      24.825 -24.539  26.708  1.00  0.00     0.146 A 
ATOM     11  O   UNL     1      25.751 -23.871  26.032  1.00  0.00    -0.452 OA
ENDROOT
BRANCH   1  12
ATOM     12  C   UNL     1      26.692 -22.701  24.145  1.00  0.00     0.025 A 
ATOM     13  C   UNL     1      27.830 -23.394  23.694  1.00  0.00     0.016 A 
ATOM     14  C   UNL     1      28.888 -22.703  23.100  1.00  0.00     0.051 A 
ATOM     15  C   UNL     1      28.836 -21.313  22.960  1.00  0.00     0.157 A 
ATOM     16  C   UNL     1      26.652 -21.302  24.022  1.00  0.00     0.062 A 
ATOM     17  C   UNL     1      27.714 -20.607  23.427  1.00  0.00     0.158 A 
BRANCH  15  18
ATOM     18  O   UNL     1      29.908 -20.651  22.363  1.00  0.00    -0.504 OA
ATOM     19  H   UNL     1      30.248 -19.759  22.704  1.00  0.00     0.293 HD
ENDBRANCH  15  18
BRANCH  17  20
ATOM     20  O   UNL     1      27.658 -19.221  23.297  1.00  0.00    -0.504 OA
ATOM     21  H   UNL     1      28.220 -18.728  22.613  1.00  0.00     0.293 HD
ENDBRANCH  17  20
ENDBRANCH   1  12
BRANCH   2  22
ATOM     22  O   UNL     1      24.089 -23.018  22.911  1.00  0.00    -0.502 OA
ATOM     23  H   UNL     1      24.702 -23.180  22.122  1.00  0.00     0.293 HD
ENDBRANCH   2  22
BRANCH   6  24
ATOM     24  O   UNL     1      21.392 -26.024  26.383  1.00  0.00    -0.507 OA
ATOM     25  H   UNL     1      21.019 -26.952  26.509  1.00  0.00     0.293 HD
ENDBRANCH   6  24
BRANCH   8  26
ATOM     26  O   UNL     1      24.450 -26.051  30.063  1.00  0.00    -0.508 OA
ATOM     27  H   UNL     1      24.897 -26.939  30.261  1.00  0.00     0.293 HD
ENDBRANCH   8  26
TORSDOF 6
ENDMDL
MODEL 5
REMARK VINA RESULT:    -6.986      4.057      6.655
REMARK INTER + INTRA:          -8.743
REMARK INTER:                  -8.552
REMARK INTRA:                  -0.191
REMARK UNBOUND:                -0.328
REMARK SMILES O=c1c(O)c(-c2ccc(O)c(O)c2)oc2cc(O)cc(O)c12
REMARK SMILES IDX 5 1 3 2 2 3 1 4 22 5 20 6 19 7 17 8 16 9 15 10 14 11 6 12
REMARK SMILES IDX 7 13 8 14 9 15 13 16 11 17 10 18 12 20 4 22 21 24 18 26
REMARK H PARENT 10 19 12 21 4 23 21 25 18 27
REMARK Flexibility Score: inf
ROOT
ATOM      1  C   UNL     1      23.226 -22.508  26.321  1.00  0.00     0.180 A 
ATOM      2  C   UNL     1      23.867 -22.810  27.535  1.00  0.00     0.208 A 
ATOM      3  C   UNL     1      23.694 -21.947  28.629  1.00  0.00     0.238 A 
ATOM      4  O   UNL     1      24.226 -22.252  29.728  1.00  0.00    -0.285 OA
ATOM      5  C   UNL     1      22.898 -20.785  28.491  1.00  0.00     0.111 A 
ATOM      6  C   UNL     1      22.688 -19.820  29.522  1.00  0.00     0.134 A 
ATOM      7  C   UNL     1      21.776 -18.777  29.316  1.00  0.00     0.093 A 
ATOM      8  C   UNL     1      21.117 -18.627  28.097  1.00  0.00     0.123 A 
ATOM      9  C   UNL     1      21.361 -19.530  27.061  1.00  0.00     0.094 A 
ATOM     10  C   UNL     1      22.237 -20.601  27.249  1.00  0.00     0.146 A 
ATOM     11  O   UNL     1      22.433 -21.444  26.243  1.00  0.00    -0.452 OA
ENDROOT
BRANCH   1  12
ATOM     12  C   UNL     1      23.379 -23.354  25.116  1.00  0.00     0.025 A 
ATOM     13  C   UNL     1      24.045 -22.884  23.971  1.00  0.00     0.016 A 
ATOM     14  C   UNL     1      24.157 -23.692  22.837  1.00  0.00     0.051 A 
ATOM     15  C   UNL     1      23.596 -24.973  22.823  1.00  0.00     0.157 A 
ATOM     16  C   UNL     1      22.798 -24.634  25.091  1.00  0.00     0.062 A 
ATOM     17  C   UNL     1      22.910 -25.446  23.954  1.00  0.00     0.158 A 
BRANCH  15  18
ATOM     18  O   UNL     1      23.725 -25.757  21.677  1.00  0.00    -0.504 OA
ATOM     19  H   UNL     1      24.622 -26.113  21.367  1.00  0.00     0.293 HD
ENDBRANCH  15  18
BRANCH  17  20
ATOM     20  O   UNL     1      22.343 -26.719  23.945  1.00  0.00    -0.504 OA
ATOM     21  H   UNL     1      22.510 -27.381  24.694  1.00  0.00     0.293 HD
ENDBRANCH  17  20
ENDBRANCH   1  12
BRANCH   2  22
ATOM     22  O   UNL     1      24.630 -23.974  27.655  1.00  0.00    -0.502 OA
ATOM     23  H   UNL     1      24.758 -24.451  28.539  1.00  0.00     0.293 HD
ENDBRANCH   2  22
BRANCH   6  24
ATOM     24  O   UNL     1      23.364 -19.825  30.745  1.00  0.00    -0.507 OA
ATOM     25  H   UNL     1      23.774 -19.012  31.179  1.00  0.00     0.293 HD
ENDBRANCH   6  24
BRANCH   8  26
ATOM     26  O   UNL     1      20.228 -17.568  27.921  1.00  0.00    -0.508 OA
ATOM     27  H   UNL     1      19.467 -17.621  27.257  1.00  0.00     0.293 HD
ENDBRANCH   8  26
TORSDOF 6
ENDMDL
MODEL 6
REMARK VINA RESULT:    -6.929      2.700      7.169
REMARK INTER + INTRA:          -8.675
REMARK INTER:                  -8.484
REMARK INTRA:                  -0.191
REMARK UNBOUND:                -0.328
REMARK SMILES O=c1c(O)c(-c2ccc(O)c(O)c2)oc2cc(O)cc(O)c12
REMARK SMILES IDX 5 1 3 2 2 3 1 4 22 5 20 6 19 7 17 8 16 9 15 10 14 11 6 12
REMARK SMILES IDX 7 13 8 14 9 15 13 16 11 17 10 18 12 20 4 22 21 24 18 26
REMARK H PARENT 10 19 12 21 4 23 21 25 18 27
REMARK Flexibility Score: inf
ROOT
ATOM      1  C   UNL     1      23.602 -26.097  28.804  1.00  0.00     0.180 A 
ATOM      2  C   UNL     1      24.525 -27.051  28.341  1.00  0.00     0.208 A 
ATOM      3  C   UNL     1      25.112 -27.934  29.261  1.00  0.00     0.238 A 
ATOM      4  O   UNL     1      25.895 -28.821  28.833  1.00  0.00    -0.285 OA
ATOM      5  C   UNL     1      24.781 -27.842  30.635  1.00  0.00     0.111 A 
ATOM      6  C   UNL     1      25.346 -28.659  31.660  1.00  0.00     0.134 A 
ATOM      7  C   UNL     1      24.848 -28.568  32.966  1.00  0.00     0.093 A 
ATOM      8  C   UNL     1      23.855 -27.647  33.297  1.00  0.00     0.123 A 
ATOM      9  C   UNL     1      23.339 -26.802  32.314  1.00  0.00     0.094 A 
ATOM     10  C   UNL     1      23.789 -26.894  30.995  1.00  0.00     0.146 A 
ATOM     11  O   UNL     1      23.264 -26.079  30.088  1.00  0.00    -0.452 OA
ENDROOT
BRANCH   1  12
ATOM     12  C   UNL     1      22.961 -25.117  27.899  1.00  0.00     0.025 A 
ATOM     13  C   UNL     1      23.235 -23.741  27.998  1.00  0.00     0.016 A 
ATOM     14  C   UNL     1      22.600 -22.831  27.149  1.00  0.00     0.051 A 
ATOM     15  C   UNL     1      21.675 -23.276  26.200  1.00  0.00     0.157 A 
ATOM     16  C   UNL     1      22.015 -25.558  26.958  1.00  0.00     0.062 A 
ATOM     17  C   UNL     1      21.378 -24.646  26.105  1.00  0.00     0.158 A 
BRANCH  15  18
ATOM     18  O   UNL     1      21.059 -22.344  25.365  1.00  0.00    -0.504 OA
ATOM     19  H   UNL     1      20.999 -21.362  25.607  1.00  0.00     0.293 HD
ENDBRANCH  15  18
BRANCH  17  20
ATOM     20  O   UNL     1      20.452 -25.096  25.165  1.00  0.00    -0.504 OA
ATOM     21  H   UNL     1      19.831 -24.456  24.683  1.00  0.00     0.293 HD
ENDBRANCH  17  20
ENDBRANCH   1  12
BRANCH   2  22
ATOM     22  O   UNL     1      24.821 -27.139  26.977  1.00  0.00    -0.502 OA
ATOM     23  H   UNL     1      25.704 -27.496  26.634  1.00  0.00     0.293 HD
ENDBRANCH   2  22
BRANCH   6  24
ATOM     24  O   UNL     1      26.405 -29.547  31.456  1.00  0.00    -0.507 OA
ATOM     25  H   UNL     1      27.142 -29.417  30.780  1.00  0.00     0.293 HD
ENDBRANCH   6  24
BRANCH   8  26
ATOM     26  O   UNL     1      23.396 -27.574  34.610  1.00  0.00    -0.508 OA
ATOM     27  H   UNL     1      23.938 -27.124  35.337  1.00  0.00     0.293 HD
ENDBRANCH   8  26
TORSDOF 6
ENDMDL
MODEL 7
REMARK VINA RESULT:    -6.847      2.861      6.830
REMARK INTER + INTRA:          -8.575
REMARK INTER:                  -8.258
REMARK INTRA:                  -0.317
REMARK UNBOUND:                -0.328
REMARK SMILES O=c1c(O)c(-c2ccc(O)c(O)c2)oc2cc(O)cc(O)c12
REMARK SMILES IDX 5 1 3 2 2 3 1 4 22 5 20 6 19 7 17 8 16 9 15 10 14 11 6 12
REMARK SMILES IDX 7 13 8 14 9 15 13 16 11 17 10 18 12 20 4 22 21 24 18 26
REMARK H PARENT 10 19 12 21 4 23 21 25 18 27
REMARK Flexibility Score: inf
ROOT
ATOM      1  C   UNL     1      25.685 -23.051  24.956  1.00  0.00     0.180 A 
ATOM      2  C   UNL     1      24.538 -23.302  24.183  1.00  0.00     0.208 A 
ATOM      3  C   UNL     1      23.335 -23.619  24.834  1.00  0.00     0.238 A 
ATOM      4  O   UNL     1      22.299 -23.788  24.140  1.00  0.00    -0.285 OA
ATOM      5  C   UNL     1      23.297 -23.697  26.247  1.00  0.00     0.111 A 
ATOM      6  C   UNL     1      22.142 -24.049  27.008  1.00  0.00     0.134 A 
ATOM      7  C   UNL     1      22.185 -23.968  28.405  1.00  0.00     0.093 A 
ATOM      8  C   UNL     1      23.357 -23.611  29.070  1.00  0.00     0.123 A 
ATOM      9  C   UNL     1      24.510 -23.323  28.338  1.00  0.00     0.094 A 
ATOM     10  C   UNL     1      24.487 -23.360  26.942  1.00  0.00     0.146 A 
ATOM     11  O   UNL     1      25.602 -23.069  26.282  1.00  0.00    -0.452 OA
ENDROOT
BRANCH   1  12
ATOM     12  C   UNL     1      26.995 -22.735  24.343  1.00  0.00     0.025 A 
ATOM     13  C   UNL     1      27.399 -21.407  24.123  1.00  0.00     0.016 A 
ATOM     14  C   UNL     1      28.630 -21.133  23.522  1.00  0.00     0.051 A 
ATOM     15  C   UNL     1      29.468 -22.177  23.118  1.00  0.00     0.157 A 
ATOM     16  C   UNL     1      27.830 -23.782  23.917  1.00  0.00     0.062 A 
ATOM     17  C   UNL     1      29.065 -23.509  23.313  1.00  0.00     0.158 A 
BRANCH  15  18
ATOM     18  O   UNL     1      30.691 -21.873  22.521  1.00  0.00    -0.504 OA
ATOM     19  H   UNL     1      30.961 -22.256  21.623  1.00  0.00     0.293 HD
ENDBRANCH  15  18
BRANCH  17  20
ATOM     20  O   UNL     1      29.892 -24.555  22.907  1.00  0.00    -0.504 OA
ATOM     21  H   UNL     1      30.486 -25.049  23.563  1.00  0.00     0.293 HD
ENDBRANCH  17  20
ENDBRANCH   1  12
BRANCH   2  22
ATOM     22  O   UNL     1      24.592 -23.198  22.791  1.00  0.00    -0.502 OA
ATOM     23  H   UNL     1      24.774 -23.993  22.192  1.00  0.00     0.293 HD
ENDBRANCH   2  22
BRANCH   6  24
ATOM     24  O   UNL     1      20.947 -24.508  26.446  1.00  0.00    -0.507 OA
ATOM     25  H   UNL     1      20.761 -24.563  25.457  1.00  0.00     0.293 HD
ENDBRANCH   6  24
BRANCH   8  26
ATOM     26  O   UNL     1      23.369 -23.556  30.463  1.00  0.00    -0.508 OA
ATOM     27  H   UNL     1      23.789 -24.290  31.019  1.00  0.00     0.293 HD
ENDBRANCH   8  26
TORSDOF 6
ENDMDL
MODEL 8
REMARK VINA RESULT:    -6.796      5.057      6.910
REMARK INTER + INTRA:          -8.514
REMARK INTER:                  -8.256
REMARK INTRA:                  -0.257
REMARK UNBOUND:                -0.328
REMARK SMILES O=c1c(O)c(-c2ccc(O)c(O)c2)oc2cc(O)cc(O)c12
REMARK SMILES IDX 5 1 3 2 2 3 1 4 22 5 20 6 19 7 17 8 16 9 15 10 14 11 6 12
REMARK SMILES IDX 7 13 8 14 9 15 13 16 11 17 10 18 12 20 4 22 21 24 18 26
REMARK H PARENT 10 19 12 21 4 23 21 25 18 27
REMARK Flexibility Score: inf
ROOT
ATOM      1  C   UNL     1      22.554 -21.500  27.247  1.00  0.00     0.180 A 
ATOM      2  C   UNL     1      23.259 -21.522  28.464  1.00  0.00     0.208 A 
ATOM      3  C   UNL     1      23.229 -20.386  29.289  1.00  0.00     0.238 A 
ATOM      4  O   UNL     1      23.817 -20.432  30.401  1.00  0.00    -0.285 OA
ATOM      5  C   UNL     1      22.510 -19.237  28.880  1.00  0.00     0.111 A 
ATOM      6  C   UNL     1      22.445 -18.018  29.619  1.00  0.00     0.134 A 
ATOM      7  C   UNL     1      21.598 -16.991  29.183  1.00  0.00     0.093 A 
ATOM      8  C   UNL     1      20.864 -17.115  28.004  1.00  0.00     0.123 A 
ATOM      9  C   UNL     1      20.965 -18.280  27.243  1.00  0.00     0.094 A 
ATOM     10  C   UNL     1      21.775 -19.335  27.670  1.00  0.00     0.146 A 
ATOM     11  O   UNL     1      21.835 -20.431  26.923  1.00  0.00    -0.452 OA
ENDROOT
BRANCH   1  12
ATOM     12  C   UNL     1      22.558 -22.648  26.313  1.00  0.00     0.025 A 
ATOM     13  C   UNL     1      23.283 -22.610  25.109  1.00  0.00     0.016 A 
ATOM     14  C   UNL     1      23.253 -23.696  24.232  1.00  0.00     0.051 A 
ATOM     15  C   UNL     1      22.490 -24.829  24.533  1.00  0.00     0.157 A 
ATOM     16  C   UNL     1      21.775 -23.779  26.603  1.00  0.00     0.062 A 
ATOM     17  C   UNL     1      21.744 -24.870  25.723  1.00  0.00     0.158 A 
BRANCH  15  18
ATOM     18  O   UNL     1      22.481 -25.898  23.638  1.00  0.00    -0.504 OA
ATOM     19  H   UNL     1      23.306 -26.460  23.463  1.00  0.00     0.293 HD
ENDBRANCH  15  18
BRANCH  17  20
ATOM     20  O   UNL     1      20.976 -25.993  26.027  1.00  0.00    -0.504 OA
ATOM     21  H   UNL     1      20.006 -25.913  26.309  1.00  0.00     0.293 HD
ENDBRANCH  17  20
ENDBRANCH   1  12
BRANCH   2  22
ATOM     22  O   UNL     1      23.944 -22.675  28.858  1.00  0.00    -0.502 OA
ATOM     23  H   UNL     1      23.661 -23.602  28.567  1.00  0.00     0.293 HD
ENDBRANCH   2  22
BRANCH   6  24
ATOM     24  O   UNL     1      23.207 -17.755  30.760  1.00  0.00    -0.507 OA
ATOM     25  H   UNL     1      23.571 -18.460  31.383  1.00  0.00     0.293 HD
ENDBRANCH   6  24
BRANCH   8  26
ATOM     26  O   UNL     1      20.042 -16.067  27.593  1.00  0.00    -0.508 OA
ATOM     27  H   UNL     1      19.281 -15.733  28.170  1.00  0.00     0.293 HD
ENDBRANCH   8  26
TORSDOF 6
ENDMDL
MODEL 9
REMARK VINA RESULT:    -6.791      1.631      6.914
REMARK INTER + INTRA:          -8.508
REMARK INTER:                  -8.256
REMARK INTRA:                  -0.252
REMARK UNBOUND:                -0.328
REMARK SMILES O=c1c(O)c(-c2ccc(O)c(O)c2)oc2cc(O)cc(O)c12
REMARK SMILES IDX 5 1 3 2 2 3 1 4 22 5 20 6 19 7 17 8 16 9 15 10 14 11 6 12
REMARK SMILES IDX 7 13 8 14 9 15 13 16 11 17 10 18 12 20 4 22 21 24 18 26
REMARK H PARENT 10 19 12 21 4 23 21 25 18 27
REMARK Flexibility Score: inf
ROOT
ATOM      1  C   UNL     1      23.361 -25.128  27.529  1.00  0.00     0.180 A 
ATOM      2  C   UNL     1      22.537 -24.517  28.491  1.00  0.00     0.208 A 
ATOM      3  C   UNL     1      22.530 -25.022  29.801  1.00  0.00     0.238 A 
ATOM      4  O   UNL     1      21.833 -24.437  30.670  1.00  0.00    -0.285 OA
ATOM      5  C   UNL     1      23.332 -26.142  30.129  1.00  0.00     0.111 A 
ATOM      6  C   UNL     1      23.371 -26.761  31.415  1.00  0.00     0.134 A 
ATOM      7  C   UNL     1      24.299 -27.780  31.662  1.00  0.00     0.093 A 
ATOM      8  C   UNL     1      25.142 -28.247  30.654  1.00  0.00     0.123 A 
ATOM      9  C   UNL     1      25.070 -27.689  29.376  1.00  0.00     0.094 A 
ATOM     10  C   UNL     1      24.180 -26.646  29.110  1.00  0.00     0.146 A 
ATOM     11  O   UNL     1      24.151 -26.136  27.885  1.00  0.00    -0.452 OA
ENDROOT
BRANCH   1  12
ATOM     12  C   UNL     1      23.404 -24.669  26.123  1.00  0.00     0.025 A 
ATOM     13  C   UNL     1      22.813 -25.418  25.090  1.00  0.00     0.016 A 
ATOM     14  C   UNL     1      22.887 -24.977  23.766  1.00  0.00     0.051 A 
ATOM     15  C   UNL     1      23.562 -23.794  23.451  1.00  0.00     0.157 A 
ATOM     16  C   UNL     1      24.100 -23.492  25.800  1.00  0.00     0.062 A 
ATOM     17  C   UNL     1      24.175 -23.048  24.472  1.00  0.00     0.158 A 
BRANCH  15  18
ATOM     18  O   UNL     1      23.618 -23.379  22.121  1.00  0.00    -0.504 OA
ATOM     19  H   UNL     1      24.420 -23.568  21.532  1.00  0.00     0.293 HD
ENDBRANCH  15  18
BRANCH  17  20
ATOM     20  O   UNL     1      24.855 -21.871  24.165  1.00  0.00    -0.504 OA
ATOM     21  H   UNL     1      25.863 -21.801  24.251  1.00  0.00     0.293 HD
ENDBRANCH  17  20
ENDBRANCH   1  12
BRANCH   2  22
ATOM     22  O   UNL     1      21.770 -23.400  28.151  1.00  0.00    -0.502 OA
ATOM     23  H   UNL     1      22.185 -22.518  27.878  1.00  0.00     0.293 HD
ENDBRANCH   2  22
BRANCH   6  24
ATOM     24  O   UNL     1      22.510 -26.433  32.465  1.00  0.00    -0.507 OA
ATOM     25  H   UNL     1      21.534 -26.684  32.508  1.00  0.00     0.293 HD
ENDBRANCH   6  24
BRANCH   8  26
ATOM     26  O   UNL     1      26.042 -29.274  30.930  1.00  0.00    -0.508 OA
ATOM     27  H   UNL     1      26.086 -29.708  31.844  1.00  0.00     0.293 HD
ENDBRANCH   8  26
TORSDOF 6
ENDMDL
