MODEL 1
REMARK VINA RESULT:    -5.171      0.000      0.000
REMARK INTER + INTRA:         -13.999
REMARK INTER:                 -11.822
REMARK INTRA:                  -2.177
REMARK UNBOUND:                -2.177
REMARK SMILES CCCCCCCCCCCCCCCCCCCCCCCC(=O)[O-]
REMARK SMILES IDX 13 1 14 2 15 3 16 4 17 5 18 6 19 7 20 8 21 9 22 10 23 11
REMARK SMILES IDX 24 12 25 13 26 14 12 15 11 16 10 17 9 18 8 19 7 20 6 21 5 22
REMARK SMILES IDX 4 23 3 24 2 25 1 26
REMARK H PARENT
REMARK Flexibility Score: inf
ROOT
ATOM      1  C   UNL     1      -2.935  30.117  57.750  1.00  0.00     0.000 C 
ENDROOT
BRANCH   1   2
ATOM      2  C   UNL     1      -4.261  30.787  58.146  1.00  0.00     0.000 C 
BRANCH   2   3
ATOM      3  C   UNL     1      -4.274  31.258  59.609  1.00  0.00     0.000 C 
BRANCH   3   4
ATOM      4  C   UNL     1      -3.016  32.060  59.989  1.00  0.00     0.000 C 
BRANCH   4   5
ATOM      5  C   UNL     1      -3.091  32.620  61.420  1.00  0.00     0.000 C 
BRANCH   5   6
ATOM      6  C   UNL     1      -1.724  32.602  62.128  1.00  0.00     0.000 C 
BRANCH   6   7
ATOM      7  C   UNL     1      -1.797  32.032  63.557  1.00  0.00     0.000 C 
BRANCH   7   8
ATOM      8  C   UNL     1      -0.439  31.652  64.175  1.00  0.00     0.000 C 
BRANCH   8   9
ATOM      9  C   UNL     1      -0.092  30.168  63.992  1.00  0.00     0.000 C 
BRANCH   9  10
ATOM     10  C   UNL     1       1.344  30.003  63.472  1.00  0.00     0.006 C 
BRANCH  10  11
ATOM     11  C   UNL     1       1.381  29.586  61.994  1.00  0.00     0.053 C 
BRANCH  11  12
ATOM     12  C   UNL     1       2.084  30.603  61.146  1.00  0.00     0.041 C 
ATOM     13  O   UNL     1       3.027  30.253  60.390  1.00  0.00    -0.550 OA
ATOM     14  O   UNL     1       1.698  31.938  61.194  1.00  0.00    -0.550 OA
ENDBRANCH  11  12
ENDBRANCH  10  11
ENDBRANCH   9  10
ENDBRANCH   8   9
ENDBRANCH   7   8
ENDBRANCH   6   7
ENDBRANCH   5   6
ENDBRANCH   4   5
ENDBRANCH   3   4
ENDBRANCH   2   3
ENDBRANCH   1   2
BRANCH   1  15
ATOM     15  C   UNL     1      -3.095  29.114  56.591  1.00  0.00     0.000 C 
BRANCH  15  16
ATOM     16  C   UNL     1      -4.520  28.554  56.397  1.00  0.00     0.000 C 
BRANCH  16  17
ATOM     17  C   UNL     1      -4.655  27.470  55.312  1.00  0.00     0.000 C 
BRANCH  17  18
ATOM     18  C   UNL     1      -3.398  26.600  55.181  1.00  0.00    -0.000 C 
BRANCH  18  19
ATOM     19  C   UNL     1      -2.876  26.604  53.738  1.00  0.00    -0.000 C 
BRANCH  19  20
ATOM     20  C   UNL     1      -1.474  25.986  53.657  1.00  0.00    -0.000 C 
BRANCH  20  21
ATOM     21  C   UNL     1      -0.782  26.012  55.026  1.00  0.00    -0.000 C 
BRANCH  21  22
ATOM     22  C   UNL     1       0.744  25.838  54.927  1.00  0.00    -0.000 C 
BRANCH  22  23
ATOM     23  C   UNL     1       1.518  26.521  56.075  1.00  0.00    -0.000 C 
BRANCH  23  24
ATOM     24  C   UNL     1       0.592  27.333  56.997  1.00  0.00    -0.000 C 
BRANCH  24  25
ATOM     25  C   UNL     1       1.353  28.373  57.833  1.00  0.00    -0.003 C 
ATOM     26  C   UNL     1       0.742  29.770  57.740  1.00  0.00     0.004 C 
ENDBRANCH  24  25
ENDBRANCH  23  24
ENDBRANCH  22  23
ENDBRANCH  21  22
ENDBRANCH  20  21
ENDBRANCH  19  20
ENDBRANCH  18  19
ENDBRANCH  17  18
ENDBRANCH  16  17
ENDBRANCH  15  16
ENDBRANCH   1  15
TORSDOF 22
ENDMDL
MODEL 2
REMARK VINA RESULT:    -5.029      3.318      8.972
REMARK INTER + INTRA:         -13.674
REMARK INTER:                 -12.218
REMARK INTRA:                  -1.456
REMARK UNBOUND:                -2.177
REMARK SMILES CCCCCCCCCCCCCCCCCCCCCCCC(=O)[O-]
REMARK SMILES IDX 13 1 14 2 15 3 16 4 17 5 18 6 19 7 20 8 21 9 22 10 23 11
REMARK SMILES IDX 24 12 25 13 26 14 12 15 11 16 10 17 9 18 8 19 7 20 6 21 5 22
REMARK SMILES IDX 4 23 3 24 2 25 1 26
REMARK H PARENT
REMARK Flexibility Score: inf
ROOT
ATOM      1  C   UNL     1      -4.643  28.658  56.421  1.00  0.00     0.000 C 
ENDROOT
BRANCH   1   2
ATOM      2  C   UNL     1      -4.875  27.532  55.400  1.00  0.00     0.000 C 
BRANCH   2   3
ATOM      3  C   UNL     1      -3.618  26.679  55.163  1.00  0.00     0.000 C 
BRANCH   3   4
ATOM      4  C   UNL     1      -3.340  26.427  53.670  1.00  0.00     0.000 C 
BRANCH   4   5
ATOM      5  C   UNL     1      -1.835  26.352  53.361  1.00  0.00     0.000 C 
BRANCH   5   6
ATOM      6  C   UNL     1      -0.975  26.353  54.639  1.00  0.00     0.000 C 
BRANCH   6   7
ATOM      7  C   UNL     1      -0.111  25.086  54.781  1.00  0.00     0.000 C 
BRANCH   7   8
ATOM      8  C   UNL     1       1.373  25.267  54.416  1.00  0.00     0.000 C 
BRANCH   8   9
ATOM      9  C   UNL     1       2.123  23.934  54.280  1.00  0.00     0.000 C 
BRANCH   9  10
ATOM     10  C   UNL     1       2.342  23.579  52.801  1.00  0.00     0.006 C 
BRANCH  10  11
ATOM     11  C   UNL     1       2.235  24.808  51.887  1.00  0.00     0.053 C 
BRANCH  11  12
ATOM     12  C   UNL     1       3.576  25.239  51.372  1.00  0.00     0.041 C 
ATOM     13  O   UNL     1       4.433  25.716  52.160  1.00  0.00    -0.550 OA
ATOM     14  O   UNL     1       3.874  25.117  50.020  1.00  0.00    -0.550 OA
ENDBRANCH  11  12
ENDBRANCH  10  11
ENDBRANCH   9  10
ENDBRANCH   8   9
ENDBRANCH   7   8
ENDBRANCH   6   7
ENDBRANCH   5   6
ENDBRANCH   4   5
ENDBRANCH   3   4
ENDBRANCH   2   3
ENDBRANCH   1   2
BRANCH   1  15
ATOM     15  C   UNL     1      -3.153  29.010  56.594  1.00  0.00     0.000 C 
BRANCH  15  16
ATOM     16  C   UNL     1      -2.839  30.007  57.729  1.00  0.00     0.000 C 
BRANCH  16  17
ATOM     17  C   UNL     1      -3.974  30.991  58.068  1.00  0.00     0.000 C 
BRANCH  17  18
ATOM     18  C   UNL     1      -4.690  30.643  59.381  1.00  0.00    -0.000 C 
BRANCH  18  19
ATOM     19  C   UNL     1      -4.103  31.439  60.553  1.00  0.00    -0.000 C 
BRANCH  19  20
ATOM     20  C   UNL     1      -3.011  32.405  60.074  1.00  0.00    -0.000 C 
BRANCH  20  21
ATOM     21  C   UNL     1      -2.264  33.023  61.262  1.00  0.00    -0.000 C 
BRANCH  21  22
ATOM     22  C   UNL     1      -3.041  32.903  62.585  1.00  0.00    -0.000 C 
BRANCH  22  23
ATOM     23  C   UNL     1      -2.284  32.115  63.676  1.00  0.00    -0.000 C 
BRANCH  23  24
ATOM     24  C   UNL     1      -0.829  31.819  63.274  1.00  0.00    -0.000 C 
BRANCH  24  25
ATOM     25  C   UNL     1      -0.230  30.636  64.049  1.00  0.00    -0.003 C 
ATOM     26  C   UNL     1       0.638  29.733  63.174  1.00  0.00     0.004 C 
ENDBRANCH  24  25
ENDBRANCH  23  24
ENDBRANCH  22  23
ENDBRANCH  21  22
ENDBRANCH  20  21
ENDBRANCH  19  20
ENDBRANCH  18  19
ENDBRANCH  17  18
ENDBRANCH  16  17
ENDBRANCH  15  16
ENDBRANCH   1  15
TORSDOF 22
ENDMDL
MODEL 3
REMARK VINA RESULT:    -4.964      3.151      8.402
REMARK INTER + INTRA:         -13.525
REMARK INTER:                 -11.471
REMARK INTRA:                  -2.054
REMARK UNBOUND:                -2.177
REMARK SMILES CCCCCCCCCCCCCCCCCCCCCCCC(=O)[O-]
REMARK SMILES IDX 13 1 14 2 15 3 16 4 17 5 18 6 19 7 20 8 21 9 22 10 23 11
REMARK SMILES IDX 24 12 25 13 26 14 12 15 11 16 10 17 9 18 8 19 7 20 6 21 5 22
REMARK SMILES IDX 4 23 3 24 2 25 1 26
REMARK H PARENT
REMARK Flexibility Score: inf
ROOT
ATOM      1  C   UNL     1      -4.468  30.880  59.619  1.00  0.00     0.000 C 
ENDROOT
BRANCH   1   2
ATOM      2  C   UNL     1      -4.553  30.060  58.321  1.00  0.00     0.000 C 
BRANCH   2   3
ATOM      3  C   UNL     1      -3.192  29.916  57.621  1.00  0.00     0.000 C 
BRANCH   3   4
ATOM      4  C   UNL     1      -3.237  28.952  56.421  1.00  0.00     0.000 C 
BRANCH   4   5
ATOM      5  C   UNL     1      -4.635  28.348  56.209  1.00  0.00     0.000 C 
BRANCH   5   6
ATOM      6  C   UNL     1      -4.641  27.248  55.131  1.00  0.00     0.000 C 
BRANCH   6   7
ATOM      7  C   UNL     1      -3.278  26.547  54.984  1.00  0.00     0.000 C 
BRANCH   7   8
ATOM      8  C   UNL     1      -2.759  26.429  53.539  1.00  0.00     0.000 C 
BRANCH   8   9
ATOM      9  C   UNL     1      -1.278  26.034  53.465  1.00  0.00     0.000 C 
BRANCH   9  10
ATOM     10  C   UNL     1      -0.647  26.011  54.866  1.00  0.00     0.006 C 
BRANCH  10  11
ATOM     11  C   UNL     1       0.863  25.737  54.817  1.00  0.00     0.053 C 
BRANCH  11  12
ATOM     12  C   UNL     1       1.191  24.571  53.934  1.00  0.00     0.041 C 
ATOM     13  O   UNL     1       1.840  24.745  52.870  1.00  0.00    -0.550 OA
ATOM     14  O   UNL     1       0.773  23.292  54.286  1.00  0.00    -0.550 OA
ENDBRANCH  11  12
ENDBRANCH  10  11
ENDBRANCH   9  10
ENDBRANCH   8   9
ENDBRANCH   7   8
ENDBRANCH   6   7
ENDBRANCH   5   6
ENDBRANCH   4   5
ENDBRANCH   3   4
ENDBRANCH   2   3
ENDBRANCH   1   2
BRANCH   1  15
ATOM     15  C   UNL     1      -3.493  32.069  59.511  1.00  0.00     0.000 C 
BRANCH  15  16
ATOM     16  C   UNL     1      -2.584  32.289  60.739  1.00  0.00     0.000 C 
BRANCH  16  17
ATOM     17  C   UNL     1      -3.281  32.901  61.968  1.00  0.00     0.000 C 
BRANCH  17  18
ATOM     18  C   UNL     1      -2.734  32.357  63.295  1.00  0.00    -0.000 C 
BRANCH  18  19
ATOM     19  C   UNL     1      -1.202  32.426  63.327  1.00  0.00    -0.000 C 
BRANCH  19  20
ATOM     20  C   UNL     1      -0.595  31.059  63.668  1.00  0.00    -0.000 C 
BRANCH  20  21
ATOM     21  C   UNL     1       0.868  30.979  63.214  1.00  0.00    -0.000 C 
BRANCH  21  22
ATOM     22  C   UNL     1       1.022  30.417  61.790  1.00  0.00    -0.000 C 
BRANCH  22  23
ATOM     23  C   UNL     1       1.805  31.349  60.840  1.00  0.00    -0.000 C 
BRANCH  23  24
ATOM     24  C   UNL     1       1.908  32.782  61.389  1.00  0.00    -0.000 C 
BRANCH  24  25
ATOM     25  C   UNL     1       0.902  33.741  60.733  1.00  0.00    -0.003 C 
ATOM     26  C   UNL     1       0.999  35.164  61.278  1.00  0.00     0.004 C 
ENDBRANCH  24  25
ENDBRANCH  23  24
ENDBRANCH  22  23
ENDBRANCH  21  22
ENDBRANCH  20  21
ENDBRANCH  19  20
ENDBRANCH  18  19
ENDBRANCH  17  18
ENDBRANCH  16  17
ENDBRANCH  15  16
ENDBRANCH   1  15
TORSDOF 22
ENDMDL
MODEL 4
REMARK VINA RESULT:    -4.960      1.723      3.715
REMARK INTER + INTRA:         -13.517
REMARK INTER:                 -11.321
REMARK INTRA:                  -2.196
REMARK UNBOUND:                -2.177
REMARK SMILES CCCCCCCCCCCCCCCCCCCCCCCC(=O)[O-]
REMARK SMILES IDX 13 1 14 2 15 3 16 4 17 5 18 6 19 7 20 8 21 9 22 10 23 11
REMARK SMILES IDX 24 12 25 13 26 14 12 15 11 16 10 17 9 18 8 19 7 20 6 21 5 22
REMARK SMILES IDX 4 23 3 24 2 25 1 26
REMARK H PARENT
REMARK Flexibility Score: inf
ROOT
ATOM      1  C   UNL     1      -4.374  28.327  56.160  1.00  0.00     0.000 C 
ENDROOT
BRANCH   1   2
ATOM      2  C   UNL     1      -3.031  29.049  56.354  1.00  0.00     0.000 C 
BRANCH   2   3
ATOM      3  C   UNL     1      -2.969  29.842  57.669  1.00  0.00     0.000 C 
BRANCH   3   4
ATOM      4  C   UNL     1      -4.251  30.652  57.939  1.00  0.00     0.000 C 
BRANCH   4   5
ATOM      5  C   UNL     1      -4.435  30.972  59.432  1.00  0.00     0.000 C 
BRANCH   5   6
ATOM      6  C   UNL     1      -3.442  32.038  59.929  1.00  0.00     0.000 C 
BRANCH   6   7
ATOM      7  C   UNL     1      -3.607  32.359  61.426  1.00  0.00     0.000 C 
BRANCH   7   8
ATOM      8  C   UNL     1      -2.472  33.199  62.040  1.00  0.00     0.000 C 
BRANCH   8   9
ATOM      9  C   UNL     1      -1.099  32.889  61.428  1.00  0.00     0.000 C 
BRANCH   9  10
ATOM     10  C   UNL     1      -0.086  32.512  62.520  1.00  0.00     0.006 C 
BRANCH  10  11
ATOM     11  C   UNL     1      -0.174  33.442  63.739  1.00  0.00     0.053 C 
BRANCH  11  12
ATOM     12  C   UNL     1      -0.334  32.674  65.016  1.00  0.00     0.041 C 
ATOM     13  O   UNL     1      -0.937  33.189  65.993  1.00  0.00    -0.550 OA
ATOM     14  O   UNL     1       0.188  31.390  65.128  1.00  0.00    -0.550 OA
ENDBRANCH  11  12
ENDBRANCH  10  11
ENDBRANCH   9  10
ENDBRANCH   8   9
ENDBRANCH   7   8
ENDBRANCH   6   7
ENDBRANCH   5   6
ENDBRANCH   4   5
ENDBRANCH   3   4
ENDBRANCH   2   3
ENDBRANCH   1   2
BRANCH   1  15
ATOM     15  C   UNL     1      -4.302  27.204  55.106  1.00  0.00     0.000 C 
BRANCH  15  16
ATOM     16  C   UNL     1      -3.134  26.211  55.282  1.00  0.00     0.000 C 
BRANCH  16  17
ATOM     17  C   UNL     1      -2.005  26.337  54.243  1.00  0.00     0.000 C 
BRANCH  17  18
ATOM     18  C   UNL     1      -0.627  25.975  54.815  1.00  0.00    -0.000 C 
BRANCH  18  19
ATOM     19  C   UNL     1      -0.369  26.712  56.135  1.00  0.00    -0.000 C 
BRANCH  19  20
ATOM     20  C   UNL     1       1.133  26.800  56.433  1.00  0.00    -0.000 C 
BRANCH  20  21
ATOM     21  C   UNL     1       1.383  27.417  57.815  1.00  0.00    -0.000 C 
BRANCH  21  22
ATOM     22  C   UNL     1       2.059  28.798  57.739  1.00  0.00    -0.000 C 
BRANCH  22  23
ATOM     23  C   UNL     1       1.069  29.977  57.870  1.00  0.00    -0.000 C 
BRANCH  23  24
ATOM     24  C   UNL     1       0.909  30.440  59.328  1.00  0.00    -0.000 C 
BRANCH  24  25
ATOM     25  C   UNL     1       2.146  30.134  60.187  1.00  0.00    -0.003 C 
ATOM     26  C   UNL     1       1.792  29.498  61.529  1.00  0.00     0.004 C 
ENDBRANCH  24  25
ENDBRANCH  23  24
ENDBRANCH  22  23
ENDBRANCH  21  22
ENDBRANCH  20  21
ENDBRANCH  19  20
ENDBRANCH  18  19
ENDBRANCH  17  18
ENDBRANCH  16  17
ENDBRANCH  15  16
ENDBRANCH   1  15
TORSDOF 22
ENDMDL
MODEL 5
REMARK VINA RESULT:    -4.930      1.578      4.392
REMARK INTER + INTRA:         -13.448
REMARK INTER:                 -11.187
REMARK INTRA:                  -2.261
REMARK UNBOUND:                -2.177
REMARK SMILES CCCCCCCCCCCCCCCCCCCCCCCC(=O)[O-]
REMARK SMILES IDX 13 1 14 2 15 3 16 4 17 5 18 6 19 7 20 8 21 9 22 10 23 11
REMARK SMILES IDX 24 12 25 13 26 14 12 15 11 16 10 17 9 18 8 19 7 20 6 21 5 22
REMARK SMILES IDX 4 23 3 24 2 25 1 26
REMARK H PARENT
REMARK Flexibility Score: inf
ROOT
ATOM      1  C   UNL     1      -3.462  26.666  55.366  1.00  0.00     0.000 C 
ENDROOT
BRANCH   1   2
ATOM      2  C   UNL     1      -4.732  27.528  55.460  1.00  0.00     0.000 C 
BRANCH   2   3
ATOM      3  C   UNL     1      -4.569  28.723  56.412  1.00  0.00     0.000 C 
BRANCH   3   4
ATOM      4  C   UNL     1      -3.096  29.103  56.647  1.00  0.00     0.000 C 
BRANCH   4   5
ATOM      5  C   UNL     1      -2.926  30.081  57.822  1.00  0.00     0.000 C 
BRANCH   5   6
ATOM      6  C   UNL     1      -4.266  30.686  58.279  1.00  0.00     0.000 C 
BRANCH   6   7
ATOM      7  C   UNL     1      -4.267  31.089  59.765  1.00  0.00     0.000 C 
BRANCH   7   8
ATOM      8  C   UNL     1      -3.248  32.179  60.143  1.00  0.00     0.000 C 
BRANCH   8   9
ATOM      9  C   UNL     1      -3.362  32.623  61.608  1.00  0.00     0.000 C 
BRANCH   9  10
ATOM     10  C   UNL     1      -1.987  32.609  62.292  1.00  0.00     0.006 C 
BRANCH  10  11
ATOM     11  C   UNL     1      -0.839  32.462  61.283  1.00  0.00     0.053 C 
BRANCH  11  12
ATOM     12  C   UNL     1       0.475  32.887  61.867  1.00  0.00     0.041 C 
ATOM     13  O   UNL     1       0.753  34.110  61.977  1.00  0.00    -0.550 OA
ATOM     14  O   UNL     1       1.394  31.931  62.285  1.00  0.00    -0.550 OA
ENDBRANCH  11  12
ENDBRANCH  10  11
ENDBRANCH   9  10
ENDBRANCH   8   9
ENDBRANCH   7   8
ENDBRANCH   6   7
ENDBRANCH   5   6
ENDBRANCH   4   5
ENDBRANCH   3   4
ENDBRANCH   2   3
ENDBRANCH   1   2
BRANCH   1  15
ATOM     15  C   UNL     1      -2.909  26.572  53.931  1.00  0.00     0.000 C 
BRANCH  15  16
ATOM     16  C   UNL     1      -1.483  25.995  53.810  1.00  0.00     0.000 C 
BRANCH  16  17
ATOM     17  C   UNL     1      -0.839  25.560  55.139  1.00  0.00     0.000 C 
BRANCH  17  18
ATOM     18  C   UNL     1       0.282  26.505  55.594  1.00  0.00    -0.000 C 
BRANCH  18  19
ATOM     19  C   UNL     1      -0.112  27.245  56.878  1.00  0.00    -0.000 C 
BRANCH  19  20
ATOM     20  C   UNL     1       1.123  27.816  57.588  1.00  0.00    -0.000 C 
BRANCH  20  21
ATOM     21  C   UNL     1       1.203  29.338  57.410  1.00  0.00    -0.000 C 
BRANCH  21  22
ATOM     22  C   UNL     1       1.272  30.093  58.750  1.00  0.00    -0.000 C 
BRANCH  22  23
ATOM     23  C   UNL     1       2.625  30.796  58.993  1.00  0.00    -0.000 C 
BRANCH  23  24
ATOM     24  C   UNL     1       3.559  30.694  57.774  1.00  0.00    -0.000 C 
BRANCH  24  25
ATOM     25  C   UNL     1       3.915  32.068  57.186  1.00  0.00    -0.003 C 
ATOM     26  C   UNL     1       2.979  33.177  57.662  1.00  0.00     0.004 C 
ENDBRANCH  24  25
ENDBRANCH  23  24
ENDBRANCH  22  23
ENDBRANCH  21  22
ENDBRANCH  20  21
ENDBRANCH  19  20
ENDBRANCH  18  19
ENDBRANCH  17  18
ENDBRANCH  16  17
ENDBRANCH  15  16
ENDBRANCH   1  15
TORSDOF 22
ENDMDL
MODEL 6
REMARK VINA RESULT:    -4.902      3.036      9.000
REMARK INTER + INTRA:         -13.384
REMARK INTER:                 -12.049
REMARK INTRA:                  -1.335
REMARK UNBOUND:                -2.177
REMARK SMILES CCCCCCCCCCCCCCCCCCCCCCCC(=O)[O-]
REMARK SMILES IDX 13 1 14 2 15 3 16 4 17 5 18 6 19 7 20 8 21 9 22 10 23 11
REMARK SMILES IDX 24 12 25 13 26 14 12 15 11 16 10 17 9 18 8 19 7 20 6 21 5 22
REMARK SMILES IDX 4 23 3 24 2 25 1 26
REMARK H PARENT
REMARK Flexibility Score: inf
ROOT
ATOM      1  C   UNL     1      -3.203  29.355  56.959  1.00  0.00     0.000 C 
ENDROOT
BRANCH   1   2
ATOM      2  C   UNL     1      -4.651  28.934  56.657  1.00  0.00     0.000 C 
BRANCH   2   3
ATOM      3  C   UNL     1      -4.738  27.841  55.581  1.00  0.00     0.000 C 
BRANCH   3   4
ATOM      4  C   UNL     1      -3.460  26.988  55.490  1.00  0.00     0.000 C 
BRANCH   4   5
ATOM      5  C   UNL     1      -3.226  26.435  54.074  1.00  0.00     0.000 C 
BRANCH   5   6
ATOM      6  C   UNL     1      -1.729  26.259  53.754  1.00  0.00     0.000 C 
BRANCH   6   7
ATOM      7  C   UNL     1      -0.851  26.190  55.017  1.00  0.00     0.000 C 
BRANCH   7   8
ATOM      8  C   UNL     1       0.586  25.693  54.783  1.00  0.00     0.000 C 
BRANCH   8   9
ATOM      9  C   UNL     1       0.641  24.286  54.171  1.00  0.00     0.000 C 
BRANCH   9  10
ATOM     10  C   UNL     1       1.415  24.295  52.844  1.00  0.00     0.006 C 
BRANCH  10  11
ATOM     11  C   UNL     1       2.740  25.064  52.952  1.00  0.00     0.053 C 
BRANCH  11  12
ATOM     12  C   UNL     1       3.805  24.250  53.623  1.00  0.00     0.041 C 
ATOM     13  O   UNL     1       4.225  24.574  54.764  1.00  0.00    -0.550 OA
ATOM     14  O   UNL     1       4.336  23.136  52.984  1.00  0.00    -0.550 OA
ENDBRANCH  11  12
ENDBRANCH  10  11
ENDBRANCH   9  10
ENDBRANCH   8   9
ENDBRANCH   7   8
ENDBRANCH   6   7
ENDBRANCH   5   6
ENDBRANCH   4   5
ENDBRANCH   3   4
ENDBRANCH   2   3
ENDBRANCH   1   2
BRANCH   1  15
ATOM     15  C   UNL     1      -3.107  30.388  58.098  1.00  0.00     0.000 C 
BRANCH  15  16
ATOM     16  C   UNL     1      -4.421  30.650  58.862  1.00  0.00     0.000 C 
BRANCH  16  17
ATOM     17  C   UNL     1      -4.253  31.283  60.256  1.00  0.00     0.000 C 
BRANCH  17  18
ATOM     18  C   UNL     1      -3.065  32.251  60.331  1.00  0.00    -0.000 C 
BRANCH  18  19
ATOM     19  C   UNL     1      -3.135  33.109  61.600  1.00  0.00    -0.000 C 
BRANCH  19  20
ATOM     20  C   UNL     1      -2.925  32.254  62.857  1.00  0.00    -0.000 C 
BRANCH  20  21
ATOM     21  C   UNL     1      -1.814  32.838  63.739  1.00  0.00    -0.000 C 
BRANCH  21  22
ATOM     22  C   UNL     1      -0.434  32.221  63.451  1.00  0.00    -0.000 C 
BRANCH  22  23
ATOM     23  C   UNL     1       0.240  31.607  64.698  1.00  0.00    -0.000 C 
BRANCH  23  24
ATOM     24  C   UNL     1       0.620  30.132  64.485  1.00  0.00    -0.000 C 
BRANCH  24  25
ATOM     25  C   UNL     1       1.485  29.574  65.625  1.00  0.00    -0.003 C 
ATOM     26  C   UNL     1       1.751  30.600  66.724  1.00  0.00     0.004 C 
ENDBRANCH  24  25
ENDBRANCH  23  24
ENDBRANCH  22  23
ENDBRANCH  21  22
ENDBRANCH  20  21
ENDBRANCH  19  20
ENDBRANCH  18  19
ENDBRANCH  17  18
ENDBRANCH  16  17
ENDBRANCH  15  16
ENDBRANCH   1  15
TORSDOF 22
ENDMDL
MODEL 7
REMARK VINA RESULT:    -4.839      1.637      7.747
REMARK INTER + INTRA:         -13.239
REMARK INTER:                 -10.995
REMARK INTRA:                  -2.244
REMARK UNBOUND:                -2.177
REMARK SMILES CCCCCCCCCCCCCCCCCCCCCCCC(=O)[O-]
REMARK SMILES IDX 13 1 14 2 15 3 16 4 17 5 18 6 19 7 20 8 21 9 22 10 23 11
REMARK SMILES IDX 24 12 25 13 26 14 12 15 11 16 10 17 9 18 8 19 7 20 6 21 5 22
REMARK SMILES IDX 4 23 3 24 2 25 1 26
REMARK H PARENT
REMARK Flexibility Score: inf
ROOT
ATOM      1  C   UNL     1      -3.967  31.581  58.721  1.00  0.00     0.000 C 
ENDROOT
BRANCH   1   2
ATOM      2  C   UNL     1      -3.331  30.368  58.022  1.00  0.00     0.000 C 
BRANCH   2   3
ATOM      3  C   UNL     1      -4.266  29.722  56.987  1.00  0.00     0.000 C 
BRANCH   3   4
ATOM      4  C   UNL     1      -3.830  28.299  56.593  1.00  0.00     0.000 C 
BRANCH   4   5
ATOM      5  C   UNL     1      -4.708  27.708  55.478  1.00  0.00     0.000 C 
BRANCH   5   6
ATOM      6  C   UNL     1      -3.911  26.794  54.528  1.00  0.00     0.000 C 
BRANCH   6   7
ATOM      7  C   UNL     1      -2.614  26.257  55.162  1.00  0.00     0.000 C 
BRANCH   7   8
ATOM      8  C   UNL     1      -1.430  26.108  54.190  1.00  0.00     0.000 C 
BRANCH   8   9
ATOM      9  C   UNL     1      -0.098  25.839  54.906  1.00  0.00     0.000 C 
BRANCH   9  10
ATOM     10  C   UNL     1       0.073  26.776  56.111  1.00  0.00     0.006 C 
BRANCH  10  11
ATOM     11  C   UNL     1       1.530  26.842  56.591  1.00  0.00     0.053 C 
BRANCH  11  12
ATOM     12  C   UNL     1       1.644  27.476  57.945  1.00  0.00     0.041 C 
ATOM     13  O   UNL     1       1.327  28.683  58.108  1.00  0.00    -0.550 OA
ATOM     14  O   UNL     1       2.105  26.733  59.026  1.00  0.00    -0.550 OA
ENDBRANCH  11  12
ENDBRANCH  10  11
ENDBRANCH   9  10
ENDBRANCH   8   9
ENDBRANCH   7   8
ENDBRANCH   6   7
ENDBRANCH   5   6
ENDBRANCH   4   5
ENDBRANCH   3   4
ENDBRANCH   2   3
ENDBRANCH   1   2
BRANCH   1  15
ATOM     15  C   UNL     1      -3.767  31.562  60.249  1.00  0.00     0.000 C 
BRANCH  15  16
ATOM     16  C   UNL     1      -2.852  32.672  60.807  1.00  0.00     0.000 C 
BRANCH  16  17
ATOM     17  C   UNL     1      -3.058  33.002  62.297  1.00  0.00     0.000 C 
BRANCH  17  18
ATOM     18  C   UNL     1      -1.784  33.531  62.971  1.00  0.00    -0.000 C 
BRANCH  18  19
ATOM     19  C   UNL     1      -1.026  34.484  62.039  1.00  0.00    -0.000 C 
BRANCH  19  20
ATOM     20  C   UNL     1       0.486  34.229  62.100  1.00  0.00    -0.000 C 
BRANCH  20  21
ATOM     21  C   UNL     1       1.045  33.906  60.709  1.00  0.00    -0.000 C 
BRANCH  21  22
ATOM     22  C   UNL     1       1.635  32.487  60.615  1.00  0.00    -0.000 C 
BRANCH  22  23
ATOM     23  C   UNL     1       0.576  31.371  60.738  1.00  0.00    -0.000 C 
BRANCH  23  24
ATOM     24  C   UNL     1       0.995  30.281  61.739  1.00  0.00    -0.000 C 
BRANCH  24  25
ATOM     25  C   UNL     1       1.248  30.837  63.149  1.00  0.00    -0.003 C 
ATOM     26  C   UNL     1       0.095  30.557  64.111  1.00  0.00     0.004 C 
ENDBRANCH  24  25
ENDBRANCH  23  24
ENDBRANCH  22  23
ENDBRANCH  21  22
ENDBRANCH  20  21
ENDBRANCH  19  20
ENDBRANCH  18  19
ENDBRANCH  17  18
ENDBRANCH  16  17
ENDBRANCH  15  16
ENDBRANCH   1  15
TORSDOF 22
ENDMDL
MODEL 8
REMARK VINA RESULT:    -4.753      1.738      4.389
REMARK INTER + INTRA:         -13.042
REMARK INTER:                 -11.130
REMARK INTRA:                  -1.912
REMARK UNBOUND:                -2.177
REMARK SMILES CCCCCCCCCCCCCCCCCCCCCCCC(=O)[O-]
REMARK SMILES IDX 13 1 14 2 15 3 16 4 17 5 18 6 19 7 20 8 21 9 22 10 23 11
REMARK SMILES IDX 24 12 25 13 26 14 12 15 11 16 10 17 9 18 8 19 7 20 6 21 5 22
REMARK SMILES IDX 4 23 3 24 2 25 1 26
REMARK H PARENT
REMARK Flexibility Score: inf
ROOT
ATOM      1  C   UNL     1      -3.097  26.388  55.595  1.00  0.00     0.000 C 
ENDROOT
BRANCH   1   2
ATOM      2  C   UNL     1      -4.254  27.344  55.256  1.00  0.00     0.000 C 
BRANCH   2   3
ATOM      3  C   UNL     1      -4.265  28.599  56.143  1.00  0.00     0.000 C 
BRANCH   3   4
ATOM      4  C   UNL     1      -2.854  29.037  56.577  1.00  0.00     0.000 C 
BRANCH   4   5
ATOM      5  C   UNL     1      -2.887  30.036  57.746  1.00  0.00     0.000 C 
BRANCH   5   6
ATOM      6  C   UNL     1      -4.313  30.533  58.051  1.00  0.00     0.000 C 
BRANCH   6   7
ATOM      7  C   UNL     1      -4.491  30.980  59.514  1.00  0.00     0.000 C 
BRANCH   7   8
ATOM      8  C   UNL     1      -3.442  31.987  60.018  1.00  0.00     0.000 C 
BRANCH   8   9
ATOM      9  C   UNL     1      -3.625  32.352  61.498  1.00  0.00     0.000 C 
BRANCH   9  10
ATOM     10  C   UNL     1      -2.725  33.535  61.885  1.00  0.00     0.006 C 
BRANCH  10  11
ATOM     11  C   UNL     1      -1.272  33.330  61.432  1.00  0.00     0.053 C 
BRANCH  11  12
ATOM     12  C   UNL     1      -0.550  32.346  62.302  1.00  0.00     0.041 C 
ATOM     13  O   UNL     1      -0.749  32.333  63.545  1.00  0.00    -0.550 OA
ATOM     14  O   UNL     1       0.348  31.446  61.739  1.00  0.00    -0.550 OA
ENDBRANCH  11  12
ENDBRANCH  10  11
ENDBRANCH   9  10
ENDBRANCH   8   9
ENDBRANCH   7   8
ENDBRANCH   6   7
ENDBRANCH   5   6
ENDBRANCH   4   5
ENDBRANCH   3   4
ENDBRANCH   2   3
ENDBRANCH   1   2
BRANCH   1  15
ATOM     15  C   UNL     1      -2.167  26.129  54.395  1.00  0.00     0.000 C 
BRANCH  15  16
ATOM     16  C   UNL     1      -0.668  26.002  54.738  1.00  0.00     0.000 C 
BRANCH  16  17
ATOM     17  C   UNL     1       0.183  25.260  53.691  1.00  0.00     0.000 C 
BRANCH  17  18
ATOM     18  C   UNL     1       0.771  23.947  54.224  1.00  0.00    -0.000 C 
BRANCH  18  19
ATOM     19  C   UNL     1       2.252  23.815  53.846  1.00  0.00    -0.000 C 
BRANCH  19  20
ATOM     20  C   UNL     1       2.781  25.114  53.226  1.00  0.00    -0.000 C 
BRANCH  20  21
ATOM     21  C   UNL     1       4.069  25.571  53.922  1.00  0.00    -0.000 C 
BRANCH  21  22
ATOM     22  C   UNL     1       3.991  27.021  54.432  1.00  0.00    -0.000 C 
BRANCH  22  23
ATOM     23  C   UNL     1       3.864  27.129  55.967  1.00  0.00    -0.000 C 
BRANCH  23  24
ATOM     24  C   UNL     1       2.585  26.456  56.493  1.00  0.00    -0.000 C 
BRANCH  24  25
ATOM     25  C   UNL     1       1.682  27.426  57.270  1.00  0.00    -0.003 C 
ATOM     26  C   UNL     1       2.201  27.720  58.676  1.00  0.00     0.004 C 
ENDBRANCH  24  25
ENDBRANCH  23  24
ENDBRANCH  22  23
ENDBRANCH  21  22
ENDBRANCH  20  21
ENDBRANCH  19  20
ENDBRANCH  18  19
ENDBRANCH  17  18
ENDBRANCH  16  17
ENDBRANCH  15  16
ENDBRANCH   1  15
TORSDOF 22
ENDMDL
MODEL 9
REMARK VINA RESULT:    -4.708      1.786      2.688
REMARK INTER + INTRA:         -12.940
REMARK INTER:                 -11.432
REMARK INTRA:                  -1.508
REMARK UNBOUND:                -2.177
REMARK SMILES CCCCCCCCCCCCCCCCCCCCCCCC(=O)[O-]
REMARK SMILES IDX 13 1 14 2 15 3 16 4 17 5 18 6 19 7 20 8 21 9 22 10 23 11
REMARK SMILES IDX 24 12 25 13 26 14 12 15 11 16 10 17 9 18 8 19 7 20 6 21 5 22
REMARK SMILES IDX 4 23 3 24 2 25 1 26
REMARK H PARENT
REMARK Flexibility Score: inf
ROOT
ATOM      1  C   UNL     1      -2.930  29.094  56.644  1.00  0.00     0.000 C 
ENDROOT
BRANCH   1   2
ATOM      2  C   UNL     1      -3.067  30.113  57.788  1.00  0.00     0.000 C 
BRANCH   2   3
ATOM      3  C   UNL     1      -4.518  30.272  58.269  1.00  0.00     0.000 C 
BRANCH   3   4
ATOM      4  C   UNL     1      -4.617  30.901  59.671  1.00  0.00     0.000 C 
BRANCH   4   5
ATOM      5  C   UNL     1      -3.528  31.960  59.914  1.00  0.00     0.000 C 
BRANCH   5   6
ATOM      6  C   UNL     1      -3.364  32.299  61.407  1.00  0.00     0.000 C 
BRANCH   6   7
ATOM      7  C   UNL     1      -1.938  32.757  61.765  1.00  0.00     0.000 C 
BRANCH   7   8
ATOM      8  C   UNL     1      -1.608  32.740  63.268  1.00  0.00     0.000 C 
BRANCH   8   9
ATOM      9  C   UNL     1      -0.230  32.136  63.572  1.00  0.00     0.000 C 
BRANCH   9  10
ATOM     10  C   UNL     1      -0.335  30.621  63.803  1.00  0.00     0.006 C 
BRANCH  10  11
ATOM     11  C   UNL     1       0.798  30.090  64.693  1.00  0.00     0.053 C 
BRANCH  11  12
ATOM     12  C   UNL     1       2.024  29.757  63.897  1.00  0.00     0.041 C 
ATOM     13  O   UNL     1       1.920  29.400  62.694  1.00  0.00    -0.550 OA
ATOM     14  O   UNL     1       3.281  29.838  64.486  1.00  0.00    -0.550 OA
ENDBRANCH  11  12
ENDBRANCH  10  11
ENDBRANCH   9  10
ENDBRANCH   8   9
ENDBRANCH   7   8
ENDBRANCH   6   7
ENDBRANCH   5   6
ENDBRANCH   4   5
ENDBRANCH   3   4
ENDBRANCH   2   3
ENDBRANCH   1   2
BRANCH   1  15
ATOM     15  C   UNL     1      -4.284  28.511  56.199  1.00  0.00     0.000 C 
BRANCH  15  16
ATOM     16  C   UNL     1      -4.202  27.370  55.163  1.00  0.00     0.000 C 
BRANCH  16  17
ATOM     17  C   UNL     1      -3.086  26.339  55.412  1.00  0.00     0.000 C 
BRANCH  17  18
ATOM     18  C   UNL     1      -2.051  26.296  54.280  1.00  0.00    -0.000 C 
BRANCH  18  19
ATOM     19  C   UNL     1      -0.647  26.017  54.830  1.00  0.00    -0.000 C 
BRANCH  19  20
ATOM     20  C   UNL     1      -0.438  26.705  56.185  1.00  0.00    -0.000 C 
BRANCH  20  21
ATOM     21  C   UNL     1       1.051  26.770  56.545  1.00  0.00    -0.000 C 
BRANCH  21  22
ATOM     22  C   UNL     1       1.370  27.865  57.579  1.00  0.00    -0.000 C 
BRANCH  22  23
ATOM     23  C   UNL     1       2.156  27.347  58.803  1.00  0.00    -0.000 C 
BRANCH  23  24
ATOM     24  C   UNL     1       3.307  26.410  58.400  1.00  0.00    -0.000 C 
BRANCH  24  25
ATOM     25  C   UNL     1       3.521  25.269  59.406  1.00  0.00    -0.003 C 
ATOM     26  C   UNL     1       3.965  25.767  60.780  1.00  0.00     0.004 C 
ENDBRANCH  24  25
ENDBRANCH  23  24
ENDBRANCH  22  23
ENDBRANCH  21  22
ENDBRANCH  20  21
ENDBRANCH  19  20
ENDBRANCH  18  19
ENDBRANCH  17  18
ENDBRANCH  16  17
ENDBRANCH  15  16
ENDBRANCH   1  15
TORSDOF 22
ENDMDL
