MODEL 1
REMARK VINA RESULT:    -3.527      0.000      0.000
REMARK INTER + INTRA:         -10.044
REMARK INTER:                  -6.825
REMARK INTRA:                  -3.219
REMARK UNBOUND:                -3.219
REMARK SMILES CCCCCCCCCCCCCCCCCC(=O)[O-]
REMARK SMILES IDX 10 1 11 2 12 3 13 4 14 5 15 6 16 7 17 8 18 9 19 10 20 11
REMARK SMILES IDX 9 12 8 13 7 14 6 15 5 16 4 17 3 18 2 19 1 20
REMARK H PARENT
REMARK Flexibility Score: inf
ROOT
ATOM      1  C   UNL     1      28.776  -0.865  10.328  1.00  0.00     0.000 C 
ENDROOT
BRANCH   1   2
ATOM      2  C   UNL     1      28.934  -1.786   9.106  1.00  0.00     0.000 C 
BRANCH   2   3
ATOM      3  C   UNL     1      28.504  -1.110   7.796  1.00  0.00     0.000 C 
BRANCH   3   4
ATOM      4  C   UNL     1      27.476  -1.943   7.014  1.00  0.00     0.000 C 
BRANCH   4   5
ATOM      5  C   UNL     1      27.152  -3.248   7.752  1.00  0.00     0.000 C 
BRANCH   5   6
ATOM      6  C   UNL     1      25.667  -3.309   8.139  1.00  0.00     0.000 C 
BRANCH   6   7
ATOM      7  C   UNL     1      24.786  -2.390   7.273  1.00  0.00     0.006 C 
BRANCH   7   8
ATOM      8  C   UNL     1      23.352  -2.209   7.796  1.00  0.00     0.053 C 
BRANCH   8   9
ATOM      9  C   UNL     1      22.428  -1.692   6.736  1.00  0.00     0.041 C 
ATOM     10  O   UNL     1      21.714  -0.680   6.958  1.00  0.00    -0.550 OA
ATOM     11  O   UNL     1      22.337  -2.345   5.513  1.00  0.00    -0.550 OA
ENDBRANCH   8   9
ENDBRANCH   7   8
ENDBRANCH   6   7
ENDBRANCH   5   6
ENDBRANCH   4   5
ENDBRANCH   3   4
ENDBRANCH   2   3
ENDBRANCH   1   2
BRANCH   1  12
ATOM     12  C   UNL     1      27.485  -0.020  10.259  1.00  0.00     0.000 C 
BRANCH  12  13
ATOM     13  C   UNL     1      26.226  -0.772  10.730  1.00  0.00    -0.000 C 
BRANCH  13  14
ATOM     14  C   UNL     1      24.895  -0.075  10.401  1.00  0.00    -0.000 C 
BRANCH  14  15
ATOM     15  C   UNL     1      25.089   1.280   9.707  1.00  0.00    -0.000 C 
BRANCH  15  16
ATOM     16  C   UNL     1      24.572   1.234   8.262  1.00  0.00    -0.000 C 
BRANCH  16  17
ATOM     17  C   UNL     1      25.702   1.284   7.217  1.00  0.00    -0.000 C 
BRANCH  17  18
ATOM     18  C   UNL     1      26.778   2.354   7.474  1.00  0.00    -0.000 C 
BRANCH  18  19
ATOM     19  C   UNL     1      27.981   2.232   6.527  1.00  0.00    -0.003 C 
ATOM     20  C   UNL     1      27.616   1.441   5.274  1.00  0.00     0.004 C 
ENDBRANCH  18  19
ENDBRANCH  17  18
ENDBRANCH  16  17
ENDBRANCH  15  16
ENDBRANCH  14  15
ENDBRANCH  13  14
ENDBRANCH  12  13
ENDBRANCH   1  12
TORSDOF 16
ENDMDL
MODEL 2
REMARK VINA RESULT:    -3.515      2.707      3.521
REMARK INTER + INTRA:         -10.022
REMARK INTER:                  -7.327
REMARK INTRA:                  -2.695
REMARK UNBOUND:                -3.219
REMARK SMILES CCCCCCCCCCCCCCCCCC(=O)[O-]
REMARK SMILES IDX 10 1 11 2 12 3 13 4 14 5 15 6 16 7 17 8 18 9 19 10 20 11
REMARK SMILES IDX 9 12 8 13 7 14 6 15 5 16 4 17 3 18 2 19 1 20
REMARK H PARENT
REMARK Flexibility Score: inf
ROOT
ATOM      1  C   UNL     1      27.777  -0.460  10.193  1.00  0.00     0.000 C 
ENDROOT
BRANCH   1   2
ATOM      2  C   UNL     1      28.762  -0.391   9.013  1.00  0.00     0.000 C 
BRANCH   2   3
ATOM      3  C   UNL     1      28.926  -1.742   8.301  1.00  0.00     0.000 C 
BRANCH   3   4
ATOM      4  C   UNL     1      27.725  -2.674   8.524  1.00  0.00     0.000 C 
BRANCH   4   5
ATOM      5  C   UNL     1      27.658  -3.752   7.436  1.00  0.00     0.000 C 
BRANCH   5   6
ATOM      6  C   UNL     1      28.592  -3.412   6.265  1.00  0.00     0.000 C 
BRANCH   6   7
ATOM      7  C   UNL     1      27.829  -3.069   4.972  1.00  0.00     0.006 C 
BRANCH   7   8
ATOM      8  C   UNL     1      26.719  -4.067   4.606  1.00  0.00     0.053 C 
BRANCH   8   9
ATOM      9  C   UNL     1      27.214  -5.147   3.693  1.00  0.00     0.041 C 
ATOM     10  O   UNL     1      27.323  -4.931   2.458  1.00  0.00    -0.550 OA
ATOM     11  O   UNL     1      27.526  -6.401   4.204  1.00  0.00    -0.550 OA
ENDBRANCH   8   9
ENDBRANCH   7   8
ENDBRANCH   6   7
ENDBRANCH   5   6
ENDBRANCH   4   5
ENDBRANCH   3   4
ENDBRANCH   2   3
ENDBRANCH   1   2
BRANCH   1  12
ATOM     12  C   UNL     1      26.531   0.423   9.967  1.00  0.00     0.000 C 
BRANCH  12  13
ATOM     13  C   UNL     1      25.231  -0.184  10.530  1.00  0.00    -0.000 C 
BRANCH  13  14
ATOM     14  C   UNL     1      24.332  -0.869   9.486  1.00  0.00    -0.000 C 
BRANCH  14  15
ATOM     15  C   UNL     1      24.028   0.033   8.281  1.00  0.00    -0.000 C 
BRANCH  15  16
ATOM     16  C   UNL     1      24.274  -0.716   6.963  1.00  0.00    -0.000 C 
BRANCH  16  17
ATOM     17  C   UNL     1      25.740  -0.647   6.497  1.00  0.00    -0.000 C 
BRANCH  17  18
ATOM     18  C   UNL     1      26.152   0.684   5.841  1.00  0.00    -0.000 C 
BRANCH  18  19
ATOM     19  C   UNL     1      27.665   0.791   5.605  1.00  0.00    -0.003 C 
ATOM     20  C   UNL     1      28.232   2.057   6.241  1.00  0.00     0.004 C 
ENDBRANCH  18  19
ENDBRANCH  17  18
ENDBRANCH  16  17
ENDBRANCH  15  16
ENDBRANCH  14  15
ENDBRANCH  13  14
ENDBRANCH  12  13
ENDBRANCH   1  12
TORSDOF 16
ENDMDL
MODEL 3
REMARK VINA RESULT:    -3.495      9.370     10.791
REMARK INTER + INTRA:          -9.982
REMARK INTER:                  -7.961
REMARK INTRA:                  -2.021
REMARK UNBOUND:                -3.219
REMARK SMILES CCCCCCCCCCCCCCCCCC(=O)[O-]
REMARK SMILES IDX 10 1 11 2 12 3 13 4 14 5 15 6 16 7 17 8 18 9 19 10 20 11
REMARK SMILES IDX 9 12 8 13 7 14 6 15 5 16 4 17 3 18 2 19 1 20
REMARK H PARENT
REMARK Flexibility Score: inf
ROOT
ATOM      1  C   UNL     1      22.071  -0.960  18.895  1.00  0.00     0.000 C 
ENDROOT
BRANCH   1   2
ATOM      2  C   UNL     1      22.760  -2.015  18.012  1.00  0.00     0.000 C 
BRANCH   2   3
ATOM      3  C   UNL     1      24.147  -1.566  17.529  1.00  0.00     0.000 C 
BRANCH   3   4
ATOM      4  C   UNL     1      25.284  -2.384  18.162  1.00  0.00     0.000 C 
BRANCH   4   5
ATOM      5  C   UNL     1      24.874  -3.852  18.332  1.00  0.00     0.000 C 
BRANCH   5   6
ATOM      6  C   UNL     1      25.774  -4.776  17.498  1.00  0.00     0.000 C 
BRANCH   6   7
ATOM      7  C   UNL     1      25.496  -6.269  17.752  1.00  0.00     0.006 C 
BRANCH   7   8
ATOM      8  C   UNL     1      24.667  -6.955  16.654  1.00  0.00     0.053 C 
BRANCH   8   9
ATOM      9  C   UNL     1      23.308  -7.355  17.143  1.00  0.00     0.041 C 
ATOM     10  O   UNL     1      22.605  -6.541  17.796  1.00  0.00    -0.550 OA
ATOM     11  O   UNL     1      22.831  -8.638  16.901  1.00  0.00    -0.550 OA
ENDBRANCH   8   9
ENDBRANCH   7   8
ENDBRANCH   6   7
ENDBRANCH   5   6
ENDBRANCH   4   5
ENDBRANCH   3   4
ENDBRANCH   2   3
ENDBRANCH   1   2
BRANCH   1  12
ATOM     12  C   UNL     1      23.054   0.123  19.388  1.00  0.00     0.000 C 
BRANCH  12  13
ATOM     13  C   UNL     1      22.378   1.464  19.731  1.00  0.00    -0.000 C 
BRANCH  13  14
ATOM     14  C   UNL     1      23.347   2.633  19.977  1.00  0.00    -0.000 C 
BRANCH  14  15
ATOM     15  C   UNL     1      23.134   3.798  19.000  1.00  0.00    -0.000 C 
BRANCH  15  16
ATOM     16  C   UNL     1      24.249   3.837  17.945  1.00  0.00    -0.000 C 
BRANCH  16  17
ATOM     17  C   UNL     1      23.771   3.396  16.549  1.00  0.00    -0.000 C 
BRANCH  17  18
ATOM     18  C   UNL     1      24.014   1.913  16.217  1.00  0.00    -0.000 C 
BRANCH  18  19
ATOM     19  C   UNL     1      22.750   1.196  15.721  1.00  0.00    -0.003 C 
ATOM     20  C   UNL     1      21.490   1.940  16.153  1.00  0.00     0.004 C 
ENDBRANCH  18  19
ENDBRANCH  17  18
ENDBRANCH  16  17
ENDBRANCH  15  16
ENDBRANCH  14  15
ENDBRANCH  13  14
ENDBRANCH  12  13
ENDBRANCH   1  12
TORSDOF 16
ENDMDL
MODEL 4
REMARK VINA RESULT:    -3.478     10.295     12.051
REMARK INTER + INTRA:          -9.950
REMARK INTER:                  -7.147
REMARK INTRA:                  -2.802
REMARK UNBOUND:                -3.219
REMARK SMILES CCCCCCCCCCCCCCCCCC(=O)[O-]
REMARK SMILES IDX 10 1 11 2 12 3 13 4 14 5 15 6 16 7 17 8 18 9 19 10 20 11
REMARK SMILES IDX 9 12 8 13 7 14 6 15 5 16 4 17 3 18 2 19 1 20
REMARK H PARENT
REMARK Flexibility Score: inf
ROOT
ATOM      1  C   UNL     1      24.011  -2.128  17.525  1.00  0.00     0.000 C 
ENDROOT
BRANCH   1   2
ATOM      2  C   UNL     1      25.350  -2.837  17.792  1.00  0.00     0.000 C 
BRANCH   2   3
ATOM      3  C   UNL     1      25.432  -4.216  17.122  1.00  0.00     0.000 C 
BRANCH   3   4
ATOM      4  C   UNL     1      25.805  -5.330  18.113  1.00  0.00     0.000 C 
BRANCH   4   5
ATOM      5  C   UNL     1      25.460  -6.711  17.541  1.00  0.00     0.000 C 
BRANCH   5   6
ATOM      6  C   UNL     1      25.034  -6.607  16.069  1.00  0.00     0.000 C 
BRANCH   6   7
ATOM      7  C   UNL     1      24.085  -7.741  15.641  1.00  0.00     0.006 C 
BRANCH   7   8
ATOM      8  C   UNL     1      23.586  -8.621  16.798  1.00  0.00     0.053 C 
BRANCH   8   9
ATOM      9  C   UNL     1      23.971 -10.058  16.618  1.00  0.00     0.041 C 
ATOM     10  O   UNL     1      24.954 -10.533  17.244  1.00  0.00    -0.550 OA
ATOM     11  O   UNL     1      23.260 -10.863  15.736  1.00  0.00    -0.550 OA
ENDBRANCH   8   9
ENDBRANCH   7   8
ENDBRANCH   6   7
ENDBRANCH   5   6
ENDBRANCH   4   5
ENDBRANCH   3   4
ENDBRANCH   2   3
ENDBRANCH   1   2
BRANCH   1  12
ATOM     12  C   UNL     1      23.138  -2.029  18.795  1.00  0.00     0.000 C 
BRANCH  12  13
ATOM     13  C   UNL     1      21.962  -3.026  18.818  1.00  0.00    -0.000 C 
BRANCH  13  14
ATOM     14  C   UNL     1      22.257  -4.358  19.529  1.00  0.00    -0.000 C 
BRANCH  14  15
ATOM     15  C   UNL     1      22.129  -5.570  18.595  1.00  0.00    -0.000 C 
BRANCH  15  16
ATOM     16  C   UNL     1      21.741  -5.128  17.177  1.00  0.00    -0.000 C 
BRANCH  16  17
ATOM     17  C   UNL     1      20.828  -6.141  16.460  1.00  0.00    -0.000 C 
BRANCH  17  18
ATOM     18  C   UNL     1      19.885  -6.934  17.384  1.00  0.00    -0.000 C 
BRANCH  18  19
ATOM     19  C   UNL     1      19.842  -8.432  17.051  1.00  0.00    -0.003 C 
ATOM     20  C   UNL     1      19.087  -8.684  15.749  1.00  0.00     0.004 C 
ENDBRANCH  18  19
ENDBRANCH  17  18
ENDBRANCH  16  17
ENDBRANCH  15  16
ENDBRANCH  14  15
ENDBRANCH  13  14
ENDBRANCH  12  13
ENDBRANCH   1  12
TORSDOF 16
ENDMDL
MODEL 5
REMARK VINA RESULT:    -3.463     10.114     11.830
REMARK INTER + INTRA:          -9.921
REMARK INTER:                  -7.257
REMARK INTRA:                  -2.664
REMARK UNBOUND:                -3.219
REMARK SMILES CCCCCCCCCCCCCCCCCC(=O)[O-]
REMARK SMILES IDX 10 1 11 2 12 3 13 4 14 5 15 6 16 7 17 8 18 9 19 10 20 11
REMARK SMILES IDX 9 12 8 13 7 14 6 15 5 16 4 17 3 18 2 19 1 20
REMARK H PARENT
REMARK Flexibility Score: inf
ROOT
ATOM      1  C   UNL     1      22.135  -6.738  17.442  1.00  0.00     0.000 C 
ENDROOT
BRANCH   1   2
ATOM      2  C   UNL     1      22.090  -6.042  16.071  1.00  0.00     0.000 C 
BRANCH   2   3
ATOM      3  C   UNL     1      22.441  -6.990  14.915  1.00  0.00     0.000 C 
BRANCH   3   4
ATOM      4  C   UNL     1      23.944  -7.308  14.850  1.00  0.00     0.000 C 
BRANCH   4   5
ATOM      5  C   UNL     1      24.178  -8.780  14.491  1.00  0.00     0.000 C 
BRANCH   5   6
ATOM      6  C   UNL     1      23.137  -9.685  15.168  1.00  0.00     0.000 C 
BRANCH   6   7
ATOM      7  C   UNL     1      23.538 -10.091  16.598  1.00  0.00     0.006 C 
BRANCH   7   8
ATOM      8  C   UNL     1      25.035 -10.390  16.776  1.00  0.00     0.053 C 
BRANCH   8   9
ATOM      9  C   UNL     1      25.448 -11.638  16.056  1.00  0.00     0.041 C 
ATOM     10  O   UNL     1      26.485 -11.644  15.343  1.00  0.00    -0.550 OA
ATOM     11  O   UNL     1      24.671 -12.786  16.152  1.00  0.00    -0.550 OA
ENDBRANCH   8   9
ENDBRANCH   7   8
ENDBRANCH   6   7
ENDBRANCH   5   6
ENDBRANCH   4   5
ENDBRANCH   3   4
ENDBRANCH   2   3
ENDBRANCH   1   2
BRANCH   1  12
ATOM     12  C   UNL     1      21.820  -5.768  18.601  1.00  0.00     0.000 C 
BRANCH  12  13
ATOM     13  C   UNL     1      21.590  -4.313  18.146  1.00  0.00    -0.000 C 
BRANCH  13  14
ATOM     14  C   UNL     1      22.013  -3.242  19.166  1.00  0.00    -0.000 C 
BRANCH  14  15
ATOM     15  C   UNL     1      22.974  -2.202  18.571  1.00  0.00    -0.000 C 
BRANCH  15  16
ATOM     16  C   UNL     1      24.385  -2.787  18.418  1.00  0.00    -0.000 C 
BRANCH  16  17
ATOM     17  C   UNL     1      24.711  -3.199  16.970  1.00  0.00    -0.000 C 
BRANCH  17  18
ATOM     18  C   UNL     1      25.454  -4.540  16.828  1.00  0.00    -0.000 C 
BRANCH  18  19
ATOM     19  C   UNL     1      25.671  -5.249  18.173  1.00  0.00    -0.003 C 
ATOM     20  C   UNL     1      25.699  -6.764  17.997  1.00  0.00     0.004 C 
ENDBRANCH  18  19
ENDBRANCH  17  18
ENDBRANCH  16  17
ENDBRANCH  15  16
ENDBRANCH  14  15
ENDBRANCH  13  14
ENDBRANCH  12  13
ENDBRANCH   1  12
TORSDOF 16
ENDMDL
MODEL 6
REMARK VINA RESULT:    -3.436      2.294      4.280
REMARK INTER + INTRA:          -9.870
REMARK INTER:                  -7.572
REMARK INTRA:                  -2.297
REMARK UNBOUND:                -3.219
REMARK SMILES CCCCCCCCCCCCCCCCCC(=O)[O-]
REMARK SMILES IDX 10 1 11 2 12 3 13 4 14 5 15 6 16 7 17 8 18 9 19 10 20 11
REMARK SMILES IDX 9 12 8 13 7 14 6 15 5 16 4 17 3 18 2 19 1 20
REMARK H PARENT
REMARK Flexibility Score: inf
ROOT
ATOM      1  C   UNL     1      28.032   0.749   6.901  1.00  0.00     0.000 C 
ENDROOT
BRANCH   1   2
ATOM      2  C   UNL     1      27.598  -0.083   5.682  1.00  0.00     0.000 C 
BRANCH   2   3
ATOM      3  C   UNL     1      27.295  -1.545   6.043  1.00  0.00     0.000 C 
BRANCH   3   4
ATOM      4  C   UNL     1      28.005  -1.993   7.330  1.00  0.00     0.000 C 
BRANCH   4   5
ATOM      5  C   UNL     1      28.433  -3.463   7.238  1.00  0.00     0.000 C 
BRANCH   5   6
ATOM      6  C   UNL     1      27.264  -4.399   7.579  1.00  0.00     0.000 C 
BRANCH   6   7
ATOM      7  C   UNL     1      27.063  -5.509   6.530  1.00  0.00     0.006 C 
BRANCH   7   8
ATOM      8  C   UNL     1      27.802  -5.269   5.204  1.00  0.00     0.053 C 
BRANCH   8   9
ATOM      9  C   UNL     1      26.886  -4.755   4.135  1.00  0.00     0.041 C 
ATOM     10  O   UNL     1      27.314  -4.584   2.964  1.00  0.00    -0.550 OA
ATOM     11  O   UNL     1      25.568  -4.439   4.441  1.00  0.00    -0.550 OA
ENDBRANCH   8   9
ENDBRANCH   7   8
ENDBRANCH   6   7
ENDBRANCH   5   6
ENDBRANCH   4   5
ENDBRANCH   3   4
ENDBRANCH   2   3
ENDBRANCH   1   2
BRANCH   1  12
ATOM     12  C   UNL     1      27.797   2.260   6.690  1.00  0.00     0.000 C 
BRANCH  12  13
ATOM     13  C   UNL     1      26.433   2.754   7.210  1.00  0.00    -0.000 C 
BRANCH  13  14
ATOM     14  C   UNL     1      26.033   2.212   8.593  1.00  0.00    -0.000 C 
BRANCH  14  15
ATOM     15  C   UNL     1      24.822   1.270   8.535  1.00  0.00    -0.000 C 
BRANCH  15  16
ATOM     16  C   UNL     1      24.730   0.419   9.810  1.00  0.00    -0.000 C 
BRANCH  16  17
ATOM     17  C   UNL     1      25.381  -0.968   9.655  1.00  0.00    -0.000 C 
BRANCH  17  18
ATOM     18  C   UNL     1      26.432  -1.317  10.724  1.00  0.00    -0.000 C 
BRANCH  18  19
ATOM     19  C   UNL     1      27.706  -0.467  10.610  1.00  0.00    -0.003 C 
ATOM     20  C   UNL     1      28.946  -1.286  10.951  1.00  0.00     0.004 C 
ENDBRANCH  18  19
ENDBRANCH  17  18
ENDBRANCH  16  17
ENDBRANCH  15  16
ENDBRANCH  14  15
ENDBRANCH  13  14
ENDBRANCH  12  13
ENDBRANCH   1  12
TORSDOF 16
ENDMDL
MODEL 7
REMARK VINA RESULT:    -3.430      2.667      4.451
REMARK INTER + INTRA:          -9.857
REMARK INTER:                  -7.130
REMARK INTRA:                  -2.727
REMARK UNBOUND:                -3.219
REMARK SMILES CCCCCCCCCCCCCCCCCC(=O)[O-]
REMARK SMILES IDX 10 1 11 2 12 3 13 4 14 5 15 6 16 7 17 8 18 9 19 10 20 11
REMARK SMILES IDX 9 12 8 13 7 14 6 15 5 16 4 17 3 18 2 19 1 20
REMARK H PARENT
REMARK Flexibility Score: inf
ROOT
ATOM      1  C   UNL     1      26.543   2.621   6.996  1.00  0.00     0.000 C 
ENDROOT
BRANCH   1   2
ATOM      2  C   UNL     1      27.961   2.243   6.534  1.00  0.00     0.000 C 
BRANCH   2   3
ATOM      3  C   UNL     1      27.959   1.141   5.464  1.00  0.00     0.000 C 
BRANCH   3   4
ATOM      4  C   UNL     1      27.123  -0.081   5.879  1.00  0.00     0.000 C 
BRANCH   4   5
ATOM      5  C   UNL     1      27.806  -0.851   7.016  1.00  0.00     0.000 C 
BRANCH   5   6
ATOM      6  C   UNL     1      27.985  -2.332   6.649  1.00  0.00     0.000 C 
BRANCH   6   7
ATOM      7  C   UNL     1      27.250  -2.719   5.353  1.00  0.00     0.006 C 
BRANCH   7   8
ATOM      8  C   UNL     1      26.643  -4.131   5.365  1.00  0.00     0.053 C 
BRANCH   8   9
ATOM      9  C   UNL     1      27.402  -5.077   4.486  1.00  0.00     0.041 C 
ATOM     10  O   UNL     1      27.963  -6.089   4.980  1.00  0.00    -0.550 OA
ATOM     11  O   UNL     1      27.513  -4.824   3.124  1.00  0.00    -0.550 OA
ENDBRANCH   8   9
ENDBRANCH   7   8
ENDBRANCH   6   7
ENDBRANCH   5   6
ENDBRANCH   4   5
ENDBRANCH   3   4
ENDBRANCH   2   3
ENDBRANCH   1   2
BRANCH   1  12
ATOM     12  C   UNL     1      26.346   2.407   8.512  1.00  0.00     0.000 C 
BRANCH  12  13
ATOM     13  C   UNL     1      24.867   2.318   8.938  1.00  0.00    -0.000 C 
BRANCH  13  14
ATOM     14  C   UNL     1      24.533   1.141   9.871  1.00  0.00    -0.000 C 
BRANCH  14  15
ATOM     15  C   UNL     1      25.759   0.275  10.198  1.00  0.00    -0.000 C 
BRANCH  15  16
ATOM     16  C   UNL     1      25.488  -1.200   9.871  1.00  0.00    -0.000 C 
BRANCH  16  17
ATOM     17  C   UNL     1      24.182  -1.411   9.082  1.00  0.00    -0.000 C 
BRANCH  17  18
ATOM     18  C   UNL     1      24.360  -2.019   7.679  1.00  0.00    -0.000 C 
BRANCH  18  19
ATOM     19  C   UNL     1      23.346  -1.480   6.660  1.00  0.00    -0.003 C 
ATOM     20  C   UNL     1      23.569   0.006   6.396  1.00  0.00     0.004 C 
ENDBRANCH  18  19
ENDBRANCH  17  18
ENDBRANCH  16  17
ENDBRANCH  15  16
ENDBRANCH  14  15
ENDBRANCH  13  14
ENDBRANCH  12  13
ENDBRANCH   1  12
TORSDOF 16
ENDMDL
MODEL 8
REMARK VINA RESULT:    -3.332      1.563      3.649
REMARK INTER + INTRA:          -9.668
REMARK INTER:                  -6.604
REMARK INTRA:                  -3.064
REMARK UNBOUND:                -3.219
REMARK SMILES CCCCCCCCCCCCCCCCCC(=O)[O-]
REMARK SMILES IDX 10 1 11 2 12 3 13 4 14 5 15 6 16 7 17 8 18 9 19 10 20 11
REMARK SMILES IDX 9 12 8 13 7 14 6 15 5 16 4 17 3 18 2 19 1 20
REMARK H PARENT
REMARK Flexibility Score: inf
ROOT
ATOM      1  C   UNL     1      28.254  -1.896   9.074  1.00  0.00     0.000 C 
ENDROOT
BRANCH   1   2
ATOM      2  C   UNL     1      28.368  -0.371   9.233  1.00  0.00     0.000 C 
BRANCH   2   3
ATOM      3  C   UNL     1      27.329   0.201  10.209  1.00  0.00     0.000 C 
BRANCH   3   4
ATOM      4  C   UNL     1      26.143  -0.752  10.430  1.00  0.00     0.000 C 
BRANCH   4   5
ATOM      5  C   UNL     1      24.976  -0.026  11.110  1.00  0.00     0.000 C 
BRANCH   5   6
ATOM      6  C   UNL     1      24.544   1.205  10.299  1.00  0.00     0.000 C 
BRANCH   6   7
ATOM      7  C   UNL     1      23.014   1.358  10.216  1.00  0.00     0.006 C 
BRANCH   7   8
ATOM      8  C   UNL     1      22.364   0.611   9.040  1.00  0.00     0.053 C 
BRANCH   8   9
ATOM      9  C   UNL     1      21.965   1.541   7.935  1.00  0.00     0.041 C 
ATOM     10  O   UNL     1      21.965   1.142   6.742  1.00  0.00    -0.550 OA
ATOM     11  O   UNL     1      21.622   2.856   8.222  1.00  0.00    -0.550 OA
ENDBRANCH   8   9
ENDBRANCH   7   8
ENDBRANCH   6   7
ENDBRANCH   5   6
ENDBRANCH   4   5
ENDBRANCH   3   4
ENDBRANCH   2   3
ENDBRANCH   1   2
BRANCH   1  12
ATOM     12  C   UNL     1      28.757  -2.379   7.696  1.00  0.00     0.000 C 
BRANCH  12  13
ATOM     13  C   UNL     1      27.765  -3.304   6.964  1.00  0.00    -0.000 C 
BRANCH  13  14
ATOM     14  C   UNL     1      26.656  -2.577   6.186  1.00  0.00    -0.000 C 
BRANCH  14  15
ATOM     15  C   UNL     1      25.350  -2.455   6.985  1.00  0.00    -0.000 C 
BRANCH  15  16
ATOM     16  C   UNL     1      24.812  -1.018   6.937  1.00  0.00    -0.000 C 
BRANCH  16  17
ATOM     17  C   UNL     1      25.805  -0.025   6.303  1.00  0.00    -0.000 C 
BRANCH  17  18
ATOM     18  C   UNL     1      25.838   1.368   6.958  1.00  0.00    -0.000 C 
BRANCH  18  19
ATOM     19  C   UNL     1      27.114   2.154   6.625  1.00  0.00    -0.003 C 
ATOM     20  C   UNL     1      27.954   1.425   5.581  1.00  0.00     0.004 C 
ENDBRANCH  18  19
ENDBRANCH  17  18
ENDBRANCH  16  17
ENDBRANCH  15  16
ENDBRANCH  14  15
ENDBRANCH  13  14
ENDBRANCH  12  13
ENDBRANCH   1  12
TORSDOF 16
ENDMDL
MODEL 9
REMARK VINA RESULT:    -3.326      2.310      5.158
REMARK INTER + INTRA:          -9.656
REMARK INTER:                  -7.013
REMARK INTRA:                  -2.643
REMARK UNBOUND:                -3.219
REMARK SMILES CCCCCCCCCCCCCCCCCC(=O)[O-]
REMARK SMILES IDX 10 1 11 2 12 3 13 4 14 5 15 6 16 7 17 8 18 9 19 10 20 11
REMARK SMILES IDX 9 12 8 13 7 14 6 15 5 16 4 17 3 18 2 19 1 20
REMARK H PARENT
REMARK Flexibility Score: inf
ROOT
ATOM      1  C   UNL     1      25.824  -0.630  10.964  1.00  0.00     0.000 C 
ENDROOT
BRANCH   1   2
ATOM      2  C   UNL     1      24.952   0.346  11.773  1.00  0.00     0.000 C 
BRANCH   2   3
ATOM      3  C   UNL     1      24.109   1.267  10.878  1.00  0.00     0.000 C 
BRANCH   3   4
ATOM      4  C   UNL     1      23.439   0.509   9.721  1.00  0.00     0.000 C 
BRANCH   4   5
ATOM      5  C   UNL     1      23.804   1.136   8.370  1.00  0.00     0.000 C 
BRANCH   5   6
ATOM      6  C   UNL     1      24.803   2.289   8.550  1.00  0.00     0.000 C 
BRANCH   6   7
ATOM      7  C   UNL     1      26.114   2.069   7.773  1.00  0.00     0.006 C 
BRANCH   7   8
ATOM      8  C   UNL     1      25.983   1.136   6.558  1.00  0.00     0.053 C 
BRANCH   8   9
ATOM      9  C   UNL     1      26.986   1.457   5.492  1.00  0.00     0.041 C 
ATOM     10  O   UNL     1      27.973   0.699   5.304  1.00  0.00    -0.550 OA
ATOM     11  O   UNL     1      26.845   2.608   4.727  1.00  0.00    -0.550 OA
ENDBRANCH   8   9
ENDBRANCH   7   8
ENDBRANCH   6   7
ENDBRANCH   5   6
ENDBRANCH   4   5
ENDBRANCH   3   4
ENDBRANCH   2   3
ENDBRANCH   1   2
BRANCH   1  12
ATOM     12  C   UNL     1      27.185  -0.013  10.576  1.00  0.00     0.000 C 
BRANCH  12  13
ATOM     13  C   UNL     1      28.277  -1.059  10.277  1.00  0.00    -0.000 C 
BRANCH  13  14
ATOM     14  C   UNL     1      28.554  -1.296   8.782  1.00  0.00    -0.000 C 
BRANCH  14  15
ATOM     15  C   UNL     1      29.034  -2.724   8.486  1.00  0.00    -0.000 C 
BRANCH  15  16
ATOM     16  C   UNL     1      28.024  -3.467   7.599  1.00  0.00    -0.000 C 
BRANCH  16  17
ATOM     17  C   UNL     1      27.487  -2.600   6.445  1.00  0.00    -0.000 C 
BRANCH  17  18
ATOM     18  C   UNL     1      25.954  -2.474   6.386  1.00  0.00    -0.000 C 
BRANCH  18  19
ATOM     19  C   UNL     1      25.311  -2.332   7.773  1.00  0.00    -0.003 C 
ATOM     20  C   UNL     1      24.185  -3.343   7.964  1.00  0.00     0.004 C 
ENDBRANCH  18  19
ENDBRANCH  17  18
ENDBRANCH  16  17
ENDBRANCH  15  16
ENDBRANCH  14  15
ENDBRANCH  13  14
ENDBRANCH  12  13
ENDBRANCH   1  12
TORSDOF 16
ENDMDL
