MODEL 1
REMARK VINA RESULT:    -3.081      0.000      0.000
REMARK INTER + INTRA:          -8.954
REMARK INTER:                  -6.683
REMARK INTRA:                  -2.271
REMARK UNBOUND:                -2.271
REMARK SMILES CCCCCCCCCCCCCCCCCCCCCC(=O)[O-]
REMARK SMILES IDX 12 1 11 2 10 3 9 4 8 5 7 6 6 7 5 8 4 9 3 10 2 11 1 12 13 13
REMARK SMILES IDX 14 14 15 15 16 16 17 17 18 18 19 19 20 20 21 21 22 22 23 23
REMARK SMILES IDX 24 24
REMARK H PARENT
REMARK Flexibility Score: inf
ROOT
ATOM      1  C   UNL     1       4.427   9.896   6.204  1.00  0.00     0.000 C 
ENDROOT
BRANCH   1   2
ATOM      2  C   UNL     1       5.784  10.604   6.384  1.00  0.00     0.000 C 
BRANCH   2   3
ATOM      3  C   UNL     1       5.702  12.091   6.788  1.00  0.00     0.000 C 
BRANCH   3   4
ATOM      4  C   UNL     1       6.465  13.066   5.872  1.00  0.00    -0.000 C 
BRANCH   4   5
ATOM      5  C   UNL     1       6.512  12.595   4.408  1.00  0.00    -0.000 C 
BRANCH   5   6
ATOM      6  C   UNL     1       7.898  12.075   3.997  1.00  0.00    -0.000 C 
BRANCH   6   7
ATOM      7  C   UNL     1       8.959  12.279   5.094  1.00  0.00    -0.000 C 
BRANCH   7   8
ATOM      8  C   UNL     1       9.306  10.970   5.823  1.00  0.00    -0.000 C 
BRANCH   8   9
ATOM      9  C   UNL     1       9.512  11.172   7.332  1.00  0.00    -0.000 C 
BRANCH   9  10
ATOM     10  C   UNL     1       9.792  12.645   7.655  1.00  0.00    -0.000 C 
BRANCH  10  11
ATOM     11  C   UNL     1       9.409  12.972   9.102  1.00  0.00    -0.003 C 
ATOM     12  C   UNL     1       7.898  12.900   9.303  1.00  0.00     0.004 C 
ENDBRANCH  10  11
ENDBRANCH   9  10
ENDBRANCH   8   9
ENDBRANCH   7   8
ENDBRANCH   6   7
ENDBRANCH   5   6
ENDBRANCH   4   5
ENDBRANCH   3   4
ENDBRANCH   2   3
ENDBRANCH   1   2
BRANCH   1  13
ATOM     13  C   UNL     1       3.235  10.799   6.565  1.00  0.00     0.000 C 
BRANCH  13  14
ATOM     14  C   UNL     1       2.228  10.108   7.500  1.00  0.00     0.000 C 
BRANCH  14  15
ATOM     15  C   UNL     1       2.788   9.698   8.876  1.00  0.00     0.000 C 
BRANCH  15  16
ATOM     16  C   UNL     1       2.841  10.853   9.897  1.00  0.00     0.000 C 
BRANCH  16  17
ATOM     17  C   UNL     1       1.454  11.185  10.477  1.00  0.00     0.000 C 
BRANCH  17  18
ATOM     18  C   UNL     1       0.998  12.618  10.128  1.00  0.00     0.000 C 
BRANCH  18  19
ATOM     19  C   UNL     1       0.198  12.712   8.815  1.00  0.00     0.000 C 
BRANCH  19  20
ATOM     20  C   UNL     1      -1.288  13.081   8.984  1.00  0.00     0.006 C 
BRANCH  20  21
ATOM     21  C   UNL     1      -2.133  12.902   7.711  1.00  0.00     0.053 C 
BRANCH  21  22
ATOM     22  C   UNL     1      -3.504  12.386   8.019  1.00  0.00     0.041 C 
ATOM     23  O   UNL     1      -4.343  13.123   8.604  1.00  0.00    -0.550 OA
ATOM     24  O   UNL     1      -3.873  11.108   7.615  1.00  0.00    -0.550 OA
ENDBRANCH  21  22
ENDBRANCH  20  21
ENDBRANCH  19  20
ENDBRANCH  18  19
ENDBRANCH  17  18
ENDBRANCH  16  17
ENDBRANCH  15  16
ENDBRANCH  14  15
ENDBRANCH  13  14
ENDBRANCH   1  13
TORSDOF 20
ENDMDL
MODEL 2
REMARK VINA RESULT:    -2.617      3.281      8.815
REMARK INTER + INTRA:          -7.946
REMARK INTER:                  -6.965
REMARK INTRA:                  -0.982
REMARK UNBOUND:                -2.271
REMARK SMILES CCCCCCCCCCCCCCCCCCCCCC(=O)[O-]
REMARK SMILES IDX 12 1 11 2 10 3 9 4 8 5 7 6 6 7 5 8 4 9 3 10 2 11 1 12 13 13
REMARK SMILES IDX 14 14 15 15 16 16 17 17 18 18 19 19 20 20 21 21 22 22 23 23
REMARK SMILES IDX 24 24
REMARK H PARENT
REMARK Flexibility Score: inf
ROOT
ATOM      1  C   UNL     1       4.519  10.148   4.525  1.00  0.00     0.000 C 
ENDROOT
BRANCH   1   2
ATOM      2  C   UNL     1       3.550  10.852   5.494  1.00  0.00     0.000 C 
BRANCH   2   3
ATOM      3  C   UNL     1       3.001   9.968   6.633  1.00  0.00     0.000 C 
BRANCH   3   4
ATOM      4  C   UNL     1       3.929   9.815   7.853  1.00  0.00    -0.000 C 
BRANCH   4   5
ATOM      5  C   UNL     1       3.161   9.781   9.186  1.00  0.00    -0.000 C 
BRANCH   5   6
ATOM      6  C   UNL     1       2.819  11.185   9.709  1.00  0.00    -0.000 C 
BRANCH   6   7
ATOM      7  C   UNL     1       1.344  11.321  10.127  1.00  0.00    -0.000 C 
BRANCH   7   8
ATOM      8  C   UNL     1       0.862  12.781  10.109  1.00  0.00    -0.000 C 
BRANCH   8   9
ATOM      9  C   UNL     1       0.063  13.123   8.843  1.00  0.00    -0.000 C 
BRANCH   9  10
ATOM     10  C   UNL     1      -1.169  12.218   8.710  1.00  0.00    -0.000 C 
BRANCH  10  11
ATOM     11  C   UNL     1      -2.461  13.039   8.762  1.00  0.00    -0.003 C 
ATOM     12  C   UNL     1      -3.610  12.303   8.078  1.00  0.00     0.004 C 
ENDBRANCH  10  11
ENDBRANCH   9  10
ENDBRANCH   8   9
ENDBRANCH   7   8
ENDBRANCH   6   7
ENDBRANCH   5   6
ENDBRANCH   4   5
ENDBRANCH   3   4
ENDBRANCH   2   3
ENDBRANCH   1   2
BRANCH   1  13
ATOM     13  C   UNL     1       5.939  10.738   4.572  1.00  0.00     0.000 C 
BRANCH  13  14
ATOM     14  C   UNL     1       6.006  12.172   4.020  1.00  0.00     0.000 C 
BRANCH  14  15
ATOM     15  C   UNL     1       7.337  12.908   4.272  1.00  0.00     0.000 C 
BRANCH  15  16
ATOM     16  C   UNL     1       8.513  12.376   3.426  1.00  0.00     0.000 C 
BRANCH  16  17
ATOM     17  C   UNL     1       9.730  12.000   4.290  1.00  0.00     0.000 C 
BRANCH  17  18
ATOM     18  C   UNL     1      10.072  13.088   5.331  1.00  0.00     0.000 C 
BRANCH  18  19
ATOM     19  C   UNL     1       9.539  12.785   6.744  1.00  0.00     0.000 C 
BRANCH  19  20
ATOM     20  C   UNL     1       9.394  11.288   7.078  1.00  0.00     0.006 C 
BRANCH  20  21
ATOM     21  C   UNL     1       7.970  10.736   6.899  1.00  0.00     0.053 C 
BRANCH  21  22
ATOM     22  C   UNL     1       7.014  11.327   7.888  1.00  0.00     0.041 C 
ATOM     23  O   UNL     1       6.789  10.740   8.981  1.00  0.00    -0.550 OA
ATOM     24  O   UNL     1       6.409  12.550   7.625  1.00  0.00    -0.550 OA
ENDBRANCH  21  22
ENDBRANCH  20  21
ENDBRANCH  19  20
ENDBRANCH  18  19
ENDBRANCH  17  18
ENDBRANCH  16  17
ENDBRANCH  15  16
ENDBRANCH  14  15
ENDBRANCH  13  14
ENDBRANCH   1  13
TORSDOF 20
ENDMDL
MODEL 3
REMARK VINA RESULT:    -2.363      1.271      3.019
REMARK INTER + INTRA:          -7.397
REMARK INTER:                  -5.740
REMARK INTRA:                  -1.657
REMARK UNBOUND:                -2.271
REMARK SMILES CCCCCCCCCCCCCCCCCCCCCC(=O)[O-]
REMARK SMILES IDX 12 1 11 2 10 3 9 4 8 5 7 6 6 7 5 8 4 9 3 10 2 11 1 12 13 13
REMARK SMILES IDX 14 14 15 15 16 16 17 17 18 18 19 19 20 20 21 21 22 22 23 23
REMARK SMILES IDX 24 24
REMARK H PARENT
REMARK Flexibility Score: inf
ROOT
ATOM      1  C   UNL     1       4.931  11.066   7.693  1.00  0.00     0.000 C 
ENDROOT
BRANCH   1   2
ATOM      2  C   UNL     1       5.095  12.347   8.532  1.00  0.00     0.000 C 
BRANCH   2   3
ATOM      3  C   UNL     1       6.423  13.104   8.325  1.00  0.00     0.000 C 
BRANCH   3   4
ATOM      4  C   UNL     1       7.367  13.124   9.542  1.00  0.00    -0.000 C 
BRANCH   4   5
ATOM      5  C   UNL     1       8.731  12.476   9.250  1.00  0.00    -0.000 C 
BRANCH   5   6
ATOM      6  C   UNL     1       9.348  12.964   7.929  1.00  0.00    -0.000 C 
BRANCH   6   7
ATOM      7  C   UNL     1       9.222  11.929   6.797  1.00  0.00    -0.000 C 
BRANCH   7   8
ATOM      8  C   UNL     1       9.324  12.571   5.403  1.00  0.00    -0.000 C 
BRANCH   8   9
ATOM      9  C   UNL     1       8.419  11.884   4.370  1.00  0.00    -0.000 C 
BRANCH   9  10
ATOM     10  C   UNL     1       7.135  11.361   5.026  1.00  0.00    -0.000 C 
BRANCH  10  11
ATOM     11  C   UNL     1       5.893  11.966   4.363  1.00  0.00    -0.003 C 
ATOM     12  C   UNL     1       5.109  10.909   3.591  1.00  0.00     0.004 C 
ENDBRANCH  10  11
ENDBRANCH   9  10
ENDBRANCH   8   9
ENDBRANCH   7   8
ENDBRANCH   6   7
ENDBRANCH   5   6
ENDBRANCH   4   5
ENDBRANCH   3   4
ENDBRANCH   2   3
ENDBRANCH   1   2
BRANCH   1  13
ATOM     13  C   UNL     1       4.898   9.792   8.554  1.00  0.00     0.000 C 
BRANCH  13  14
ATOM     14  C   UNL     1       4.035   9.950   9.817  1.00  0.00     0.000 C 
BRANCH  14  15
ATOM     15  C   UNL     1       2.557   9.543   9.653  1.00  0.00     0.000 C 
BRANCH  15  16
ATOM     16  C   UNL     1       1.652  10.001  10.816  1.00  0.00     0.000 C 
BRANCH  16  17
ATOM     17  C   UNL     1       1.060  11.401  10.578  1.00  0.00     0.000 C 
BRANCH  17  18
ATOM     18  C   UNL     1       1.769  12.153   9.432  1.00  0.00     0.000 C 
BRANCH  18  19
ATOM     19  C   UNL     1       0.847  13.109   8.651  1.00  0.00     0.000 C 
BRANCH  19  20
ATOM     20  C   UNL     1      -0.620  13.125   9.120  1.00  0.00     0.006 C 
BRANCH  20  21
ATOM     21  C   UNL     1      -1.625  12.621   8.071  1.00  0.00     0.053 C 
BRANCH  21  22
ATOM     22  C   UNL     1      -3.041  12.801   8.522  1.00  0.00     0.041 C 
ATOM     23  O   UNL     1      -3.314  12.851   9.752  1.00  0.00    -0.550 OA
ATOM     24  O   UNL     1      -4.054  12.966   7.585  1.00  0.00    -0.550 OA
ENDBRANCH  21  22
ENDBRANCH  20  21
ENDBRANCH  19  20
ENDBRANCH  18  19
ENDBRANCH  17  18
ENDBRANCH  16  17
ENDBRANCH  15  16
ENDBRANCH  14  15
ENDBRANCH  13  14
ENDBRANCH   1  13
TORSDOF 20
ENDMDL
MODEL 4
REMARK VINA RESULT:    -2.065      1.188      2.033
REMARK INTER + INTRA:          -6.751
REMARK INTER:                  -4.901
REMARK INTRA:                  -1.851
REMARK UNBOUND:                -2.271
REMARK SMILES CCCCCCCCCCCCCCCCCCCCCC(=O)[O-]
REMARK SMILES IDX 12 1 11 2 10 3 9 4 8 5 7 6 6 7 5 8 4 9 3 10 2 11 1 12 13 13
REMARK SMILES IDX 14 14 15 15 16 16 17 17 18 18 19 19 20 20 21 21 22 22 23 23
REMARK SMILES IDX 24 24
REMARK H PARENT
REMARK Flexibility Score: inf
ROOT
ATOM      1  C   UNL     1       5.129  10.896   5.016  1.00  0.00     0.000 C 
ENDROOT
BRANCH   1   2
ATOM      2  C   UNL     1       6.238  10.091   5.719  1.00  0.00     0.000 C 
BRANCH   2   3
ATOM      3  C   UNL     1       7.433   9.698   4.826  1.00  0.00     0.000 C 
BRANCH   3   4
ATOM      4  C   UNL     1       8.722  10.508   5.056  1.00  0.00    -0.000 C 
BRANCH   4   5
ATOM      5  C   UNL     1       8.668  11.908   4.420  1.00  0.00    -0.000 C 
BRANCH   5   6
ATOM      6  C   UNL     1       8.772  13.036   5.459  1.00  0.00    -0.000 C 
BRANCH   6   7
ATOM      7  C   UNL     1      10.039  12.930   6.326  1.00  0.00    -0.000 C 
BRANCH   7   8
ATOM      8  C   UNL     1       9.726  12.507   7.772  1.00  0.00    -0.000 C 
BRANCH   8   9
ATOM      9  C   UNL     1       8.401  13.091   8.283  1.00  0.00    -0.000 C 
BRANCH   9  10
ATOM     10  C   UNL     1       7.394  11.977   8.596  1.00  0.00    -0.000 C 
BRANCH  10  11
ATOM     11  C   UNL     1       6.213  12.517   9.410  1.00  0.00    -0.003 C 
ATOM     12  C   UNL     1       5.148  13.122   8.500  1.00  0.00     0.004 C 
ENDBRANCH  10  11
ENDBRANCH   9  10
ENDBRANCH   8   9
ENDBRANCH   7   8
ENDBRANCH   6   7
ENDBRANCH   5   6
ENDBRANCH   4   5
ENDBRANCH   3   4
ENDBRANCH   2   3
ENDBRANCH   1   2
BRANCH   1  13
ATOM     13  C   UNL     1       3.957  11.235   5.953  1.00  0.00     0.000 C 
BRANCH  13  14
ATOM     14  C   UNL     1       3.699  10.142   7.003  1.00  0.00     0.000 C 
BRANCH  14  15
ATOM     15  C   UNL     1       2.419  10.329   7.841  1.00  0.00     0.000 C 
BRANCH  15  16
ATOM     16  C   UNL     1       2.594  11.283   9.041  1.00  0.00     0.000 C 
BRANCH  16  17
ATOM     17  C   UNL     1       1.404  11.219  10.016  1.00  0.00     0.000 C 
BRANCH  17  18
ATOM     18  C   UNL     1       0.604  12.539  10.055  1.00  0.00     0.000 C 
BRANCH  18  19
ATOM     19  C   UNL     1       0.065  12.980   8.681  1.00  0.00     0.000 C 
BRANCH  19  20
ATOM     20  C   UNL     1      -1.467  13.124   8.600  1.00  0.00     0.006 C 
BRANCH  20  21
ATOM     21  C   UNL     1      -2.229  11.788   8.595  1.00  0.00     0.053 C 
BRANCH  21  22
ATOM     22  C   UNL     1      -3.375  11.802   7.632  1.00  0.00     0.041 C 
ATOM     23  O   UNL     1      -4.013  10.743   7.389  1.00  0.00    -0.550 OA
ATOM     24  O   UNL     1      -3.771  12.996   7.040  1.00  0.00    -0.550 OA
ENDBRANCH  21  22
ENDBRANCH  20  21
ENDBRANCH  19  20
ENDBRANCH  18  19
ENDBRANCH  17  18
ENDBRANCH  16  17
ENDBRANCH  15  16
ENDBRANCH  14  15
ENDBRANCH  13  14
ENDBRANCH   1  13
TORSDOF 20
ENDMDL
MODEL 5
REMARK VINA RESULT:    -1.997      1.366      3.110
REMARK INTER + INTRA:          -6.603
REMARK INTER:                  -5.778
REMARK INTRA:                  -0.825
REMARK UNBOUND:                -2.271
REMARK SMILES CCCCCCCCCCCCCCCCCCCCCC(=O)[O-]
REMARK SMILES IDX 12 1 11 2 10 3 9 4 8 5 7 6 6 7 5 8 4 9 3 10 2 11 1 12 13 13
REMARK SMILES IDX 14 14 15 15 16 16 17 17 18 18 19 19 20 20 21 21 22 22 23 23
REMARK SMILES IDX 24 24
REMARK H PARENT
REMARK Flexibility Score: inf
ROOT
ATOM      1  C   UNL     1       6.616  11.204   3.888  1.00  0.00     0.000 C 
ENDROOT
BRANCH   1   2
ATOM      2  C   UNL     1       7.346  12.561   3.915  1.00  0.00     0.000 C 
BRANCH   2   3
ATOM      3  C   UNL     1       8.887  12.479   3.915  1.00  0.00     0.000 C 
BRANCH   3   4
ATOM      4  C   UNL     1       9.576  13.052   5.167  1.00  0.00    -0.000 C 
BRANCH   4   5
ATOM      5  C   UNL     1      10.124  11.959   6.100  1.00  0.00    -0.000 C 
BRANCH   5   6
ATOM      6  C   UNL     1       9.168  11.635   7.259  1.00  0.00    -0.000 C 
BRANCH   6   7
ATOM      7  C   UNL     1       8.321  12.846   7.688  1.00  0.00    -0.000 C 
BRANCH   7   8
ATOM      8  C   UNL     1       7.955  12.807   9.181  1.00  0.00    -0.000 C 
BRANCH   8   9
ATOM      9  C   UNL     1       6.473  13.122   9.433  1.00  0.00    -0.000 C 
BRANCH   9  10
ATOM     10  C   UNL     1       5.595  11.896   9.152  1.00  0.00    -0.000 C 
BRANCH  10  11
ATOM     11  C   UNL     1       6.452  10.674   8.807  1.00  0.00    -0.003 C 
ATOM     12  C   UNL     1       5.592   9.424   8.648  1.00  0.00     0.004 C 
ENDBRANCH  10  11
ENDBRANCH   9  10
ENDBRANCH   8   9
ENDBRANCH   7   8
ENDBRANCH   6   7
ENDBRANCH   5   6
ENDBRANCH   4   5
ENDBRANCH   3   4
ENDBRANCH   2   3
ENDBRANCH   1   2
BRANCH   1  13
ATOM     13  C   UNL     1       6.046  10.811   5.261  1.00  0.00     0.000 C 
BRANCH  13  14
ATOM     14  C   UNL     1       4.508  10.813   5.290  1.00  0.00     0.000 C 
BRANCH  14  15
ATOM     15  C   UNL     1       3.880  11.231   6.634  1.00  0.00     0.000 C 
BRANCH  15  16
ATOM     16  C   UNL     1       2.876  10.204   7.199  1.00  0.00     0.000 C 
BRANCH  16  17
ATOM     17  C   UNL     1       1.605  10.873   7.751  1.00  0.00     0.000 C 
BRANCH  17  18
ATOM     18  C   UNL     1       1.827  11.498   9.145  1.00  0.00     0.000 C 
BRANCH  18  19
ATOM     19  C   UNL     1       0.961  12.744   9.413  1.00  0.00     0.000 C 
BRANCH  19  20
ATOM     20  C   UNL     1      -0.558  12.491   9.422  1.00  0.00     0.006 C 
BRANCH  20  21
ATOM     21  C   UNL     1      -1.311  13.124   8.240  1.00  0.00     0.053 C 
BRANCH  21  22
ATOM     22  C   UNL     1      -2.771  12.793   8.267  1.00  0.00     0.041 C 
ATOM     23  O   UNL     1      -3.308  12.377   9.329  1.00  0.00    -0.550 OA
ATOM     24  O   UNL     1      -3.551  12.993   7.134  1.00  0.00    -0.550 OA
ENDBRANCH  21  22
ENDBRANCH  20  21
ENDBRANCH  19  20
ENDBRANCH  18  19
ENDBRANCH  17  18
ENDBRANCH  16  17
ENDBRANCH  15  16
ENDBRANCH  14  15
ENDBRANCH  13  14
ENDBRANCH   1  13
TORSDOF 20
ENDMDL
MODEL 6
REMARK VINA RESULT:    -1.848      1.446      3.124
REMARK INTER + INTRA:          -6.279
REMARK INTER:                  -6.305
REMARK INTRA:                   0.027
REMARK UNBOUND:                -2.271
REMARK SMILES CCCCCCCCCCCCCCCCCCCCCC(=O)[O-]
REMARK SMILES IDX 12 1 11 2 10 3 9 4 8 5 7 6 6 7 5 8 4 9 3 10 2 11 1 12 13 13
REMARK SMILES IDX 14 14 15 15 16 16 17 17 18 18 19 19 20 20 21 21 22 22 23 23
REMARK SMILES IDX 24 24
REMARK H PARENT
REMARK Flexibility Score: inf
ROOT
ATOM      1  C   UNL     1       3.874   9.169   9.243  1.00  0.00     0.000 C 
ENDROOT
BRANCH   1   2
ATOM      2  C   UNL     1       4.682  10.480   9.291  1.00  0.00     0.000 C 
BRANCH   2   3
ATOM      3  C   UNL     1       5.702  10.667   8.148  1.00  0.00     0.000 C 
BRANCH   3   4
ATOM      4  C   UNL     1       6.814  11.697   8.420  1.00  0.00    -0.000 C 
BRANCH   4   5
ATOM      5  C   UNL     1       8.200  11.213   7.961  1.00  0.00    -0.000 C 
BRANCH   5   6
ATOM      6  C   UNL     1       9.195  12.368   7.761  1.00  0.00    -0.000 C 
BRANCH   6   7
ATOM      7  C   UNL     1       9.786  12.404   6.341  1.00  0.00    -0.000 C 
BRANCH   7   8
ATOM      8  C   UNL     1       8.969  11.565   5.344  1.00  0.00    -0.000 C 
BRANCH   8   9
ATOM      9  C   UNL     1       8.243  12.429   4.302  1.00  0.00    -0.000 C 
BRANCH   9  10
ATOM     10  C   UNL     1       6.847  12.830   4.796  1.00  0.00    -0.000 C 
BRANCH  10  11
ATOM     11  C   UNL     1       5.762  11.984   4.120  1.00  0.00    -0.003 C 
ATOM     12  C   UNL     1       5.677  10.595   4.745  1.00  0.00     0.004 C 
ENDBRANCH  10  11
ENDBRANCH   9  10
ENDBRANCH   8   9
ENDBRANCH   7   8
ENDBRANCH   6   7
ENDBRANCH   5   6
ENDBRANCH   4   5
ENDBRANCH   3   4
ENDBRANCH   2   3
ENDBRANCH   1   2
BRANCH   1  13
ATOM     13  C   UNL     1       2.935   9.006  10.450  1.00  0.00     0.000 C 
BRANCH  13  14
ATOM     14  C   UNL     1       1.925  10.159  10.579  1.00  0.00     0.000 C 
BRANCH  14  15
ATOM     15  C   UNL     1       2.384  11.500   9.974  1.00  0.00     0.000 C 
BRANCH  15  16
ATOM     16  C   UNL     1       1.761  11.808   8.596  1.00  0.00     0.000 C 
BRANCH  16  17
ATOM     17  C   UNL     1       0.963  13.125   8.597  1.00  0.00     0.000 C 
BRANCH  17  18
ATOM     18  C   UNL     1      -0.368  13.006   9.370  1.00  0.00     0.000 C 
BRANCH  18  19
ATOM     19  C   UNL     1      -1.616  13.035   8.467  1.00  0.00     0.000 C 
BRANCH  19  20
ATOM     20  C   UNL     1      -2.960  13.098   9.218  1.00  0.00     0.006 C 
BRANCH  20  21
ATOM     21  C   UNL     1      -4.196  13.004   8.308  1.00  0.00     0.053 C 
BRANCH  21  22
ATOM     22  C   UNL     1      -3.910  12.235   7.055  1.00  0.00     0.041 C 
ATOM     23  O   UNL     1      -4.044  12.785   5.929  1.00  0.00    -0.550 OA
ATOM     24  O   UNL     1      -3.447  10.927   7.132  1.00  0.00    -0.550 OA
ENDBRANCH  21  22
ENDBRANCH  20  21
ENDBRANCH  19  20
ENDBRANCH  18  19
ENDBRANCH  17  18
ENDBRANCH  16  17
ENDBRANCH  15  16
ENDBRANCH  14  15
ENDBRANCH  13  14
ENDBRANCH   1  13
TORSDOF 20
ENDMDL
MODEL 7
REMARK VINA RESULT:    -1.736      4.136      9.149
REMARK INTER + INTRA:          -6.036
REMARK INTER:                  -6.618
REMARK INTRA:                   0.582
REMARK UNBOUND:                -2.271
REMARK SMILES CCCCCCCCCCCCCCCCCCCCCC(=O)[O-]
REMARK SMILES IDX 12 1 11 2 10 3 9 4 8 5 7 6 6 7 5 8 4 9 3 10 2 11 1 12 13 13
REMARK SMILES IDX 14 14 15 15 16 16 17 17 18 18 19 19 20 20 21 21 22 22 23 23
REMARK SMILES IDX 24 24
REMARK H PARENT
REMARK Flexibility Score: inf
ROOT
ATOM      1  C   UNL     1       4.176   9.702   6.961  1.00  0.00     0.000 C 
ENDROOT
BRANCH   1   2
ATOM      2  C   UNL     1       4.121   8.828   8.228  1.00  0.00     0.000 C 
BRANCH   2   3
ATOM      3  C   UNL     1       4.188   9.598   9.563  1.00  0.00     0.000 C 
BRANCH   3   4
ATOM      4  C   UNL     1       4.535  11.094   9.444  1.00  0.00    -0.000 C 
BRANCH   4   5
ATOM      5  C   UNL     1       3.343  12.011   9.771  1.00  0.00    -0.000 C 
BRANCH   5   6
ATOM      6  C   UNL     1       2.166  11.820   8.801  1.00  0.00    -0.000 C 
BRANCH   6   7
ATOM      7  C   UNL     1       0.800  11.874   9.508  1.00  0.00    -0.000 C 
BRANCH   7   8
ATOM      8  C   UNL     1      -0.009  13.125   9.127  1.00  0.00    -0.000 C 
BRANCH   8   9
ATOM      9  C   UNL     1      -1.207  12.800   8.223  1.00  0.00    -0.000 C 
BRANCH   9  10
ATOM     10  C   UNL     1      -2.217  11.903   8.951  1.00  0.00    -0.000 C 
BRANCH  10  11
ATOM     11  C   UNL     1      -3.630  12.101   8.391  1.00  0.00    -0.003 C 
ATOM     12  C   UNL     1      -3.589  12.715   6.995  1.00  0.00     0.004 C 
ENDBRANCH  10  11
ENDBRANCH   9  10
ENDBRANCH   8   9
ENDBRANCH   7   8
ENDBRANCH   6   7
ENDBRANCH   5   6
ENDBRANCH   4   5
ENDBRANCH   3   4
ENDBRANCH   2   3
ENDBRANCH   1   2
BRANCH   1  13
ATOM     13  C   UNL     1       5.615  10.017   6.520  1.00  0.00     0.000 C 
BRANCH  13  14
ATOM     14  C   UNL     1       5.739  11.382   5.823  1.00  0.00     0.000 C 
BRANCH  14  15
ATOM     15  C   UNL     1       6.532  12.446   6.607  1.00  0.00     0.000 C 
BRANCH  15  16
ATOM     16  C   UNL     1       7.016  11.968   7.992  1.00  0.00     0.000 C 
BRANCH  16  17
ATOM     17  C   UNL     1       7.137  13.125   9.000  1.00  0.00     0.000 C 
BRANCH  17  18
ATOM     18  C   UNL     1       8.457  13.075   9.798  1.00  0.00     0.000 C 
BRANCH  18  19
ATOM     19  C   UNL     1       9.716  13.007   8.913  1.00  0.00     0.000 C 
BRANCH  19  20
ATOM     20  C   UNL     1       9.574  12.144   7.645  1.00  0.00     0.006 C 
BRANCH  20  21
ATOM     21  C   UNL     1       9.795  12.912   6.330  1.00  0.00     0.053 C 
BRANCH  21  22
ATOM     22  C   UNL     1       9.638  12.026   5.133  1.00  0.00     0.041 C 
ATOM     23  O   UNL     1      10.038  12.411   4.002  1.00  0.00    -0.550 OA
ATOM     24  O   UNL     1       9.097  10.754   5.276  1.00  0.00    -0.550 OA
ENDBRANCH  21  22
ENDBRANCH  20  21
ENDBRANCH  19  20
ENDBRANCH  18  19
ENDBRANCH  17  18
ENDBRANCH  16  17
ENDBRANCH  15  16
ENDBRANCH  14  15
ENDBRANCH  13  14
ENDBRANCH   1  13
TORSDOF 20
ENDMDL
MODEL 8
REMARK VINA RESULT:    -1.659      2.602      8.186
REMARK INTER + INTRA:          -5.869
REMARK INTER:                  -6.711
REMARK INTRA:                   0.842
REMARK UNBOUND:                -2.271
REMARK SMILES CCCCCCCCCCCCCCCCCCCCCC(=O)[O-]
REMARK SMILES IDX 12 1 11 2 10 3 9 4 8 5 7 6 6 7 5 8 4 9 3 10 2 11 1 12 13 13
REMARK SMILES IDX 14 14 15 15 16 16 17 17 18 18 19 19 20 20 21 21 22 22 23 23
REMARK SMILES IDX 24 24
REMARK H PARENT
REMARK Flexibility Score: inf
ROOT
ATOM      1  C   UNL     1       7.202  10.528   7.288  1.00  0.00     0.000 C 
ENDROOT
BRANCH   1   2
ATOM      2  C   UNL     1       6.826  11.233   8.605  1.00  0.00     0.000 C 
BRANCH   2   3
ATOM      3  C   UNL     1       6.217  12.642   8.446  1.00  0.00     0.000 C 
BRANCH   3   4
ATOM      4  C   UNL     1       5.192  13.042   9.525  1.00  0.00    -0.000 C 
BRANCH   4   5
ATOM      5  C   UNL     1       4.036  12.035   9.651  1.00  0.00    -0.000 C 
BRANCH   5   6
ATOM      6  C   UNL     1       2.663  12.673   9.385  1.00  0.00    -0.000 C 
BRANCH   6   7
ATOM      7  C   UNL     1       1.511  11.655   9.456  1.00  0.00    -0.000 C 
BRANCH   7   8
ATOM      8  C   UNL     1       0.330  12.042   8.550  1.00  0.00    -0.000 C 
BRANCH   8   9
ATOM      9  C   UNL     1      -0.562  13.125   9.174  1.00  0.00    -0.000 C 
BRANCH   9  10
ATOM     10  C   UNL     1      -2.045  12.747   9.063  1.00  0.00    -0.000 C 
BRANCH  10  11
ATOM     11  C   UNL     1      -2.554  12.935   7.630  1.00  0.00    -0.003 C 
ATOM     12  C   UNL     1      -4.078  12.998   7.590  1.00  0.00     0.004 C 
ENDBRANCH  10  11
ENDBRANCH   9  10
ENDBRANCH   8   9
ENDBRANCH   7   8
ENDBRANCH   6   7
ENDBRANCH   5   6
ENDBRANCH   4   5
ENDBRANCH   3   4
ENDBRANCH   2   3
ENDBRANCH   1   2
BRANCH   1  13
ATOM     13  C   UNL     1       8.645  10.825   6.847  1.00  0.00     0.000 C 
BRANCH  13  14
ATOM     14  C   UNL     1       8.806  12.229   6.242  1.00  0.00     0.000 C 
BRANCH  14  15
ATOM     15  C   UNL     1      10.001  12.395   5.284  1.00  0.00     0.000 C 
BRANCH  15  16
ATOM     16  C   UNL     1       9.648  13.115   3.965  1.00  0.00     0.000 C 
BRANCH  16  17
ATOM     17  C   UNL     1       8.133  13.120   3.691  1.00  0.00     0.000 C 
BRANCH  17  18
ATOM     18  C   UNL     1       7.542  11.696   3.626  1.00  0.00     0.000 C 
BRANCH  18  19
ATOM     19  C   UNL     1       6.027  11.639   3.900  1.00  0.00     0.000 C 
BRANCH  19  20
ATOM     20  C   UNL     1       5.576  10.490   4.823  1.00  0.00     0.006 C 
BRANCH  20  21
ATOM     21  C   UNL     1       4.831  10.950   6.088  1.00  0.00     0.053 C 
BRANCH  21  22
ATOM     22  C   UNL     1       3.443  10.392   6.152  1.00  0.00     0.041 C 
ATOM     23  O   UNL     1       2.742  10.313   5.107  1.00  0.00    -0.550 OA
ATOM     24  O   UNL     1       2.942   9.912   7.356  1.00  0.00    -0.550 OA
ENDBRANCH  21  22
ENDBRANCH  20  21
ENDBRANCH  19  20
ENDBRANCH  18  19
ENDBRANCH  17  18
ENDBRANCH  16  17
ENDBRANCH  15  16
ENDBRANCH  14  15
ENDBRANCH  13  14
ENDBRANCH   1  13
TORSDOF 20
ENDMDL
