MODEL 1
REMARK VINA RESULT:    -8.076      0.000      0.000
REMARK INTER + INTRA:         -12.001
REMARK INTER:                 -10.673
REMARK INTRA:                  -1.327
REMARK UNBOUND:                -1.327
REMARK SMILES CC[C@H](C=C[C@@H](C)[C@H]1CC[C@H]2[C@@H]3CC=C4C[C@@H](O)CC[C@@]4(C)[C@@H]3CC[C@@]12C)C(C)C
REMARK SMILES IDX 6 1 7 2 5 3 4 4 3 5 2 6 1 7 28 8 29 9 30 10 8 11 9 12 26 13
REMARK SMILES IDX 10 14 11 15 25 16 27 17 12 18 24 19 23 20 13 21 21 22 14 23
REMARK SMILES IDX 15 24 20 25 22 26 16 27 19 28 17 29 18 30
REMARK H PARENT 18 31
REMARK Flexibility Score: inf
ROOT
ATOM      1  C   UNL     1      13.850  14.147  26.613  1.00  0.00     0.012 C 
ATOM      2  C   UNL     1      12.638  13.680  25.783  1.00  0.00     0.012 C 
ENDROOT
BRANCH   1   3
ATOM      3  C   UNL     1      14.990  14.469  25.657  1.00  0.00    -0.028 C 
ATOM      4  C   UNL     1      15.480  15.701  25.410  1.00  0.00    -0.027 C 
BRANCH   4   5
ATOM      5  C   UNL     1      14.946  17.004  25.992  1.00  0.00     0.014 C 
BRANCH   5   6
ATOM      6  C   UNL     1      15.433  17.140  27.457  1.00  0.00     0.004 C 
ATOM      7  C   UNL     1      14.298  17.085  28.483  1.00  0.00     0.004 C 
ENDBRANCH   5   6
BRANCH   5   8
ATOM      8  C   UNL     1      15.313  18.226  25.084  1.00  0.00    -0.011 C 
ATOM      9  C   UNL     1      15.373  17.907  23.578  1.00  0.00     0.008 C 
ATOM     10  C   UNL     1      14.356  19.403  25.328  1.00  0.00     0.008 C 
ENDBRANCH   5   8
ENDBRANCH   4   5
ENDBRANCH   1   3
BRANCH   1  11
ATOM     11  C   UNL     1      14.301  13.064  27.665  1.00  0.00     0.002 C 
ATOM     12  C   UNL     1      15.656  13.423  28.312  1.00  0.00     0.005 C 
ATOM     13  C   UNL     1      13.348  12.758  28.875  1.00  0.00    -0.026 C 
ATOM     14  C   UNL     1      15.671  12.824  29.712  1.00  0.00     0.005 C 
ATOM     15  C   UNL     1      14.325  12.117  29.904  1.00  0.00    -0.001 C 
ATOM     16  C   UNL     1      12.729  14.068  29.455  1.00  0.00     0.007 C 
ATOM     17  C   UNL     1      12.231  11.741  28.469  1.00  0.00     0.012 C 
ATOM     18  C   UNL     1      13.858  12.104  31.392  1.00  0.00     0.000 C 
ATOM     19  C   UNL     1      12.187  13.937  30.888  1.00  0.00     0.005 C 
ATOM     20  C   UNL     1      13.296  13.468  31.869  1.00  0.00     0.003 C 
ATOM     21  C   UNL     1      12.834  10.983  31.650  1.00  0.00     0.031 C 
ATOM     22  C   UNL     1      12.893  13.427  33.409  1.00  0.00    -0.008 C 
ATOM     23  C   UNL     1      12.376  10.968  33.074  1.00  0.00    -0.027 C 
ATOM     24  C   UNL     1      12.313  12.071  33.848  1.00  0.00    -0.065 C 
ATOM     25  C   UNL     1      14.180  13.656  34.269  1.00  0.00     0.014 C 
ATOM     26  C   UNL     1      11.876  14.560  33.733  1.00  0.00     0.016 C 
ATOM     27  C   UNL     1      12.031  11.886  35.325  1.00  0.00     0.063 C 
ATOM     28  C   UNL     1      13.977  13.445  35.788  1.00  0.00     0.033 C 
ATOM     29  C   UNL     1      13.328  12.086  36.120  1.00  0.00     0.118 C 
BRANCH  29  30
ATOM     30  O   UNL     1      14.221  11.034  35.838  1.00  0.00    -0.393 OA
ATOM     31  H   UNL     1      15.062  11.231  36.327  1.00  0.00     0.210 HD
ENDBRANCH  29  30
ENDBRANCH   1  11
TORSDOF 6
ENDMDL
MODEL 2
REMARK VINA RESULT:    -7.187      2.887      8.414
REMARK INTER + INTRA:         -10.825
REMARK INTER:                 -11.040
REMARK INTRA:                   0.215
REMARK UNBOUND:                -1.327
REMARK SMILES CC[C@H](C=C[C@@H](C)[C@H]1CC[C@H]2[C@@H]3CC=C4C[C@@H](O)CC[C@@]4(C)[C@@H]3CC[C@@]12C)C(C)C
REMARK SMILES IDX 6 1 7 2 5 3 4 4 3 5 2 6 1 7 28 8 29 9 30 10 8 11 9 12 26 13
REMARK SMILES IDX 10 14 11 15 25 16 27 17 12 18 24 19 23 20 13 21 21 22 14 23
REMARK SMILES IDX 15 24 20 25 22 26 16 27 19 28 17 29 18 30
REMARK H PARENT 18 31
REMARK Flexibility Score: inf
ROOT
ATOM      1  C   UNL     1      13.242  11.679  30.478  1.00  0.00     0.012 C 
ATOM      2  C   UNL     1      11.928  10.888  30.321  1.00  0.00     0.012 C 
ENDROOT
BRANCH   1   3
ATOM      3  C   UNL     1      12.903  13.078  30.974  1.00  0.00    -0.028 C 
ATOM      4  C   UNL     1      13.120  13.537  32.223  1.00  0.00    -0.027 C 
BRANCH   4   5
ATOM      5  C   UNL     1      13.685  12.728  33.385  1.00  0.00     0.014 C 
BRANCH   5   6
ATOM      6  C   UNL     1      14.789  13.558  34.087  1.00  0.00     0.004 C 
ATOM      7  C   UNL     1      14.356  14.988  34.422  1.00  0.00     0.004 C 
ENDBRANCH   5   6
BRANCH   5   8
ATOM      8  C   UNL     1      12.548  12.240  34.345  1.00  0.00    -0.011 C 
ATOM      9  C   UNL     1      11.875  10.921  33.920  1.00  0.00     0.008 C 
ATOM     10  C   UNL     1      13.059  12.123  35.789  1.00  0.00     0.008 C 
ENDBRANCH   5   8
ENDBRANCH   4   5
ENDBRANCH   1   3
BRANCH   1  11
ATOM     11  C   UNL     1      14.053  11.754  29.128  1.00  0.00     0.002 C 
ATOM     12  C   UNL     1      13.131  11.623  27.897  1.00  0.00     0.005 C 
ATOM     13  C   UNL     1      14.916  13.035  28.847  1.00  0.00    -0.026 C 
ATOM     14  C   UNL     1      13.779  12.389  26.752  1.00  0.00     0.005 C 
ATOM     15  C   UNL     1      15.081  12.984  27.300  1.00  0.00    -0.001 C 
ATOM     16  C   UNL     1      14.159  14.333  29.271  1.00  0.00     0.007 C 
ATOM     17  C   UNL     1      16.309  12.942  29.553  1.00  0.00     0.012 C 
ATOM     18  C   UNL     1      15.477  14.318  26.597  1.00  0.00     0.000 C 
ATOM     19  C   UNL     1      14.689  15.621  28.619  1.00  0.00     0.005 C 
ATOM     20  C   UNL     1      14.635  15.532  27.069  1.00  0.00     0.003 C 
ATOM     21  C   UNL     1      16.980  14.614  26.758  1.00  0.00     0.031 C 
ATOM     22  C   UNL     1      15.028  16.857  26.281  1.00  0.00    -0.008 C 
ATOM     23  C   UNL     1      17.366  15.896  26.092  1.00  0.00    -0.027 C 
ATOM     24  C   UNL     1      16.528  16.944  25.950  1.00  0.00    -0.065 C 
ATOM     25  C   UNL     1      14.273  16.866  24.910  1.00  0.00     0.014 C 
ATOM     26  C   UNL     1      14.597  18.117  27.088  1.00  0.00     0.016 C 
ATOM     27  C   UNL     1      16.978  18.099  25.079  1.00  0.00     0.063 C 
ATOM     28  C   UNL     1      14.709  17.997  23.949  1.00  0.00     0.033 C 
ATOM     29  C   UNL     1      16.237  18.043  23.736  1.00  0.00     0.118 C 
BRANCH  29  30
ATOM     30  O   UNL     1      16.664  16.916  23.008  1.00  0.00    -0.393 OA
ATOM     31  H   UNL     1      16.881  16.210  23.670  1.00  0.00     0.210 HD
ENDBRANCH  29  30
ENDBRANCH   1  11
TORSDOF 6
ENDMDL
MODEL 3
REMARK VINA RESULT:    -6.964      2.825      8.174
REMARK INTER + INTRA:         -10.530
REMARK INTER:                 -11.800
REMARK INTRA:                   1.271
REMARK UNBOUND:                -1.327
REMARK SMILES CC[C@H](C=C[C@@H](C)[C@H]1CC[C@H]2[C@@H]3CC=C4C[C@@H](O)CC[C@@]4(C)[C@@H]3CC[C@@]12C)C(C)C
REMARK SMILES IDX 6 1 7 2 5 3 4 4 3 5 2 6 1 7 28 8 29 9 30 10 8 11 9 12 26 13
REMARK SMILES IDX 10 14 11 15 25 16 27 17 12 18 24 19 23 20 13 21 21 22 14 23
REMARK SMILES IDX 15 24 20 25 22 26 16 27 19 28 17 29 18 30
REMARK H PARENT 18 31
REMARK Flexibility Score: inf
ROOT
ATOM      1  C   UNL     1      12.167  11.694  30.169  1.00  0.00     0.012 C 
ATOM      2  C   UNL     1      11.875  13.115  30.688  1.00  0.00     0.012 C 
ENDROOT
BRANCH   1   3
ATOM      3  C   UNL     1      12.833  10.902  31.286  1.00  0.00    -0.028 C 
ATOM      4  C   UNL     1      12.895  11.277  32.579  1.00  0.00    -0.027 C 
BRANCH   4   5
ATOM      5  C   UNL     1      12.368  12.587  33.154  1.00  0.00     0.014 C 
BRANCH   5   6
ATOM      6  C   UNL     1      11.875  12.340  34.602  1.00  0.00     0.004 C 
ATOM      7  C   UNL     1      12.574  11.165  35.291  1.00  0.00     0.004 C 
ENDBRANCH   5   6
BRANCH   5   8
ATOM      8  C   UNL     1      13.429  13.731  33.029  1.00  0.00    -0.011 C 
ATOM      9  C   UNL     1      13.216  14.909  34.000  1.00  0.00     0.008 C 
ATOM     10  C   UNL     1      14.856  13.181  33.185  1.00  0.00     0.008 C 
ENDBRANCH   5   8
ENDBRANCH   4   5
ENDBRANCH   1   3
BRANCH   1  11
ATOM     11  C   UNL     1      13.079  11.709  28.883  1.00  0.00     0.002 C 
ATOM     12  C   UNL     1      12.245  11.830  27.590  1.00  0.00     0.005 C 
ATOM     13  C   UNL     1      14.175  12.826  28.759  1.00  0.00    -0.026 C 
ATOM     14  C   UNL     1      13.103  12.539  26.552  1.00  0.00     0.005 C 
ATOM     15  C   UNL     1      14.445  12.848  27.226  1.00  0.00    -0.001 C 
ATOM     16  C   UNL     1      13.630  14.209  29.235  1.00  0.00     0.007 C 
ATOM     17  C   UNL     1      15.471  12.433  29.541  1.00  0.00     0.012 C 
ATOM     18  C   UNL     1      15.124  14.131  26.657  1.00  0.00     0.000 C 
ATOM     19  C   UNL     1      14.428  15.419  28.721  1.00  0.00     0.005 C 
ATOM     20  C   UNL     1      14.478  15.444  27.170  1.00  0.00     0.003 C 
ATOM     21  C   UNL     1      16.639  14.136  26.935  1.00  0.00     0.031 C 
ATOM     22  C   UNL     1      15.159  16.725  26.514  1.00  0.00    -0.008 C 
ATOM     23  C   UNL     1      17.297  15.367  26.398  1.00  0.00    -0.027 C 
ATOM     24  C   UNL     1      16.671  16.558  26.286  1.00  0.00    -0.065 C 
ATOM     25  C   UNL     1      14.524  16.962  25.103  1.00  0.00     0.014 C 
ATOM     26  C   UNL     1      14.899  17.985  27.389  1.00  0.00     0.016 C 
ATOM     27  C   UNL     1      17.385  17.666  25.539  1.00  0.00     0.063 C 
ATOM     28  C   UNL     1      15.226  18.055  24.264  1.00  0.00     0.033 C 
ATOM     29  C   UNL     1      16.749  17.835  24.152  1.00  0.00     0.118 C 
BRANCH  29  30
ATOM     30  O   UNL     1      17.023  16.700  23.365  1.00  0.00    -0.393 OA
ATOM     31  H   UNL     1      16.149  16.313  23.104  1.00  0.00     0.210 HD
ENDBRANCH  29  30
ENDBRANCH   1  11
TORSDOF 6
ENDMDL
MODEL 4
REMARK VINA RESULT:    -6.456      0.873      1.533
REMARK INTER + INTRA:          -9.859
REMARK INTER:                 -10.073
REMARK INTRA:                   0.214
REMARK UNBOUND:                -1.327
REMARK SMILES CC[C@H](C=C[C@@H](C)[C@H]1CC[C@H]2[C@@H]3CC=C4C[C@@H](O)CC[C@@]4(C)[C@@H]3CC[C@@]12C)C(C)C
REMARK SMILES IDX 6 1 7 2 5 3 4 4 3 5 2 6 1 7 28 8 29 9 30 10 8 11 9 12 26 13
REMARK SMILES IDX 10 14 11 15 25 16 27 17 12 18 24 19 23 20 13 21 21 22 14 23
REMARK SMILES IDX 15 24 20 25 22 26 16 27 19 28 17 29 18 30
REMARK H PARENT 18 31
REMARK Flexibility Score: inf
ROOT
ATOM      1  C   UNL     1      13.980  14.667  26.786  1.00  0.00     0.012 C 
ATOM      2  C   UNL     1      14.545  14.438  25.371  1.00  0.00     0.012 C 
ENDROOT
BRANCH   1   3
ATOM      3  C   UNL     1      14.557  15.967  27.328  1.00  0.00    -0.028 C 
ATOM      4  C   UNL     1      15.110  16.946  26.585  1.00  0.00    -0.027 C 
BRANCH   4   5
ATOM      5  C   UNL     1      15.318  16.910  25.076  1.00  0.00     0.014 C 
BRANCH   5   6
ATOM      6  C   UNL     1      14.582  18.115  24.437  1.00  0.00     0.004 C 
ATOM      7  C   UNL     1      13.268  18.468  25.139  1.00  0.00     0.004 C 
ENDBRANCH   5   6
BRANCH   5   8
ATOM      8  C   UNL     1      16.838  16.827  24.712  1.00  0.00    -0.011 C 
ATOM      9  C   UNL     1      17.431  18.130  24.143  1.00  0.00     0.008 C 
ATOM     10  C   UNL     1      17.670  16.360  25.916  1.00  0.00     0.008 C 
ENDBRANCH   5   8
ENDBRANCH   4   5
ENDBRANCH   1   3
BRANCH   1  11
ATOM     11  C   UNL     1      14.311  13.469  27.757  1.00  0.00     0.002 C 
ATOM     12  C   UNL     1      15.692  13.637  28.424  1.00  0.00     0.005 C 
ATOM     13  C   UNL     1      13.325  13.178  28.944  1.00  0.00    -0.026 C 
ATOM     14  C   UNL     1      15.639  12.941  29.777  1.00  0.00     0.005 C 
ATOM     15  C   UNL     1      14.225  12.366  29.921  1.00  0.00    -0.001 C 
ATOM     16  C   UNL     1      12.843  14.500  29.618  1.00  0.00     0.007 C 
ATOM     17  C   UNL     1      12.111  12.314  28.468  1.00  0.00     0.012 C 
ATOM     18  C   UNL     1      13.752  12.294  31.406  1.00  0.00     0.000 C 
ATOM     19  C   UNL     1      12.283  14.323  31.040  1.00  0.00     0.005 C 
ATOM     20  C   UNL     1      13.332  13.671  31.981  1.00  0.00     0.003 C 
ATOM     21  C   UNL     1      12.616  11.270  31.585  1.00  0.00     0.031 C 
ATOM     22  C   UNL     1      12.919  13.562  33.515  1.00  0.00    -0.008 C 
ATOM     23  C   UNL     1      12.151  11.200  33.005  1.00  0.00    -0.027 C 
ATOM     24  C   UNL     1      12.200  12.246  33.857  1.00  0.00    -0.065 C 
ATOM     25  C   UNL     1      14.219  13.593  34.386  1.00  0.00     0.014 C 
ATOM     26  C   UNL     1      12.024  14.768  33.923  1.00  0.00     0.016 C 
ATOM     27  C   UNL     1      11.892  11.985  35.317  1.00  0.00     0.063 C 
ATOM     28  C   UNL     1      13.988  13.295  35.886  1.00  0.00     0.033 C 
ATOM     29  C   UNL     1      13.199  11.991  36.121  1.00  0.00     0.118 C 
BRANCH  29  30
ATOM     30  O   UNL     1      13.980  10.875  35.762  1.00  0.00    -0.393 OA
ATOM     31  H   UNL     1      14.869  11.221  35.492  1.00  0.00     0.210 HD
ENDBRANCH  29  30
ENDBRANCH   1  11
TORSDOF 6
ENDMDL
