MODEL 1
REMARK VINA RESULT:     9.540      0.000      0.000
REMARK INTER + INTRA:          24.536
REMARK INTER:                  24.041
REMARK INTRA:                   0.495
REMARK UNBOUND:                 0.495
REMARK SMILES CCCCCCCCCCCCCCCCCCCCCCCCCCCC(=O)[O-]
REMARK SMILES IDX 15 1 16 2 17 3 18 4 19 5 20 6 21 7 22 8 23 9 24 10 25 11
REMARK SMILES IDX 26 12 27 13 28 14 29 15 30 16 14 17 13 18 12 19 11 20 10 21
REMARK SMILES IDX 9 22 8 23 7 24 6 25 5 26 4 27 3 28 2 29 1 30
REMARK H PARENT
REMARK Flexibility Score: inf
ROOT
ATOM      1  C   UNL     1      12.846   3.616  23.428  1.00  0.00     0.000 C 
ENDROOT
BRANCH   1   2
ATOM      2  C   UNL     1      13.748   4.641  22.713  1.00  0.00     0.000 C 
BRANCH   2   3
ATOM      3  C   UNL     1      13.147   6.054  22.679  1.00  0.00     0.000 C 
BRANCH   3   4
ATOM      4  C   UNL     1      14.108   7.080  23.297  1.00  0.00     0.000 C 
BRANCH   4   5
ATOM      5  C   UNL     1      14.220   8.364  22.457  1.00  0.00     0.000 C 
BRANCH   5   6
ATOM      6  C   UNL     1      14.561   9.602  23.304  1.00  0.00     0.000 C 
BRANCH   6   7
ATOM      7  C   UNL     1      14.346  10.918  22.530  1.00  0.00     0.000 C 
BRANCH   7   8
ATOM      8  C   UNL     1      13.165  11.760  23.046  1.00  0.00     0.000 C 
BRANCH   8   9
ATOM      9  C   UNL     1      12.143  12.083  21.943  1.00  0.00     0.000 C 
BRANCH   9  10
ATOM     10  C   UNL     1      11.201  13.244  22.310  1.00  0.00     0.000 C 
BRANCH  10  11
ATOM     11  C   UNL     1      11.286  14.476  21.388  1.00  0.00     0.000 C 
BRANCH  11  12
ATOM     12  C   UNL     1      10.883  15.784  22.087  1.00  0.00     0.006 C 
BRANCH  12  13
ATOM     13  C   UNL     1      11.645  16.975  21.497  1.00  0.00     0.053 C 
BRANCH  13  14
ATOM     14  C   UNL     1      12.380  16.569  20.262  1.00  0.00     0.041 C 
ATOM     15  O   UNL     1      11.971  15.599  19.569  1.00  0.00    -0.550 OA
ATOM     16  O   UNL     1      13.508  17.275  19.859  1.00  0.00    -0.550 OA
ENDBRANCH  13  14
ENDBRANCH  12  13
ENDBRANCH  11  12
ENDBRANCH  10  11
ENDBRANCH   9  10
ENDBRANCH   8   9
ENDBRANCH   7   8
ENDBRANCH   6   7
ENDBRANCH   5   6
ENDBRANCH   4   5
ENDBRANCH   3   4
ENDBRANCH   2   3
ENDBRANCH   1   2
BRANCH   1  17
ATOM     17  C   UNL     1      13.544   2.753  24.497  1.00  0.00     0.000 C 
BRANCH  17  18
ATOM     18  C   UNL     1      14.573   3.535  25.329  1.00  0.00     0.000 C 
BRANCH  18  19
ATOM     19  C   UNL     1      15.606   2.615  25.996  1.00  0.00     0.000 C 
BRANCH  19  20
ATOM     20  C   UNL     1      17.005   2.730  25.369  1.00  0.00     0.000 C 
BRANCH  20  21
ATOM     21  C   UNL     1      17.678   1.361  25.181  1.00  0.00     0.000 C 
BRANCH  21  22
ATOM     22  C   UNL     1      19.069   1.467  24.534  1.00  0.00    -0.000 C 
BRANCH  22  23
ATOM     23  C   UNL     1      20.031   2.350  25.343  1.00  0.00    -0.000 C 
BRANCH  23  24
ATOM     24  C   UNL     1      21.230   1.562  25.904  1.00  0.00    -0.000 C 
BRANCH  24  25
ATOM     25  C   UNL     1      20.792   0.404  26.821  1.00  0.00    -0.000 C 
BRANCH  25  26
ATOM     26  C   UNL     1      19.486   0.702  27.589  1.00  0.00    -0.000 C 
BRANCH  26  27
ATOM     27  C   UNL     1      19.726   1.450  28.916  1.00  0.00    -0.000 C 
BRANCH  27  28
ATOM     28  C   UNL     1      18.864   2.722  29.033  1.00  0.00    -0.000 C 
BRANCH  28  29
ATOM     29  C   UNL     1      19.143   3.493  30.338  1.00  0.00    -0.003 C 
ATOM     30  C   UNL     1      18.078   4.560  30.610  1.00  0.00     0.004 C 
ENDBRANCH  28  29
ENDBRANCH  27  28
ENDBRANCH  26  27
ENDBRANCH  25  26
ENDBRANCH  24  25
ENDBRANCH  23  24
ENDBRANCH  22  23
ENDBRANCH  21  22
ENDBRANCH  20  21
ENDBRANCH  19  20
ENDBRANCH  18  19
ENDBRANCH  17  18
ENDBRANCH   1  17
TORSDOF 26
ENDMDL
MODEL 2
REMARK VINA RESULT:    10.224      4.336     13.237
REMARK INTER + INTRA:          26.258
REMARK INTER:                  26.380
REMARK INTRA:                  -0.122
REMARK UNBOUND:                 0.495
REMARK SMILES CCCCCCCCCCCCCCCCCCCCCCCCCCCC(=O)[O-]
REMARK SMILES IDX 15 1 16 2 17 3 18 4 19 5 20 6 21 7 22 8 23 9 24 10 25 11
REMARK SMILES IDX 26 12 27 13 28 14 29 15 30 16 14 17 13 18 12 19 11 20 10 21
REMARK SMILES IDX 9 22 8 23 7 24 6 25 5 26 4 27 3 28 2 29 1 30
REMARK H PARENT
REMARK Flexibility Score: inf
ROOT
ATOM      1  C   UNL     1      13.896   4.577  23.433  1.00  0.00     0.000 C 
ENDROOT
BRANCH   1   2
ATOM      2  C   UNL     1      13.016   3.324  23.602  1.00  0.00     0.000 C 
BRANCH   2   3
ATOM      3  C   UNL     1      13.326   2.537  24.885  1.00  0.00     0.000 C 
BRANCH   3   4
ATOM      4  C   UNL     1      14.518   3.148  25.635  1.00  0.00     0.000 C 
BRANCH   4   5
ATOM      5  C   UNL     1      15.793   2.298  25.510  1.00  0.00     0.000 C 
BRANCH   5   6
ATOM      6  C   UNL     1      16.979   3.086  24.925  1.00  0.00     0.000 C 
BRANCH   6   7
ATOM      7  C   UNL     1      18.317   2.711  25.594  1.00  0.00     0.000 C 
BRANCH   7   8
ATOM      8  C   UNL     1      18.846   1.322  25.196  1.00  0.00     0.000 C 
BRANCH   8   9
ATOM      9  C   UNL     1      20.097   0.915  25.992  1.00  0.00     0.000 C 
BRANCH   9  10
ATOM     10  C   UNL     1      19.813   0.665  27.484  1.00  0.00     0.000 C 
BRANCH  10  11
ATOM     11  C   UNL     1      19.568   1.931  28.328  1.00  0.00     0.000 C 
BRANCH  11  12
ATOM     12  C   UNL     1      19.449   1.642  29.833  1.00  0.00     0.006 C 
BRANCH  12  13
ATOM     13  C   UNL     1      19.405   2.946  30.637  1.00  0.00     0.053 C 
BRANCH  13  14
ATOM     14  C   UNL     1      18.320   3.839  30.130  1.00  0.00     0.041 C 
ATOM     15  O   UNL     1      18.037   3.862  28.902  1.00  0.00    -0.550 OA
ATOM     16  O   UNL     1      17.604   4.636  31.016  1.00  0.00    -0.550 OA
ENDBRANCH  13  14
ENDBRANCH  12  13
ENDBRANCH  11  12
ENDBRANCH  10  11
ENDBRANCH   9  10
ENDBRANCH   8   9
ENDBRANCH   7   8
ENDBRANCH   6   7
ENDBRANCH   5   6
ENDBRANCH   4   5
ENDBRANCH   3   4
ENDBRANCH   2   3
ENDBRANCH   1   2
BRANCH   1  17
ATOM     17  C   UNL     1      13.172   5.828  22.899  1.00  0.00     0.000 C 
BRANCH  17  18
ATOM     18  C   UNL     1      13.718   7.140  23.485  1.00  0.00     0.000 C 
BRANCH  18  19
ATOM     19  C   UNL     1      13.898   8.228  22.416  1.00  0.00     0.000 C 
BRANCH  19  20
ATOM     20  C   UNL     1      14.917   9.306  22.822  1.00  0.00     0.000 C 
BRANCH  20  21
ATOM     21  C   UNL     1      14.264  10.474  23.578  1.00  0.00     0.000 C 
BRANCH  21  22
ATOM     22  C   UNL     1      13.686  11.542  22.634  1.00  0.00    -0.000 C 
BRANCH  22  23
ATOM     23  C   UNL     1      12.207  11.296  22.299  1.00  0.00    -0.000 C 
BRANCH  23  24
ATOM     24  C   UNL     1      11.498  12.562  21.778  1.00  0.00    -0.000 C 
BRANCH  24  25
ATOM     25  C   UNL     1      11.283  13.609  22.887  1.00  0.00    -0.000 C 
BRANCH  25  26
ATOM     26  C   UNL     1      10.875  14.994  22.340  1.00  0.00    -0.000 C 
BRANCH  26  27
ATOM     27  C   UNL     1      11.201  15.169  20.843  1.00  0.00    -0.000 C 
BRANCH  27  28
ATOM     28  C   UNL     1      11.423  16.646  20.463  1.00  0.00    -0.000 C 
BRANCH  28  29
ATOM     29  C   UNL     1      12.865  16.911  19.988  1.00  0.00    -0.003 C 
ATOM     30  C   UNL     1      13.527  18.046  20.777  1.00  0.00     0.004 C 
ENDBRANCH  28  29
ENDBRANCH  27  28
ENDBRANCH  26  27
ENDBRANCH  25  26
ENDBRANCH  24  25
ENDBRANCH  23  24
ENDBRANCH  22  23
ENDBRANCH  21  22
ENDBRANCH  20  21
ENDBRANCH  19  20
ENDBRANCH  18  19
ENDBRANCH  17  18
ENDBRANCH   1  17
TORSDOF 26
ENDMDL
MODEL 3
REMARK VINA RESULT:    10.364      4.470     12.892
REMARK INTER + INTRA:          26.611
REMARK INTER:                  27.386
REMARK INTRA:                  -0.775
REMARK UNBOUND:                 0.495
REMARK SMILES CCCCCCCCCCCCCCCCCCCCCCCCCCCC(=O)[O-]
REMARK SMILES IDX 15 1 16 2 17 3 18 4 19 5 20 6 21 7 22 8 23 9 24 10 25 11
REMARK SMILES IDX 26 12 27 13 28 14 29 15 30 16 14 17 13 18 12 19 11 20 10 21
REMARK SMILES IDX 9 22 8 23 7 24 6 25 5 26 4 27 3 28 2 29 1 30
REMARK H PARENT
REMARK Flexibility Score: inf
ROOT
ATOM      1  C   UNL     1      13.153   2.628  24.175  1.00  0.00     0.000 C 
ENDROOT
BRANCH   1   2
ATOM      2  C   UNL     1      13.882   2.096  25.425  1.00  0.00     0.000 C 
BRANCH   2   3
ATOM      3  C   UNL     1      14.991   3.036  25.922  1.00  0.00     0.000 C 
BRANCH   3   4
ATOM      4  C   UNL     1      16.237   2.944  25.029  1.00  0.00     0.000 C 
BRANCH   4   5
ATOM      5  C   UNL     1      17.511   2.620  25.826  1.00  0.00     0.000 C 
BRANCH   5   6
ATOM      6  C   UNL     1      18.099   1.242  25.475  1.00  0.00     0.000 C 
BRANCH   6   7
ATOM      7  C   UNL     1      19.368   1.351  24.605  1.00  0.00     0.000 C 
BRANCH   7   8
ATOM      8  C   UNL     1      20.623   1.783  25.383  1.00  0.00     0.000 C 
BRANCH   8   9
ATOM      9  C   UNL     1      21.177   0.664  26.280  1.00  0.00     0.000 C 
BRANCH   9  10
ATOM     10  C   UNL     1      21.045   0.968  27.784  1.00  0.00     0.000 C 
BRANCH  10  11
ATOM     11  C   UNL     1      19.614   0.880  28.349  1.00  0.00     0.000 C 
BRANCH  11  12
ATOM     12  C   UNL     1      19.034   2.247  28.743  1.00  0.00     0.006 C 
BRANCH  12  13
ATOM     13  C   UNL     1      19.363   2.580  30.202  1.00  0.00     0.053 C 
BRANCH  13  14
ATOM     14  C   UNL     1      18.881   3.950  30.550  1.00  0.00     0.041 C 
ATOM     15  O   UNL     1      19.695   4.832  30.933  1.00  0.00    -0.550 OA
ATOM     16  O   UNL     1      17.531   4.264  30.432  1.00  0.00    -0.550 OA
ENDBRANCH  13  14
ENDBRANCH  12  13
ENDBRANCH  11  12
ENDBRANCH  10  11
ENDBRANCH   9  10
ENDBRANCH   8   9
ENDBRANCH   7   8
ENDBRANCH   6   7
ENDBRANCH   5   6
ENDBRANCH   4   5
ENDBRANCH   3   4
ENDBRANCH   2   3
ENDBRANCH   1   2
BRANCH   1  17
ATOM     17  C   UNL     1      13.942   3.646  23.331  1.00  0.00     0.000 C 
BRANCH  17  18
ATOM     18  C   UNL     1      13.053   4.734  22.708  1.00  0.00     0.000 C 
BRANCH  18  19
ATOM     19  C   UNL     1      13.181   6.081  23.435  1.00  0.00     0.000 C 
BRANCH  19  20
ATOM     20  C   UNL     1      13.802   7.181  22.556  1.00  0.00     0.000 C 
BRANCH  20  21
ATOM     21  C   UNL     1      14.042   8.485  23.332  1.00  0.00     0.000 C 
BRANCH  21  22
ATOM     22  C   UNL     1      14.649   9.594  22.456  1.00  0.00    -0.000 C 
BRANCH  22  23
ATOM     23  C   UNL     1      14.411  10.999  23.030  1.00  0.00    -0.000 C 
BRANCH  23  24
ATOM     24  C   UNL     1      13.300  11.763  22.285  1.00  0.00    -0.000 C 
BRANCH  24  25
ATOM     25  C   UNL     1      12.404  12.573  23.242  1.00  0.00    -0.000 C 
BRANCH  25  26
ATOM     26  C   UNL     1      11.041  12.949  22.622  1.00  0.00    -0.000 C 
BRANCH  26  27
ATOM     27  C   UNL     1      11.166  13.943  21.450  1.00  0.00    -0.000 C 
BRANCH  27  28
ATOM     28  C   UNL     1      10.910  15.398  21.889  1.00  0.00    -0.000 C 
BRANCH  28  29
ATOM     29  C   UNL     1      11.601  16.413  20.960  1.00  0.00    -0.003 C 
ATOM     30  C   UNL     1      12.565  15.731  19.983  1.00  0.00     0.004 C 
ENDBRANCH  28  29
ENDBRANCH  27  28
ENDBRANCH  26  27
ENDBRANCH  25  26
ENDBRANCH  24  25
ENDBRANCH  23  24
ENDBRANCH  22  23
ENDBRANCH  21  22
ENDBRANCH  20  21
ENDBRANCH  19  20
ENDBRANCH  18  19
ENDBRANCH  17  18
ENDBRANCH   1  17
TORSDOF 26
ENDMDL
MODEL 4
REMARK VINA RESULT:    10.428      1.076      2.904
REMARK INTER + INTRA:          26.772
REMARK INTER:                  28.498
REMARK INTRA:                  -1.726
REMARK UNBOUND:                 0.495
REMARK SMILES CCCCCCCCCCCCCCCCCCCCCCCCCCCC(=O)[O-]
REMARK SMILES IDX 15 1 16 2 17 3 18 4 19 5 20 6 21 7 22 8 23 9 24 10 25 11
REMARK SMILES IDX 26 12 27 13 28 14 29 15 30 16 14 17 13 18 12 19 11 20 10 21
REMARK SMILES IDX 9 22 8 23 7 24 6 25 5 26 4 27 3 28 2 29 1 30
REMARK H PARENT
REMARK Flexibility Score: inf
ROOT
ATOM      1  C   UNL     1      13.526   6.650  22.825  1.00  0.00     0.000 C 
ENDROOT
BRANCH   1   2
ATOM      2  C   UNL     1      14.065   7.817  21.975  1.00  0.00     0.000 C 
BRANCH   2   3
ATOM      3  C   UNL     1      15.050   8.716  22.739  1.00  0.00     0.000 C 
BRANCH   3   4
ATOM      4  C   UNL     1      14.306   9.735  23.614  1.00  0.00     0.000 C 
BRANCH   4   5
ATOM      5  C   UNL     1      14.182  11.112  22.940  1.00  0.00     0.000 C 
BRANCH   5   6
ATOM      6  C   UNL     1      12.854  11.285  22.181  1.00  0.00     0.000 C 
BRANCH   6   7
ATOM      7  C   UNL     1      12.077  12.536  22.640  1.00  0.00     0.000 C 
BRANCH   7   8
ATOM      8  C   UNL     1      10.908  12.918  21.715  1.00  0.00     0.000 C 
BRANCH   8   9
ATOM      9  C   UNL     1      10.925  14.405  21.325  1.00  0.00     0.000 C 
BRANCH   9  10
ATOM     10  C   UNL     1      10.878  15.352  22.539  1.00  0.00     0.000 C 
BRANCH  10  11
ATOM     11  C   UNL     1      11.233  16.821  22.242  1.00  0.00     0.000 C 
BRANCH  11  12
ATOM     12  C   UNL     1      11.613  17.068  20.773  1.00  0.00     0.006 C 
BRANCH  12  13
ATOM     13  C   UNL     1      12.837  17.984  20.673  1.00  0.00     0.053 C 
BRANCH  13  14
ATOM     14  C   UNL     1      13.608  17.695  19.426  1.00  0.00     0.041 C 
ATOM     15  O   UNL     1      13.007  17.369  18.368  1.00  0.00    -0.550 OA
ATOM     16  O   UNL     1      14.994  17.805  19.425  1.00  0.00    -0.550 OA
ENDBRANCH  13  14
ENDBRANCH  12  13
ENDBRANCH  11  12
ENDBRANCH  10  11
ENDBRANCH   9  10
ENDBRANCH   8   9
ENDBRANCH   7   8
ENDBRANCH   6   7
ENDBRANCH   5   6
ENDBRANCH   4   5
ENDBRANCH   3   4
ENDBRANCH   2   3
ENDBRANCH   1   2
BRANCH   1  17
ATOM     17  C   UNL     1      14.384   5.371  22.814  1.00  0.00     0.000 C 
BRANCH  17  18
ATOM     18  C   UNL     1      13.555   4.088  22.634  1.00  0.00     0.000 C 
BRANCH  18  19
ATOM     19  C   UNL     1      12.766   3.721  23.899  1.00  0.00     0.000 C 
BRANCH  19  20
ATOM     20  C   UNL     1      13.008   2.273  24.358  1.00  0.00     0.000 C 
BRANCH  20  21
ATOM     21  C   UNL     1      13.743   2.201  25.706  1.00  0.00     0.000 C 
BRANCH  21  22
ATOM     22  C   UNL     1      14.998   3.089  25.745  1.00  0.00    -0.000 C 
BRANCH  22  23
ATOM     23  C   UNL     1      16.294   2.288  25.544  1.00  0.00    -0.000 C 
BRANCH  23  24
ATOM     24  C   UNL     1      17.515   3.192  25.284  1.00  0.00    -0.000 C 
BRANCH  24  25
ATOM     25  C   UNL     1      18.748   2.391  24.823  1.00  0.00    -0.000 C 
BRANCH  25  26
ATOM     26  C   UNL     1      19.023   1.148  25.697  1.00  0.00    -0.000 C 
BRANCH  26  27
ATOM     27  C   UNL     1      19.794   1.480  26.990  1.00  0.00    -0.000 C 
BRANCH  27  28
ATOM     28  C   UNL     1      18.965   1.185  28.255  1.00  0.00    -0.000 C 
BRANCH  28  29
ATOM     29  C   UNL     1      19.385   2.073  29.442  1.00  0.00    -0.003 C 
ATOM     30  C   UNL     1      18.693   3.439  29.407  1.00  0.00     0.004 C 
ENDBRANCH  28  29
ENDBRANCH  27  28
ENDBRANCH  26  27
ENDBRANCH  25  26
ENDBRANCH  24  25
ENDBRANCH  23  24
ENDBRANCH  22  23
ENDBRANCH  21  22
ENDBRANCH  20  21
ENDBRANCH  19  20
ENDBRANCH  18  19
ENDBRANCH  17  18
ENDBRANCH   1  17
TORSDOF 26
ENDMDL
MODEL 5
REMARK VINA RESULT:    10.690      1.956      3.082
REMARK INTER + INTRA:          27.432
REMARK INTER:                  28.100
REMARK INTRA:                  -0.667
REMARK UNBOUND:                 0.495
REMARK SMILES CCCCCCCCCCCCCCCCCCCCCCCCCCCC(=O)[O-]
REMARK SMILES IDX 15 1 16 2 17 3 18 4 19 5 20 6 21 7 22 8 23 9 24 10 25 11
REMARK SMILES IDX 26 12 27 13 28 14 29 15 30 16 14 17 13 18 12 19 11 20 10 21
REMARK SMILES IDX 9 22 8 23 7 24 6 25 5 26 4 27 3 28 2 29 1 30
REMARK H PARENT
REMARK Flexibility Score: inf
ROOT
ATOM      1  C   UNL     1      13.662   6.397  22.772  1.00  0.00     0.000 C 
ENDROOT
BRANCH   1   2
ATOM      2  C   UNL     1      14.214   7.355  21.699  1.00  0.00     0.000 C 
BRANCH   2   3
ATOM      3  C   UNL     1      14.695   8.695  22.276  1.00  0.00     0.000 C 
BRANCH   3   4
ATOM      4  C   UNL     1      13.530   9.685  22.425  1.00  0.00     0.000 C 
BRANCH   4   5
ATOM      5  C   UNL     1      14.007  11.126  22.668  1.00  0.00     0.000 C 
BRANCH   5   6
ATOM      6  C   UNL     1      12.976  11.974  23.433  1.00  0.00     0.000 C 
BRANCH   6   7
ATOM      7  C   UNL     1      11.719  12.269  22.591  1.00  0.00     0.000 C 
BRANCH   7   8
ATOM      8  C   UNL     1      11.904  13.407  21.572  1.00  0.00     0.000 C 
BRANCH   8   9
ATOM      9  C   UNL     1      11.003  14.618  21.867  1.00  0.00     0.000 C 
BRANCH   9  10
ATOM     10  C   UNL     1      11.616  15.956  21.415  1.00  0.00     0.000 C 
BRANCH  10  11
ATOM     11  C   UNL     1      10.931  17.216  21.977  1.00  0.00     0.000 C 
BRANCH  11  12
ATOM     12  C   UNL     1      11.806  17.986  22.979  1.00  0.00     0.006 C 
BRANCH  12  13
ATOM     13  C   UNL     1      11.146  18.027  24.361  1.00  0.00     0.053 C 
BRANCH  13  14
ATOM     14  C   UNL     1      11.826  17.079  25.295  1.00  0.00     0.041 C 
ATOM     15  O   UNL     1      13.053  17.208  25.551  1.00  0.00    -0.550 OA
ATOM     16  O   UNL     1      11.099  16.060  25.902  1.00  0.00    -0.550 OA
ENDBRANCH  13  14
ENDBRANCH  12  13
ENDBRANCH  11  12
ENDBRANCH  10  11
ENDBRANCH   9  10
ENDBRANCH   8   9
ENDBRANCH   7   8
ENDBRANCH   6   7
ENDBRANCH   5   6
ENDBRANCH   4   5
ENDBRANCH   3   4
ENDBRANCH   2   3
ENDBRANCH   1   2
BRANCH   1  17
ATOM     17  C   UNL     1      14.041   4.914  22.593  1.00  0.00     0.000 C 
BRANCH  17  18
ATOM     18  C   UNL     1      12.869   3.954  22.857  1.00  0.00     0.000 C 
BRANCH  18  19
ATOM     19  C   UNL     1      13.150   2.997  24.025  1.00  0.00     0.000 C 
BRANCH  19  20
ATOM     20  C   UNL     1      14.133   3.578  25.054  1.00  0.00     0.000 C 
BRANCH  20  21
ATOM     21  C   UNL     1      15.116   2.522  25.586  1.00  0.00     0.000 C 
BRANCH  21  22
ATOM     22  C   UNL     1      16.535   2.694  25.017  1.00  0.00    -0.000 C 
BRANCH  22  23
ATOM     23  C   UNL     1      17.604   2.003  25.878  1.00  0.00    -0.000 C 
BRANCH  23  24
ATOM     24  C   UNL     1      18.997   2.017  25.219  1.00  0.00    -0.000 C 
BRANCH  24  25
ATOM     25  C   UNL     1      20.125   1.733  26.230  1.00  0.00    -0.000 C 
BRANCH  25  26
ATOM     26  C   UNL     1      19.764   0.626  27.244  1.00  0.00    -0.000 C 
BRANCH  26  27
ATOM     27  C   UNL     1      19.215   1.183  28.573  1.00  0.00    -0.000 C 
BRANCH  27  28
ATOM     28  C   UNL     1      19.120   2.721  28.566  1.00  0.00    -0.000 C 
BRANCH  28  29
ATOM     29  C   UNL     1      19.462   3.329  29.939  1.00  0.00    -0.003 C 
ATOM     30  C   UNL     1      18.203   3.700  30.731  1.00  0.00     0.004 C 
ENDBRANCH  28  29
ENDBRANCH  27  28
ENDBRANCH  26  27
ENDBRANCH  25  26
ENDBRANCH  24  25
ENDBRANCH  23  24
ENDBRANCH  22  23
ENDBRANCH  21  22
ENDBRANCH  20  21
ENDBRANCH  19  20
ENDBRANCH  18  19
ENDBRANCH  17  18
ENDBRANCH   1  17
TORSDOF 26
ENDMDL
MODEL 6
REMARK VINA RESULT:    11.803      4.721     12.568
REMARK INTER + INTRA:          30.237
REMARK INTER:                  31.796
REMARK INTRA:                  -1.559
REMARK UNBOUND:                 0.495
REMARK SMILES CCCCCCCCCCCCCCCCCCCCCCCCCCCC(=O)[O-]
REMARK SMILES IDX 15 1 16 2 17 3 18 4 19 5 20 6 21 7 22 8 23 9 24 10 25 11
REMARK SMILES IDX 26 12 27 13 28 14 29 15 30 16 14 17 13 18 12 19 11 20 10 21
REMARK SMILES IDX 9 22 8 23 7 24 6 25 5 26 4 27 3 28 2 29 1 30
REMARK H PARENT
REMARK Flexibility Score: inf
ROOT
ATOM      1  C   UNL     1      13.480   2.509  24.552  1.00  0.00     0.000 C 
ENDROOT
BRANCH   1   2
ATOM      2  C   UNL     1      14.394   2.787  25.761  1.00  0.00     0.000 C 
BRANCH   2   3
ATOM      3  C   UNL     1      15.872   2.466  25.487  1.00  0.00     0.000 C 
BRANCH   3   4
ATOM      4  C   UNL     1      16.793   3.535  26.091  1.00  0.00     0.000 C 
BRANCH   4   5
ATOM      5  C   UNL     1      16.018   4.601  26.885  1.00  0.00     0.000 C 
BRANCH   5   6
ATOM      6  C   UNL     1      15.825   4.219  28.363  1.00  0.00     0.000 C 
BRANCH   6   7
ATOM      7  C   UNL     1      16.881   4.870  29.279  1.00  0.00     0.000 C 
BRANCH   7   8
ATOM      8  C   UNL     1      17.059   4.156  30.631  1.00  0.00     0.000 C 
BRANCH   8   9
ATOM      9  C   UNL     1      18.533   4.044  31.051  1.00  0.00     0.000 C 
BRANCH   9  10
ATOM     10  C   UNL     1      19.464   3.632  29.895  1.00  0.00     0.000 C 
BRANCH  10  11
ATOM     11  C   UNL     1      19.133   2.281  29.233  1.00  0.00     0.000 C 
BRANCH  11  12
ATOM     12  C   UNL     1      19.093   2.351  27.698  1.00  0.00     0.006 C 
BRANCH  12  13
ATOM     13  C   UNL     1      19.182   0.950  27.085  1.00  0.00     0.053 C 
BRANCH  13  14
ATOM     14  C   UNL     1      19.921   0.991  25.787  1.00  0.00     0.041 C 
ATOM     15  O   UNL     1      19.394   1.518  24.772  1.00  0.00    -0.550 OA
ATOM     16  O   UNL     1      21.205   0.463  25.701  1.00  0.00    -0.550 OA
ENDBRANCH  13  14
ENDBRANCH  12  13
ENDBRANCH  11  12
ENDBRANCH  10  11
ENDBRANCH   9  10
ENDBRANCH   8   9
ENDBRANCH   7   8
ENDBRANCH   6   7
ENDBRANCH   5   6
ENDBRANCH   4   5
ENDBRANCH   3   4
ENDBRANCH   2   3
ENDBRANCH   1   2
BRANCH   1  17
ATOM     17  C   UNL     1      13.875   3.224  23.246  1.00  0.00     0.000 C 
BRANCH  17  18
ATOM     18  C   UNL     1      13.018   4.467  22.954  1.00  0.00     0.000 C 
BRANCH  18  19
ATOM     19  C   UNL     1      13.864   5.742  22.820  1.00  0.00     0.000 C 
BRANCH  19  20
ATOM     20  C   UNL     1      13.400   6.871  23.755  1.00  0.00     0.000 C 
BRANCH  20  21
ATOM     21  C   UNL     1      14.357   8.074  23.740  1.00  0.00     0.000 C 
BRANCH  21  22
ATOM     22  C   UNL     1      13.913   9.173  22.760  1.00  0.00    -0.000 C 
BRANCH  22  23
ATOM     23  C   UNL     1      14.711  10.475  22.932  1.00  0.00    -0.000 C 
BRANCH  23  24
ATOM     24  C   UNL     1      13.804  11.713  23.072  1.00  0.00    -0.000 C 
BRANCH  24  25
ATOM     25  C   UNL     1      12.551  11.625  22.179  1.00  0.00    -0.000 C 
BRANCH  25  26
ATOM     26  C   UNL     1      11.413  12.560  22.639  1.00  0.00    -0.000 C 
BRANCH  26  27
ATOM     27  C   UNL     1      10.941  13.524  21.532  1.00  0.00    -0.000 C 
BRANCH  27  28
ATOM     28  C   UNL     1      11.406  14.972  21.782  1.00  0.00    -0.000 C 
BRANCH  28  29
ATOM     29  C   UNL     1      11.709  15.717  20.468  1.00  0.00    -0.003 C 
ATOM     30  C   UNL     1      11.615  17.237  20.639  1.00  0.00     0.004 C 
ENDBRANCH  28  29
ENDBRANCH  27  28
ENDBRANCH  26  27
ENDBRANCH  25  26
ENDBRANCH  24  25
ENDBRANCH  23  24
ENDBRANCH  22  23
ENDBRANCH  21  22
ENDBRANCH  20  21
ENDBRANCH  19  20
ENDBRANCH  18  19
ENDBRANCH  17  18
ENDBRANCH   1  17
TORSDOF 26
ENDMDL
MODEL 7
REMARK VINA RESULT:    12.081      4.844     13.450
REMARK INTER + INTRA:          30.938
REMARK INTER:                  32.351
REMARK INTRA:                  -1.414
REMARK UNBOUND:                 0.495
REMARK SMILES CCCCCCCCCCCCCCCCCCCCCCCCCCCC(=O)[O-]
REMARK SMILES IDX 15 1 16 2 17 3 18 4 19 5 20 6 21 7 22 8 23 9 24 10 25 11
REMARK SMILES IDX 26 12 27 13 28 14 29 15 30 16 14 17 13 18 12 19 11 20 10 21
REMARK SMILES IDX 9 22 8 23 7 24 6 25 5 26 4 27 3 28 2 29 1 30
REMARK H PARENT
REMARK Flexibility Score: inf
ROOT
ATOM      1  C   UNL     1      14.020   6.373  23.342  1.00  0.00     0.000 C 
ENDROOT
BRANCH   1   2
ATOM      2  C   UNL     1      14.080   5.161  22.392  1.00  0.00     0.000 C 
BRANCH   2   3
ATOM      3  C   UNL     1      13.416   3.904  22.975  1.00  0.00     0.000 C 
BRANCH   3   4
ATOM      4  C   UNL     1      13.274   4.009  24.501  1.00  0.00     0.000 C 
BRANCH   4   5
ATOM      5  C   UNL     1      13.641   2.699  25.219  1.00  0.00     0.000 C 
BRANCH   5   6
ATOM      6  C   UNL     1      15.143   2.597  25.539  1.00  0.00     0.000 C 
BRANCH   6   7
ATOM      7  C   UNL     1      15.681   1.162  25.372  1.00  0.00     0.000 C 
BRANCH   7   8
ATOM      8  C   UNL     1      17.176   1.094  25.014  1.00  0.00     0.000 C 
BRANCH   8   9
ATOM      9  C   UNL     1      17.962   2.313  25.524  1.00  0.00     0.000 C 
BRANCH   9  10
ATOM     10  C   UNL     1      19.428   1.989  25.871  1.00  0.00     0.000 C 
BRANCH  10  11
ATOM     11  C   UNL     1      19.670   1.500  27.312  1.00  0.00     0.000 C 
BRANCH  11  12
ATOM     12  C   UNL     1      18.791   2.216  28.350  1.00  0.00     0.006 C 
BRANCH  12  13
ATOM     13  C   UNL     1      19.508   2.308  29.701  1.00  0.00     0.053 C 
BRANCH  13  14
ATOM     14  C   UNL     1      19.038   3.503  30.464  1.00  0.00     0.041 C 
ATOM     15  O   UNL     1      19.871   4.270  31.018  1.00  0.00    -0.550 OA
ATOM     16  O   UNL     1      17.679   3.786  30.547  1.00  0.00    -0.550 OA
ENDBRANCH  13  14
ENDBRANCH  12  13
ENDBRANCH  11  12
ENDBRANCH  10  11
ENDBRANCH   9  10
ENDBRANCH   8   9
ENDBRANCH   7   8
ENDBRANCH   6   7
ENDBRANCH   5   6
ENDBRANCH   4   5
ENDBRANCH   3   4
ENDBRANCH   2   3
ENDBRANCH   1   2
BRANCH   1  17
ATOM     17  C   UNL     1      13.529   7.688  22.707  1.00  0.00     0.000 C 
BRANCH  17  18
ATOM     18  C   UNL     1      13.907   8.934  23.526  1.00  0.00     0.000 C 
BRANCH  18  19
ATOM     19  C   UNL     1      14.274  10.129  22.635  1.00  0.00     0.000 C 
BRANCH  19  20
ATOM     20  C   UNL     1      13.573  11.431  23.059  1.00  0.00     0.000 C 
BRANCH  20  21
ATOM     21  C   UNL     1      12.287  11.691  22.259  1.00  0.00     0.000 C 
BRANCH  21  22
ATOM     22  C   UNL     1      11.915  13.182  22.201  1.00  0.00    -0.000 C 
BRANCH  22  23
ATOM     23  C   UNL     1      11.174  13.557  20.908  1.00  0.00    -0.000 C 
BRANCH  23  24
ATOM     24  C   UNL     1      10.888  15.068  20.805  1.00  0.00    -0.000 C 
BRANCH  24  25
ATOM     25  C   UNL     1      11.774  15.897  21.755  1.00  0.00    -0.000 C 
BRANCH  25  26
ATOM     26  C   UNL     1      10.975  16.575  22.889  1.00  0.00    -0.000 C 
BRANCH  26  27
ATOM     27  C   UNL     1      11.646  16.427  24.269  1.00  0.00    -0.000 C 
BRANCH  27  28
ATOM     28  C   UNL     1      11.607  17.737  25.080  1.00  0.00    -0.000 C 
BRANCH  28  29
ATOM     29  C   UNL     1      12.037  17.525  26.544  1.00  0.00    -0.003 C 
ATOM     30  C   UNL     1      11.203  16.441  27.235  1.00  0.00     0.004 C 
ENDBRANCH  28  29
ENDBRANCH  27  28
ENDBRANCH  26  27
ENDBRANCH  25  26
ENDBRANCH  24  25
ENDBRANCH  23  24
ENDBRANCH  22  23
ENDBRANCH  21  22
ENDBRANCH  20  21
ENDBRANCH  19  20
ENDBRANCH  18  19
ENDBRANCH  17  18
ENDBRANCH   1  17
TORSDOF 26
ENDMDL
MODEL 8
REMARK VINA RESULT:    12.196      4.569     12.829
REMARK INTER + INTRA:          31.228
REMARK INTER:                  32.320
REMARK INTRA:                  -1.091
REMARK UNBOUND:                 0.495
REMARK SMILES CCCCCCCCCCCCCCCCCCCCCCCCCCCC(=O)[O-]
REMARK SMILES IDX 15 1 16 2 17 3 18 4 19 5 20 6 21 7 22 8 23 9 24 10 25 11
REMARK SMILES IDX 26 12 27 13 28 14 29 15 30 16 14 17 13 18 12 19 11 20 10 21
REMARK SMILES IDX 9 22 8 23 7 24 6 25 5 26 4 27 3 28 2 29 1 30
REMARK H PARENT
REMARK Flexibility Score: inf
ROOT
ATOM      1  C   UNL     1      13.293   3.231  23.159  1.00  0.00     0.000 C 
ENDROOT
BRANCH   1   2
ATOM      2  C   UNL     1      12.902   2.417  24.408  1.00  0.00     0.000 C 
BRANCH   2   3
ATOM      3  C   UNL     1      14.115   1.928  25.213  1.00  0.00     0.000 C 
BRANCH   3   4
ATOM      4  C   UNL     1      14.663   3.039  26.120  1.00  0.00     0.000 C 
BRANCH   4   5
ATOM      5  C   UNL     1      16.135   3.371  25.822  1.00  0.00     0.000 C 
BRANCH   5   6
ATOM      6  C   UNL     1      17.034   2.123  25.795  1.00  0.00     0.000 C 
BRANCH   6   7
ATOM      7  C   UNL     1      18.294   2.327  24.930  1.00  0.00     0.000 C 
BRANCH   7   8
ATOM      8  C   UNL     1      19.341   1.208  25.080  1.00  0.00     0.000 C 
BRANCH   8   9
ATOM      9  C   UNL     1      20.306   1.455  26.251  1.00  0.00     0.000 C 
BRANCH   9  10
ATOM     10  C   UNL     1      19.947   0.649  27.513  1.00  0.00     0.000 C 
BRANCH  10  11
ATOM     11  C   UNL     1      20.562   1.173  28.825  1.00  0.00     0.000 C 
BRANCH  11  12
ATOM     12  C   UNL     1      19.529   1.810  29.767  1.00  0.00     0.006 C 
BRANCH  12  13
ATOM     13  C   UNL     1      18.979   3.111  29.174  1.00  0.00     0.053 C 
BRANCH  13  14
ATOM     14  C   UNL     1      18.235   3.887  30.212  1.00  0.00     0.041 C 
ATOM     15  O   UNL     1      17.463   4.824  29.873  1.00  0.00    -0.550 OA
ATOM     16  O   UNL     1      18.376   3.564  31.557  1.00  0.00    -0.550 OA
ENDBRANCH  13  14
ENDBRANCH  12  13
ENDBRANCH  11  12
ENDBRANCH  10  11
ENDBRANCH   9  10
ENDBRANCH   8   9
ENDBRANCH   7   8
ENDBRANCH   6   7
ENDBRANCH   5   6
ENDBRANCH   4   5
ENDBRANCH   3   4
ENDBRANCH   2   3
ENDBRANCH   1   2
BRANCH   1  17
ATOM     17  C   UNL     1      14.043   4.548  23.435  1.00  0.00     0.000 C 
BRANCH  17  18
ATOM     18  C   UNL     1      13.521   5.728  22.600  1.00  0.00     0.000 C 
BRANCH  18  19
ATOM     19  C   UNL     1      13.410   7.021  23.421  1.00  0.00     0.000 C 
BRANCH  19  20
ATOM     20  C   UNL     1      13.721   8.283  22.598  1.00  0.00     0.000 C 
BRANCH  20  21
ATOM     21  C   UNL     1      14.497   9.334  23.407  1.00  0.00     0.000 C 
BRANCH  21  22
ATOM     22  C   UNL     1      14.399  10.743  22.797  1.00  0.00    -0.000 C 
BRANCH  22  23
ATOM     23  C   UNL     1      12.980  11.080  22.314  1.00  0.00    -0.000 C 
BRANCH  23  24
ATOM     24  C   UNL     1      12.791  12.583  22.030  1.00  0.00    -0.000 C 
BRANCH  24  25
ATOM     25  C   UNL     1      11.376  13.073  22.391  1.00  0.00    -0.000 C 
BRANCH  25  26
ATOM     26  C   UNL     1      10.962  14.345  21.620  1.00  0.00    -0.000 C 
BRANCH  26  27
ATOM     27  C   UNL     1      10.909  15.600  22.513  1.00  0.00    -0.000 C 
BRANCH  27  28
ATOM     28  C   UNL     1      11.502  15.345  23.913  1.00  0.00    -0.000 C 
BRANCH  28  29
ATOM     29  C   UNL     1      11.303  16.549  24.854  1.00  0.00    -0.003 C 
ATOM     30  C   UNL     1      11.000  16.108  26.290  1.00  0.00     0.004 C 
ENDBRANCH  28  29
ENDBRANCH  27  28
ENDBRANCH  26  27
ENDBRANCH  25  26
ENDBRANCH  24  25
ENDBRANCH  23  24
ENDBRANCH  22  23
ENDBRANCH  21  22
ENDBRANCH  20  21
ENDBRANCH  19  20
ENDBRANCH  18  19
ENDBRANCH  17  18
ENDBRANCH   1  17
TORSDOF 26
ENDMDL
