MODEL 1
REMARK VINA RESULT:    -7.422      0.000      0.000
REMARK INTER + INTRA:          -8.986
REMARK INTER:                  -8.724
REMARK INTRA:                  -0.262
REMARK UNBOUND:                -0.262
REMARK SMILES O=c1c(O)c(-c2ccc(O)cc2)oc2cc(O)cc(O)c12
REMARK SMILES IDX 5 1 3 2 2 3 1 4 21 5 19 6 18 7 16 8 15 9 14 10 13 11 6 12
REMARK SMILES IDX 7 13 8 14 9 15 12 16 11 17 10 18 4 20 20 22 17 24
REMARK H PARENT 10 19 4 21 20 23 17 25
REMARK Flexibility Score: inf
ROOT
ATOM      1  C   UNL     1      19.508  24.583  41.223  1.00  0.00     0.180 A 
ATOM      2  C   UNL     1      20.268  25.758  41.355  1.00  0.00     0.208 A 
ATOM      3  C   UNL     1      19.963  26.653  42.394  1.00  0.00     0.238 A 
ATOM      4  O   UNL     1      20.611  27.728  42.475  1.00  0.00    -0.285 OA
ATOM      5  C   UNL     1      18.912  26.355  43.295  1.00  0.00     0.111 A 
ATOM      6  C   UNL     1      18.543  27.171  44.407  1.00  0.00     0.134 A 
ATOM      7  C   UNL     1      17.404  26.844  45.154  1.00  0.00     0.093 A 
ATOM      8  C   UNL     1      16.661  25.699  44.872  1.00  0.00     0.123 A 
ATOM      9  C   UNL     1      17.049  24.862  43.824  1.00  0.00     0.094 A 
ATOM     10  C   UNL     1      18.158  25.180  43.037  1.00  0.00     0.146 A 
ATOM     11  O   UNL     1      18.487  24.363  42.044  1.00  0.00    -0.452 OA
ENDROOT
BRANCH   1  12
ATOM     12  C   UNL     1      19.785  23.579  40.170  1.00  0.00     0.021 A 
ATOM     13  C   UNL     1      20.575  22.458  40.474  1.00  0.00     0.016 A 
ATOM     14  C   UNL     1      20.869  21.509  39.489  1.00  0.00     0.047 A 
ATOM     15  C   UNL     1      20.389  21.677  38.186  1.00  0.00     0.115 A 
ATOM     16  C   UNL     1      19.323  23.752  38.852  1.00  0.00     0.016 A 
ATOM     17  C   UNL     1      19.619  22.803  37.870  1.00  0.00     0.047 A 
BRANCH  15  18
ATOM     18  O   UNL     1      20.688  20.724  37.216  1.00  0.00    -0.508 OA
ATOM     19  H   UNL     1      20.128  20.629  36.376  1.00  0.00     0.293 HD
ENDBRANCH  15  18
ENDBRANCH   1  12
BRANCH   2  20
ATOM     20  O   UNL     1      21.286  26.042  40.442  1.00  0.00    -0.502 OA
ATOM     21  H   UNL     1      22.264  25.879  40.649  1.00  0.00     0.293 HD
ENDBRANCH   2  20
BRANCH   6  22
ATOM     22  O   UNL     1      19.270  28.286  44.832  1.00  0.00    -0.507 OA
ATOM     23  H   UNL     1      20.037  28.700  44.324  1.00  0.00     0.293 HD
ENDBRANCH   6  22
BRANCH   8  24
ATOM     24  O   UNL     1      15.543  25.397  45.646  1.00  0.00    -0.508 OA
ATOM     25  H   UNL     1      15.360  25.876  46.520  1.00  0.00     0.293 HD
ENDBRANCH   8  24
TORSDOF 5
ENDMDL
MODEL 2
REMARK VINA RESULT:    -6.922      1.265      2.937
REMARK INTER + INTRA:          -8.398
REMARK INTER:                  -8.099
REMARK INTRA:                  -0.299
REMARK UNBOUND:                -0.262
REMARK SMILES O=c1c(O)c(-c2ccc(O)cc2)oc2cc(O)cc(O)c12
REMARK SMILES IDX 5 1 3 2 2 3 1 4 21 5 19 6 18 7 16 8 15 9 14 10 13 11 6 12
REMARK SMILES IDX 7 13 8 14 9 15 12 16 11 17 10 18 4 20 20 22 17 24
REMARK H PARENT 10 19 4 21 20 23 17 25
REMARK Flexibility Score: inf
ROOT
ATOM      1  C   UNL     1      18.701  24.235  41.712  1.00  0.00     0.180 A 
ATOM      2  C   UNL     1      17.551  23.822  42.407  1.00  0.00     0.208 A 
ATOM      3  C   UNL     1      17.118  24.573  43.512  1.00  0.00     0.238 A 
ATOM      4  O   UNL     1      16.120  24.168  44.163  1.00  0.00    -0.285 OA
ATOM      5  C   UNL     1      17.830  25.734  43.899  1.00  0.00     0.111 A 
ATOM      6  C   UNL     1      17.457  26.591  44.978  1.00  0.00     0.134 A 
ATOM      7  C   UNL     1      18.307  27.638  45.353  1.00  0.00     0.093 A 
ATOM      8  C   UNL     1      19.482  27.900  44.648  1.00  0.00     0.123 A 
ATOM      9  C   UNL     1      19.826  27.104  43.554  1.00  0.00     0.094 A 
ATOM     10  C   UNL     1      19.016  26.029  43.179  1.00  0.00     0.146 A 
ATOM     11  O   UNL     1      19.384  25.291  42.139  1.00  0.00    -0.452 OA
ENDROOT
BRANCH   1  12
ATOM     12  C   UNL     1      19.206  23.511  40.523  1.00  0.00     0.021 A 
ATOM     13  C   UNL     1      20.217  22.547  40.676  1.00  0.00     0.016 A 
ATOM     14  C   UNL     1      20.724  21.868  39.564  1.00  0.00     0.047 A 
ATOM     15  C   UNL     1      20.238  22.153  38.284  1.00  0.00     0.115 A 
ATOM     16  C   UNL     1      18.736  23.808  39.230  1.00  0.00     0.016 A 
ATOM     17  C   UNL     1      19.245  23.128  38.120  1.00  0.00     0.047 A 
BRANCH  15  18
ATOM     18  O   UNL     1      20.751  21.468  37.186  1.00  0.00    -0.508 OA
ATOM     19  H   UNL     1      20.153  20.921  36.577  1.00  0.00     0.293 HD
ENDBRANCH  15  18
ENDBRANCH   1  12
BRANCH   2  20
ATOM     20  O   UNL     1      16.877  22.661  42.022  1.00  0.00    -0.502 OA
ATOM     21  H   UNL     1      16.716  22.422  41.051  1.00  0.00     0.293 HD
ENDBRANCH   2  20
BRANCH   6  22
ATOM     22  O   UNL     1      16.259  26.474  45.689  1.00  0.00    -0.507 OA
ATOM     23  H   UNL     1      15.729  25.621  45.787  1.00  0.00     0.293 HD
ENDBRANCH   6  22
BRANCH   8  24
ATOM     24  O   UNL     1      20.296  28.960  45.040  1.00  0.00    -0.508 OA
ATOM     25  H   UNL     1      21.245  29.053  44.697  1.00  0.00     0.293 HD
ENDBRANCH   8  24
TORSDOF 5
ENDMDL
MODEL 3
REMARK VINA RESULT:    -6.150      4.204      6.748
REMARK INTER + INTRA:          -7.490
REMARK INTER:                  -7.211
REMARK INTRA:                  -0.280
REMARK UNBOUND:                -0.262
REMARK SMILES O=c1c(O)c(-c2ccc(O)cc2)oc2cc(O)cc(O)c12
REMARK SMILES IDX 5 1 3 2 2 3 1 4 21 5 19 6 18 7 16 8 15 9 14 10 13 11 6 12
REMARK SMILES IDX 7 13 8 14 9 15 12 16 11 17 10 18 4 20 20 22 17 24
REMARK H PARENT 10 19 4 21 20 23 17 25
REMARK Flexibility Score: inf
ROOT
ATOM      1  C   UNL     1      17.259  25.242  44.115  1.00  0.00     0.180 A 
ATOM      2  C   UNL     1      16.363  25.217  43.032  1.00  0.00     0.208 A 
ATOM      3  C   UNL     1      15.701  24.017  42.724  1.00  0.00     0.238 A 
ATOM      4  O   UNL     1      14.942  23.987  41.721  1.00  0.00    -0.285 OA
ATOM      5  C   UNL     1      15.932  22.863  43.510  1.00  0.00     0.111 A 
ATOM      6  C   UNL     1      15.287  21.605  43.312  1.00  0.00     0.134 A 
ATOM      7  C   UNL     1      15.688  20.497  44.067  1.00  0.00     0.093 A 
ATOM      8  C   UNL     1      16.664  20.614  45.057  1.00  0.00     0.123 A 
ATOM      9  C   UNL     1      17.259  21.853  45.299  1.00  0.00     0.094 A 
ATOM     10  C   UNL     1      16.906  22.969  44.537  1.00  0.00     0.146 A 
ATOM     11  O   UNL     1      17.504  24.127  44.793  1.00  0.00    -0.452 OA
ENDROOT
BRANCH   1  12
ATOM     12  C   UNL     1      17.975  26.475  44.518  1.00  0.00     0.021 A 
ATOM     13  C   UNL     1      19.323  26.641  44.158  1.00  0.00     0.016 A 
ATOM     14  C   UNL     1      20.024  27.787  44.547  1.00  0.00     0.047 A 
ATOM     15  C   UNL     1      19.392  28.773  45.312  1.00  0.00     0.115 A 
ATOM     16  C   UNL     1      17.351  27.461  45.305  1.00  0.00     0.016 A 
ATOM     17  C   UNL     1      18.055  28.604  45.693  1.00  0.00     0.047 A 
BRANCH  15  18
ATOM     18  O   UNL     1      20.103  29.908  45.691  1.00  0.00    -0.508 OA
ATOM     19  H   UNL     1      20.651  30.438  45.022  1.00  0.00     0.293 HD
ENDBRANCH  15  18
ENDBRANCH   1  12
BRANCH   2  20
ATOM     20  O   UNL     1      16.167  26.362  42.256  1.00  0.00    -0.502 OA
ATOM     21  H   UNL     1      15.369  26.472  41.641  1.00  0.00     0.293 HD
ENDBRANCH   2  20
BRANCH   6  22
ATOM     22  O   UNL     1      14.235  21.401  42.413  1.00  0.00    -0.507 OA
ATOM     23  H   UNL     1      14.312  21.483  41.411  1.00  0.00     0.293 HD
ENDBRANCH   6  22
BRANCH   8  24
ATOM     24  O   UNL     1      17.028  19.493  45.799  1.00  0.00    -0.508 OA
ATOM     25  H   UNL     1      16.539  19.239  46.649  1.00  0.00     0.293 HD
ENDBRANCH   8  24
TORSDOF 5
ENDMDL
MODEL 4
REMARK VINA RESULT:    -6.075      3.082      5.515
REMARK INTER + INTRA:          -7.403
REMARK INTER:                  -7.120
REMARK INTRA:                  -0.282
REMARK UNBOUND:                -0.262
REMARK SMILES O=c1c(O)c(-c2ccc(O)cc2)oc2cc(O)cc(O)c12
REMARK SMILES IDX 5 1 3 2 2 3 1 4 21 5 19 6 18 7 16 8 15 9 14 10 13 11 6 12
REMARK SMILES IDX 7 13 8 14 9 15 12 16 11 17 10 18 4 20 20 22 17 24
REMARK H PARENT 10 19 4 21 20 23 17 25
REMARK Flexibility Score: inf
ROOT
ATOM      1  C   UNL     1      17.439  23.393  42.484  1.00  0.00     0.180 A 
ATOM      2  C   UNL     1      17.862  24.478  43.272  1.00  0.00     0.208 A 
ATOM      3  C   UNL     1      18.507  25.560  42.651  1.00  0.00     0.238 A 
ATOM      4  O   UNL     1      18.932  26.503  43.368  1.00  0.00    -0.285 OA
ATOM      5  C   UNL     1      18.709  25.550  41.249  1.00  0.00     0.111 A 
ATOM      6  C   UNL     1      19.316  26.610  40.511  1.00  0.00     0.134 A 
ATOM      7  C   UNL     1      19.581  26.437  39.147  1.00  0.00     0.093 A 
ATOM      8  C   UNL     1      19.203  25.271  38.482  1.00  0.00     0.123 A 
ATOM      9  C   UNL     1      18.555  24.252  39.182  1.00  0.00     0.094 A 
ATOM     10  C   UNL     1      18.310  24.380  40.551  1.00  0.00     0.146 A 
ATOM     11  O   UNL     1      17.700  23.384  41.183  1.00  0.00    -0.452 OA
ENDROOT
BRANCH   1  12
ATOM     12  C   UNL     1      16.729  22.229  43.062  1.00  0.00     0.021 A 
ATOM     13  C   UNL     1      17.471  21.158  43.588  1.00  0.00     0.016 A 
ATOM     14  C   UNL     1      16.821  20.039  44.118  1.00  0.00     0.047 A 
ATOM     15  C   UNL     1      15.425  19.969  44.116  1.00  0.00     0.115 A 
ATOM     16  C   UNL     1      15.325  22.144  43.044  1.00  0.00     0.016 A 
ATOM     17  C   UNL     1      14.678  21.024  43.574  1.00  0.00     0.047 A 
BRANCH  15  18
ATOM     18  O   UNL     1      14.792  18.849  44.648  1.00  0.00    -0.508 OA
ATOM     19  H   UNL     1      14.716  18.709  45.650  1.00  0.00     0.293 HD
ENDBRANCH  15  18
ENDBRANCH   1  12
BRANCH   2  20
ATOM     20  O   UNL     1      17.673  24.457  44.656  1.00  0.00    -0.502 OA
ATOM     21  H   UNL     1      17.852  25.264  45.242  1.00  0.00     0.293 HD
ENDBRANCH   2  20
BRANCH   6  22
ATOM     22  O   UNL     1      19.649  27.852  41.059  1.00  0.00    -0.507 OA
ATOM     23  H   UNL     1      20.351  27.998  41.769  1.00  0.00     0.293 HD
ENDBRANCH   6  22
BRANCH   8  24
ATOM     24  O   UNL     1      19.470  25.140  37.121  1.00  0.00    -0.508 OA
ATOM     25  H   UNL     1      20.211  24.536  36.783  1.00  0.00     0.293 HD
ENDBRANCH   8  24
TORSDOF 5
ENDMDL
MODEL 5
REMARK VINA RESULT:    -6.007      3.421      6.141
REMARK INTER + INTRA:          -7.323
REMARK INTER:                  -7.039
REMARK INTRA:                  -0.284
REMARK UNBOUND:                -0.262
REMARK SMILES O=c1c(O)c(-c2ccc(O)cc2)oc2cc(O)cc(O)c12
REMARK SMILES IDX 5 1 3 2 2 3 1 4 21 5 19 6 18 7 16 8 15 9 14 10 13 11 6 12
REMARK SMILES IDX 7 13 8 14 9 15 12 16 11 17 10 18 4 20 20 22 17 24
REMARK H PARENT 10 19 4 21 20 23 17 25
REMARK Flexibility Score: inf
ROOT
ATOM      1  C   UNL     1      17.315  24.045  42.893  1.00  0.00     0.180 A 
ATOM      2  C   UNL     1      15.978  24.216  42.491  1.00  0.00     0.208 A 
ATOM      3  C   UNL     1      15.073  23.158  42.669  1.00  0.00     0.238 A 
ATOM      4  O   UNL     1      13.892  23.298  42.258  1.00  0.00    -0.285 OA
ATOM      5  C   UNL     1      15.510  21.947  43.259  1.00  0.00     0.111 A 
ATOM      6  C   UNL     1      14.669  20.824  43.523  1.00  0.00     0.134 A 
ATOM      7  C   UNL     1      15.236  19.632  43.990  1.00  0.00     0.093 A 
ATOM      8  C   UNL     1      16.600  19.543  44.265  1.00  0.00     0.123 A 
ATOM      9  C   UNL     1      17.422  20.653  44.067  1.00  0.00     0.094 A 
ATOM     10  C   UNL     1      16.892  21.845  43.567  1.00  0.00     0.146 A 
ATOM     11  O   UNL     1      17.709  22.875  43.383  1.00  0.00    -0.452 OA
ENDROOT
BRANCH   1  12
ATOM     12  C   UNL     1      18.322  25.122  42.762  1.00  0.00     0.021 A 
ATOM     13  C   UNL     1      19.034  25.262  41.559  1.00  0.00     0.016 A 
ATOM     14  C   UNL     1      20.005  26.258  41.421  1.00  0.00     0.047 A 
ATOM     15  C   UNL     1      20.288  27.117  42.487  1.00  0.00     0.115 A 
ATOM     16  C   UNL     1      18.626  25.977  43.838  1.00  0.00     0.016 A 
ATOM     17  C   UNL     1      19.598  26.971  43.698  1.00  0.00     0.047 A 
BRANCH  15  18
ATOM     18  O   UNL     1      21.257  28.105  42.335  1.00  0.00    -0.508 OA
ATOM     19  H   UNL     1      21.892  28.107  41.544  1.00  0.00     0.293 HD
ENDBRANCH  15  18
ENDBRANCH   1  12
BRANCH   2  20
ATOM     20  O   UNL     1      15.573  25.411  41.891  1.00  0.00    -0.502 OA
ATOM     21  H   UNL     1      16.067  25.820  41.107  1.00  0.00     0.293 HD
ENDBRANCH   2  20
BRANCH   6  22
ATOM     22  O   UNL     1      13.280  20.837  43.370  1.00  0.00    -0.507 OA
ATOM     23  H   UNL     1      12.720  20.031  43.136  1.00  0.00     0.293 HD
ENDBRANCH   6  22
BRANCH   8  24
ATOM     24  O   UNL     1      17.127  18.345  44.743  1.00  0.00    -0.508 OA
ATOM     25  H   UNL     1      17.567  18.286  45.654  1.00  0.00     0.293 HD
ENDBRANCH   8  24
TORSDOF 5
ENDMDL
MODEL 6
REMARK VINA RESULT:    -6.004      2.310      6.680
REMARK INTER + INTRA:          -7.319
REMARK INTER:                  -7.250
REMARK INTRA:                  -0.069
REMARK UNBOUND:                -0.262
REMARK SMILES O=c1c(O)c(-c2ccc(O)cc2)oc2cc(O)cc(O)c12
REMARK SMILES IDX 5 1 3 2 2 3 1 4 21 5 19 6 18 7 16 8 15 9 14 10 13 11 6 12
REMARK SMILES IDX 7 13 8 14 9 15 12 16 11 17 10 18 4 20 20 22 17 24
REMARK H PARENT 10 19 4 21 20 23 17 25
REMARK Flexibility Score: inf
ROOT
ATOM      1  C   UNL     1      17.958  26.041  44.151  1.00  0.00     0.180 A 
ATOM      2  C   UNL     1      19.140  26.768  43.923  1.00  0.00     0.208 A 
ATOM      3  C   UNL     1      19.694  26.781  42.633  1.00  0.00     0.238 A 
ATOM      4  O   UNL     1      20.780  27.388  42.448  1.00  0.00    -0.285 OA
ATOM      5  C   UNL     1      19.051  26.082  41.583  1.00  0.00     0.111 A 
ATOM      6  C   UNL     1      19.502  26.060  40.229  1.00  0.00     0.134 A 
ATOM      7  C   UNL     1      18.861  25.229  39.302  1.00  0.00     0.093 A 
ATOM      8  C   UNL     1      17.748  24.471  39.662  1.00  0.00     0.123 A 
ATOM      9  C   UNL     1      17.263  24.530  40.969  1.00  0.00     0.094 A 
ATOM     10  C   UNL     1      17.902  25.322  41.926  1.00  0.00     0.146 A 
ATOM     11  O   UNL     1      17.415  25.343  43.161  1.00  0.00    -0.452 OA
ENDROOT
BRANCH   1  12
ATOM     12  C   UNL     1      17.301  26.000  45.477  1.00  0.00     0.021 A 
ATOM     13  C   UNL     1      17.002  24.759  46.063  1.00  0.00     0.016 A 
ATOM     14  C   UNL     1      16.362  24.697  47.305  1.00  0.00     0.047 A 
ATOM     15  C   UNL     1      15.999  25.873  47.968  1.00  0.00     0.115 A 
ATOM     16  C   UNL     1      16.915  27.180  46.141  1.00  0.00     0.016 A 
ATOM     17  C   UNL     1      16.274  27.114  47.381  1.00  0.00     0.047 A 
BRANCH  15  18
ATOM     18  O   UNL     1      15.362  25.796  49.204  1.00  0.00    -0.508 OA
ATOM     19  H   UNL     1      14.697  26.501  49.502  1.00  0.00     0.293 HD
ENDBRANCH  15  18
ENDBRANCH   1  12
BRANCH   2  20
ATOM     20  O   UNL     1      19.770  27.433  44.979  1.00  0.00    -0.502 OA
ATOM     21  H   UNL     1      19.500  28.364  45.273  1.00  0.00     0.293 HD
ENDBRANCH   2  20
BRANCH   6  22
ATOM     22  O   UNL     1      20.548  26.850  39.742  1.00  0.00    -0.507 OA
ATOM     23  H   UNL     1      21.290  27.233  40.307  1.00  0.00     0.293 HD
ENDBRANCH   6  22
BRANCH   8  24
ATOM     24  O   UNL     1      17.127  23.666  38.709  1.00  0.00    -0.508 OA
ATOM     25  H   UNL     1      16.298  23.975  38.215  1.00  0.00     0.293 HD
ENDBRANCH   8  24
TORSDOF 5
ENDMDL
MODEL 7
REMARK VINA RESULT:    -6.002      3.656      5.466
REMARK INTER + INTRA:          -7.317
REMARK INTER:                  -7.282
REMARK INTRA:                  -0.035
REMARK UNBOUND:                -0.262
REMARK SMILES O=c1c(O)c(-c2ccc(O)cc2)oc2cc(O)cc(O)c12
REMARK SMILES IDX 5 1 3 2 2 3 1 4 21 5 19 6 18 7 16 8 15 9 14 10 13 11 6 12
REMARK SMILES IDX 7 13 8 14 9 15 12 16 11 17 10 18 4 20 20 22 17 24
REMARK H PARENT 10 19 4 21 20 23 17 25
REMARK Flexibility Score: inf
ROOT
ATOM      1  C   UNL     1      17.044  22.745  44.889  1.00  0.00     0.180 A 
ATOM      2  C   UNL     1      17.767  23.241  43.790  1.00  0.00     0.208 A 
ATOM      3  C   UNL     1      18.070  24.611  43.737  1.00  0.00     0.238 A 
ATOM      4  O   UNL     1      18.669  25.059  42.725  1.00  0.00    -0.285 OA
ATOM      5  C   UNL     1      17.660  25.465  44.790  1.00  0.00     0.111 A 
ATOM      6  C   UNL     1      17.948  26.861  44.859  1.00  0.00     0.134 A 
ATOM      7  C   UNL     1      17.382  27.632  45.882  1.00  0.00     0.093 A 
ATOM      8  C   UNL     1      16.594  27.048  46.873  1.00  0.00     0.123 A 
ATOM      9  C   UNL     1      16.356  25.673  46.848  1.00  0.00     0.094 A 
ATOM     10  C   UNL     1      16.876  24.883  45.820  1.00  0.00     0.146 A 
ATOM     11  O   UNL     1      16.618  23.581  45.828  1.00  0.00    -0.452 OA
ENDROOT
BRANCH   1  12
ATOM     12  C   UNL     1      16.708  21.309  45.028  1.00  0.00     0.021 A 
ATOM     13  C   UNL     1      15.941  20.678  44.034  1.00  0.00     0.016 A 
ATOM     14  C   UNL     1      15.594  19.329  44.156  1.00  0.00     0.047 A 
ATOM     15  C   UNL     1      15.995  18.598  45.278  1.00  0.00     0.115 A 
ATOM     16  C   UNL     1      17.092  20.573  46.164  1.00  0.00     0.016 A 
ATOM     17  C   UNL     1      16.742  19.225  46.284  1.00  0.00     0.047 A 
BRANCH  15  18
ATOM     18  O   UNL     1      15.643  17.255  45.386  1.00  0.00    -0.508 OA
ATOM     19  H   UNL     1      15.068  16.918  46.151  1.00  0.00     0.293 HD
ENDBRANCH  15  18
ENDBRANCH   1  12
BRANCH   2  20
ATOM     20  O   UNL     1      18.141  22.385  42.751  1.00  0.00    -0.502 OA
ATOM     21  H   UNL     1      18.970  21.804  42.797  1.00  0.00     0.293 HD
ENDBRANCH   2  20
BRANCH   6  22
ATOM     22  O   UNL     1      18.798  27.528  43.972  1.00  0.00    -0.507 OA
ATOM     23  H   UNL     1      18.528  27.862  43.060  1.00  0.00     0.293 HD
ENDBRANCH   6  22
BRANCH   8  24
ATOM     24  O   UNL     1      16.059  27.844  47.884  1.00  0.00    -0.508 OA
ATOM     25  H   UNL     1      16.633  28.501  48.400  1.00  0.00     0.293 HD
ENDBRANCH   8  24
TORSDOF 5
ENDMDL
MODEL 8
REMARK VINA RESULT:    -5.856      3.271      8.265
REMARK INTER + INTRA:          -7.145
REMARK INTER:                  -7.099
REMARK INTRA:                  -0.046
REMARK UNBOUND:                -0.262
REMARK SMILES O=c1c(O)c(-c2ccc(O)cc2)oc2cc(O)cc(O)c12
REMARK SMILES IDX 5 1 3 2 2 3 1 4 21 5 19 6 18 7 16 8 15 9 14 10 13 11 6 12
REMARK SMILES IDX 7 13 8 14 9 15 12 16 11 17 10 18 4 20 20 22 17 24
REMARK H PARENT 10 19 4 21 20 23 17 25
REMARK Flexibility Score: inf
ROOT
ATOM      1  C   UNL     1      16.410  25.963  46.182  1.00  0.00     0.180 A 
ATOM      2  C   UNL     1      15.639  25.287  45.220  1.00  0.00     0.208 A 
ATOM      3  C   UNL     1      16.128  25.181  43.907  1.00  0.00     0.238 A 
ATOM      4  O   UNL     1      15.409  24.623  43.038  1.00  0.00    -0.285 OA
ATOM      5  C   UNL     1      17.388  25.737  43.578  1.00  0.00     0.111 A 
ATOM      6  C   UNL     1      17.998  25.654  42.290  1.00  0.00     0.134 A 
ATOM      7  C   UNL     1      19.185  26.352  42.042  1.00  0.00     0.093 A 
ATOM      8  C   UNL     1      19.819  27.076  43.052  1.00  0.00     0.123 A 
ATOM      9  C   UNL     1      19.262  27.116  44.331  1.00  0.00     0.094 A 
ATOM     10  C   UNL     1      18.058  26.459  44.599  1.00  0.00     0.146 A 
ATOM     11  O   UNL     1      17.556  26.530  45.826  1.00  0.00    -0.452 OA
ENDROOT
BRANCH   1  12
ATOM     12  C   UNL     1      15.974  26.094  47.591  1.00  0.00     0.021 A 
ATOM     13  C   UNL     1      15.954  27.363  48.194  1.00  0.00     0.016 A 
ATOM     14  C   UNL     1      15.567  27.507  49.530  1.00  0.00     0.047 A 
ATOM     15  C   UNL     1      15.210  26.385  50.283  1.00  0.00     0.115 A 
ATOM     16  C   UNL     1      15.633  24.967  48.361  1.00  0.00     0.016 A 
ATOM     17  C   UNL     1      15.247  25.114  49.696  1.00  0.00     0.047 A 
BRANCH  15  18
ATOM     18  O   UNL     1      14.826  26.544  51.612  1.00  0.00    -0.508 OA
ATOM     19  H   UNL     1      15.179  27.309  52.178  1.00  0.00     0.293 HD
ENDBRANCH  15  18
ENDBRANCH   1  12
BRANCH   2  20
ATOM     20  O   UNL     1      14.389  24.765  45.562  1.00  0.00    -0.502 OA
ATOM     21  H   UNL     1      14.121  23.812  45.349  1.00  0.00     0.293 HD
ENDBRANCH   2  20
BRANCH   6  22
ATOM     22  O   UNL     1      17.496  24.882  41.237  1.00  0.00    -0.507 OA
ATOM     23  H   UNL     1      17.979  24.713  40.368  1.00  0.00     0.293 HD
ENDBRANCH   6  22
BRANCH   8  24
ATOM     24  O   UNL     1      21.008  27.747  42.773  1.00  0.00    -0.508 OA
ATOM     25  H   UNL     1      21.010  28.699  42.426  1.00  0.00     0.293 HD
ENDBRANCH   8  24
TORSDOF 5
ENDMDL
MODEL 9
REMARK VINA RESULT:    -5.824      2.853      7.437
REMARK INTER + INTRA:          -7.108
REMARK INTER:                  -6.990
REMARK INTRA:                  -0.118
REMARK UNBOUND:                -0.262
REMARK SMILES O=c1c(O)c(-c2ccc(O)cc2)oc2cc(O)cc(O)c12
REMARK SMILES IDX 5 1 3 2 2 3 1 4 21 5 19 6 18 7 16 8 15 9 14 10 13 11 6 12
REMARK SMILES IDX 7 13 8 14 9 15 12 16 11 17 10 18 4 20 20 22 17 24
REMARK H PARENT 10 19 4 21 20 23 17 25
REMARK Flexibility Score: inf
ROOT
ATOM      1  C   UNL     1      17.097  25.899  44.801  1.00  0.00     0.180 A 
ATOM      2  C   UNL     1      16.385  25.368  43.710  1.00  0.00     0.208 A 
ATOM      3  C   UNL     1      16.975  25.393  42.436  1.00  0.00     0.238 A 
ATOM      4  O   UNL     1      16.312  24.965  41.455  1.00  0.00    -0.285 OA
ATOM      5  C   UNL     1      18.273  25.934  42.270  1.00  0.00     0.111 A 
ATOM      6  C   UNL     1      18.981  25.974  41.031  1.00  0.00     0.134 A 
ATOM      7  C   UNL     1      20.205  26.649  40.958  1.00  0.00     0.093 A 
ATOM      8  C   UNL     1      20.777  27.229  42.090  1.00  0.00     0.123 A 
ATOM      9  C   UNL     1      20.121  27.144  43.319  1.00  0.00     0.094 A 
ATOM     10  C   UNL     1      18.881  26.508  43.416  1.00  0.00     0.146 A 
ATOM     11  O   UNL     1      18.284  26.458  44.601  1.00  0.00    -0.452 OA
ENDROOT
BRANCH   1  12
ATOM     12  C   UNL     1      16.553  25.886  46.178  1.00  0.00     0.021 A 
ATOM     13  C   UNL     1      16.402  27.097  46.874  1.00  0.00     0.016 A 
ATOM     14  C   UNL     1      15.912  27.106  48.183  1.00  0.00     0.047 A 
ATOM     15  C   UNL     1      15.581  25.906  48.819  1.00  0.00     0.115 A 
ATOM     16  C   UNL     1      16.238  24.680  46.830  1.00  0.00     0.016 A 
ATOM     17  C   UNL     1      15.748  24.692  48.140  1.00  0.00     0.047 A 
BRANCH  15  18
ATOM     18  O   UNL     1      15.093  25.930  50.123  1.00  0.00    -0.508 OA
ATOM     19  H   UNL     1      14.376  25.283  50.432  1.00  0.00     0.293 HD
ENDBRANCH  15  18
ENDBRANCH   1  12
BRANCH   2  20
ATOM     20  O   UNL     1      15.097  24.859  43.893  1.00  0.00    -0.502 OA
ATOM     21  H   UNL     1      14.300  25.195  43.365  1.00  0.00     0.293 HD
ENDBRANCH   2  20
BRANCH   6  22
ATOM     22  O   UNL     1      18.543  25.347  39.861  1.00  0.00    -0.507 OA
ATOM     23  H   UNL     1      18.412  25.811  38.975  1.00  0.00     0.293 HD
ENDBRANCH   6  22
BRANCH   8  24
ATOM     24  O   UNL     1      22.004  27.880  41.983  1.00  0.00    -0.508 OA
ATOM     25  H   UNL     1      22.091  28.771  41.508  1.00  0.00     0.293 HD
ENDBRANCH   8  24
TORSDOF 5
ENDMDL
