MODEL 1
REMARK VINA RESULT:    -3.639      0.000      0.000
REMARK INTER + INTRA:          -6.570
REMARK INTER:                  -5.767
REMARK INTRA:                  -0.803
REMARK UNBOUND:                -0.803
REMARK SMILES CCCCCCCCCCCC(=O)[O-]
REMARK SMILES IDX 7 1 8 2 9 3 10 4 11 5 12 6 13 7 14 8 6 9 5 10 4 11 3 12 2 13
REMARK SMILES IDX 1 14
REMARK H PARENT
REMARK Flexibility Score: inf
ROOT
ATOM      1  C   UNL     1      58.232  28.762  51.494  1.00  0.00     0.000 C 
ENDROOT
BRANCH   1   2
ATOM      2  C   UNL     1      58.473  28.791  49.974  1.00  0.00     0.000 C 
BRANCH   2   3
ATOM      3  C   UNL     1      59.505  27.768  49.462  1.00  0.00     0.000 C 
BRANCH   3   4
ATOM      4  C   UNL     1      59.731  26.604  50.438  1.00  0.00     0.006 C 
BRANCH   4   5
ATOM      5  C   UNL     1      58.908  25.378  50.031  1.00  0.00     0.053 C 
BRANCH   5   6
ATOM      6  C   UNL     1      59.230  24.215  50.915  1.00  0.00     0.041 C 
ATOM      7  O   UNL     1      59.960  23.281  50.493  1.00  0.00    -0.550 OA
ATOM      8  O   UNL     1      58.765  24.187  52.224  1.00  0.00    -0.550 OA
ENDBRANCH   5   6
ENDBRANCH   4   5
ENDBRANCH   3   4
ENDBRANCH   2   3
ENDBRANCH   1   2
BRANCH   1   9
ATOM      9  C   UNL     1      56.787  28.383  51.862  1.00  0.00     0.000 C 
BRANCH   9  10
ATOM     10  C   UNL     1      56.032  27.710  50.702  1.00  0.00    -0.000 C 
BRANCH  10  11
ATOM     11  C   UNL     1      54.556  28.130  50.563  1.00  0.00    -0.000 C 
BRANCH  11  12
ATOM     12  C   UNL     1      53.662  27.004  50.015  1.00  0.00    -0.000 C 
BRANCH  12  13
ATOM     13  C   UNL     1      54.416  25.674  49.864  1.00  0.00    -0.003 C 
ATOM     14  C   UNL     1      53.475  24.474  49.754  1.00  0.00     0.004 C 
ENDBRANCH  12  13
ENDBRANCH  11  12
ENDBRANCH  10  11
ENDBRANCH   9  10
ENDBRANCH   1   9
TORSDOF 10
ENDMDL
MODEL 2
REMARK VINA RESULT:    -3.574      2.062      4.730
REMARK INTER + INTRA:          -6.467
REMARK INTER:                  -5.339
REMARK INTRA:                  -1.128
REMARK UNBOUND:                -0.803
REMARK SMILES CCCCCCCCCCCC(=O)[O-]
REMARK SMILES IDX 7 1 8 2 9 3 10 4 11 5 12 6 13 7 14 8 6 9 5 10 4 11 3 12 2 13
REMARK SMILES IDX 1 14
REMARK H PARENT
REMARK Flexibility Score: inf
ROOT
ATOM      1  C   UNL     1      57.662  28.700  51.316  1.00  0.00     0.000 C 
ENDROOT
BRANCH   1   2
ATOM      2  C   UNL     1      56.647  27.750  50.657  1.00  0.00     0.000 C 
BRANCH   2   3
ATOM      3  C   UNL     1      55.169  28.125  50.878  1.00  0.00     0.000 C 
BRANCH   3   4
ATOM      4  C   UNL     1      54.196  27.187  50.148  1.00  0.00     0.006 C 
BRANCH   4   5
ATOM      5  C   UNL     1      54.849  25.832  49.863  1.00  0.00     0.053 C 
BRANCH   5   6
ATOM      6  C   UNL     1      54.257  24.771  50.737  1.00  0.00     0.041 C 
ATOM      7  O   UNL     1      53.449  23.934  50.257  1.00  0.00    -0.550 OA
ATOM      8  O   UNL     1      54.638  24.676  52.070  1.00  0.00    -0.550 OA
ENDBRANCH   5   6
ENDBRANCH   4   5
ENDBRANCH   3   4
ENDBRANCH   2   3
ENDBRANCH   1   2
BRANCH   1   9
ATOM      9  C   UNL     1      58.896  28.961  50.434  1.00  0.00     0.000 C 
BRANCH   9  10
ATOM     10  C   UNL     1      59.193  27.803  49.465  1.00  0.00    -0.000 C 
BRANCH  10  11
ATOM     11  C   UNL     1      60.484  27.020  49.771  1.00  0.00    -0.000 C 
BRANCH  11  12
ATOM     12  C   UNL     1      60.223  25.538  50.096  1.00  0.00    -0.000 C 
BRANCH  12  13
ATOM     13  C   UNL     1      59.525  25.347  51.451  1.00  0.00    -0.003 C 
ATOM     14  C   UNL     1      58.193  24.608  51.326  1.00  0.00     0.004 C 
ENDBRANCH  12  13
ENDBRANCH  11  12
ENDBRANCH  10  11
ENDBRANCH   9  10
ENDBRANCH   1   9
TORSDOF 10
ENDMDL
MODEL 3
REMARK VINA RESULT:    -3.545      1.893      2.872
REMARK INTER + INTRA:          -6.420
REMARK INTER:                  -4.983
REMARK INTRA:                  -1.437
REMARK UNBOUND:                -0.803
REMARK SMILES CCCCCCCCCCCC(=O)[O-]
REMARK SMILES IDX 7 1 8 2 9 3 10 4 11 5 12 6 13 7 14 8 6 9 5 10 4 11 3 12 2 13
REMARK SMILES IDX 1 14
REMARK H PARENT
REMARK Flexibility Score: inf
ROOT
ATOM      1  C   UNL     1      55.723  29.449  52.590  1.00  0.00     0.000 C 
ENDROOT
BRANCH   1   2
ATOM      2  C   UNL     1      56.864  28.435  52.786  1.00  0.00     0.000 C 
BRANCH   2   3
ATOM      3  C   UNL     1      58.064  28.617  51.838  1.00  0.00     0.000 C 
BRANCH   3   4
ATOM      4  C   UNL     1      57.667  28.576  50.354  1.00  0.00     0.006 C 
BRANCH   4   5
ATOM      5  C   UNL     1      58.905  28.596  49.454  1.00  0.00     0.053 C 
BRANCH   5   6
ATOM      6  C   UNL     1      59.772  27.408  49.729  1.00  0.00     0.041 C 
ATOM      7  O   UNL     1      59.326  26.245  49.548  1.00  0.00    -0.550 OA
ATOM      8  O   UNL     1      61.088  27.586  50.136  1.00  0.00    -0.550 OA
ENDBRANCH   5   6
ENDBRANCH   4   5
ENDBRANCH   3   4
ENDBRANCH   2   3
ENDBRANCH   1   2
BRANCH   1   9
ATOM      9  C   UNL     1      54.360  28.776  52.352  1.00  0.00     0.000 C 
BRANCH   9  10
ATOM     10  C   UNL     1      53.813  29.018  50.934  1.00  0.00    -0.000 C 
BRANCH  10  11
ATOM     11  C   UNL     1      53.669  27.749  50.073  1.00  0.00    -0.000 C 
BRANCH  11  12
ATOM     12  C   UNL     1      54.102  26.470  50.812  1.00  0.00    -0.000 C 
BRANCH  12  13
ATOM     13  C   UNL     1      55.248  25.737  50.100  1.00  0.00    -0.003 C 
ATOM     14  C   UNL     1      56.308  25.220  51.072  1.00  0.00     0.004 C 
ENDBRANCH  12  13
ENDBRANCH  11  12
ENDBRANCH  10  11
ENDBRANCH   9  10
ENDBRANCH   1   9
TORSDOF 10
ENDMDL
MODEL 4
REMARK VINA RESULT:    -3.460      1.325      1.986
REMARK INTER + INTRA:          -6.285
REMARK INTER:                  -5.013
REMARK INTRA:                  -1.271
REMARK UNBOUND:                -0.803
REMARK SMILES CCCCCCCCCCCC(=O)[O-]
REMARK SMILES IDX 7 1 8 2 9 3 10 4 11 5 12 6 13 7 14 8 6 9 5 10 4 11 3 12 2 13
REMARK SMILES IDX 1 14
REMARK H PARENT
REMARK Flexibility Score: inf
ROOT
ATOM      1  C   UNL     1      58.735  28.828  51.312  1.00  0.00     0.000 C 
ENDROOT
BRANCH   1   2
ATOM      2  C   UNL     1      58.986  28.540  49.821  1.00  0.00     0.000 C 
BRANCH   2   3
ATOM      3  C   UNL     1      59.855  27.301  49.536  1.00  0.00     0.000 C 
BRANCH   3   4
ATOM      4  C   UNL     1      59.105  25.978  49.760  1.00  0.00     0.006 C 
BRANCH   4   5
ATOM      5  C   UNL     1      59.657  25.234  50.980  1.00  0.00     0.053 C 
BRANCH   5   6
ATOM      6  C   UNL     1      60.668  24.216  50.558  1.00  0.00     0.041 C 
ATOM      7  O   UNL     1      60.308  23.039  50.292  1.00  0.00    -0.550 OA
ATOM      8  O   UNL     1      62.000  24.579  50.408  1.00  0.00    -0.550 OA
ENDBRANCH   5   6
ENDBRANCH   4   5
ENDBRANCH   3   4
ENDBRANCH   2   3
ENDBRANCH   1   2
BRANCH   1   9
ATOM      9  C   UNL     1      57.254  28.691  51.706  1.00  0.00     0.000 C 
BRANCH   9  10
ATOM     10  C   UNL     1      56.962  27.402  52.494  1.00  0.00    -0.000 C 
BRANCH  10  11
ATOM     11  C   UNL     1      55.899  26.485  51.860  1.00  0.00    -0.000 C 
BRANCH  11  12
ATOM     12  C   UNL     1      55.567  26.867  50.407  1.00  0.00    -0.000 C 
BRANCH  12  13
ATOM     13  C   UNL     1      54.079  27.191  50.209  1.00  0.00    -0.003 C 
ATOM     14  C   UNL     1      53.759  28.663  50.467  1.00  0.00     0.004 C 
ENDBRANCH  12  13
ENDBRANCH  11  12
ENDBRANCH  10  11
ENDBRANCH   9  10
ENDBRANCH   1   9
TORSDOF 10
ENDMDL
MODEL 5
REMARK VINA RESULT:    -3.440     12.384     13.810
REMARK INTER + INTRA:          -6.254
REMARK INTER:                  -5.476
REMARK INTRA:                  -0.778
REMARK UNBOUND:                -0.803
REMARK SMILES CCCCCCCCCCCC(=O)[O-]
REMARK SMILES IDX 7 1 8 2 9 3 10 4 11 5 12 6 13 7 14 8 6 9 5 10 4 11 3 12 2 13
REMARK SMILES IDX 1 14
REMARK H PARENT
REMARK Flexibility Score: inf
ROOT
ATOM      1  C   UNL     1      60.909  32.986  60.425  1.00  0.00     0.000 C 
ENDROOT
BRANCH   1   2
ATOM      2  C   UNL     1      61.939  31.922  60.844  1.00  0.00     0.000 C 
BRANCH   2   3
ATOM      3  C   UNL     1      61.351  30.709  61.589  1.00  0.00     0.000 C 
BRANCH   3   4
ATOM      4  C   UNL     1      62.321  29.520  61.659  1.00  0.00     0.006 C 
BRANCH   4   5
ATOM      5  C   UNL     1      63.772  29.985  61.501  1.00  0.00     0.053 C 
BRANCH   5   6
ATOM      6  C   UNL     1      64.606  28.900  60.897  1.00  0.00     0.041 C 
ATOM      7  O   UNL     1      64.058  27.880  60.404  1.00  0.00    -0.550 OA
ATOM      8  O   UNL     1      65.987  29.040  60.831  1.00  0.00    -0.550 OA
ENDBRANCH   5   6
ENDBRANCH   4   5
ENDBRANCH   3   4
ENDBRANCH   2   3
ENDBRANCH   1   2
BRANCH   1   9
ATOM      9  C   UNL     1      61.561  34.256  59.853  1.00  0.00     0.000 C 
BRANCH   9  10
ATOM     10  C   UNL     1      61.519  35.443  60.833  1.00  0.00    -0.000 C 
BRANCH  10  11
ATOM     11  C   UNL     1      62.896  36.026  61.200  1.00  0.00    -0.000 C 
BRANCH  11  12
ATOM     12  C   UNL     1      63.977  34.945  61.376  1.00  0.00    -0.000 C 
BRANCH  12  13
ATOM     13  C   UNL     1      65.255  35.256  60.583  1.00  0.00    -0.003 C 
ATOM     14  C   UNL     1      65.218  34.690  59.163  1.00  0.00     0.004 C 
ENDBRANCH  12  13
ENDBRANCH  11  12
ENDBRANCH  10  11
ENDBRANCH   9  10
ENDBRANCH   1   9
TORSDOF 10
ENDMDL
MODEL 6
REMARK VINA RESULT:    -3.428     12.867     14.312
REMARK INTER + INTRA:          -6.234
REMARK INTER:                  -5.116
REMARK INTRA:                  -1.118
REMARK UNBOUND:                -0.803
REMARK SMILES CCCCCCCCCCCC(=O)[O-]
REMARK SMILES IDX 7 1 8 2 9 3 10 4 11 5 12 6 13 7 14 8 6 9 5 10 4 11 3 12 2 13
REMARK SMILES IDX 1 14
REMARK H PARENT
REMARK Flexibility Score: inf
ROOT
ATOM      1  C   UNL     1      61.504  31.733  60.268  1.00  0.00     0.000 C 
ENDROOT
BRANCH   1   2
ATOM      2  C   UNL     1      60.970  33.157  60.504  1.00  0.00     0.000 C 
BRANCH   2   3
ATOM      3  C   UNL     1      62.051  34.253  60.563  1.00  0.00     0.000 C 
BRANCH   3   4
ATOM      4  C   UNL     1      63.445  33.743  60.169  1.00  0.00     0.006 C 
BRANCH   4   5
ATOM      5  C   UNL     1      64.426  33.866  61.338  1.00  0.00     0.053 C 
BRANCH   5   6
ATOM      6  C   UNL     1      65.028  35.235  61.374  1.00  0.00     0.041 C 
ATOM      7  O   UNL     1      65.053  35.888  62.450  1.00  0.00    -0.550 OA
ATOM      8  O   UNL     1      65.608  35.770  60.231  1.00  0.00    -0.550 OA
ENDBRANCH   5   6
ENDBRANCH   4   5
ENDBRANCH   3   4
ENDBRANCH   2   3
ENDBRANCH   1   2
BRANCH   1   9
ATOM      9  C   UNL     1      61.028  30.733  61.336  1.00  0.00     0.000 C 
BRANCH   9  10
ATOM     10  C   UNL     1      62.174  29.876  61.905  1.00  0.00    -0.000 C 
BRANCH  10  11
ATOM     11  C   UNL     1      63.567  30.200  61.333  1.00  0.00    -0.000 C 
BRANCH  11  12
ATOM     12  C   UNL     1      64.354  28.942  60.924  1.00  0.00    -0.000 C 
BRANCH  12  13
ATOM     13  C   UNL     1      65.491  29.254  59.938  1.00  0.00    -0.003 C 
ATOM     14  C   UNL     1      65.517  30.723  59.518  1.00  0.00     0.004 C 
ENDBRANCH  12  13
ENDBRANCH  11  12
ENDBRANCH  10  11
ENDBRANCH   9  10
ENDBRANCH   1   9
TORSDOF 10
ENDMDL
MODEL 7
REMARK VINA RESULT:    -3.420      3.096      5.888
REMARK INTER + INTRA:          -6.222
REMARK INTER:                  -5.161
REMARK INTRA:                  -1.061
REMARK UNBOUND:                -0.803
REMARK SMILES CCCCCCCCCCCC(=O)[O-]
REMARK SMILES IDX 7 1 8 2 9 3 10 4 11 5 12 6 13 7 14 8 6 9 5 10 4 11 3 12 2 13
REMARK SMILES IDX 1 14
REMARK H PARENT
REMARK Flexibility Score: inf
ROOT
ATOM      1  C   UNL     1      56.780  25.197  51.568  1.00  0.00     0.000 C 
ENDROOT
BRANCH   1   2
ATOM      2  C   UNL     1      56.185  25.937  50.358  1.00  0.00     0.000 C 
BRANCH   2   3
ATOM      3  C   UNL     1      54.734  25.553  50.012  1.00  0.00     0.000 C 
BRANCH   3   4
ATOM      4  C   UNL     1      53.768  26.747  50.064  1.00  0.00     0.006 C 
BRANCH   4   5
ATOM      5  C   UNL     1      54.510  28.038  50.422  1.00  0.00     0.053 C 
BRANCH   5   6
ATOM      6  C   UNL     1      53.786  28.774  51.505  1.00  0.00     0.041 C 
ATOM      7  O   UNL     1      53.175  28.138  52.403  1.00  0.00    -0.550 OA
ATOM      8  O   UNL     1      53.831  30.161  51.552  1.00  0.00    -0.550 OA
ENDBRANCH   5   6
ENDBRANCH   4   5
ENDBRANCH   3   4
ENDBRANCH   2   3
ENDBRANCH   1   2
BRANCH   1   9
ATOM      9  C   UNL     1      58.256  24.811  51.366  1.00  0.00     0.000 C 
BRANCH   9  10
ATOM     10  C   UNL     1      58.811  25.265  50.004  1.00  0.00    -0.000 C 
BRANCH  10  11
ATOM     11  C   UNL     1      60.241  25.837  50.048  1.00  0.00    -0.000 C 
BRANCH  11  12
ATOM     12  C   UNL     1      60.270  27.360  50.268  1.00  0.00    -0.000 C 
BRANCH  12  13
ATOM     13  C   UNL     1      59.147  28.086  49.512  1.00  0.00    -0.003 C 
ATOM     14  C   UNL     1      58.249  28.904  50.440  1.00  0.00     0.004 C 
ENDBRANCH  12  13
ENDBRANCH  11  12
ENDBRANCH  10  11
ENDBRANCH   9  10
ENDBRANCH   1   9
TORSDOF 10
ENDMDL
MODEL 8
REMARK VINA RESULT:    -3.419     12.353     13.759
REMARK INTER + INTRA:          -6.220
REMARK INTER:                  -4.903
REMARK INTRA:                  -1.318
REMARK UNBOUND:                -0.803
REMARK SMILES CCCCCCCCCCCC(=O)[O-]
REMARK SMILES IDX 7 1 8 2 9 3 10 4 11 5 12 6 13 7 14 8 6 9 5 10 4 11 3 12 2 13
REMARK SMILES IDX 1 14
REMARK H PARENT
REMARK Flexibility Score: inf
ROOT
ATOM      1  C   UNL     1      63.776  29.545  60.700  1.00  0.00     0.000 C 
ENDROOT
BRANCH   1   2
ATOM      2  C   UNL     1      64.595  30.838  60.860  1.00  0.00     0.000 C 
BRANCH   2   3
ATOM      3  C   UNL     1      64.788  31.648  59.564  1.00  0.00     0.000 C 
BRANCH   3   4
ATOM      4  C   UNL     1      64.566  33.156  59.760  1.00  0.00     0.006 C 
BRANCH   4   5
ATOM      5  C   UNL     1      64.334  33.489  61.237  1.00  0.00     0.053 C 
BRANCH   5   6
ATOM      6  C   UNL     1      64.415  34.967  61.459  1.00  0.00     0.041 C 
ATOM      7  O   UNL     1      63.366  35.660  61.498  1.00  0.00    -0.550 OA
ATOM      8  O   UNL     1      65.648  35.570  61.673  1.00  0.00    -0.550 OA
ENDBRANCH   5   6
ENDBRANCH   4   5
ENDBRANCH   3   4
ENDBRANCH   2   3
ENDBRANCH   1   2
BRANCH   1   9
ATOM      9  C   UNL     1      62.596  29.459  61.684  1.00  0.00     0.000 C 
BRANCH   9  10
ATOM     10  C   UNL     1      61.628  30.649  61.561  1.00  0.00    -0.000 C 
BRANCH  10  11
ATOM     11  C   UNL     1      60.954  30.792  60.183  1.00  0.00    -0.000 C 
BRANCH  11  12
ATOM     12  C   UNL     1      61.102  32.204  59.588  1.00  0.00    -0.000 C 
BRANCH  12  13
ATOM     13  C   UNL     1      60.602  33.300  60.540  1.00  0.00    -0.003 C 
ATOM     14  C   UNL     1      59.577  34.225  59.883  1.00  0.00     0.004 C 
ENDBRANCH  12  13
ENDBRANCH  11  12
ENDBRANCH  10  11
ENDBRANCH   9  10
ENDBRANCH   1   9
TORSDOF 10
ENDMDL
MODEL 9
REMARK VINA RESULT:    -3.418      2.265      3.655
REMARK INTER + INTRA:          -6.218
REMARK INTER:                  -5.016
REMARK INTRA:                  -1.202
REMARK UNBOUND:                -0.803
REMARK SMILES CCCCCCCCCCCC(=O)[O-]
REMARK SMILES IDX 7 1 8 2 9 3 10 4 11 5 12 6 13 7 14 8 6 9 5 10 4 11 3 12 2 13
REMARK SMILES IDX 1 14
REMARK H PARENT
REMARK Flexibility Score: inf
ROOT
ATOM      1  C   UNL     1      56.192  26.132  50.344  1.00  0.00     0.000 C 
ENDROOT
BRANCH   1   2
ATOM      2  C   UNL     1      57.385  26.897  50.943  1.00  0.00     0.000 C 
BRANCH   2   3
ATOM      3  C   UNL     1      57.599  28.312  50.373  1.00  0.00     0.000 C 
BRANCH   3   4
ATOM      4  C   UNL     1      58.855  28.421  49.494  1.00  0.00     0.006 C 
BRANCH   4   5
ATOM      5  C   UNL     1      59.685  27.136  49.562  1.00  0.00     0.053 C 
BRANCH   5   6
ATOM      6  C   UNL     1      61.090  27.442  49.976  1.00  0.00     0.041 C 
ATOM      7  O   UNL     1      61.369  28.555  50.494  1.00  0.00    -0.550 OA
ATOM      8  O   UNL     1      62.081  26.479  49.837  1.00  0.00    -0.550 OA
ENDBRANCH   5   6
ENDBRANCH   4   5
ENDBRANCH   3   4
ENDBRANCH   2   3
ENDBRANCH   1   2
BRANCH   1   9
ATOM      9  C   UNL     1      54.854  26.488  51.017  1.00  0.00     0.000 C 
BRANCH   9  10
ATOM     10  C   UNL     1      53.971  27.398  50.146  1.00  0.00    -0.000 C 
BRANCH  10  11
ATOM     11  C   UNL     1      53.965  28.881  50.561  1.00  0.00    -0.000 C 
BRANCH  11  12
ATOM     12  C   UNL     1      53.832  29.077  52.082  1.00  0.00    -0.000 C 
BRANCH  12  13
ATOM     13  C   UNL     1      55.029  29.827  52.686  1.00  0.00    -0.003 C 
ATOM     14  C   UNL     1      55.826  28.967  53.667  1.00  0.00     0.004 C 
ENDBRANCH  12  13
ENDBRANCH  11  12
ENDBRANCH  10  11
ENDBRANCH   9  10
ENDBRANCH   1   9
TORSDOF 10
ENDMDL
