MODEL 1
REMARK VINA RESULT:    -1.433      0.000      0.000
REMARK INTER + INTRA:          -3.925
REMARK INTER:                  -3.275
REMARK INTRA:                  -0.650
REMARK UNBOUND:                -0.650
REMARK SMILES CCCCCCCCCCCCCCCCCCCCCCCC(=O)[O-]
REMARK SMILES IDX 13 1 14 2 15 3 16 4 17 5 18 6 19 7 20 8 21 9 22 10 23 11
REMARK SMILES IDX 24 12 25 13 26 14 12 15 11 16 10 17 9 18 8 19 7 20 6 21 5 22
REMARK SMILES IDX 4 23 3 24 2 25 1 26
REMARK H PARENT
REMARK Flexibility Score: inf
ROOT
ATOM      1  C   UNL     1      42.983  63.182  56.541  1.00  0.00     0.000 C 
ENDROOT
BRANCH   1   2
ATOM      2  C   UNL     1      44.244  63.145  55.664  1.00  0.00     0.000 C 
BRANCH   2   3
ATOM      3  C   UNL     1      45.265  64.196  56.118  1.00  0.00     0.000 C 
BRANCH   3   4
ATOM      4  C   UNL     1      44.716  65.023  57.290  1.00  0.00     0.000 C 
BRANCH   4   5
ATOM      5  C   UNL     1      44.632  64.205  58.596  1.00  0.00     0.000 C 
BRANCH   5   6
ATOM      6  C   UNL     1      45.823  64.435  59.544  1.00  0.00     0.000 C 
BRANCH   6   7
ATOM      7  C   UNL     1      46.951  63.409  59.346  1.00  0.00     0.000 C 
BRANCH   7   8
ATOM      8  C   UNL     1      47.873  63.313  60.579  1.00  0.00     0.000 C 
BRANCH   8   9
ATOM      9  C   UNL     1      48.506  64.655  60.986  1.00  0.00     0.000 C 
BRANCH   9  10
ATOM     10  C   UNL     1      50.027  64.686  60.784  1.00  0.00     0.006 C 
BRANCH  10  11
ATOM     11  C   UNL     1      50.455  63.740  59.657  1.00  0.00     0.053 C 
BRANCH  11  12
ATOM     12  C   UNL     1      51.755  64.176  59.053  1.00  0.00     0.041 C 
ATOM     13  O   UNL     1      52.843  63.717  59.491  1.00  0.00    -0.550 OA
ATOM     14  O   UNL     1      51.765  65.099  58.015  1.00  0.00    -0.550 OA
ENDBRANCH  11  12
ENDBRANCH  10  11
ENDBRANCH   9  10
ENDBRANCH   8   9
ENDBRANCH   7   8
ENDBRANCH   6   7
ENDBRANCH   5   6
ENDBRANCH   4   5
ENDBRANCH   3   4
ENDBRANCH   2   3
ENDBRANCH   1   2
BRANCH   1  15
ATOM     15  C   UNL     1      41.952  64.206  56.037  1.00  0.00     0.000 C 
BRANCH  15  16
ATOM     16  C   UNL     1      40.560  63.983  56.655  1.00  0.00     0.000 C 
BRANCH  16  17
ATOM     17  C   UNL     1      40.199  65.040  57.713  1.00  0.00     0.000 C 
BRANCH  17  18
ATOM     18  C   UNL     1      40.993  64.944  59.028  1.00  0.00    -0.000 C 
BRANCH  18  19
ATOM     19  C   UNL     1      40.102  65.081  60.276  1.00  0.00    -0.000 C 
BRANCH  19  20
ATOM     20  C   UNL     1      38.660  64.610  60.022  1.00  0.00    -0.000 C 
BRANCH  20  21
ATOM     21  C   UNL     1      38.393  63.213  60.602  1.00  0.00    -0.000 C 
BRANCH  21  22
ATOM     22  C   UNL     1      37.018  62.689  60.171  1.00  0.00    -0.000 C 
BRANCH  22  23
ATOM     23  C   UNL     1      37.102  61.219  59.735  1.00  0.00    -0.000 C 
BRANCH  23  24
ATOM     24  C   UNL     1      37.789  60.320  60.777  1.00  0.00    -0.000 C 
BRANCH  24  25
ATOM     25  C   UNL     1      39.052  59.596  60.276  1.00  0.00    -0.003 C 
ATOM     26  C   UNL     1      40.290  59.902  61.116  1.00  0.00     0.004 C 
ENDBRANCH  24  25
ENDBRANCH  23  24
ENDBRANCH  22  23
ENDBRANCH  21  22
ENDBRANCH  20  21
ENDBRANCH  19  20
ENDBRANCH  18  19
ENDBRANCH  17  18
ENDBRANCH  16  17
ENDBRANCH  15  16
ENDBRANCH   1  15
TORSDOF 22
ENDMDL
MODEL 2
REMARK VINA RESULT:    -1.396      3.893      8.941
REMARK INTER + INTRA:          -3.842
REMARK INTER:                  -3.654
REMARK INTRA:                  -0.188
REMARK UNBOUND:                -0.650
REMARK SMILES CCCCCCCCCCCCCCCCCCCCCCCC(=O)[O-]
REMARK SMILES IDX 13 1 14 2 15 3 16 4 17 5 18 6 19 7 20 8 21 9 22 10 23 11
REMARK SMILES IDX 24 12 25 13 26 14 12 15 11 16 10 17 9 18 8 19 7 20 6 21 5 22
REMARK SMILES IDX 4 23 3 24 2 25 1 26
REMARK H PARENT
REMARK Flexibility Score: inf
ROOT
ATOM      1  C   UNL     1      42.805  63.109  56.457  1.00  0.00     0.000 C 
ENDROOT
BRANCH   1   2
ATOM      2  C   UNL     1      41.734  63.678  55.514  1.00  0.00     0.000 C 
BRANCH   2   3
ATOM      3  C   UNL     1      41.356  65.112  55.907  1.00  0.00     0.000 C 
BRANCH   3   4
ATOM      4  C   UNL     1      40.108  65.124  56.803  1.00  0.00     0.000 C 
BRANCH   4   5
ATOM      5  C   UNL     1      40.458  64.960  58.297  1.00  0.00     0.000 C 
BRANCH   5   6
ATOM      6  C   UNL     1      39.248  65.123  59.234  1.00  0.00     0.000 C 
BRANCH   6   7
ATOM      7  C   UNL     1      37.911  64.812  58.542  1.00  0.00     0.000 C 
BRANCH   7   8
ATOM      8  C   UNL     1      36.766  64.604  59.555  1.00  0.00     0.000 C 
BRANCH   8   9
ATOM      9  C   UNL     1      36.237  63.160  59.604  1.00  0.00     0.000 C 
BRANCH   9  10
ATOM     10  C   UNL     1      36.907  62.313  60.694  1.00  0.00     0.006 C 
BRANCH  10  11
ATOM     11  C   UNL     1      37.383  60.968  60.134  1.00  0.00     0.053 C 
BRANCH  11  12
ATOM     12  C   UNL     1      38.787  61.065  59.623  1.00  0.00     0.041 C 
ATOM     13  O   UNL     1      39.034  61.699  58.562  1.00  0.00    -0.550 OA
ATOM     14  O   UNL     1      39.823  60.444  60.310  1.00  0.00    -0.550 OA
ENDBRANCH  11  12
ENDBRANCH  10  11
ENDBRANCH   9  10
ENDBRANCH   8   9
ENDBRANCH   7   8
ENDBRANCH   6   7
ENDBRANCH   5   6
ENDBRANCH   4   5
ENDBRANCH   3   4
ENDBRANCH   2   3
ENDBRANCH   1   2
BRANCH   1  15
ATOM     15  C   UNL     1      43.933  62.393  55.695  1.00  0.00     0.000 C 
BRANCH  15  16
ATOM     16  C   UNL     1      44.522  63.264  54.572  1.00  0.00     0.000 C 
BRANCH  16  17
ATOM     17  C   UNL     1      44.483  64.767  54.897  1.00  0.00     0.000 C 
BRANCH  17  18
ATOM     18  C   UNL     1      44.728  65.121  56.374  1.00  0.00    -0.000 C 
BRANCH  18  19
ATOM     19  C   UNL     1      46.040  64.531  56.922  1.00  0.00    -0.000 C 
BRANCH  19  20
ATOM     20  C   UNL     1      45.859  63.883  58.305  1.00  0.00    -0.000 C 
BRANCH  20  21
ATOM     21  C   UNL     1      44.745  64.554  59.122  1.00  0.00    -0.000 C 
BRANCH  21  22
ATOM     22  C   UNL     1      45.092  64.577  60.615  1.00  0.00    -0.000 C 
BRANCH  22  23
ATOM     23  C   UNL     1      46.419  63.852  60.883  1.00  0.00    -0.000 C 
BRANCH  23  24
ATOM     24  C   UNL     1      47.593  64.817  61.125  1.00  0.00    -0.000 C 
BRANCH  24  25
ATOM     25  C   UNL     1      48.954  64.322  60.605  1.00  0.00    -0.003 C 
ATOM     26  C   UNL     1      48.944  62.846  60.211  1.00  0.00     0.004 C 
ENDBRANCH  24  25
ENDBRANCH  23  24
ENDBRANCH  22  23
ENDBRANCH  21  22
ENDBRANCH  20  21
ENDBRANCH  19  20
ENDBRANCH  18  19
ENDBRANCH  17  18
ENDBRANCH  16  17
ENDBRANCH  15  16
ENDBRANCH   1  15
TORSDOF 22
ENDMDL
MODEL 3
REMARK VINA RESULT:    -0.983      1.755      4.239
REMARK INTER + INTRA:          -2.898
REMARK INTER:                  -0.973
REMARK INTRA:                  -1.925
REMARK UNBOUND:                -0.650
REMARK SMILES CCCCCCCCCCCCCCCCCCCCCCCC(=O)[O-]
REMARK SMILES IDX 13 1 14 2 15 3 16 4 17 5 18 6 19 7 20 8 21 9 22 10 23 11
REMARK SMILES IDX 24 12 25 13 26 14 12 15 11 16 10 17 9 18 8 19 7 20 6 21 5 22
REMARK SMILES IDX 4 23 3 24 2 25 1 26
REMARK H PARENT
REMARK Flexibility Score: inf
ROOT
ATOM      1  C   UNL     1      40.174  62.818  59.352  1.00  0.00     0.000 C 
ENDROOT
BRANCH   1   2
ATOM      2  C   UNL     1      40.025  63.507  60.717  1.00  0.00     0.000 C 
BRANCH   2   3
ATOM      3  C   UNL     1      40.588  64.934  60.682  1.00  0.00     0.000 C 
BRANCH   3   4
ATOM      4  C   UNL     1      42.085  64.941  61.029  1.00  0.00     0.000 C 
BRANCH   4   5
ATOM      5  C   UNL     1      42.978  64.801  59.779  1.00  0.00     0.000 C 
BRANCH   5   6
ATOM      6  C   UNL     1      44.460  65.120  60.042  1.00  0.00     0.000 C 
BRANCH   6   7
ATOM      7  C   UNL     1      45.318  65.066  58.768  1.00  0.00     0.000 C 
BRANCH   7   8
ATOM      8  C   UNL     1      46.762  64.605  59.057  1.00  0.00     0.000 C 
BRANCH   8   9
ATOM      9  C   UNL     1      46.846  63.264  59.806  1.00  0.00     0.000 C 
BRANCH   9  10
ATOM     10  C   UNL     1      47.862  63.283  60.956  1.00  0.00     0.006 C 
BRANCH  10  11
ATOM     11  C   UNL     1      48.835  64.458  60.815  1.00  0.00     0.053 C 
BRANCH  11  12
ATOM     12  C   UNL     1      50.042  64.066  60.019  1.00  0.00     0.041 C 
ATOM     13  O   UNL     1      50.286  62.850  59.795  1.00  0.00    -0.550 OA
ATOM     14  O   UNL     1      50.904  65.042  59.534  1.00  0.00    -0.550 OA
ENDBRANCH  11  12
ENDBRANCH  10  11
ENDBRANCH   9  10
ENDBRANCH   8   9
ENDBRANCH   7   8
ENDBRANCH   6   7
ENDBRANCH   5   6
ENDBRANCH   4   5
ENDBRANCH   3   4
ENDBRANCH   2   3
ENDBRANCH   1   2
BRANCH   1  15
ATOM     15  C   UNL     1      39.599  61.392  59.352  1.00  0.00     0.000 C 
BRANCH  15  16
ATOM     16  C   UNL     1      38.429  61.235  58.365  1.00  0.00     0.000 C 
BRANCH  16  17
ATOM     17  C   UNL     1      37.055  61.417  59.032  1.00  0.00     0.000 C 
BRANCH  17  18
ATOM     18  C   UNL     1      37.095  61.665  60.551  1.00  0.00    -0.000 C 
BRANCH  18  19
ATOM     19  C   UNL     1      35.825  62.358  61.077  1.00  0.00    -0.000 C 
BRANCH  19  20
ATOM     20  C   UNL     1      34.995  62.994  59.950  1.00  0.00    -0.000 C 
BRANCH  20  21
ATOM     21  C   UNL     1      35.237  64.506  59.830  1.00  0.00    -0.000 C 
BRANCH  21  22
ATOM     22  C   UNL     1      35.878  64.858  58.482  1.00  0.00    -0.000 C 
BRANCH  22  23
ATOM     23  C   UNL     1      37.399  65.013  58.621  1.00  0.00    -0.000 C 
BRANCH  23  24
ATOM     24  C   UNL     1      38.119  65.124  57.266  1.00  0.00    -0.000 C 
BRANCH  24  25
ATOM     25  C   UNL     1      39.643  64.912  57.324  1.00  0.00    -0.003 C 
ATOM     26  C   UNL     1      40.267  64.677  55.949  1.00  0.00     0.004 C 
ENDBRANCH  24  25
ENDBRANCH  23  24
ENDBRANCH  22  23
ENDBRANCH  21  22
ENDBRANCH  20  21
ENDBRANCH  19  20
ENDBRANCH  18  19
ENDBRANCH  17  18
ENDBRANCH  16  17
ENDBRANCH  15  16
ENDBRANCH   1  15
TORSDOF 22
ENDMDL
MODEL 4
REMARK VINA RESULT:    -0.833      4.526      9.924
REMARK INTER + INTRA:          -2.553
REMARK INTER:                  -3.233
REMARK INTRA:                   0.680
REMARK UNBOUND:                -0.650
REMARK SMILES CCCCCCCCCCCCCCCCCCCCCCCC(=O)[O-]
REMARK SMILES IDX 13 1 14 2 15 3 16 4 17 5 18 6 19 7 20 8 21 9 22 10 23 11
REMARK SMILES IDX 24 12 25 13 26 14 12 15 11 16 10 17 9 18 8 19 7 20 6 21 5 22
REMARK SMILES IDX 4 23 3 24 2 25 1 26
REMARK H PARENT
REMARK Flexibility Score: inf
ROOT
ATOM      1  C   UNL     1      43.996  62.086  55.941  1.00  0.00     0.000 C 
ENDROOT
BRANCH   1   2
ATOM      2  C   UNL     1      42.584  62.627  55.670  1.00  0.00     0.000 C 
BRANCH   2   3
ATOM      3  C   UNL     1      42.423  64.051  56.216  1.00  0.00     0.000 C 
BRANCH   3   4
ATOM      4  C   UNL     1      41.148  64.171  57.065  1.00  0.00     0.000 C 
BRANCH   4   5
ATOM      5  C   UNL     1      41.438  64.699  58.486  1.00  0.00     0.000 C 
BRANCH   5   6
ATOM      6  C   UNL     1      40.389  64.273  59.528  1.00  0.00     0.000 C 
BRANCH   6   7
ATOM      7  C   UNL     1      39.476  63.142  59.027  1.00  0.00     0.000 C 
BRANCH   7   8
ATOM      8  C   UNL     1      38.480  62.674  60.109  1.00  0.00     0.000 C 
BRANCH   8   9
ATOM      9  C   UNL     1      37.267  61.913  59.548  1.00  0.00     0.000 C 
BRANCH   9  10
ATOM     10  C   UNL     1      35.926  62.497  60.010  1.00  0.00     0.006 C 
BRANCH  10  11
ATOM     11  C   UNL     1      35.997  64.024  60.119  1.00  0.00     0.053 C 
BRANCH  11  12
ATOM     12  C   UNL     1      36.035  64.660  58.763  1.00  0.00     0.041 C 
ATOM     13  O   UNL     1      37.115  65.125  58.311  1.00  0.00    -0.550 OA
ATOM     14  O   UNL     1      34.875  64.750  58.003  1.00  0.00    -0.550 OA
ENDBRANCH  11  12
ENDBRANCH  10  11
ENDBRANCH   9  10
ENDBRANCH   8   9
ENDBRANCH   7   8
ENDBRANCH   6   7
ENDBRANCH   5   6
ENDBRANCH   4   5
ENDBRANCH   3   4
ENDBRANCH   2   3
ENDBRANCH   1   2
BRANCH   1  15
ATOM     15  C   UNL     1      45.019  62.573  54.901  1.00  0.00     0.000 C 
BRANCH  15  16
ATOM     16  C   UNL     1      44.991  64.101  54.727  1.00  0.00     0.000 C 
BRANCH  16  17
ATOM     17  C   UNL     1      45.167  64.857  56.055  1.00  0.00     0.000 C 
BRANCH  17  18
ATOM     18  C   UNL     1      45.667  64.001  57.232  1.00  0.00    -0.000 C 
BRANCH  18  19
ATOM     19  C   UNL     1      44.917  64.293  58.545  1.00  0.00    -0.000 C 
BRANCH  19  20
ATOM     20  C   UNL     1      45.765  65.107  59.536  1.00  0.00    -0.000 C 
BRANCH  20  21
ATOM     21  C   UNL     1      47.253  65.123  59.154  1.00  0.00    -0.000 C 
BRANCH  21  22
ATOM     22  C   UNL     1      48.141  64.885  60.381  1.00  0.00    -0.000 C 
BRANCH  22  23
ATOM     23  C   UNL     1      48.730  63.467  60.367  1.00  0.00    -0.000 C 
BRANCH  23  24
ATOM     24  C   UNL     1      50.085  63.385  59.644  1.00  0.00    -0.000 C 
BRANCH  24  25
ATOM     25  C   UNL     1      50.767  64.742  59.391  1.00  0.00    -0.003 C 
ATOM     26  C   UNL     1      52.093  64.616  58.643  1.00  0.00     0.004 C 
ENDBRANCH  24  25
ENDBRANCH  23  24
ENDBRANCH  22  23
ENDBRANCH  21  22
ENDBRANCH  20  21
ENDBRANCH  19  20
ENDBRANCH  18  19
ENDBRANCH  17  18
ENDBRANCH  16  17
ENDBRANCH  15  16
ENDBRANCH   1  15
TORSDOF 22
ENDMDL
MODEL 5
REMARK VINA RESULT:    -0.753      1.108      2.245
REMARK INTER + INTRA:          -2.372
REMARK INTER:                  -2.638
REMARK INTRA:                   0.266
REMARK UNBOUND:                -0.650
REMARK SMILES CCCCCCCCCCCCCCCCCCCCCCCC(=O)[O-]
REMARK SMILES IDX 13 1 14 2 15 3 16 4 17 5 18 6 19 7 20 8 21 9 22 10 23 11
REMARK SMILES IDX 24 12 25 13 26 14 12 15 11 16 10 17 9 18 8 19 7 20 6 21 5 22
REMARK SMILES IDX 4 23 3 24 2 25 1 26
REMARK H PARENT
REMARK Flexibility Score: inf
ROOT
ATOM      1  C   UNL     1      43.088  63.120  56.488  1.00  0.00     0.000 C 
ENDROOT
BRANCH   1   2
ATOM      2  C   UNL     1      44.249  63.037  55.485  1.00  0.00     0.000 C 
BRANCH   2   3
ATOM      3  C   UNL     1      45.450  63.865  55.958  1.00  0.00     0.000 C 
BRANCH   3   4
ATOM      4  C   UNL     1      44.996  65.025  56.857  1.00  0.00     0.000 C 
BRANCH   4   5
ATOM      5  C   UNL     1      44.684  64.564  58.296  1.00  0.00     0.000 C 
BRANCH   5   6
ATOM      6  C   UNL     1      45.874  64.707  59.260  1.00  0.00     0.000 C 
BRANCH   6   7
ATOM      7  C   UNL     1      46.705  63.419  59.378  1.00  0.00     0.000 C 
BRANCH   7   8
ATOM      8  C   UNL     1      47.493  63.352  60.704  1.00  0.00     0.000 C 
BRANCH   8   9
ATOM      9  C   UNL     1      48.115  64.695  61.123  1.00  0.00     0.000 C 
BRANCH   9  10
ATOM     10  C   UNL     1      49.645  64.709  61.007  1.00  0.00     0.006 C 
BRANCH  10  11
ATOM     11  C   UNL     1      50.133  63.660  60.002  1.00  0.00     0.053 C 
BRANCH  11  12
ATOM     12  C   UNL     1      51.180  64.230  59.095  1.00  0.00     0.041 C 
ATOM     13  O   UNL     1      50.867  65.085  58.224  1.00  0.00    -0.550 OA
ATOM     14  O   UNL     1      52.499  63.808  59.202  1.00  0.00    -0.550 OA
ENDBRANCH  11  12
ENDBRANCH  10  11
ENDBRANCH   9  10
ENDBRANCH   8   9
ENDBRANCH   7   8
ENDBRANCH   6   7
ENDBRANCH   5   6
ENDBRANCH   4   5
ENDBRANCH   3   4
ENDBRANCH   2   3
ENDBRANCH   1   2
BRANCH   1  15
ATOM     15  C   UNL     1      42.134  64.286  56.182  1.00  0.00     0.000 C 
BRANCH  15  16
ATOM     16  C   UNL     1      40.813  64.180  56.964  1.00  0.00     0.000 C 
BRANCH  16  17
ATOM     17  C   UNL     1      40.781  65.082  58.210  1.00  0.00     0.000 C 
BRANCH  17  18
ATOM     18  C   UNL     1      41.690  64.630  59.366  1.00  0.00    -0.000 C 
BRANCH  18  19
ATOM     19  C   UNL     1      40.902  64.248  60.632  1.00  0.00    -0.000 C 
BRANCH  19  20
ATOM     20  C   UNL     1      39.412  63.997  60.342  1.00  0.00    -0.000 C 
BRANCH  20  21
ATOM     21  C   UNL     1      38.961  62.596  60.781  1.00  0.00    -0.000 C 
BRANCH  21  22
ATOM     22  C   UNL     1      37.636  62.208  60.114  1.00  0.00    -0.000 C 
BRANCH  22  23
ATOM     23  C   UNL     1      37.656  62.542  58.615  1.00  0.00    -0.000 C 
BRANCH  23  24
ATOM     24  C   UNL     1      37.217  63.986  58.314  1.00  0.00    -0.000 C 
BRANCH  24  25
ATOM     25  C   UNL     1      36.376  64.650  59.418  1.00  0.00    -0.003 C 
ATOM     26  C   UNL     1      34.880  64.665  59.104  1.00  0.00     0.004 C 
ENDBRANCH  24  25
ENDBRANCH  23  24
ENDBRANCH  22  23
ENDBRANCH  21  22
ENDBRANCH  20  21
ENDBRANCH  19  20
ENDBRANCH  18  19
ENDBRANCH  17  18
ENDBRANCH  16  17
ENDBRANCH  15  16
ENDBRANCH   1  15
TORSDOF 22
ENDMDL
MODEL 6
REMARK VINA RESULT:    -0.735      3.294      5.366
REMARK INTER + INTRA:          -2.330
REMARK INTER:                   0.129
REMARK INTRA:                  -2.459
REMARK UNBOUND:                -0.650
REMARK SMILES CCCCCCCCCCCCCCCCCCCCCCCC(=O)[O-]
REMARK SMILES IDX 13 1 14 2 15 3 16 4 17 5 18 6 19 7 20 8 21 9 22 10 23 11
REMARK SMILES IDX 24 12 25 13 26 14 12 15 11 16 10 17 9 18 8 19 7 20 6 21 5 22
REMARK SMILES IDX 4 23 3 24 2 25 1 26
REMARK H PARENT
REMARK Flexibility Score: inf
ROOT
ATOM      1  C   UNL     1      40.791  62.738  60.188  1.00  0.00     0.000 C 
ENDROOT
BRANCH   1   2
ATOM      2  C   UNL     1      40.423  63.898  61.125  1.00  0.00     0.000 C 
BRANCH   2   3
ATOM      3  C   UNL     1      41.306  65.125  60.861  1.00  0.00     0.000 C 
BRANCH   3   4
ATOM      4  C   UNL     1      42.784  64.802  61.125  1.00  0.00     0.000 C 
BRANCH   4   5
ATOM      5  C   UNL     1      43.631  64.835  59.835  1.00  0.00     0.000 C 
BRANCH   5   6
ATOM      6  C   UNL     1      45.142  64.963  60.093  1.00  0.00     0.000 C 
BRANCH   6   7
ATOM      7  C   UNL     1      45.760  63.679  60.672  1.00  0.00     0.000 C 
BRANCH   7   8
ATOM      8  C   UNL     1      46.232  62.710  59.567  1.00  0.00     0.000 C 
BRANCH   8   9
ATOM      9  C   UNL     1      46.465  63.388  58.206  1.00  0.00     0.000 C 
BRANCH   9  10
ATOM     10  C   UNL     1      45.245  63.306  57.279  1.00  0.00     0.006 C 
BRANCH  10  11
ATOM     11  C   UNL     1      45.044  64.618  56.512  1.00  0.00     0.053 C 
BRANCH  11  12
ATOM     12  C   UNL     1      44.154  64.415  55.324  1.00  0.00     0.041 C 
ATOM     13  O   UNL     1      43.057  65.031  55.241  1.00  0.00    -0.550 OA
ATOM     14  O   UNL     1      44.529  63.539  54.314  1.00  0.00    -0.550 OA
ENDBRANCH  11  12
ENDBRANCH  10  11
ENDBRANCH   9  10
ENDBRANCH   8   9
ENDBRANCH   7   8
ENDBRANCH   6   7
ENDBRANCH   5   6
ENDBRANCH   4   5
ENDBRANCH   3   4
ENDBRANCH   2   3
ENDBRANCH   1   2
BRANCH   1  15
ATOM     15  C   UNL     1      40.048  61.440  60.546  1.00  0.00     0.000 C 
BRANCH  15  16
ATOM     16  C   UNL     1      39.225  60.895  59.366  1.00  0.00     0.000 C 
BRANCH  16  17
ATOM     17  C   UNL     1      37.715  61.142  59.524  1.00  0.00     0.000 C 
BRANCH  17  18
ATOM     18  C   UNL     1      37.196  61.102  60.972  1.00  0.00    -0.000 C 
BRANCH  18  19
ATOM     19  C   UNL     1      35.726  61.544  61.093  1.00  0.00    -0.000 C 
BRANCH  19  20
ATOM     20  C   UNL     1      35.443  62.851  60.334  1.00  0.00    -0.000 C 
BRANCH  20  21
ATOM     21  C   UNL     1      36.062  64.074  61.028  1.00  0.00    -0.000 C 
BRANCH  21  22
ATOM     22  C   UNL     1      37.116  64.741  60.138  1.00  0.00    -0.000 C 
BRANCH  22  23
ATOM     23  C   UNL     1      36.885  64.397  58.659  1.00  0.00    -0.000 C 
BRANCH  23  24
ATOM     24  C   UNL     1      38.172  63.965  57.934  1.00  0.00    -0.000 C 
BRANCH  24  25
ATOM     25  C   UNL     1      39.210  65.084  57.736  1.00  0.00    -0.003 C 
ATOM     26  C   UNL     1      40.575  64.562  57.292  1.00  0.00     0.004 C 
ENDBRANCH  24  25
ENDBRANCH  23  24
ENDBRANCH  22  23
ENDBRANCH  21  22
ENDBRANCH  20  21
ENDBRANCH  19  20
ENDBRANCH  18  19
ENDBRANCH  17  18
ENDBRANCH  16  17
ENDBRANCH  15  16
ENDBRANCH   1  15
TORSDOF 22
ENDMDL
MODEL 7
REMARK VINA RESULT:    -0.576      2.976      7.740
REMARK INTER + INTRA:          -1.967
REMARK INTER:                   0.239
REMARK INTRA:                  -2.206
REMARK UNBOUND:                -0.650
REMARK SMILES CCCCCCCCCCCCCCCCCCCCCCCC(=O)[O-]
REMARK SMILES IDX 13 1 14 2 15 3 16 4 17 5 18 6 19 7 20 8 21 9 22 10 23 11
REMARK SMILES IDX 24 12 25 13 26 14 12 15 11 16 10 17 9 18 8 19 7 20 6 21 5 22
REMARK SMILES IDX 4 23 3 24 2 25 1 26
REMARK H PARENT
REMARK Flexibility Score: inf
ROOT
ATOM      1  C   UNL     1      36.979  61.538  59.245  1.00  0.00     0.000 C 
ENDROOT
BRANCH   1   2
ATOM      2  C   UNL     1      35.824  62.546  59.160  1.00  0.00     0.000 C 
BRANCH   2   3
ATOM      3  C   UNL     1      36.059  63.739  60.096  1.00  0.00     0.000 C 
BRANCH   3   4
ATOM      4  C   UNL     1      35.971  65.065  59.327  1.00  0.00     0.000 C 
BRANCH   4   5
ATOM      5  C   UNL     1      36.069  64.865  57.800  1.00  0.00     0.000 C 
BRANCH   5   6
ATOM      6  C   UNL     1      37.476  65.125  57.234  1.00  0.00     0.000 C 
BRANCH   6   7
ATOM      7  C   UNL     1      38.596  64.703  58.199  1.00  0.00     0.000 C 
BRANCH   7   8
ATOM      8  C   UNL     1      39.829  64.150  57.455  1.00  0.00     0.000 C 
BRANCH   8   9
ATOM      9  C   UNL     1      40.408  65.119  56.410  1.00  0.00     0.000 C 
BRANCH   9  10
ATOM     10  C   UNL     1      41.559  64.510  55.600  1.00  0.00     0.006 C 
BRANCH  10  11
ATOM     11  C   UNL     1      42.489  63.683  56.495  1.00  0.00     0.053 C 
BRANCH  11  12
ATOM     12  C   UNL     1      43.889  63.683  55.961  1.00  0.00     0.041 C 
ATOM     13  O   UNL     1      44.678  62.744  56.252  1.00  0.00    -0.550 OA
ATOM     14  O   UNL     1      44.326  64.724  55.152  1.00  0.00    -0.550 OA
ENDBRANCH  11  12
ENDBRANCH  10  11
ENDBRANCH   9  10
ENDBRANCH   8   9
ENDBRANCH   7   8
ENDBRANCH   6   7
ENDBRANCH   5   6
ENDBRANCH   4   5
ENDBRANCH   3   4
ENDBRANCH   2   3
ENDBRANCH   1   2
BRANCH   1  15
ATOM     15  C   UNL     1      37.242  61.071  60.687  1.00  0.00     0.000 C 
BRANCH  15  16
ATOM     16  C   UNL     1      38.422  60.088  60.776  1.00  0.00     0.000 C 
BRANCH  16  17
ATOM     17  C   UNL     1      39.766  60.789  61.034  1.00  0.00     0.000 C 
BRANCH  17  18
ATOM     18  C   UNL     1      40.068  61.982  60.109  1.00  0.00    -0.000 C 
BRANCH  18  19
ATOM     19  C   UNL     1      40.080  63.329  60.854  1.00  0.00    -0.000 C 
BRANCH  19  20
ATOM     20  C   UNL     1      41.506  63.838  61.123  1.00  0.00    -0.000 C 
BRANCH  20  21
ATOM     21  C   UNL     1      41.910  64.970  60.167  1.00  0.00    -0.000 C 
BRANCH  21  22
ATOM     22  C   UNL     1      43.434  65.125  60.107  1.00  0.00    -0.000 C 
BRANCH  22  23
ATOM     23  C   UNL     1      44.124  64.159  61.081  1.00  0.00    -0.000 C 
BRANCH  23  24
ATOM     24  C   UNL     1      45.593  63.884  60.717  1.00  0.00    -0.000 C 
BRANCH  24  25
ATOM     25  C   UNL     1      45.859  63.670  59.216  1.00  0.00    -0.003 C 
ATOM     26  C   UNL     1      47.018  64.513  58.687  1.00  0.00     0.004 C 
ENDBRANCH  24  25
ENDBRANCH  23  24
ENDBRANCH  22  23
ENDBRANCH  21  22
ENDBRANCH  20  21
ENDBRANCH  19  20
ENDBRANCH  18  19
ENDBRANCH  17  18
ENDBRANCH  16  17
ENDBRANCH  15  16
ENDBRANCH   1  15
TORSDOF 22
ENDMDL
MODEL 8
REMARK VINA RESULT:    -0.545      1.388      2.653
REMARK INTER + INTRA:          -1.896
REMARK INTER:                  -2.119
REMARK INTRA:                   0.222
REMARK UNBOUND:                -0.650
REMARK SMILES CCCCCCCCCCCCCCCCCCCCCCCC(=O)[O-]
REMARK SMILES IDX 13 1 14 2 15 3 16 4 17 5 18 6 19 7 20 8 21 9 22 10 23 11
REMARK SMILES IDX 24 12 25 13 26 14 12 15 11 16 10 17 9 18 8 19 7 20 6 21 5 22
REMARK SMILES IDX 4 23 3 24 2 25 1 26
REMARK H PARENT
REMARK Flexibility Score: inf
ROOT
ATOM      1  C   UNL     1      43.922  63.226  55.921  1.00  0.00     0.000 C 
ENDROOT
BRANCH   1   2
ATOM      2  C   UNL     1      43.257  64.364  56.710  1.00  0.00     0.000 C 
BRANCH   2   3
ATOM      3  C   UNL     1      43.355  64.122  58.222  1.00  0.00     0.000 C 
BRANCH   3   4
ATOM      4  C   UNL     1      44.390  65.059  58.861  1.00  0.00     0.000 C 
BRANCH   4   5
ATOM      5  C   UNL     1      44.569  64.793  60.370  1.00  0.00     0.000 C 
BRANCH   5   6
ATOM      6  C   UNL     1      45.975  64.294  60.745  1.00  0.00     0.000 C 
BRANCH   6   7
ATOM      7  C   UNL     1      47.070  64.834  59.811  1.00  0.00     0.000 C 
BRANCH   7   8
ATOM      8  C   UNL     1      48.381  64.029  59.923  1.00  0.00     0.000 C 
BRANCH   8   9
ATOM      9  C   UNL     1      49.270  64.454  61.105  1.00  0.00     0.000 C 
BRANCH   9  10
ATOM     10  C   UNL     1      50.657  64.942  60.666  1.00  0.00     0.006 C 
BRANCH  10  11
ATOM     11  C   UNL     1      50.725  65.125  59.146  1.00  0.00     0.053 C 
BRANCH  11  12
ATOM     12  C   UNL     1      51.901  64.399  58.569  1.00  0.00     0.041 C 
ATOM     13  O   UNL     1      52.615  64.948  57.688  1.00  0.00    -0.550 OA
ATOM     14  O   UNL     1      52.202  63.111  58.994  1.00  0.00    -0.550 OA
ENDBRANCH  11  12
ENDBRANCH  10  11
ENDBRANCH   9  10
ENDBRANCH   8   9
ENDBRANCH   7   8
ENDBRANCH   6   7
ENDBRANCH   5   6
ENDBRANCH   4   5
ENDBRANCH   3   4
ENDBRANCH   2   3
ENDBRANCH   1   2
BRANCH   1  15
ATOM     15  C   UNL     1      44.288  63.645  54.487  1.00  0.00     0.000 C 
BRANCH  15  16
ATOM     16  C   UNL     1      43.158  63.347  53.487  1.00  0.00     0.000 C 
BRANCH  16  17
ATOM     17  C   UNL     1      42.148  64.501  53.365  1.00  0.00     0.000 C 
BRANCH  17  18
ATOM     18  C   UNL     1      41.658  65.084  54.702  1.00  0.00    -0.000 C 
BRANCH  18  19
ATOM     19  C   UNL     1      40.575  64.219  55.371  1.00  0.00    -0.000 C 
BRANCH  19  20
ATOM     20  C   UNL     1      39.752  65.005  56.405  1.00  0.00    -0.000 C 
BRANCH  20  21
ATOM     21  C   UNL     1      39.655  64.273  57.752  1.00  0.00    -0.000 C 
BRANCH  21  22
ATOM     22  C   UNL     1      38.249  64.399  58.349  1.00  0.00    -0.000 C 
BRANCH  22  23
ATOM     23  C   UNL     1      37.929  63.205  59.261  1.00  0.00    -0.000 C 
BRANCH  23  24
ATOM     24  C   UNL     1      38.898  62.025  59.069  1.00  0.00    -0.000 C 
BRANCH  24  25
ATOM     25  C   UNL     1      38.283  60.636  59.315  1.00  0.00    -0.003 C 
ATOM     26  C   UNL     1      38.050  60.337  60.795  1.00  0.00     0.004 C 
ENDBRANCH  24  25
ENDBRANCH  23  24
ENDBRANCH  22  23
ENDBRANCH  21  22
ENDBRANCH  20  21
ENDBRANCH  19  20
ENDBRANCH  18  19
ENDBRANCH  17  18
ENDBRANCH  16  17
ENDBRANCH  15  16
ENDBRANCH   1  15
TORSDOF 22
ENDMDL
