MODEL 1
REMARK VINA RESULT:    51.712      0.000      0.000
REMARK INTER + INTRA:          56.584
REMARK INTER:                  56.247
REMARK INTRA:                   0.338
REMARK UNBOUND:                 0.338
REMARK SMILES C[C@@H]1[C@H](C)CC[C@@]2(C(=O)[O-])CC[C@]3(C)C(=CC[C@H]4[C@]5(C)CC[C@H](O)C(C)(C)[C@H]5CC[C@@]43C)[C@@H]12
REMARK SMILES IDX 7 1 6 2 11 3 33 4 5 5 12 6 15 7 2 8 3 9 13 10 16 11 1 12
REMARK SMILES IDX 4 13 14 14 31 15 17 16 18 17 30 18 32 19 19 20 29 21 28 22
REMARK SMILES IDX 21 23 20 24 25 25 22 26 23 27 26 28 27 29 8 30 9 31 10 32
REMARK SMILES IDX 24 33
REMARK H PARENT 24 34
REMARK Flexibility Score: inf
ROOT
ATOM      1  C   UNL     1     -51.557  11.245 -16.258  1.00  0.00     0.017 C 
ATOM      2  C   UNL     1     -51.675  12.799 -16.217  1.00  0.00     0.014 C 
ATOM      3  C   UNL     1     -50.555  10.909 -17.423  1.00  0.00     0.014 C 
ATOM      4  C   UNL     1     -51.041  10.675 -14.875  1.00  0.00     0.030 C 
ATOM      5  C   UNL     1     -52.438  13.316 -15.001  1.00  0.00     0.004 C 
ATOM      6  C   UNL     1     -49.839   9.536 -17.332  1.00  0.00     0.013 C 
ATOM      7  C   UNL     1     -49.547  10.356 -14.978  1.00  0.00    -0.063 C 
ATOM      8  C   UNL     1     -51.518  11.418 -13.563  1.00  0.00    -0.003 C 
ATOM      9  C   UNL     1     -51.667  12.962 -13.729  1.00  0.00    -0.011 C 
ATOM     10  C   UNL     1     -49.187   9.183 -15.924  1.00  0.00    -0.006 C 
ATOM     11  C   UNL     1     -48.652  11.331 -14.691  1.00  0.00    -0.027 C 
ATOM     12  C   UNL     1     -52.814  10.768 -13.015  1.00  0.00     0.008 C 
ATOM     13  C   UNL     1     -52.292  13.657 -12.507  1.00  0.00     0.008 C 
ATOM     14  C   UNL     1     -49.876   7.875 -15.403  1.00  0.00     0.017 C 
ATOM     15  C   UNL     1     -47.590   8.945 -15.978  1.00  0.00    -0.020 C 
ATOM     16  C   UNL     1     -47.213  11.338 -15.121  1.00  0.00     0.032 C 
ATOM     17  C   UNL     1     -46.911  10.339 -16.269  1.00  0.00     0.006 C 
ATOM     18  C   UNL     1     -47.205   7.875 -17.067  1.00  0.00     0.008 C 
ATOM     19  C   UNL     1     -47.096   8.378 -14.605  1.00  0.00     0.012 C 
ATOM     20  C   UNL     1     -45.393  10.331 -16.759  1.00  0.00    -0.025 C 
ATOM     21  C   UNL     1     -45.735   7.889 -17.492  1.00  0.00     0.005 C 
ATOM     22  C   UNL     1     -45.302   9.303 -17.950  1.00  0.00     0.003 C 
ATOM     23  C   UNL     1     -45.054  11.754 -17.315  1.00  0.00     0.010 C 
ATOM     24  C   UNL     1     -44.388  10.011 -15.596  1.00  0.00     0.012 C 
ATOM     25  C   UNL     1     -43.977   9.343 -18.814  1.00  0.00    -0.006 C 
ATOM     26  C   UNL     1     -43.742  11.833 -18.115  1.00  0.00     0.033 C 
ATOM     27  C   UNL     1     -43.669  10.813 -19.263  1.00  0.00     0.120 C 
ATOM     28  C   UNL     1     -42.749   8.767 -18.059  1.00  0.00     0.014 C 
ATOM     29  C   UNL     1     -44.147   8.482 -20.098  1.00  0.00     0.014 C 
ENDROOT
BRANCH   1  30
ATOM     30  C   UNL     1     -52.908  10.624 -16.614  1.00  0.00     0.048 C 
ATOM     31  O   UNL     1     -53.696  10.255 -15.703  1.00  0.00    -0.550 OA
ATOM     32  O   UNL     1     -53.263  10.381 -17.937  1.00  0.00    -0.550 OA
ENDBRANCH   1  30
BRANCH  27  33
ATOM     33  O   UNL     1     -44.476  11.229 -20.343  1.00  0.00    -0.393 OA
ATOM     34  H   UNL     1     -43.932  11.208 -21.170  1.00  0.00     0.210 HD
ENDBRANCH  27  33
TORSDOF 2
ENDMDL
