MODEL 1
REMARK VINA RESULT:    -4.572      0.000      0.000
REMARK INTER + INTRA:          -4.705
REMARK INTER:                  -4.705
REMARK INTRA:                   0.000
REMARK UNBOUND:                 0.000
REMARK SMILES O=c1ccc2ccc(O)cc2o1
REMARK SMILES IDX 6 1 7 2 8 3 10 4 11 5 5 6 4 7 3 8 2 9 1 10 12 11 9 12
REMARK H PARENT 9 13
REMARK Flexibility Score: inf
ROOT
ATOM      1  C   UNL     1     190.621 173.389 174.898  1.00  0.00     0.016 A 
ATOM      2  C   UNL     1     190.602 173.216 173.510  1.00  0.00     0.047 A 
ATOM      3  C   UNL     1     190.792 174.315 172.658  1.00  0.00     0.119 A 
ATOM      4  C   UNL     1     191.002 175.589 173.197  1.00  0.00     0.094 A 
ATOM      5  C   UNL     1     191.023 175.771 174.585  1.00  0.00     0.142 A 
ATOM      6  C   UNL     1     190.832 174.663 175.441  1.00  0.00     0.018 A 
ATOM      7  C   UNL     1     190.858 174.876 176.822  1.00  0.00     0.019 A 
ATOM      8  C   UNL     1     191.071 176.165 177.312  1.00  0.00     0.094 A 
ATOM      9  C   UNL     1     191.253 177.215 176.405  1.00  0.00     0.336 A 
ATOM     10  O   UNL     1     191.447 178.384 176.828  1.00  0.00    -0.246 OA
ATOM     11  O   UNL     1     191.223 176.984 175.094  1.00  0.00    -0.423 OA
ENDROOT
BRANCH   3  12
ATOM     12  O   UNL     1     190.773 174.150 171.274  1.00  0.00    -0.508 OA
ATOM     13  H   UNL     1     190.291 174.805 170.670  1.00  0.00     0.293 HD
ENDBRANCH   3  12
TORSDOF 1
ENDMDL
MODEL 2
REMARK VINA RESULT:    -4.441     21.932     22.709
REMARK INTER + INTRA:          -4.571
REMARK INTER:                  -4.571
REMARK INTRA:                   0.000
REMARK UNBOUND:                 0.000
REMARK SMILES O=c1ccc2ccc(O)cc2o1
REMARK SMILES IDX 6 1 7 2 8 3 10 4 11 5 5 6 4 7 3 8 2 9 1 10 12 11 9 12
REMARK H PARENT 9 13
REMARK Flexibility Score: inf
ROOT
ATOM      1  C   UNL     1     172.364 189.815 174.816  1.00  0.00     0.016 A 
ATOM      2  C   UNL     1     172.346 189.980 173.427  1.00  0.00     0.047 A 
ATOM      3  C   UNL     1     172.227 188.864 172.584  1.00  0.00     0.119 A 
ATOM      4  C   UNL     1     172.127 187.581 173.134  1.00  0.00     0.094 A 
ATOM      5  C   UNL     1     172.143 187.407 174.522  1.00  0.00     0.142 A 
ATOM      6  C   UNL     1     172.262 188.531 175.369  1.00  0.00     0.018 A 
ATOM      7  C   UNL     1     172.275 188.326 176.752  1.00  0.00     0.019 A 
ATOM      8  C   UNL     1     172.171 187.028 177.252  1.00  0.00     0.094 A 
ATOM      9  C   UNL     1     172.056 185.961 176.353  1.00  0.00     0.336 A 
ATOM     10  O   UNL     1     171.961 184.783 176.785  1.00  0.00    -0.246 OA
ATOM     11  O   UNL     1     172.046 186.185 175.042  1.00  0.00    -0.423 OA
ENDROOT
BRANCH   3  12
ATOM     12  O   UNL     1     172.210 189.021 171.200  1.00  0.00    -0.508 OA
ATOM     13  H   UNL     1     172.972 188.691 170.620  1.00  0.00     0.293 HD
ENDBRANCH   3  12
TORSDOF 1
ENDMDL
MODEL 3
REMARK VINA RESULT:    -4.275      2.088      2.725
REMARK INTER + INTRA:          -4.400
REMARK INTER:                  -4.400
REMARK INTRA:                   0.000
REMARK UNBOUND:                 0.000
REMARK SMILES O=c1ccc2ccc(O)cc2o1
REMARK SMILES IDX 6 1 7 2 8 3 10 4 11 5 5 6 4 7 3 8 2 9 1 10 12 11 9 12
REMARK H PARENT 9 13
REMARK Flexibility Score: inf
ROOT
ATOM      1  C   UNL     1     191.232 176.514 174.779  1.00  0.00     0.016 A 
ATOM      2  C   UNL     1     191.079 175.641 173.696  1.00  0.00     0.047 A 
ATOM      3  C   UNL     1     190.490 174.381 173.882  1.00  0.00     0.119 A 
ATOM      4  C   UNL     1     190.054 173.995 175.154  1.00  0.00     0.094 A 
ATOM      5  C   UNL     1     190.203 174.861 176.243  1.00  0.00     0.142 A 
ATOM      6  C   UNL     1     190.796 176.130 176.054  1.00  0.00     0.018 A 
ATOM      7  C   UNL     1     190.931 176.974 177.160  1.00  0.00     0.019 A 
ATOM      8  C   UNL     1     190.481 176.544 178.408  1.00  0.00     0.094 A 
ATOM      9  C   UNL     1     189.904 175.274 178.521  1.00  0.00     0.336 A 
ATOM     10  O   UNL     1     189.492 174.869 179.639  1.00  0.00    -0.246 OA
ATOM     11  O   UNL     1     189.787 174.491 177.452  1.00  0.00    -0.423 OA
ENDROOT
BRANCH   3  12
ATOM     12  O   UNL     1     190.335 173.507 172.808  1.00  0.00    -0.508 OA
ATOM     13  H   UNL     1     191.097 173.312 172.170  1.00  0.00     0.293 HD
ENDBRANCH   3  12
TORSDOF 1
ENDMDL
MODEL 4
REMARK VINA RESULT:    -4.233      3.336      6.174
REMARK INTER + INTRA:          -4.357
REMARK INTER:                  -4.357
REMARK INTRA:                   0.000
REMARK UNBOUND:                 0.000
REMARK SMILES O=c1ccc2ccc(O)cc2o1
REMARK SMILES IDX 6 1 7 2 8 3 10 4 11 5 5 6 4 7 3 8 2 9 1 10 12 11 9 12
REMARK H PARENT 9 13
REMARK Flexibility Score: inf
ROOT
ATOM      1  C   UNL     1     190.176 178.033 179.724  1.00  0.00     0.016 A 
ATOM      2  C   UNL     1     189.440 177.691 180.864  1.00  0.00     0.047 A 
ATOM      3  C   UNL     1     188.930 176.392 181.012  1.00  0.00     0.119 A 
ATOM      4  C   UNL     1     189.159 175.434 180.018  1.00  0.00     0.094 A 
ATOM      5  C   UNL     1     189.895 175.767 178.876  1.00  0.00     0.142 A 
ATOM      6  C   UNL     1     190.407 177.075 178.728  1.00  0.00     0.018 A 
ATOM      7  C   UNL     1     191.139 177.378 177.575  1.00  0.00     0.019 A 
ATOM      8  C   UNL     1     191.340 176.389 176.613  1.00  0.00     0.094 A 
ATOM      9  C   UNL     1     190.803 175.115 176.826  1.00  0.00     0.336 A 
ATOM     10  O   UNL     1     190.975 174.209 175.970  1.00  0.00    -0.246 OA
ATOM     11  O   UNL     1     190.111 174.853 177.933  1.00  0.00    -0.423 OA
ENDROOT
BRANCH   3  12
ATOM     12  O   UNL     1     188.196 176.044 182.144  1.00  0.00    -0.508 OA
ATOM     13  H   UNL     1     187.677 175.176 182.192  1.00  0.00     0.293 HD
ENDBRANCH   3  12
TORSDOF 1
ENDMDL
MODEL 5
REMARK VINA RESULT:    -4.231     21.282     22.150
REMARK INTER + INTRA:          -4.355
REMARK INTER:                  -4.355
REMARK INTRA:                   0.000
REMARK UNBOUND:                 0.000
REMARK SMILES O=c1ccc2ccc(O)cc2o1
REMARK SMILES IDX 6 1 7 2 8 3 10 4 11 5 5 6 4 7 3 8 2 9 1 10 12 11 9 12
REMARK H PARENT 9 13
REMARK Flexibility Score: inf
ROOT
ATOM      1  C   UNL     1     172.513 185.539 178.199  1.00  0.00     0.016 A 
ATOM      2  C   UNL     1     173.139 185.773 179.428  1.00  0.00     0.047 A 
ATOM      3  C   UNL     1     173.747 187.010 179.688  1.00  0.00     0.119 A 
ATOM      4  C   UNL     1     173.729 188.016 178.715  1.00  0.00     0.094 A 
ATOM      5  C   UNL     1     173.104 187.791 177.483  1.00  0.00     0.142 A 
ATOM      6  C   UNL     1     172.492 186.545 177.223  1.00  0.00     0.018 A 
ATOM      7  C   UNL     1     171.876 186.350 175.983  1.00  0.00     0.019 A 
ATOM      8  C   UNL     1     171.883 187.383 175.046  1.00  0.00     0.094 A 
ATOM      9  C   UNL     1     172.509 188.591 175.372  1.00  0.00     0.336 A 
ATOM     10  O   UNL     1     172.526 189.534 174.539  1.00  0.00    -0.246 OA
ATOM     11  O   UNL     1     173.088 188.750 176.560  1.00  0.00    -0.423 OA
ENDROOT
BRANCH   3  12
ATOM     12  O   UNL     1     174.373 187.250 180.910  1.00  0.00    -0.508 OA
ATOM     13  H   UNL     1     175.295 187.667 180.959  1.00  0.00     0.293 HD
ENDBRANCH   3  12
TORSDOF 1
ENDMDL
MODEL 6
REMARK VINA RESULT:    -4.215     21.684     22.066
REMARK INTER + INTRA:          -4.338
REMARK INTER:                  -4.338
REMARK INTRA:                   0.000
REMARK UNBOUND:                 0.000
REMARK SMILES O=c1ccc2ccc(O)cc2o1
REMARK SMILES IDX 6 1 7 2 8 3 10 4 11 5 5 6 4 7 3 8 2 9 1 10 12 11 9 12
REMARK H PARENT 9 13
REMARK Flexibility Score: inf
ROOT
ATOM      1  C   UNL     1     171.879 186.626 174.930  1.00  0.00     0.016 A 
ATOM      2  C   UNL     1     171.977 187.454 173.806  1.00  0.00     0.047 A 
ATOM      3  C   UNL     1     172.647 188.683 173.890  1.00  0.00     0.119 A 
ATOM      4  C   UNL     1     173.221 189.085 175.102  1.00  0.00     0.094 A 
ATOM      5  C   UNL     1     173.128 188.264 176.231  1.00  0.00     0.142 A 
ATOM      6  C   UNL     1     172.453 187.026 176.144  1.00  0.00     0.018 A 
ATOM      7  C   UNL     1     172.377 186.226 177.289  1.00  0.00     0.019 A 
ATOM      8  C   UNL     1     172.965 186.670 178.473  1.00  0.00     0.094 A 
ATOM      9  C   UNL     1     173.617 187.908 178.486  1.00  0.00     0.336 A 
ATOM     10  O   UNL     1     174.154 188.325 179.545  1.00  0.00    -0.246 OA
ATOM     11  O   UNL     1     173.675 188.648 177.382  1.00  0.00    -0.423 OA
ENDROOT
BRANCH   3  12
ATOM     12  O   UNL     1     172.748 189.513 172.775  1.00  0.00    -0.508 OA
ATOM     13  H   UNL     1     173.643 189.718 172.348  1.00  0.00     0.293 HD
ENDBRANCH   3  12
TORSDOF 1
ENDMDL
MODEL 7
REMARK VINA RESULT:    -4.147      2.547      5.328
REMARK INTER + INTRA:          -4.268
REMARK INTER:                  -4.268
REMARK INTRA:                   0.000
REMARK UNBOUND:                 0.000
REMARK SMILES O=c1ccc2ccc(O)cc2o1
REMARK SMILES IDX 6 1 7 2 8 3 10 4 11 5 5 6 4 7 3 8 2 9 1 10 12 11 9 12
REMARK H PARENT 9 13
REMARK Flexibility Score: inf
ROOT
ATOM      1  C   UNL     1     190.639 177.361 178.148  1.00  0.00     0.016 A 
ATOM      2  C   UNL     1     190.091 177.106 179.410  1.00  0.00     0.047 A 
ATOM      3  C   UNL     1     189.545 175.847 179.703  1.00  0.00     0.119 A 
ATOM      4  C   UNL     1     189.548 174.841 178.730  1.00  0.00     0.094 A 
ATOM      5  C   UNL     1     190.095 175.086 177.465  1.00  0.00     0.142 A 
ATOM      6  C   UNL     1     190.644 176.355 177.173  1.00  0.00     0.018 A 
ATOM      7  C   UNL     1     191.183 176.571 175.901  1.00  0.00     0.019 A 
ATOM      8  C   UNL     1     191.164 175.536 174.965  1.00  0.00     0.094 A 
ATOM      9  C   UNL     1     190.603 174.306 175.325  1.00  0.00     0.336 A 
ATOM     10  O   UNL     1     190.576 173.361 174.494  1.00  0.00    -0.246 OA
ATOM     11  O   UNL     1     190.097 174.127 176.543  1.00  0.00    -0.423 OA
ENDROOT
BRANCH   3  12
ATOM     12  O   UNL     1     188.997 175.586 180.957  1.00  0.00    -0.508 OA
ATOM     13  H   UNL     1     189.514 175.081 181.666  1.00  0.00     0.293 HD
ENDBRANCH   3  12
TORSDOF 1
ENDMDL
MODEL 8
REMARK VINA RESULT:    -4.070      1.116      4.273
REMARK INTER + INTRA:          -4.189
REMARK INTER:                  -4.189
REMARK INTRA:                   0.000
REMARK UNBOUND:                 0.000
REMARK SMILES O=c1ccc2ccc(O)cc2o1
REMARK SMILES IDX 6 1 7 2 8 3 10 4 11 5 5 6 4 7 3 8 2 9 1 10 12 11 9 12
REMARK H PARENT 9 13
REMARK Flexibility Score: inf
ROOT
ATOM      1  C   UNL     1     189.797 174.493 177.138  1.00  0.00     0.016 A 
ATOM      2  C   UNL     1     190.226 175.438 178.077  1.00  0.00     0.047 A 
ATOM      3  C   UNL     1     191.004 176.533 177.674  1.00  0.00     0.119 A 
ATOM      4  C   UNL     1     191.354 176.683 176.327  1.00  0.00     0.094 A 
ATOM      5  C   UNL     1     190.930 175.744 175.381  1.00  0.00     0.142 A 
ATOM      6  C   UNL     1     190.146 174.641 175.789  1.00  0.00     0.018 A 
ATOM      7  C   UNL     1     189.737 173.719 174.821  1.00  0.00     0.019 A 
ATOM      8  C   UNL     1     190.111 173.912 173.492  1.00  0.00     0.094 A 
ATOM      9  C   UNL     1     190.888 175.027 173.159  1.00  0.00     0.336 A 
ATOM     10  O   UNL     1     191.235 175.218 171.965  1.00  0.00    -0.246 OA
ATOM     11  O   UNL     1     191.264 175.890 174.101  1.00  0.00    -0.423 OA
ENDROOT
BRANCH   3  12
ATOM     12  O   UNL     1     191.434 177.478 178.604  1.00  0.00    -0.508 OA
ATOM     13  H   UNL     1     190.816 178.203 178.946  1.00  0.00     0.293 HD
ENDBRANCH   3  12
TORSDOF 1
ENDMDL
MODEL 9
REMARK VINA RESULT:    -4.050     20.303     21.444
REMARK INTER + INTRA:          -4.169
REMARK INTER:                  -4.169
REMARK INTRA:                   0.000
REMARK UNBOUND:                 0.000
REMARK SMILES O=c1ccc2ccc(O)cc2o1
REMARK SMILES IDX 6 1 7 2 8 3 10 4 11 5 5 6 4 7 3 8 2 9 1 10 12 11 9 12
REMARK H PARENT 9 13
REMARK Flexibility Score: inf
ROOT
ATOM      1  C   UNL     1     176.329 188.326 179.630  1.00  0.00     0.016 A 
ATOM      2  C   UNL     1     176.360 187.660 180.859  1.00  0.00     0.047 A 
ATOM      3  C   UNL     1     175.262 186.893 181.276  1.00  0.00     0.119 A 
ATOM      4  C   UNL     1     174.130 186.793 180.459  1.00  0.00     0.094 A 
ATOM      5  C   UNL     1     174.090 187.455 179.227  1.00  0.00     0.142 A 
ATOM      6  C   UNL     1     175.197 188.227 178.810  1.00  0.00     0.018 A 
ATOM      7  C   UNL     1     175.128 188.878 177.574  1.00  0.00     0.019 A 
ATOM      8  C   UNL     1     173.979 188.747 176.795  1.00  0.00     0.094 A 
ATOM      9  C   UNL     1     172.920 187.966 177.272  1.00  0.00     0.336 A 
ATOM     10  O   UNL     1     171.875 187.836 176.584  1.00  0.00    -0.246 OA
ATOM     11  O   UNL     1     173.012 187.357 178.452  1.00  0.00    -0.423 OA
ENDROOT
BRANCH   3  12
ATOM     12  O   UNL     1     175.285 186.227 182.500  1.00  0.00    -0.508 OA
ATOM     13  H   UNL     1     175.532 185.246 182.564  1.00  0.00     0.293 HD
ENDBRANCH   3  12
TORSDOF 1
ENDMDL
