MODEL 1
REMARK VINA RESULT:     2.337      0.000      0.000
REMARK INTER + INTRA:           3.870
REMARK INTER:                   3.703
REMARK INTRA:                   0.167
REMARK UNBOUND:                 0.167
REMARK SMILES CCCCCCCCCCCC(=O)[O-]
REMARK SMILES IDX 7 1 8 2 9 3 10 4 11 5 12 6 13 7 14 8 6 9 5 10 4 11 3 12 2 13
REMARK SMILES IDX 1 14
REMARK H PARENT
REMARK Flexibility Score: inf
ROOT
ATOM      1  C   UNL     1      15.593  39.839  47.497  1.00  0.00     0.000 C 
ENDROOT
BRANCH   1   2
ATOM      2  C   UNL     1      14.474  39.967  46.441  1.00  0.00     0.000 C 
BRANCH   2   3
ATOM      3  C   UNL     1      13.460  38.807  46.418  1.00  0.00     0.000 C 
BRANCH   3   4
ATOM      4  C   UNL     1      13.656  37.748  47.521  1.00  0.00     0.006 C 
BRANCH   4   5
ATOM      5  C   UNL     1      12.690  36.555  47.434  1.00  0.00     0.053 C 
BRANCH   5   6
ATOM      6  C   UNL     1      13.375  35.259  47.736  1.00  0.00     0.041 C 
ATOM      7  O   UNL     1      14.387  35.236  48.484  1.00  0.00    -0.550 OA
ATOM      8  O   UNL     1      12.875  34.071  47.216  1.00  0.00    -0.550 OA
ENDBRANCH   5   6
ENDBRANCH   4   5
ENDBRANCH   3   4
ENDBRANCH   2   3
ENDBRANCH   1   2
BRANCH   1   9
ATOM      9  C   UNL     1      16.414  38.540  47.417  1.00  0.00     0.000 C 
BRANCH   9  10
ATOM     10  C   UNL     1      17.271  38.453  46.146  1.00  0.00    -0.000 C 
BRANCH  10  11
ATOM     11  C   UNL     1      18.417  37.449  46.324  1.00  0.00    -0.000 C 
BRANCH  11  12
ATOM     12  C   UNL     1      19.584  38.078  47.095  1.00  0.00    -0.000 C 
BRANCH  12  13
ATOM     13  C   UNL     1      19.542  39.608  47.004  1.00  0.00    -0.003 C 
ATOM     14  C   UNL     1      20.533  40.125  45.965  1.00  0.00     0.004 C 
ENDBRANCH  12  13
ENDBRANCH  11  12
ENDBRANCH  10  11
ENDBRANCH   9  10
ENDBRANCH   1   9
TORSDOF 10
ENDMDL
MODEL 2
REMARK VINA RESULT:     2.672     16.329     18.543
REMARK INTER + INTRA:           4.401
REMARK INTER:                   3.869
REMARK INTRA:                   0.532
REMARK UNBOUND:                 0.167
REMARK SMILES CCCCCCCCCCCC(=O)[O-]
REMARK SMILES IDX 7 1 8 2 9 3 10 4 11 5 12 6 13 7 14 8 6 9 5 10 4 11 3 12 2 13
REMARK SMILES IDX 1 14
REMARK H PARENT
REMARK Flexibility Score: inf
ROOT
ATOM      1  C   UNL     1      16.803  22.568  49.260  1.00  0.00     0.000 C 
ENDROOT
BRANCH   1   2
ATOM      2  C   UNL     1      18.212  22.091  48.852  1.00  0.00     0.000 C 
BRANCH   2   3
ATOM      3  C   UNL     1      18.387  20.562  48.771  1.00  0.00     0.000 C 
BRANCH   3   4
ATOM      4  C   UNL     1      18.792  19.880  50.093  1.00  0.00     0.006 C 
BRANCH   4   5
ATOM      5  C   UNL     1      20.301  19.903  50.382  1.00  0.00     0.053 C 
BRANCH   5   6
ATOM      6  C   UNL     1      20.588  20.085  51.840  1.00  0.00     0.041 C 
ATOM      7  O   UNL     1      19.667  19.954  52.689  1.00  0.00    -0.550 OA
ATOM      8  O   UNL     1      21.880  20.368  52.265  1.00  0.00    -0.550 OA
ENDBRANCH   5   6
ENDBRANCH   4   5
ENDBRANCH   3   4
ENDBRANCH   2   3
ENDBRANCH   1   2
BRANCH   1   9
ATOM      9  C   UNL     1      16.460  22.382  50.749  1.00  0.00     0.000 C 
BRANCH   9  10
ATOM     10  C   UNL     1      15.385  21.310  50.984  1.00  0.00    -0.000 C 
BRANCH  10  11
ATOM     11  C   UNL     1      16.024  19.947  51.274  1.00  0.00    -0.000 C 
BRANCH  11  12
ATOM     12  C   UNL     1      16.537  19.875  52.718  1.00  0.00    -0.000 C 
BRANCH  12  13
ATOM     13  C   UNL     1      15.442  20.285  53.711  1.00  0.00    -0.003 C 
ATOM     14  C   UNL     1      14.058  19.906  53.192  1.00  0.00     0.004 C 
ENDBRANCH  12  13
ENDBRANCH  11  12
ENDBRANCH  10  11
ENDBRANCH   9  10
ENDBRANCH   1   9
TORSDOF 10
ENDMDL
MODEL 3
REMARK VINA RESULT:     3.142      1.957      2.931
REMARK INTER + INTRA:           5.145
REMARK INTER:                   5.713
REMARK INTRA:                  -0.567
REMARK UNBOUND:                 0.167
REMARK SMILES CCCCCCCCCCCC(=O)[O-]
REMARK SMILES IDX 7 1 8 2 9 3 10 4 11 5 12 6 13 7 14 8 6 9 5 10 4 11 3 12 2 13
REMARK SMILES IDX 1 14
REMARK H PARENT
REMARK Flexibility Score: inf
ROOT
ATOM      1  C   UNL     1      17.355  38.059  46.740  1.00  0.00     0.000 C 
ENDROOT
BRANCH   1   2
ATOM      2  C   UNL     1      16.157  38.639  45.960  1.00  0.00     0.000 C 
BRANCH   2   3
ATOM      3  C   UNL     1      15.273  39.620  46.754  1.00  0.00     0.000 C 
BRANCH   3   4
ATOM      4  C   UNL     1      14.350  38.965  47.801  1.00  0.00     0.006 C 
BRANCH   4   5
ATOM      5  C   UNL     1      13.460  37.840  47.248  1.00  0.00     0.053 C 
BRANCH   5   6
ATOM      6  C   UNL     1      13.766  36.521  47.885  1.00  0.00     0.041 C 
ATOM      7  O   UNL     1      13.004  35.536  47.701  1.00  0.00    -0.550 OA
ATOM      8  O   UNL     1      14.912  36.370  48.655  1.00  0.00    -0.550 OA
ENDBRANCH   5   6
ENDBRANCH   4   5
ENDBRANCH   3   4
ENDBRANCH   2   3
ENDBRANCH   1   2
BRANCH   1   9
ATOM      9  C   UNL     1      18.643  38.899  46.672  1.00  0.00     0.000 C 
BRANCH   9  10
ATOM     10  C   UNL     1      19.896  38.105  47.065  1.00  0.00    -0.000 C 
BRANCH  10  11
ATOM     11  C   UNL     1      19.735  36.619  46.720  1.00  0.00    -0.000 C 
BRANCH  11  12
ATOM     12  C   UNL     1      20.071  36.357  45.247  1.00  0.00    -0.000 C 
BRANCH  12  13
ATOM     13  C   UNL     1      20.520  34.906  45.035  1.00  0.00    -0.003 C 
ATOM     14  C   UNL     1      21.222  34.738  43.691  1.00  0.00     0.004 C 
ENDBRANCH  12  13
ENDBRANCH  11  12
ENDBRANCH  10  11
ENDBRANCH   9  10
ENDBRANCH   1   9
TORSDOF 10
ENDMDL
MODEL 4
REMARK VINA RESULT:     3.402      2.838      5.418
REMARK INTER + INTRA:           5.557
REMARK INTER:                   5.783
REMARK INTRA:                  -0.226
REMARK UNBOUND:                 0.167
REMARK SMILES CCCCCCCCCCCC(=O)[O-]
REMARK SMILES IDX 7 1 8 2 9 3 10 4 11 5 12 6 13 7 14 8 6 9 5 10 4 11 3 12 2 13
REMARK SMILES IDX 1 14
REMARK H PARENT
REMARK Flexibility Score: inf
ROOT
ATOM      1  C   UNL     1      13.850  39.890  46.420  1.00  0.00     0.000 C 
ENDROOT
BRANCH   1   2
ATOM      2  C   UNL     1      14.919  40.088  47.515  1.00  0.00     0.000 C 
BRANCH   2   3
ATOM      3  C   UNL     1      16.051  39.041  47.521  1.00  0.00     0.000 C 
BRANCH   3   4
ATOM      4  C   UNL     1      16.763  38.843  46.168  1.00  0.00     0.006 C 
BRANCH   4   5
ATOM      5  C   UNL     1      17.909  37.819  46.199  1.00  0.00     0.053 C 
BRANCH   5   6
ATOM      6  C   UNL     1      19.142  38.379  46.836  1.00  0.00     0.041 C 
ATOM      7  O   UNL     1      19.999  37.609  47.343  1.00  0.00    -0.550 OA
ATOM      8  O   UNL     1      19.361  39.751  46.840  1.00  0.00    -0.550 OA
ENDBRANCH   5   6
ENDBRANCH   4   5
ENDBRANCH   3   4
ENDBRANCH   2   3
ENDBRANCH   1   2
BRANCH   1   9
ATOM      9  C   UNL     1      13.227  38.484  46.369  1.00  0.00     0.000 C 
BRANCH   9  10
ATOM     10  C   UNL     1      13.444  37.686  47.663  1.00  0.00    -0.000 C 
BRANCH  10  11
ATOM     11  C   UNL     1      13.041  36.218  47.478  1.00  0.00    -0.000 C 
BRANCH  11  12
ATOM     12  C   UNL     1      13.953  35.290  48.289  1.00  0.00    -0.000 C 
BRANCH  12  13
ATOM     13  C   UNL     1      15.226  36.022  48.734  1.00  0.00    -0.003 C 
ATOM     14  C   UNL     1      15.669  35.563  50.119  1.00  0.00     0.004 C 
ENDBRANCH  12  13
ENDBRANCH  11  12
ENDBRANCH  10  11
ENDBRANCH   9  10
ENDBRANCH   1   9
TORSDOF 10
ENDMDL
MODEL 5
REMARK VINA RESULT:     3.504      3.447      6.350
REMARK INTER + INTRA:           5.720
REMARK INTER:                   5.866
REMARK INTRA:                  -0.146
REMARK UNBOUND:                 0.167
REMARK SMILES CCCCCCCCCCCC(=O)[O-]
REMARK SMILES IDX 7 1 8 2 9 3 10 4 11 5 12 6 13 7 14 8 6 9 5 10 4 11 3 12 2 13
REMARK SMILES IDX 1 14
REMARK H PARENT
REMARK Flexibility Score: inf
ROOT
ATOM      1  C   UNL     1      17.496  38.045  46.537  1.00  0.00     0.000 C 
ENDROOT
BRANCH   1   2
ATOM      2  C   UNL     1      18.861  38.734  46.744  1.00  0.00     0.000 C 
BRANCH   2   3
ATOM      3  C   UNL     1      20.048  37.778  46.977  1.00  0.00     0.000 C 
BRANCH   3   4
ATOM      4  C   UNL     1      19.872  36.364  46.388  1.00  0.00     0.006 C 
BRANCH   4   5
ATOM      5  C   UNL     1      20.131  36.270  44.876  1.00  0.00     0.053 C 
BRANCH   5   6
ATOM      6  C   UNL     1      20.851  35.009  44.510  1.00  0.00     0.041 C 
ATOM      7  O   UNL     1      20.885  34.042  45.316  1.00  0.00    -0.550 OA
ATOM      8  O   UNL     1      21.456  34.890  43.266  1.00  0.00    -0.550 OA
ENDBRANCH   5   6
ENDBRANCH   4   5
ENDBRANCH   3   4
ENDBRANCH   2   3
ENDBRANCH   1   2
BRANCH   1   9
ATOM      9  C   UNL     1      16.307  39.005  46.349  1.00  0.00     0.000 C 
BRANCH   9  10
ATOM     10  C   UNL     1      15.464  39.168  47.621  1.00  0.00    -0.000 C 
BRANCH  10  11
ATOM     11  C   UNL     1      14.369  38.098  47.696  1.00  0.00    -0.000 C 
BRANCH  11  12
ATOM     12  C   UNL     1      13.271  38.361  46.658  1.00  0.00    -0.000 C 
BRANCH  12  13
ATOM     13  C   UNL     1      13.240  39.840  46.254  1.00  0.00    -0.003 C 
ATOM     14  C   UNL     1      12.149  40.106  45.221  1.00  0.00     0.004 C 
ENDBRANCH  12  13
ENDBRANCH  11  12
ENDBRANCH  10  11
ENDBRANCH   9  10
ENDBRANCH   1   9
TORSDOF 10
ENDMDL
MODEL 6
REMARK VINA RESULT:     3.623      1.141      1.573
REMARK INTER + INTRA:           5.908
REMARK INTER:                   5.782
REMARK INTRA:                   0.125
REMARK UNBOUND:                 0.167
REMARK SMILES CCCCCCCCCCCC(=O)[O-]
REMARK SMILES IDX 7 1 8 2 9 3 10 4 11 5 12 6 13 7 14 8 6 9 5 10 4 11 3 12 2 13
REMARK SMILES IDX 1 14
REMARK H PARENT
REMARK Flexibility Score: inf
ROOT
ATOM      1  C   UNL     1      14.506  40.123  47.130  1.00  0.00     0.000 C 
ENDROOT
BRANCH   1   2
ATOM      2  C   UNL     1      13.565  39.336  46.194  1.00  0.00     0.000 C 
BRANCH   2   3
ATOM      3  C   UNL     1      13.083  37.979  46.741  1.00  0.00     0.000 C 
BRANCH   3   4
ATOM      4  C   UNL     1      13.909  37.419  47.917  1.00  0.00     0.006 C 
BRANCH   4   5
ATOM      5  C   UNL     1      13.816  35.895  48.089  1.00  0.00     0.053 C 
BRANCH   5   6
ATOM      6  C   UNL     1      14.884  35.369  48.997  1.00  0.00     0.041 C 
ATOM      7  O   UNL     1      15.039  34.129  49.141  1.00  0.00    -0.550 OA
ATOM      8  O   UNL     1      15.728  36.251  49.660  1.00  0.00    -0.550 OA
ENDBRANCH   5   6
ENDBRANCH   4   5
ENDBRANCH   3   4
ENDBRANCH   2   3
ENDBRANCH   1   2
BRANCH   1   9
ATOM      9  C   UNL     1      15.809  39.395  47.502  1.00  0.00     0.000 C 
BRANCH   9  10
ATOM     10  C   UNL     1      16.643  38.999  46.275  1.00  0.00    -0.000 C 
BRANCH  10  11
ATOM     11  C   UNL     1      17.497  37.760  46.568  1.00  0.00    -0.000 C 
BRANCH  11  12
ATOM     12  C   UNL     1      18.993  38.094  46.504  1.00  0.00    -0.000 C 
BRANCH  12  13
ATOM     13  C   UNL     1      19.257  39.526  46.987  1.00  0.00    -0.003 C 
ATOM     14  C   UNL     1      20.476  40.125  46.292  1.00  0.00     0.004 C 
ENDBRANCH  12  13
ENDBRANCH  11  12
ENDBRANCH  10  11
ENDBRANCH   9  10
ENDBRANCH   1   9
TORSDOF 10
ENDMDL
MODEL 7
REMARK VINA RESULT:     3.678      3.441      6.439
REMARK INTER + INTRA:           5.995
REMARK INTER:                   6.511
REMARK INTRA:                  -0.516
REMARK UNBOUND:                 0.167
REMARK SMILES CCCCCCCCCCCC(=O)[O-]
REMARK SMILES IDX 7 1 8 2 9 3 10 4 11 5 12 6 13 7 14 8 6 9 5 10 4 11 3 12 2 13
REMARK SMILES IDX 1 14
REMARK H PARENT
REMARK Flexibility Score: inf
ROOT
ATOM      1  C   UNL     1      17.476  37.943  46.489  1.00  0.00     0.000 C 
ENDROOT
BRANCH   1   2
ATOM      2  C   UNL     1      18.863  38.538  46.809  1.00  0.00     0.000 C 
BRANCH   2   3
ATOM      3  C   UNL     1      19.983  37.503  47.034  1.00  0.00     0.000 C 
BRANCH   3   4
ATOM      4  C   UNL     1      19.837  36.199  46.225  1.00  0.00     0.006 C 
BRANCH   4   5
ATOM      5  C   UNL     1      20.444  36.256  44.814  1.00  0.00     0.053 C 
BRANCH   5   6
ATOM      6  C   UNL     1      20.904  34.909  44.350  1.00  0.00     0.041 C 
ATOM      7  O   UNL     1      20.933  33.938  45.150  1.00  0.00    -0.550 OA
ATOM      8  O   UNL     1      21.270  34.719  43.023  1.00  0.00    -0.550 OA
ENDBRANCH   5   6
ENDBRANCH   4   5
ENDBRANCH   3   4
ENDBRANCH   2   3
ENDBRANCH   1   2
BRANCH   1   9
ATOM      9  C   UNL     1      16.412  38.971  46.064  1.00  0.00     0.000 C 
BRANCH   9  10
ATOM     10  C   UNL     1      15.493  39.391  47.220  1.00  0.00    -0.000 C 
BRANCH  10  11
ATOM     11  C   UNL     1      14.054  39.595  46.731  1.00  0.00    -0.000 C 
BRANCH  11  12
ATOM     12  C   UNL     1      13.275  38.274  46.745  1.00  0.00    -0.000 C 
BRANCH  12  13
ATOM     13  C   UNL     1      13.813  37.331  47.828  1.00  0.00    -0.003 C 
ATOM     14  C   UNL     1      13.164  35.953  47.730  1.00  0.00     0.004 C 
ENDBRANCH  12  13
ENDBRANCH  11  12
ENDBRANCH  10  11
ENDBRANCH   9  10
ENDBRANCH   1   9
TORSDOF 10
ENDMDL
MODEL 8
REMARK VINA RESULT:     4.719     15.799     17.645
REMARK INTER + INTRA:           7.645
REMARK INTER:                   6.706
REMARK INTRA:                   0.939
REMARK UNBOUND:                 0.167
REMARK SMILES CCCCCCCCCCCC(=O)[O-]
REMARK SMILES IDX 7 1 8 2 9 3 10 4 11 5 12 6 13 7 14 8 6 9 5 10 4 11 3 12 2 13
REMARK SMILES IDX 1 14
REMARK H PARENT
REMARK Flexibility Score: inf
ROOT
ATOM      1  C   UNL     1      17.491  21.485  49.432  1.00  0.00     0.000 C 
ENDROOT
BRANCH   1   2
ATOM      2  C   UNL     1      17.086  22.969  49.536  1.00  0.00     0.000 C 
BRANCH   2   3
ATOM      3  C   UNL     1      16.305  23.347  50.810  1.00  0.00     0.000 C 
BRANCH   3   4
ATOM      4  C   UNL     1      15.269  22.302  51.273  1.00  0.00     0.006 C 
BRANCH   4   5
ATOM      5  C   UNL     1      15.754  20.846  51.186  1.00  0.00     0.053 C 
BRANCH   5   6
ATOM      6  C   UNL     1      15.875  20.216  52.538  1.00  0.00     0.041 C 
ATOM      7  O   UNL     1      14.843  19.892  53.181  1.00  0.00    -0.550 OA
ATOM      8  O   UNL     1      17.131  19.958  53.074  1.00  0.00    -0.550 OA
ENDBRANCH   5   6
ENDBRANCH   4   5
ENDBRANCH   3   4
ENDBRANCH   2   3
ENDBRANCH   1   2
BRANCH   1   9
ATOM      9  C   UNL     1      18.832  21.226  48.722  1.00  0.00     0.000 C 
BRANCH   9  10
ATOM     10  C   UNL     1      19.789  20.357  49.551  1.00  0.00    -0.000 C 
BRANCH  10  11
ATOM     11  C   UNL     1      19.114  19.875  50.841  1.00  0.00    -0.000 C 
BRANCH  11  12
ATOM     12  C   UNL     1      20.086  19.931  52.026  1.00  0.00    -0.000 C 
BRANCH  12  13
ATOM     13  C   UNL     1      21.388  20.641  51.634  1.00  0.00    -0.003 C 
ATOM     14  C   UNL     1      22.404  20.593  52.772  1.00  0.00     0.004 C 
ENDBRANCH  12  13
ENDBRANCH  11  12
ENDBRANCH  10  11
ENDBRANCH   9  10
ENDBRANCH   1   9
TORSDOF 10
ENDMDL
