MODEL 1
REMARK VINA RESULT:    -4.663      0.000      0.000
REMARK INTER + INTRA:         -17.419
REMARK INTER:                 -12.295
REMARK INTRA:                  -5.124
REMARK UNBOUND:                -5.124
REMARK SMILES CCCCCCCCCCCCCCCCCCCCCCCCCCCCCC(=O)[O-]
REMARK SMILES IDX 16 1 17 2 18 3 19 4 20 5 21 6 22 7 23 8 24 9 25 10 26 11
REMARK SMILES IDX 27 12 28 13 29 14 30 15 31 16 32 17 15 18 14 19 13 20 12 21
REMARK SMILES IDX 11 22 10 23 9 24 8 25 7 26 6 27 5 28 4 29 3 30 2 31 1 32
REMARK H PARENT
REMARK Flexibility Score: inf
ROOT
ATOM      1  C   UNL     1     150.906 284.138 283.843  1.00  0.00     0.000 C 
ENDROOT
BRANCH   1   2
ATOM      2  C   UNL     1     152.337 284.639 284.111  1.00  0.00     0.000 C 
BRANCH   2   3
ATOM      3  C   UNL     1     153.052 283.825 285.200  1.00  0.00     0.000 C 
BRANCH   3   4
ATOM      4  C   UNL     1     154.286 283.069 284.674  1.00  0.00     0.000 C 
BRANCH   4   5
ATOM      5  C   UNL     1     154.279 282.925 283.144  1.00  0.00     0.000 C 
BRANCH   5   6
ATOM      6  C   UNL     1     155.580 283.430 282.495  1.00  0.00     0.000 C 
BRANCH   6   7
ATOM      7  C   UNL     1     156.724 283.594 283.508  1.00  0.00     0.000 C 
BRANCH   7   8
ATOM      8  C   UNL     1     157.370 284.990 283.442  1.00  0.00     0.000 C 
BRANCH   8   9
ATOM      9  C   UNL     1     156.381 286.082 283.006  1.00  0.00     0.000 C 
BRANCH   9  10
ATOM     10  C   UNL     1     156.819 287.489 283.437  1.00  0.00     0.000 C 
BRANCH  10  11
ATOM     11  C   UNL     1     156.306 287.804 284.851  1.00  0.00     0.000 C 
BRANCH  11  12
ATOM     12  C   UNL     1     154.882 287.282 285.104  1.00  0.00     0.000 C 
BRANCH  12  13
ATOM     13  C   UNL     1     154.718 286.659 286.499  1.00  0.00     0.006 C 
BRANCH  13  14
ATOM     14  C   UNL     1     155.847 285.666 286.792  1.00  0.00     0.053 C 
BRANCH  14  15
ATOM     15  C   UNL     1     155.635 285.008 288.119  1.00  0.00     0.041 C 
ATOM     16  O   UNL     1     156.135 283.873 288.351  1.00  0.00    -0.550 OA
ATOM     17  O   UNL     1     154.830 285.617 289.076  1.00  0.00    -0.550 OA
ENDBRANCH  14  15
ENDBRANCH  13  14
ENDBRANCH  12  13
ENDBRANCH  11  12
ENDBRANCH  10  11
ENDBRANCH   9  10
ENDBRANCH   8   9
ENDBRANCH   7   8
ENDBRANCH   6   7
ENDBRANCH   5   6
ENDBRANCH   4   5
ENDBRANCH   3   4
ENDBRANCH   2   3
ENDBRANCH   1   2
BRANCH   1  18
ATOM     18  C   UNL     1     150.577 284.037 282.341  1.00  0.00     0.000 C 
BRANCH  18  19
ATOM     19  C   UNL     1     149.071 284.033 282.010  1.00  0.00     0.000 C 
BRANCH  19  20
ATOM     20  C   UNL     1     148.644 285.243 281.160  1.00  0.00     0.000 C 
BRANCH  20  21
ATOM     21  C   UNL     1     148.044 284.830 279.807  1.00  0.00     0.000 C 
BRANCH  21  22
ATOM     22  C   UNL     1     147.768 286.038 278.893  1.00  0.00     0.000 C 
BRANCH  22  23
ATOM     23  C   UNL     1     148.524 285.960 277.555  1.00  0.00     0.000 C 
BRANCH  23  24
ATOM     24  C   UNL     1     149.855 286.737 277.517  1.00  0.00    -0.000 C 
BRANCH  24  25
ATOM     25  C   UNL     1     149.812 288.144 278.148  1.00  0.00    -0.000 C 
BRANCH  25  26
ATOM     26  C   UNL     1     151.003 288.435 279.092  1.00  0.00    -0.000 C 
BRANCH  26  27
ATOM     27  C   UNL     1     151.153 287.376 280.200  1.00  0.00    -0.000 C 
BRANCH  27  28
ATOM     28  C   UNL     1     151.466 287.994 281.584  1.00  0.00    -0.000 C 
BRANCH  28  29
ATOM     29  C   UNL     1     152.917 287.767 282.051  1.00  0.00    -0.000 C 
BRANCH  29  30
ATOM     30  C   UNL     1     153.822 289.015 281.996  1.00  0.00    -0.000 C 
BRANCH  30  31
ATOM     31  C   UNL     1     154.576 289.210 280.666  1.00  0.00    -0.003 C 
ATOM     32  C   UNL     1     155.011 287.891 280.028  1.00  0.00     0.004 C 
ENDBRANCH  30  31
ENDBRANCH  29  30
ENDBRANCH  28  29
ENDBRANCH  27  28
ENDBRANCH  26  27
ENDBRANCH  25  26
ENDBRANCH  24  25
ENDBRANCH  23  24
ENDBRANCH  22  23
ENDBRANCH  21  22
ENDBRANCH  20  21
ENDBRANCH  19  20
ENDBRANCH  18  19
ENDBRANCH   1  18
TORSDOF 28
ENDMDL
MODEL 2
REMARK VINA RESULT:    -4.560      1.616      2.918
REMARK INTER + INTRA:         -17.148
REMARK INTER:                 -12.569
REMARK INTRA:                  -4.579
REMARK UNBOUND:                -5.124
REMARK SMILES CCCCCCCCCCCCCCCCCCCCCCCCCCCCCC(=O)[O-]
REMARK SMILES IDX 16 1 17 2 18 3 19 4 20 5 21 6 22 7 23 8 24 9 25 10 26 11
REMARK SMILES IDX 27 12 28 13 29 14 30 15 31 16 32 17 15 18 14 19 13 20 12 21
REMARK SMILES IDX 11 22 10 23 9 24 8 25 7 26 6 27 5 28 4 29 3 30 2 31 1 32
REMARK H PARENT
REMARK Flexibility Score: inf
ROOT
ATOM      1  C   UNL     1     149.737 285.190 281.371  1.00  0.00     0.000 C 
ENDROOT
BRANCH   1   2
ATOM      2  C   UNL     1     149.722 283.785 282.000  1.00  0.00     0.000 C 
BRANCH   2   3
ATOM      3  C   UNL     1     150.766 283.628 283.117  1.00  0.00     0.000 C 
BRANCH   3   4
ATOM      4  C   UNL     1     151.529 284.932 283.415  1.00  0.00     0.000 C 
BRANCH   4   5
ATOM      5  C   UNL     1     153.046 284.784 283.215  1.00  0.00     0.000 C 
BRANCH   5   6
ATOM      6  C   UNL     1     153.563 283.392 283.617  1.00  0.00     0.000 C 
BRANCH   6   7
ATOM      7  C   UNL     1     155.073 283.227 283.383  1.00  0.00     0.000 C 
BRANCH   7   8
ATOM      8  C   UNL     1     155.720 284.501 282.812  1.00  0.00     0.000 C 
BRANCH   8   9
ATOM      9  C   UNL     1     156.842 285.049 283.706  1.00  0.00     0.000 C 
BRANCH   9  10
ATOM     10  C   UNL     1     156.581 284.815 285.201  1.00  0.00     0.000 C 
BRANCH  10  11
ATOM     11  C   UNL     1     156.193 286.132 285.893  1.00  0.00     0.000 C 
BRANCH  11  12
ATOM     12  C   UNL     1     154.673 286.317 286.024  1.00  0.00     0.000 C 
BRANCH  12  13
ATOM     13  C   UNL     1     154.047 285.366 287.058  1.00  0.00     0.006 C 
BRANCH  13  14
ATOM     14  C   UNL     1     152.518 285.388 286.966  1.00  0.00     0.053 C 
BRANCH  14  15
ATOM     15  C   UNL     1     151.931 286.072 288.160  1.00  0.00     0.041 C 
ATOM     16  O   UNL     1     150.945 285.563 288.762  1.00  0.00    -0.550 OA
ATOM     17  O   UNL     1     152.428 287.304 288.569  1.00  0.00    -0.550 OA
ENDBRANCH  14  15
ENDBRANCH  13  14
ENDBRANCH  12  13
ENDBRANCH  11  12
ENDBRANCH  10  11
ENDBRANCH   9  10
ENDBRANCH   8   9
ENDBRANCH   7   8
ENDBRANCH   6   7
ENDBRANCH   5   6
ENDBRANCH   4   5
ENDBRANCH   3   4
ENDBRANCH   2   3
ENDBRANCH   1   2
BRANCH   1  18
ATOM     18  C   UNL     1     148.753 285.331 280.194  1.00  0.00     0.000 C 
BRANCH  18  19
ATOM     19  C   UNL     1     147.884 286.604 280.230  1.00  0.00     0.000 C 
BRANCH  19  20
ATOM     20  C   UNL     1     147.846 287.338 278.879  1.00  0.00     0.000 C 
BRANCH  20  21
ATOM     21  C   UNL     1     148.350 288.786 278.982  1.00  0.00     0.000 C 
BRANCH  21  22
ATOM     22  C   UNL     1     149.626 289.024 278.153  1.00  0.00     0.000 C 
BRANCH  22  23
ATOM     23  C   UNL     1     150.440 287.738 277.928  1.00  0.00     0.000 C 
BRANCH  23  24
ATOM     24  C   UNL     1     151.632 287.549 278.887  1.00  0.00    -0.000 C 
BRANCH  24  25
ATOM     25  C   UNL     1     151.735 288.592 280.019  1.00  0.00    -0.000 C 
BRANCH  25  26
ATOM     26  C   UNL     1     152.104 287.980 281.392  1.00  0.00    -0.000 C 
BRANCH  26  27
ATOM     27  C   UNL     1     153.043 288.885 282.211  1.00  0.00    -0.000 C 
BRANCH  27  28
ATOM     28  C   UNL     1     153.588 290.081 281.395  1.00  0.00    -0.000 C 
BRANCH  28  29
ATOM     29  C   UNL     1     155.119 290.070 281.226  1.00  0.00    -0.000 C 
BRANCH  29  30
ATOM     30  C   UNL     1     155.775 288.676 281.311  1.00  0.00    -0.000 C 
BRANCH  30  31
ATOM     31  C   UNL     1     156.217 288.085 279.958  1.00  0.00    -0.003 C 
ATOM     32  C   UNL     1     155.457 288.678 278.771  1.00  0.00     0.004 C 
ENDBRANCH  30  31
ENDBRANCH  29  30
ENDBRANCH  28  29
ENDBRANCH  27  28
ENDBRANCH  26  27
ENDBRANCH  25  26
ENDBRANCH  24  25
ENDBRANCH  23  24
ENDBRANCH  22  23
ENDBRANCH  21  22
ENDBRANCH  20  21
ENDBRANCH  19  20
ENDBRANCH  18  19
ENDBRANCH   1  18
TORSDOF 28
ENDMDL
MODEL 3
REMARK VINA RESULT:    -4.539      3.379      6.925
REMARK INTER + INTRA:         -17.094
REMARK INTER:                 -12.279
REMARK INTRA:                  -4.815
REMARK UNBOUND:                -5.124
REMARK SMILES CCCCCCCCCCCCCCCCCCCCCCCCCCCCCC(=O)[O-]
REMARK SMILES IDX 16 1 17 2 18 3 19 4 20 5 21 6 22 7 23 8 24 9 25 10 26 11
REMARK SMILES IDX 27 12 28 13 29 14 30 15 31 16 32 17 15 18 14 19 13 20 12 21
REMARK SMILES IDX 11 22 10 23 9 24 8 25 7 26 6 27 5 28 4 29 3 30 2 31 1 32
REMARK H PARENT
REMARK Flexibility Score: inf
ROOT
ATOM      1  C   UNL     1     147.297 288.044 280.813  1.00  0.00     0.000 C 
ENDROOT
BRANCH   1   2
ATOM      2  C   UNL     1     146.464 287.937 279.523  1.00  0.00     0.000 C 
BRANCH   2   3
ATOM      3  C   UNL     1     146.436 286.508 278.957  1.00  0.00     0.000 C 
BRANCH   3   4
ATOM      4  C   UNL     1     147.823 285.839 278.945  1.00  0.00     0.000 C 
BRANCH   4   5
ATOM      5  C   UNL     1     148.493 285.900 277.562  1.00  0.00     0.000 C 
BRANCH   5   6
ATOM      6  C   UNL     1     149.887 286.552 277.609  1.00  0.00     0.000 C 
BRANCH   6   7
ATOM      7  C   UNL     1     149.825 288.075 277.812  1.00  0.00     0.000 C 
BRANCH   7   8
ATOM      8  C   UNL     1     150.607 288.533 279.056  1.00  0.00     0.000 C 
BRANCH   8   9
ATOM      9  C   UNL     1     150.786 287.411 280.090  1.00  0.00     0.000 C 
BRANCH   9  10
ATOM     10  C   UNL     1     151.195 287.936 281.474  1.00  0.00     0.000 C 
BRANCH  10  11
ATOM     11  C   UNL     1     152.699 287.724 281.709  1.00  0.00     0.000 C 
BRANCH  11  12
ATOM     12  C   UNL     1     153.435 289.019 282.091  1.00  0.00     0.000 C 
BRANCH  12  13
ATOM     13  C   UNL     1     153.911 289.814 280.864  1.00  0.00     0.006 C 
BRANCH  13  14
ATOM     14  C   UNL     1     155.320 289.385 280.446  1.00  0.00     0.053 C 
BRANCH  14  15
ATOM     15  C   UNL     1     155.307 288.817 279.062  1.00  0.00     0.041 C 
ATOM     16  O   UNL     1     156.015 289.337 278.156  1.00  0.00    -0.550 OA
ATOM     17  O   UNL     1     154.462 287.756 278.755  1.00  0.00    -0.550 OA
ENDBRANCH  14  15
ENDBRANCH  13  14
ENDBRANCH  12  13
ENDBRANCH  11  12
ENDBRANCH  10  11
ENDBRANCH   9  10
ENDBRANCH   8   9
ENDBRANCH   7   8
ENDBRANCH   6   7
ENDBRANCH   5   6
ENDBRANCH   4   5
ENDBRANCH   3   4
ENDBRANCH   2   3
ENDBRANCH   1   2
BRANCH   1  18
ATOM     18  C   UNL     1     146.518 288.683 281.979  1.00  0.00     0.000 C 
BRANCH  18  19
ATOM     19  C   UNL     1     145.102 288.114 282.196  1.00  0.00     0.000 C 
BRANCH  19  20
ATOM     20  C   UNL     1     145.093 286.867 283.097  1.00  0.00     0.000 C 
BRANCH  20  21
ATOM     21  C   UNL     1     144.760 285.582 282.322  1.00  0.00     0.000 C 
BRANCH  21  22
ATOM     22  C   UNL     1     145.544 284.362 282.843  1.00  0.00     0.000 C 
BRANCH  22  23
ATOM     23  C   UNL     1     147.041 284.420 282.490  1.00  0.00     0.000 C 
BRANCH  23  24
ATOM     24  C   UNL     1     147.538 283.274 281.586  1.00  0.00    -0.000 C 
BRANCH  24  25
ATOM     25  C   UNL     1     149.053 283.279 281.294  1.00  0.00    -0.000 C 
BRANCH  25  26
ATOM     26  C   UNL     1     149.827 284.376 282.063  1.00  0.00    -0.000 C 
BRANCH  26  27
ATOM     27  C   UNL     1     151.079 283.830 282.775  1.00  0.00    -0.000 C 
BRANCH  27  28
ATOM     28  C   UNL     1     151.695 284.843 283.768  1.00  0.00    -0.000 C 
BRANCH  28  29
ATOM     29  C   UNL     1     153.120 284.474 284.227  1.00  0.00    -0.000 C 
BRANCH  29  30
ATOM     30  C   UNL     1     153.787 283.335 283.429  1.00  0.00    -0.000 C 
BRANCH  30  31
ATOM     31  C   UNL     1     155.181 283.670 282.864  1.00  0.00    -0.003 C 
ATOM     32  C   UNL     1     155.385 285.166 282.628  1.00  0.00     0.004 C 
ENDBRANCH  30  31
ENDBRANCH  29  30
ENDBRANCH  28  29
ENDBRANCH  27  28
ENDBRANCH  26  27
ENDBRANCH  25  26
ENDBRANCH  24  25
ENDBRANCH  23  24
ENDBRANCH  22  23
ENDBRANCH  21  22
ENDBRANCH  20  21
ENDBRANCH  19  20
ENDBRANCH  18  19
ENDBRANCH   1  18
TORSDOF 28
ENDMDL
MODEL 4
REMARK VINA RESULT:    -4.513      2.213      3.198
REMARK INTER + INTRA:         -17.025
REMARK INTER:                 -12.978
REMARK INTRA:                  -4.047
REMARK UNBOUND:                -5.124
REMARK SMILES CCCCCCCCCCCCCCCCCCCCCCCCCCCCCC(=O)[O-]
REMARK SMILES IDX 16 1 17 2 18 3 19 4 20 5 21 6 22 7 23 8 24 9 25 10 26 11
REMARK SMILES IDX 27 12 28 13 29 14 30 15 31 16 32 17 15 18 14 19 13 20 12 21
REMARK SMILES IDX 11 22 10 23 9 24 8 25 7 26 6 27 5 28 4 29 3 30 2 31 1 32
REMARK H PARENT
REMARK Flexibility Score: inf
ROOT
ATOM      1  C   UNL     1     149.543 283.952 282.072  1.00  0.00     0.000 C 
ENDROOT
BRANCH   1   2
ATOM      2  C   UNL     1     150.888 283.629 282.748  1.00  0.00     0.000 C 
BRANCH   2   3
ATOM      3  C   UNL     1     151.486 284.843 283.477  1.00  0.00     0.000 C 
BRANCH   3   4
ATOM      4  C   UNL     1     153.025 284.866 283.444  1.00  0.00     0.000 C 
BRANCH   4   5
ATOM      5  C   UNL     1     153.635 283.455 283.478  1.00  0.00     0.000 C 
BRANCH   5   6
ATOM      6  C   UNL     1     155.086 283.425 282.964  1.00  0.00     0.000 C 
BRANCH   6   7
ATOM      7  C   UNL     1     156.091 282.995 284.044  1.00  0.00     0.000 C 
BRANCH   7   8
ATOM      8  C   UNL     1     155.409 282.674 285.386  1.00  0.00     0.000 C 
BRANCH   8   9
ATOM      9  C   UNL     1     155.907 283.566 286.534  1.00  0.00     0.000 C 
BRANCH   9  10
ATOM     10  C   UNL     1     154.774 284.041 287.454  1.00  0.00     0.000 C 
BRANCH  10  11
ATOM     11  C   UNL     1     154.101 285.296 286.877  1.00  0.00     0.000 C 
BRANCH  11  12
ATOM     12  C   UNL     1     152.579 285.315 287.092  1.00  0.00     0.000 C 
BRANCH  12  13
ATOM     13  C   UNL     1     152.185 285.798 288.497  1.00  0.00     0.006 C 
BRANCH  13  14
ATOM     14  C   UNL     1     150.667 285.734 288.693  1.00  0.00     0.053 C 
BRANCH  14  15
ATOM     15  C   UNL     1     150.185 284.320 288.603  1.00  0.00     0.041 C 
ATOM     16  O   UNL     1     149.239 284.020 287.824  1.00  0.00    -0.550 OA
ATOM     17  O   UNL     1     150.735 283.346 289.429  1.00  0.00    -0.550 OA
ENDBRANCH  14  15
ENDBRANCH  13  14
ENDBRANCH  12  13
ENDBRANCH  11  12
ENDBRANCH  10  11
ENDBRANCH   9  10
ENDBRANCH   8   9
ENDBRANCH   7   8
ENDBRANCH   6   7
ENDBRANCH   5   6
ENDBRANCH   4   5
ENDBRANCH   3   4
ENDBRANCH   2   3
ENDBRANCH   1   2
BRANCH   1  18
ATOM     18  C   UNL     1     149.592 285.235 281.220  1.00  0.00     0.000 C 
BRANCH  18  19
ATOM     19  C   UNL     1     148.448 285.371 280.195  1.00  0.00     0.000 C 
BRANCH  19  20
ATOM     20  C   UNL     1     147.530 286.572 280.483  1.00  0.00     0.000 C 
BRANCH  20  21
ATOM     21  C   UNL     1     148.263 287.917 280.359  1.00  0.00     0.000 C 
BRANCH  21  22
ATOM     22  C   UNL     1     148.195 288.494 278.933  1.00  0.00     0.000 C 
BRANCH  22  23
ATOM     23  C   UNL     1     149.573 288.916 278.394  1.00  0.00     0.000 C 
BRANCH  23  24
ATOM     24  C   UNL     1     150.500 287.748 278.000  1.00  0.00    -0.000 C 
BRANCH  24  25
ATOM     25  C   UNL     1     151.691 287.507 278.949  1.00  0.00    -0.000 C 
BRANCH  25  26
ATOM     26  C   UNL     1     151.849 288.599 280.033  1.00  0.00    -0.000 C 
BRANCH  26  27
ATOM     27  C   UNL     1     151.800 288.028 281.463  1.00  0.00    -0.000 C 
BRANCH  27  28
ATOM     28  C   UNL     1     153.069 288.355 282.285  1.00  0.00    -0.000 C 
BRANCH  28  29
ATOM     29  C   UNL     1     154.232 288.907 281.438  1.00  0.00    -0.000 C 
BRANCH  29  30
ATOM     30  C   UNL     1     155.254 287.852 280.968  1.00  0.00    -0.000 C 
BRANCH  30  31
ATOM     31  C   UNL     1     156.234 288.338 279.882  1.00  0.00    -0.003 C 
ATOM     32  C   UNL     1     155.548 288.639 278.550  1.00  0.00     0.004 C 
ENDBRANCH  30  31
ENDBRANCH  29  30
ENDBRANCH  28  29
ENDBRANCH  27  28
ENDBRANCH  26  27
ENDBRANCH  25  26
ENDBRANCH  24  25
ENDBRANCH  23  24
ENDBRANCH  22  23
ENDBRANCH  21  22
ENDBRANCH  20  21
ENDBRANCH  19  20
ENDBRANCH  18  19
ENDBRANCH   1  18
TORSDOF 28
ENDMDL
MODEL 5
REMARK VINA RESULT:    -4.512      4.627      6.937
REMARK INTER + INTRA:         -17.021
REMARK INTER:                 -11.419
REMARK INTRA:                  -5.602
REMARK UNBOUND:                -5.124
REMARK SMILES CCCCCCCCCCCCCCCCCCCCCCCCCCCCCC(=O)[O-]
REMARK SMILES IDX 16 1 17 2 18 3 19 4 20 5 21 6 22 7 23 8 24 9 25 10 26 11
REMARK SMILES IDX 27 12 28 13 29 14 30 15 31 16 32 17 15 18 14 19 13 20 12 21
REMARK SMILES IDX 11 22 10 23 9 24 8 25 7 26 6 27 5 28 4 29 3 30 2 31 1 32
REMARK H PARENT
REMARK Flexibility Score: inf
ROOT
ATOM      1  C   UNL     1     153.818 282.589 286.813  1.00  0.00     0.000 C 
ENDROOT
BRANCH   1   2
ATOM      2  C   UNL     1     155.254 282.201 286.417  1.00  0.00     0.000 C 
BRANCH   2   3
ATOM      3  C   UNL     1     156.282 282.566 287.499  1.00  0.00     0.000 C 
BRANCH   3   4
ATOM      4  C   UNL     1     156.955 283.929 287.256  1.00  0.00     0.000 C 
BRANCH   4   5
ATOM      5  C   UNL     1     156.600 284.961 288.340  1.00  0.00     0.000 C 
BRANCH   5   6
ATOM      6  C   UNL     1     157.706 286.013 288.539  1.00  0.00     0.000 C 
BRANCH   6   7
ATOM      7  C   UNL     1     158.195 286.620 287.214  1.00  0.00     0.000 C 
BRANCH   7   8
ATOM      8  C   UNL     1     158.107 288.156 287.205  1.00  0.00     0.000 C 
BRANCH   8   9
ATOM      9  C   UNL     1     159.483 288.830 287.321  1.00  0.00     0.000 C 
BRANCH   9  10
ATOM     10  C   UNL     1     160.015 288.854 288.761  1.00  0.00     0.000 C 
BRANCH  10  11
ATOM     11  C   UNL     1     159.525 290.113 289.496  1.00  0.00     0.000 C 
BRANCH  11  12
ATOM     12  C   UNL     1     159.321 289.887 291.003  1.00  0.00     0.000 C 
BRANCH  12  13
ATOM     13  C   UNL     1     158.372 288.715 291.303  1.00  0.00     0.006 C 
BRANCH  13  14
ATOM     14  C   UNL     1     156.960 289.006 290.787  1.00  0.00     0.053 C 
BRANCH  14  15
ATOM     15  C   UNL     1     156.345 290.135 291.553  1.00  0.00     0.041 C 
ATOM     16  O   UNL     1     156.272 291.285 291.039  1.00  0.00    -0.550 OA
ATOM     17  O   UNL     1     155.912 289.933 292.859  1.00  0.00    -0.550 OA
ENDBRANCH  14  15
ENDBRANCH  13  14
ENDBRANCH  12  13
ENDBRANCH  11  12
ENDBRANCH  10  11
ENDBRANCH   9  10
ENDBRANCH   8   9
ENDBRANCH   7   8
ENDBRANCH   6   7
ENDBRANCH   5   6
ENDBRANCH   4   5
ENDBRANCH   3   4
ENDBRANCH   2   3
ENDBRANCH   1   2
BRANCH   1  18
ATOM     18  C   UNL     1     153.080 283.369 285.708  1.00  0.00     0.000 C 
BRANCH  18  19
ATOM     19  C   UNL     1     152.388 284.662 286.184  1.00  0.00     0.000 C 
BRANCH  19  20
ATOM     20  C   UNL     1     152.503 284.874 287.704  1.00  0.00     0.000 C 
BRANCH  20  21
ATOM     21  C   UNL     1     151.487 285.897 288.234  1.00  0.00     0.000 C 
BRANCH  21  22
ATOM     22  C   UNL     1     152.164 287.089 288.937  1.00  0.00     0.000 C 
BRANCH  22  23
ATOM     23  C   UNL     1     153.684 286.905 289.091  1.00  0.00     0.000 C 
BRANCH  23  24
ATOM     24  C   UNL     1     154.537 288.059 288.526  1.00  0.00    -0.000 C 
BRANCH  24  25
ATOM     25  C   UNL     1     154.274 288.406 287.047  1.00  0.00    -0.000 C 
BRANCH  25  26
ATOM     26  C   UNL     1     154.718 287.298 286.063  1.00  0.00    -0.000 C 
BRANCH  26  27
ATOM     27  C   UNL     1     154.895 287.818 284.624  1.00  0.00    -0.000 C 
BRANCH  27  28
ATOM     28  C   UNL     1     155.162 286.686 283.604  1.00  0.00    -0.000 C 
BRANCH  28  29
ATOM     29  C   UNL     1     155.764 285.414 284.232  1.00  0.00    -0.000 C 
BRANCH  29  30
ATOM     30  C   UNL     1     156.867 284.735 283.395  1.00  0.00    -0.000 C 
BRANCH  30  31
ATOM     31  C   UNL     1     156.606 283.253 283.058  1.00  0.00    -0.003 C 
ATOM     32  C   UNL     1     155.153 282.978 282.672  1.00  0.00     0.004 C 
ENDBRANCH  30  31
ENDBRANCH  29  30
ENDBRANCH  28  29
ENDBRANCH  27  28
ENDBRANCH  26  27
ENDBRANCH  25  26
ENDBRANCH  24  25
ENDBRANCH  23  24
ENDBRANCH  22  23
ENDBRANCH  21  22
ENDBRANCH  20  21
ENDBRANCH  19  20
ENDBRANCH  18  19
ENDBRANCH   1  18
TORSDOF 28
ENDMDL
MODEL 6
REMARK VINA RESULT:    -4.485      3.577      8.621
REMARK INTER + INTRA:         -16.951
REMARK INTER:                 -12.726
REMARK INTRA:                  -4.226
REMARK UNBOUND:                -5.124
REMARK SMILES CCCCCCCCCCCCCCCCCCCCCCCCCCCCCC(=O)[O-]
REMARK SMILES IDX 16 1 17 2 18 3 19 4 20 5 21 6 22 7 23 8 24 9 25 10 26 11
REMARK SMILES IDX 27 12 28 13 29 14 30 15 31 16 32 17 15 18 14 19 13 20 12 21
REMARK SMILES IDX 11 22 10 23 9 24 8 25 7 26 6 27 5 28 4 29 3 30 2 31 1 32
REMARK H PARENT
REMARK Flexibility Score: inf
ROOT
ATOM      1  C   UNL     1     156.596 288.413 280.890  1.00  0.00     0.000 C 
ENDROOT
BRANCH   1   2
ATOM      2  C   UNL     1     156.951 288.643 279.409  1.00  0.00     0.000 C 
BRANCH   2   3
ATOM      3  C   UNL     1     155.727 289.025 278.563  1.00  0.00     0.000 C 
BRANCH   3   4
ATOM      4  C   UNL     1     155.754 290.492 278.094  1.00  0.00     0.000 C 
BRANCH   4   5
ATOM      5  C   UNL     1     154.836 291.395 278.934  1.00  0.00     0.000 C 
BRANCH   5   6
ATOM      6  C   UNL     1     153.688 290.615 279.600  1.00  0.00     0.000 C 
BRANCH   6   7
ATOM      7  C   UNL     1     153.683 290.755 281.131  1.00  0.00     0.000 C 
BRANCH   7   8
ATOM      8  C   UNL     1     153.078 289.525 281.830  1.00  0.00     0.000 C 
BRANCH   8   9
ATOM      9  C   UNL     1     152.548 288.479 280.837  1.00  0.00     0.000 C 
BRANCH   9  10
ATOM     10  C   UNL     1     151.588 287.473 281.488  1.00  0.00     0.000 C 
BRANCH  10  11
ATOM     11  C   UNL     1     150.390 287.196 280.565  1.00  0.00     0.000 C 
BRANCH  11  12
ATOM     12  C   UNL     1     150.638 287.632 279.112  1.00  0.00     0.000 C 
BRANCH  12  13
ATOM     13  C   UNL     1     149.583 288.628 278.604  1.00  0.00     0.006 C 
BRANCH  13  14
ATOM     14  C   UNL     1     148.175 288.033 278.705  1.00  0.00     0.053 C 
BRANCH  14  15
ATOM     15  C   UNL     1     147.296 288.906 279.544  1.00  0.00     0.041 C 
ATOM     16  O   UNL     1     146.879 290.008 279.091  1.00  0.00    -0.550 OA
ATOM     17  O   UNL     1     146.991 288.536 280.849  1.00  0.00    -0.550 OA
ENDBRANCH  14  15
ENDBRANCH  13  14
ENDBRANCH  12  13
ENDBRANCH  11  12
ENDBRANCH  10  11
ENDBRANCH   9  10
ENDBRANCH   8   9
ENDBRANCH   7   8
ENDBRANCH   6   7
ENDBRANCH   5   6
ENDBRANCH   4   5
ENDBRANCH   3   4
ENDBRANCH   2   3
ENDBRANCH   1   2
BRANCH   1  18
ATOM     18  C   UNL     1     155.830 287.097 281.126  1.00  0.00     0.000 C 
BRANCH  18  19
ATOM     19  C   UNL     1     155.700 286.684 282.605  1.00  0.00     0.000 C 
BRANCH  19  20
ATOM     20  C   UNL     1     154.846 285.418 282.798  1.00  0.00     0.000 C 
BRANCH  20  21
ATOM     21  C   UNL     1     155.657 284.127 282.608  1.00  0.00     0.000 C 
BRANCH  21  22
ATOM     22  C   UNL     1     154.922 282.887 283.153  1.00  0.00     0.000 C 
BRANCH  22  23
ATOM     23  C   UNL     1     154.291 283.127 284.536  1.00  0.00     0.000 C 
BRANCH  23  24
ATOM     24  C   UNL     1     155.303 283.331 285.682  1.00  0.00    -0.000 C 
BRANCH  24  25
ATOM     25  C   UNL     1     154.985 284.499 286.637  1.00  0.00    -0.000 C 
BRANCH  25  26
ATOM     26  C   UNL     1     153.653 285.218 286.313  1.00  0.00    -0.000 C 
BRANCH  26  27
ATOM     27  C   UNL     1     152.660 285.185 287.490  1.00  0.00    -0.000 C 
BRANCH  27  28
ATOM     28  C   UNL     1     151.229 284.788 287.058  1.00  0.00    -0.000 C 
BRANCH  28  29
ATOM     29  C   UNL     1     151.189 283.779 285.894  1.00  0.00    -0.000 C 
BRANCH  29  30
ATOM     30  C   UNL     1     150.305 284.195 284.700  1.00  0.00    -0.000 C 
BRANCH  30  31
ATOM     31  C   UNL     1     150.989 284.097 283.322  1.00  0.00    -0.003 C 
ATOM     32  C   UNL     1     150.102 283.445 282.262  1.00  0.00     0.004 C 
ENDBRANCH  30  31
ENDBRANCH  29  30
ENDBRANCH  28  29
ENDBRANCH  27  28
ENDBRANCH  26  27
ENDBRANCH  25  26
ENDBRANCH  24  25
ENDBRANCH  23  24
ENDBRANCH  22  23
ENDBRANCH  21  22
ENDBRANCH  20  21
ENDBRANCH  19  20
ENDBRANCH  18  19
ENDBRANCH   1  18
TORSDOF 28
ENDMDL
MODEL 7
REMARK VINA RESULT:    -4.426      2.440      7.432
REMARK INTER + INTRA:         -16.795
REMARK INTER:                 -12.295
REMARK INTRA:                  -4.500
REMARK UNBOUND:                -5.124
REMARK SMILES CCCCCCCCCCCCCCCCCCCCCCCCCCCCCC(=O)[O-]
REMARK SMILES IDX 16 1 17 2 18 3 19 4 20 5 21 6 22 7 23 8 24 9 25 10 26 11
REMARK SMILES IDX 27 12 28 13 29 14 30 15 31 16 32 17 15 18 14 19 13 20 12 21
REMARK SMILES IDX 11 22 10 23 9 24 8 25 7 26 6 27 5 28 4 29 3 30 2 31 1 32
REMARK H PARENT
REMARK Flexibility Score: inf
ROOT
ATOM      1  C   UNL     1     149.713 283.300 282.002  1.00  0.00     0.000 C 
ENDROOT
BRANCH   1   2
ATOM      2  C   UNL     1     148.508 283.627 281.101  1.00  0.00     0.000 C 
BRANCH   2   3
ATOM      3  C   UNL     1     148.594 285.034 280.491  1.00  0.00     0.000 C 
BRANCH   3   4
ATOM      4  C   UNL     1     147.743 285.191 279.217  1.00  0.00     0.000 C 
BRANCH   4   5
ATOM      5  C   UNL     1     148.221 286.352 278.330  1.00  0.00     0.000 C 
BRANCH   5   6
ATOM      6  C   UNL     1     147.814 287.728 278.887  1.00  0.00     0.000 C 
BRANCH   6   7
ATOM      7  C   UNL     1     149.023 288.611 279.236  1.00  0.00     0.000 C 
BRANCH   7   8
ATOM      8  C   UNL     1     150.269 288.254 278.406  1.00  0.00     0.000 C 
BRANCH   8   9
ATOM      9  C   UNL     1     151.472 287.864 279.279  1.00  0.00     0.000 C 
BRANCH   9  10
ATOM     10  C   UNL     1     151.097 287.665 280.754  1.00  0.00     0.000 C 
BRANCH  10  11
ATOM     11  C   UNL     1     152.100 288.388 281.667  1.00  0.00     0.000 C 
BRANCH  11  12
ATOM     12  C   UNL     1     153.231 287.472 282.163  1.00  0.00     0.000 C 
BRANCH  12  13
ATOM     13  C   UNL     1     154.562 287.728 281.437  1.00  0.00     0.006 C 
BRANCH  13  14
ATOM     14  C   UNL     1     154.615 289.152 280.877  1.00  0.00     0.053 C 
BRANCH  14  15
ATOM     15  C   UNL     1     155.599 289.980 281.640  1.00  0.00     0.041 C 
ATOM     16  O   UNL     1     156.611 290.461 281.059  1.00  0.00    -0.550 OA
ATOM     17  O   UNL     1     155.437 290.166 283.009  1.00  0.00    -0.550 OA
ENDBRANCH  14  15
ENDBRANCH  13  14
ENDBRANCH  12  13
ENDBRANCH  11  12
ENDBRANCH  10  11
ENDBRANCH   9  10
ENDBRANCH   8   9
ENDBRANCH   7   8
ENDBRANCH   6   7
ENDBRANCH   5   6
ENDBRANCH   4   5
ENDBRANCH   3   4
ENDBRANCH   2   3
ENDBRANCH   1   2
BRANCH   1  18
ATOM     18  C   UNL     1     149.510 283.751 283.462  1.00  0.00     0.000 C 
BRANCH  18  19
ATOM     19  C   UNL     1     150.814 284.011 284.242  1.00  0.00     0.000 C 
BRANCH  19  20
ATOM     20  C   UNL     1     152.042 284.143 283.325  1.00  0.00     0.000 C 
BRANCH  20  21
ATOM     21  C   UNL     1     153.354 283.794 284.044  1.00  0.00     0.000 C 
BRANCH  21  22
ATOM     22  C   UNL     1     154.323 283.001 283.146  1.00  0.00     0.000 C 
BRANCH  22  23
ATOM     23  C   UNL     1     155.483 283.861 282.615  1.00  0.00     0.000 C 
BRANCH  23  24
ATOM     24  C   UNL     1     156.788 283.763 283.432  1.00  0.00    -0.000 C 
BRANCH  24  25
ATOM     25  C   UNL     1     157.369 285.112 283.905  1.00  0.00    -0.000 C 
BRANCH  25  26
ATOM     26  C   UNL     1     156.292 286.115 284.381  1.00  0.00    -0.000 C 
BRANCH  26  27
ATOM     27  C   UNL     1     156.241 286.245 285.915  1.00  0.00    -0.000 C 
BRANCH  27  28
ATOM     28  C   UNL     1     154.864 285.859 286.506  1.00  0.00    -0.000 C 
BRANCH  28  29
ATOM     29  C   UNL     1     154.882 284.547 287.313  1.00  0.00    -0.000 C 
BRANCH  29  30
ATOM     30  C   UNL     1     156.286 284.039 287.702  1.00  0.00    -0.000 C 
BRANCH  30  31
ATOM     31  C   UNL     1     156.727 282.745 286.991  1.00  0.00    -0.003 C 
ATOM     32  C   UNL     1     155.549 281.896 286.513  1.00  0.00     0.004 C 
ENDBRANCH  30  31
ENDBRANCH  29  30
ENDBRANCH  28  29
ENDBRANCH  27  28
ENDBRANCH  26  27
ENDBRANCH  25  26
ENDBRANCH  24  25
ENDBRANCH  23  24
ENDBRANCH  22  23
ENDBRANCH  21  22
ENDBRANCH  20  21
ENDBRANCH  19  20
ENDBRANCH  18  19
ENDBRANCH   1  18
TORSDOF 28
ENDMDL
MODEL 8
REMARK VINA RESULT:    -4.409      3.946      8.104
REMARK INTER + INTRA:         -16.751
REMARK INTER:                 -10.367
REMARK INTRA:                  -6.384
REMARK UNBOUND:                -5.124
REMARK SMILES CCCCCCCCCCCCCCCCCCCCCCCCCCCCCC(=O)[O-]
REMARK SMILES IDX 16 1 17 2 18 3 19 4 20 5 21 6 22 7 23 8 24 9 25 10 26 11
REMARK SMILES IDX 27 12 28 13 29 14 30 15 31 16 32 17 15 18 14 19 13 20 12 21
REMARK SMILES IDX 11 22 10 23 9 24 8 25 7 26 6 27 5 28 4 29 3 30 2 31 1 32
REMARK H PARENT
REMARK Flexibility Score: inf
ROOT
ATOM      1  C   UNL     1     155.878 286.400 288.412  1.00  0.00     0.000 C 
ENDROOT
BRANCH   1   2
ATOM      2  C   UNL     1     155.169 285.176 287.804  1.00  0.00     0.000 C 
BRANCH   2   3
ATOM      3  C   UNL     1     153.992 285.568 286.896  1.00  0.00     0.000 C 
BRANCH   3   4
ATOM      4  C   UNL     1     153.419 284.378 286.105  1.00  0.00     0.000 C 
BRANCH   4   5
ATOM      5  C   UNL     1     152.846 284.799 284.742  1.00  0.00     0.000 C 
BRANCH   5   6
ATOM      6  C   UNL     1     153.258 283.845 283.607  1.00  0.00     0.000 C 
BRANCH   6   7
ATOM      7  C   UNL     1     154.512 283.023 283.946  1.00  0.00     0.000 C 
BRANCH   7   8
ATOM      8  C   UNL     1     155.529 283.001 282.790  1.00  0.00     0.000 C 
BRANCH   8   9
ATOM      9  C   UNL     1     156.833 283.738 283.133  1.00  0.00     0.000 C 
BRANCH   9  10
ATOM     10  C   UNL     1     156.748 284.518 284.453  1.00  0.00     0.000 C 
BRANCH  10  11
ATOM     11  C   UNL     1     156.388 285.988 284.188  1.00  0.00     0.000 C 
BRANCH  11  12
ATOM     12  C   UNL     1     156.558 286.393 282.715  1.00  0.00     0.000 C 
BRANCH  12  13
ATOM     13  C   UNL     1     155.223 286.742 282.038  1.00  0.00     0.006 C 
BRANCH  13  14
ATOM     14  C   UNL     1     155.359 287.999 281.173  1.00  0.00     0.053 C 
BRANCH  14  15
ATOM     15  C   UNL     1     154.547 289.118 281.744  1.00  0.00     0.041 C 
ATOM     16  O   UNL     1     154.755 290.306 281.374  1.00  0.00    -0.550 OA
ATOM     17  O   UNL     1     153.606 288.858 282.734  1.00  0.00    -0.550 OA
ENDBRANCH  14  15
ENDBRANCH  13  14
ENDBRANCH  12  13
ENDBRANCH  11  12
ENDBRANCH  10  11
ENDBRANCH   9  10
ENDBRANCH   8   9
ENDBRANCH   7   8
ENDBRANCH   6   7
ENDBRANCH   5   6
ENDBRANCH   4   5
ENDBRANCH   3   4
ENDBRANCH   2   3
ENDBRANCH   1   2
BRANCH   1  18
ATOM     18  C   UNL     1     157.230 286.048 289.062  1.00  0.00     0.000 C 
BRANCH  18  19
ATOM     19  C   UNL     1     158.437 286.820 288.493  1.00  0.00     0.000 C 
BRANCH  19  20
ATOM     20  C   UNL     1     158.269 287.179 287.007  1.00  0.00     0.000 C 
BRANCH  20  21
ATOM     21  C   UNL     1     159.273 288.245 286.541  1.00  0.00     0.000 C 
BRANCH  21  22
ATOM     22  C   UNL     1     159.333 288.364 285.006  1.00  0.00     0.000 C 
BRANCH  22  23
ATOM     23  C   UNL     1     158.785 289.706 284.490  1.00  0.00     0.000 C 
BRANCH  23  24
ATOM     24  C   UNL     1     157.335 289.656 283.968  1.00  0.00    -0.000 C 
BRANCH  24  25
ATOM     25  C   UNL     1     156.285 290.321 284.881  1.00  0.00    -0.000 C 
BRANCH  25  26
ATOM     26  C   UNL     1     155.494 289.314 285.750  1.00  0.00    -0.000 C 
BRANCH  26  27
ATOM     27  C   UNL     1     155.500 289.687 287.244  1.00  0.00    -0.000 C 
BRANCH  27  28
ATOM     28  C   UNL     1     156.619 290.691 287.609  1.00  0.00    -0.000 C 
BRANCH  28  29
ATOM     29  C   UNL     1     157.323 290.378 288.943  1.00  0.00    -0.000 C 
BRANCH  29  30
ATOM     30  C   UNL     1     156.422 290.465 290.192  1.00  0.00    -0.000 C 
BRANCH  30  31
ATOM     31  C   UNL     1     156.529 289.265 291.154  1.00  0.00    -0.003 C 
ATOM     32  C   UNL     1     157.974 288.901 291.494  1.00  0.00     0.004 C 
ENDBRANCH  30  31
ENDBRANCH  29  30
ENDBRANCH  28  29
ENDBRANCH  27  28
ENDBRANCH  26  27
ENDBRANCH  25  26
ENDBRANCH  24  25
ENDBRANCH  23  24
ENDBRANCH  22  23
ENDBRANCH  21  22
ENDBRANCH  20  21
ENDBRANCH  19  20
ENDBRANCH  18  19
ENDBRANCH   1  18
TORSDOF 28
ENDMDL
MODEL 9
REMARK VINA RESULT:    -4.388      2.995      6.888
REMARK INTER + INTRA:         -16.694
REMARK INTER:                 -11.081
REMARK INTRA:                  -5.612
REMARK UNBOUND:                -5.124
REMARK SMILES CCCCCCCCCCCCCCCCCCCCCCCCCCCCCC(=O)[O-]
REMARK SMILES IDX 16 1 17 2 18 3 19 4 20 5 21 6 22 7 23 8 24 9 25 10 26 11
REMARK SMILES IDX 27 12 28 13 29 14 30 15 31 16 32 17 15 18 14 19 13 20 12 21
REMARK SMILES IDX 11 22 10 23 9 24 8 25 7 26 6 27 5 28 4 29 3 30 2 31 1 32
REMARK H PARENT
REMARK Flexibility Score: inf
ROOT
ATOM      1  C   UNL     1     154.127 283.454 283.465  1.00  0.00     0.000 C 
ENDROOT
BRANCH   1   2
ATOM      2  C   UNL     1     153.590 284.886 283.637  1.00  0.00     0.000 C 
BRANCH   2   3
ATOM      3  C   UNL     1     152.054 284.945 283.625  1.00  0.00     0.000 C 
BRANCH   3   4
ATOM      4  C   UNL     1     151.402 283.830 284.463  1.00  0.00     0.000 C 
BRANCH   4   5
ATOM      5  C   UNL     1     150.720 284.369 285.730  1.00  0.00     0.000 C 
BRANCH   5   6
ATOM      6  C   UNL     1     151.630 284.297 286.969  1.00  0.00     0.000 C 
BRANCH   6   7
ATOM      7  C   UNL     1     151.440 285.491 287.918  1.00  0.00     0.000 C 
BRANCH   7   8
ATOM      8  C   UNL     1     152.684 286.395 287.978  1.00  0.00     0.000 C 
BRANCH   8   9
ATOM      9  C   UNL     1     153.788 285.952 287.006  1.00  0.00     0.000 C 
BRANCH   9  10
ATOM     10  C   UNL     1     154.620 287.127 286.472  1.00  0.00     0.000 C 
BRANCH  10  11
ATOM     11  C   UNL     1     154.928 288.125 287.600  1.00  0.00     0.000 C 
BRANCH  11  12
ATOM     12  C   UNL     1     154.805 289.591 287.154  1.00  0.00     0.000 C 
BRANCH  12  13
ATOM     13  C   UNL     1     156.079 290.405 287.434  1.00  0.00     0.006 C 
BRANCH  13  14
ATOM     14  C   UNL     1     157.038 289.627 288.340  1.00  0.00     0.053 C 
BRANCH  14  15
ATOM     15  C   UNL     1     157.254 290.359 289.627  1.00  0.00     0.041 C 
ATOM     16  O   UNL     1     158.335 290.977 289.832  1.00  0.00    -0.550 OA
ATOM     17  O   UNL     1     156.290 290.304 290.627  1.00  0.00    -0.550 OA
ENDBRANCH  14  15
ENDBRANCH  13  14
ENDBRANCH  12  13
ENDBRANCH  11  12
ENDBRANCH  10  11
ENDBRANCH   9  10
ENDBRANCH   8   9
ENDBRANCH   7   8
ENDBRANCH   6   7
ENDBRANCH   5   6
ENDBRANCH   4   5
ENDBRANCH   3   4
ENDBRANCH   2   3
ENDBRANCH   1   2
BRANCH   1  18
ATOM     18  C   UNL     1     155.340 283.155 284.367  1.00  0.00     0.000 C 
BRANCH  18  19
ATOM     19  C   UNL     1     154.986 282.582 285.754  1.00  0.00     0.000 C 
BRANCH  19  20
ATOM     20  C   UNL     1     156.212 282.448 286.673  1.00  0.00     0.000 C 
BRANCH  20  21
ATOM     21  C   UNL     1     156.023 283.170 288.017  1.00  0.00     0.000 C 
BRANCH  21  22
ATOM     22  C   UNL     1     156.768 284.517 288.070  1.00  0.00     0.000 C 
BRANCH  22  23
ATOM     23  C   UNL     1     157.752 284.701 286.900  1.00  0.00     0.000 C 
BRANCH  23  24
ATOM     24  C   UNL     1     158.267 286.142 286.708  1.00  0.00    -0.000 C 
BRANCH  24  25
ATOM     25  C   UNL     1     158.107 286.711 285.284  1.00  0.00    -0.000 C 
BRANCH  25  26
ATOM     26  C   UNL     1     158.187 288.256 285.223  1.00  0.00    -0.000 C 
BRANCH  26  27
ATOM     27  C   UNL     1     157.719 288.820 283.869  1.00  0.00    -0.000 C 
BRANCH  27  28
ATOM     28  C   UNL     1     156.214 289.179 283.855  1.00  0.00    -0.000 C 
BRANCH  28  29
ATOM     29  C   UNL     1     155.350 288.202 283.034  1.00  0.00    -0.000 C 
BRANCH  29  30
ATOM     30  C   UNL     1     153.956 288.734 282.645  1.00  0.00    -0.000 C 
BRANCH  30  31
ATOM     31  C   UNL     1     153.183 287.853 281.644  1.00  0.00    -0.003 C 
ATOM     32  C   UNL     1     151.769 288.364 281.368  1.00  0.00     0.004 C 
ENDBRANCH  30  31
ENDBRANCH  29  30
ENDBRANCH  28  29
ENDBRANCH  27  28
ENDBRANCH  26  27
ENDBRANCH  25  26
ENDBRANCH  24  25
ENDBRANCH  23  24
ENDBRANCH  22  23
ENDBRANCH  21  22
ENDBRANCH  20  21
ENDBRANCH  19  20
ENDBRANCH  18  19
ENDBRANCH   1  18
TORSDOF 28
ENDMDL
