MODEL 1
REMARK VINA RESULT:     1.027      0.000      0.000
REMARK INTER + INTRA:           1.912
REMARK INTER:                   1.748
REMARK INTRA:                   0.164
REMARK UNBOUND:                 0.164
REMARK SMILES CCCCCCCCCCCCCC(=O)[O-]
REMARK SMILES IDX 8 1 9 2 10 3 11 4 12 5 13 6 14 7 15 8 16 9 7 10 6 11 5 12
REMARK SMILES IDX 4 13 3 14 2 15 1 16
REMARK H PARENT
REMARK Flexibility Score: inf
ROOT
ATOM      1  C   UNL     1     -19.851   4.710 -20.063  1.00  0.00     0.000 C 
ENDROOT
BRANCH   1   2
ATOM      2  C   UNL     1     -18.669   4.170 -19.244  1.00  0.00     0.000 C 
BRANCH   2   3
ATOM      3  C   UNL     1     -17.484   3.743 -20.124  1.00  0.00     0.000 C 
BRANCH   3   4
ATOM      4  C   UNL     1     -16.374   3.043 -19.325  1.00  0.00     0.000 C 
BRANCH   4   5
ATOM      5  C   UNL     1     -15.020   3.181 -20.031  1.00  0.00     0.006 C 
BRANCH   5   6
ATOM      6  C   UNL     1     -14.532   4.633 -20.007  1.00  0.00     0.053 C 
BRANCH   6   7
ATOM      7  C   UNL     1     -14.162   5.039 -18.616  1.00  0.00     0.041 C 
ATOM      8  O   UNL     1     -13.883   6.240 -18.359  1.00  0.00    -0.550 OA
ATOM      9  O   UNL     1     -14.174   4.102 -17.592  1.00  0.00    -0.550 OA
ENDBRANCH   6   7
ENDBRANCH   5   6
ENDBRANCH   4   5
ENDBRANCH   3   4
ENDBRANCH   2   3
ENDBRANCH   1   2
BRANCH   1  10
ATOM     10  C   UNL     1     -21.175   4.508 -19.315  1.00  0.00     0.000 C 
BRANCH  10  11
ATOM     11  C   UNL     1     -21.248   3.106 -18.692  1.00  0.00    -0.000 C 
BRANCH  11  12
ATOM     12  C   UNL     1     -20.672   3.073 -17.260  1.00  0.00    -0.000 C 
BRANCH  12  13
ATOM     13  C   UNL     1     -21.715   3.364 -16.167  1.00  0.00    -0.000 C 
BRANCH  13  14
ATOM     14  C   UNL     1     -21.243   2.950 -14.764  1.00  0.00    -0.000 C 
BRANCH  14  15
ATOM     15  C   UNL     1     -22.396   2.878 -13.752  1.00  0.00    -0.003 C 
ATOM     16  C   UNL     1     -23.672   3.552 -14.260  1.00  0.00     0.004 C 
ENDBRANCH  14  15
ENDBRANCH  13  14
ENDBRANCH  12  13
ENDBRANCH  11  12
ENDBRANCH  10  11
ENDBRANCH   1  10
TORSDOF 12
ENDMDL
MODEL 2
REMARK VINA RESULT:     2.969      4.275      7.217
REMARK INTER + INTRA:           5.215
REMARK INTER:                   5.451
REMARK INTRA:                  -0.236
REMARK UNBOUND:                 0.164
REMARK SMILES CCCCCCCCCCCCCC(=O)[O-]
REMARK SMILES IDX 8 1 9 2 10 3 11 4 12 5 13 6 14 7 15 8 16 9 7 10 6 11 5 12
REMARK SMILES IDX 4 13 3 14 2 15 1 16
REMARK H PARENT
REMARK Flexibility Score: inf
ROOT
ATOM      1  C   UNL     1     -20.461   4.847 -19.921  1.00  0.00     0.000 C 
ENDROOT
BRANCH   1   2
ATOM      2  C   UNL     1     -20.417   6.294 -19.407  1.00  0.00     0.000 C 
BRANCH   2   3
ATOM      3  C   UNL     1     -21.812   6.849 -19.080  1.00  0.00     0.000 C 
BRANCH   3   4
ATOM      4  C   UNL     1     -21.766   8.023 -18.089  1.00  0.00     0.000 C 
BRANCH   4   5
ATOM      5  C   UNL     1     -23.009   8.908 -18.229  1.00  0.00     0.006 C 
BRANCH   5   6
ATOM      6  C   UNL     1     -23.337   9.610 -16.907  1.00  0.00     0.053 C 
BRANCH   6   7
ATOM      7  C   UNL     1     -22.174   9.532 -15.970  1.00  0.00     0.041 C 
ATOM      8  O   UNL     1     -22.202   8.742 -14.989  1.00  0.00    -0.550 OA
ATOM      9  O   UNL     1     -21.038  10.294 -16.207  1.00  0.00    -0.550 OA
ENDBRANCH   6   7
ENDBRANCH   5   6
ENDBRANCH   4   5
ENDBRANCH   3   4
ENDBRANCH   2   3
ENDBRANCH   1   2
BRANCH   1  10
ATOM     10  C   UNL     1     -20.666   3.860 -18.765  1.00  0.00     0.000 C 
BRANCH  10  11
ATOM     11  C   UNL     1     -19.409   3.006 -18.538  1.00  0.00    -0.000 C 
BRANCH  11  12
ATOM     12  C   UNL     1     -18.364   3.198 -19.659  1.00  0.00    -0.000 C 
BRANCH  12  13
ATOM     13  C   UNL     1     -17.054   3.845 -19.177  1.00  0.00    -0.000 C 
BRANCH  13  14
ATOM     14  C   UNL     1     -16.407   3.086 -18.007  1.00  0.00    -0.000 C 
BRANCH  14  15
ATOM     15  C   UNL     1     -14.873   3.148 -18.043  1.00  0.00    -0.003 C 
ATOM     16  C   UNL     1     -14.347   4.410 -18.728  1.00  0.00     0.004 C 
ENDBRANCH  14  15
ENDBRANCH  13  14
ENDBRANCH  12  13
ENDBRANCH  11  12
ENDBRANCH  10  11
ENDBRANCH   1  10
TORSDOF 12
ENDMDL
MODEL 3
REMARK VINA RESULT:     3.101      4.419      7.335
REMARK INTER + INTRA:           5.441
REMARK INTER:                   5.880
REMARK INTRA:                  -0.440
REMARK UNBOUND:                 0.164
REMARK SMILES CCCCCCCCCCCCCC(=O)[O-]
REMARK SMILES IDX 8 1 9 2 10 3 11 4 12 5 13 6 14 7 15 8 16 9 7 10 6 11 5 12
REMARK SMILES IDX 4 13 3 14 2 15 1 16
REMARK H PARENT
REMARK Flexibility Score: inf
ROOT
ATOM      1  C   UNL     1     -20.264   5.655 -19.361  1.00  0.00     0.000 C 
ENDROOT
BRANCH   1   2
ATOM      2  C   UNL     1     -21.155   6.852 -19.728  1.00  0.00     0.000 C 
BRANCH   2   3
ATOM      3  C   UNL     1     -21.607   7.654 -18.498  1.00  0.00     0.000 C 
BRANCH   3   4
ATOM      4  C   UNL     1     -23.055   8.156 -18.616  1.00  0.00     0.000 C 
BRANCH   4   5
ATOM      5  C   UNL     1     -23.186   9.585 -18.078  1.00  0.00     0.006 C 
BRANCH   5   6
ATOM      6  C   UNL     1     -23.448   9.582 -16.568  1.00  0.00     0.053 C 
BRANCH   6   7
ATOM      7  C   UNL     1     -22.159   9.504 -15.813  1.00  0.00     0.041 C 
ATOM      8  O   UNL     1     -21.188  10.238 -16.138  1.00  0.00    -0.550 OA
ATOM      9  O   UNL     1     -22.045   8.657 -14.718  1.00  0.00    -0.550 OA
ENDBRANCH   6   7
ENDBRANCH   5   6
ENDBRANCH   4   5
ENDBRANCH   3   4
ENDBRANCH   2   3
ENDBRANCH   1   2
BRANCH   1  10
ATOM     10  C   UNL     1     -21.106   4.393 -19.142  1.00  0.00     0.000 C 
BRANCH  10  11
ATOM     11  C   UNL     1     -20.272   3.279 -18.490  1.00  0.00    -0.000 C 
BRANCH  11  12
ATOM     12  C   UNL     1     -18.920   3.069 -19.205  1.00  0.00    -0.000 C 
BRANCH  12  13
ATOM     13  C   UNL     1     -17.704   3.177 -18.269  1.00  0.00    -0.000 C 
BRANCH  13  14
ATOM     14  C   UNL     1     -16.719   4.279 -18.693  1.00  0.00    -0.000 C 
BRANCH  14  15
ATOM     15  C   UNL     1     -15.274   3.768 -18.797  1.00  0.00    -0.003 C 
ATOM     16  C   UNL     1     -14.252   4.901 -18.895  1.00  0.00     0.004 C 
ENDBRANCH  14  15
ENDBRANCH  13  14
ENDBRANCH  12  13
ENDBRANCH  11  12
ENDBRANCH  10  11
ENDBRANCH   1  10
TORSDOF 12
ENDMDL
MODEL 4
REMARK VINA RESULT:     3.473      3.586      4.470
REMARK INTER + INTRA:           6.072
REMARK INTER:                   6.656
REMARK INTRA:                  -0.584
REMARK UNBOUND:                 0.164
REMARK SMILES CCCCCCCCCCCCCC(=O)[O-]
REMARK SMILES IDX 8 1 9 2 10 3 11 4 12 5 13 6 14 7 15 8 16 9 7 10 6 11 5 12
REMARK SMILES IDX 4 13 3 14 2 15 1 16
REMARK H PARENT
REMARK Flexibility Score: inf
ROOT
ATOM      1  C   UNL     1     -20.186   6.013 -19.476  1.00  0.00     0.000 C 
ENDROOT
BRANCH   1   2
ATOM      2  C   UNL     1     -20.788   4.830 -18.702  1.00  0.00     0.000 C 
BRANCH   2   3
ATOM      3  C   UNL     1     -20.240   3.474 -19.174  1.00  0.00     0.000 C 
BRANCH   3   4
ATOM      4  C   UNL     1     -18.896   3.117 -18.520  1.00  0.00     0.000 C 
BRANCH   4   5
ATOM      5  C   UNL     1     -17.791   2.988 -19.574  1.00  0.00     0.006 C 
BRANCH   5   6
ATOM      6  C   UNL     1     -16.754   4.106 -19.424  1.00  0.00     0.053 C 
BRANCH   6   7
ATOM      7  C   UNL     1     -15.563   3.617 -18.663  1.00  0.00     0.041 C 
ATOM      8  O   UNL     1     -15.714   2.877 -17.655  1.00  0.00    -0.550 OA
ATOM      9  O   UNL     1     -14.283   3.937 -19.094  1.00  0.00    -0.550 OA
ENDBRANCH   6   7
ENDBRANCH   5   6
ENDBRANCH   4   5
ENDBRANCH   3   4
ENDBRANCH   2   3
ENDBRANCH   1   2
BRANCH   1  10
ATOM     10  C   UNL     1     -21.265   7.047 -19.823  1.00  0.00     0.000 C 
BRANCH  10  11
ATOM     11  C   UNL     1     -21.831   7.702 -18.554  1.00  0.00    -0.000 C 
BRANCH  11  12
ATOM     12  C   UNL     1     -23.262   8.242 -18.764  1.00  0.00    -0.000 C 
BRANCH  12  13
ATOM     13  C   UNL     1     -23.479   9.655 -18.196  1.00  0.00    -0.000 C 
BRANCH  13  14
ATOM     14  C   UNL     1     -23.500   9.684 -16.660  1.00  0.00    -0.000 C 
BRANCH  14  15
ATOM     15  C   UNL     1     -22.185  10.208 -16.063  1.00  0.00    -0.003 C 
ATOM     16  C   UNL     1     -21.663   9.335 -14.921  1.00  0.00     0.004 C 
ENDBRANCH  14  15
ENDBRANCH  13  14
ENDBRANCH  12  13
ENDBRANCH  11  12
ENDBRANCH  10  11
ENDBRANCH   1  10
TORSDOF 12
ENDMDL
