MODEL 1
REMARK VINA RESULT:    -4.888      0.000      0.000
REMARK INTER + INTRA:         -11.640
REMARK INTER:                  -9.460
REMARK INTRA:                  -2.180
REMARK UNBOUND:                -2.180
REMARK SMILES CCCCCCCCCCCCCCCCCC(=O)[O-]
REMARK SMILES IDX 10 1 11 2 12 3 13 4 14 5 15 6 16 7 17 8 18 9 19 10 20 11
REMARK SMILES IDX 9 12 8 13 7 14 6 15 5 16 4 17 3 18 2 19 1 20
REMARK H PARENT
REMARK Flexibility Score: inf
ROOT
ATOM      1  C   UNL     1      45.460  21.426  21.464  1.00  0.00     0.000 C 
ENDROOT
BRANCH   1   2
ATOM      2  C   UNL     1      46.726  22.164  21.938  1.00  0.00     0.000 C 
BRANCH   2   3
ATOM      3  C   UNL     1      47.678  22.617  20.813  1.00  0.00     0.000 C 
BRANCH   3   4
ATOM      4  C   UNL     1      47.469  24.064  20.331  1.00  0.00     0.000 C 
BRANCH   4   5
ATOM      5  C   UNL     1      46.632  24.148  19.042  1.00  0.00     0.000 C 
BRANCH   5   6
ATOM      6  C   UNL     1      45.142  24.421  19.334  1.00  0.00     0.000 C 
BRANCH   6   7
ATOM      7  C   UNL     1      44.913  25.476  20.430  1.00  0.00     0.006 C 
BRANCH   7   8
ATOM      8  C   UNL     1      43.724  26.397  20.132  1.00  0.00     0.053 C 
BRANCH   8   9
ATOM      9  C   UNL     1      44.204  27.723  19.631  1.00  0.00     0.041 C 
ATOM     10  O   UNL     1      45.106  27.781  18.754  1.00  0.00    -0.550 OA
ATOM     11  O   UNL     1      43.621  28.895  20.096  1.00  0.00    -0.550 OA
ENDBRANCH   8   9
ENDBRANCH   7   8
ENDBRANCH   6   7
ENDBRANCH   5   6
ENDBRANCH   4   5
ENDBRANCH   3   4
ENDBRANCH   2   3
ENDBRANCH   1   2
BRANCH   1  12
ATOM     12  C   UNL     1      44.130  22.014  21.976  1.00  0.00     0.000 C 
BRANCH  12  13
ATOM     13  C   UNL     1      42.942  21.875  21.007  1.00  0.00    -0.000 C 
BRANCH  13  14
ATOM     14  C   UNL     1      42.009  23.094  21.025  1.00  0.00    -0.000 C 
BRANCH  14  15
ATOM     15  C   UNL     1      41.537  23.446  19.609  1.00  0.00    -0.000 C 
BRANCH  15  16
ATOM     16  C   UNL     1      42.201  22.537  18.566  1.00  0.00    -0.000 C 
BRANCH  16  17
ATOM     17  C   UNL     1      41.255  22.273  17.386  1.00  0.00    -0.000 C 
BRANCH  17  18
ATOM     18  C   UNL     1      39.890  22.967  17.546  1.00  0.00    -0.000 C 
BRANCH  18  19
ATOM     19  C   UNL     1      38.672  22.077  17.246  1.00  0.00    -0.003 C 
ATOM     20  C   UNL     1      37.345  22.723  17.648  1.00  0.00     0.004 C 
ENDBRANCH  18  19
ENDBRANCH  17  18
ENDBRANCH  16  17
ENDBRANCH  15  16
ENDBRANCH  14  15
ENDBRANCH  13  14
ENDBRANCH  12  13
ENDBRANCH   1  12
TORSDOF 16
ENDMDL
MODEL 2
REMARK VINA RESULT:    -4.761      7.793     11.578
REMARK INTER + INTRA:         -11.394
REMARK INTER:                  -8.719
REMARK INTRA:                  -2.675
REMARK UNBOUND:                -2.180
REMARK SMILES CCCCCCCCCCCCCCCCCC(=O)[O-]
REMARK SMILES IDX 10 1 11 2 12 3 13 4 14 5 15 6 16 7 17 8 18 9 19 10 20 11
REMARK SMILES IDX 9 12 8 13 7 14 6 15 5 16 4 17 3 18 2 19 1 20
REMARK H PARENT
REMARK Flexibility Score: inf
ROOT
ATOM      1  C   UNL     1      46.424  33.785  16.822  1.00  0.00     0.000 C 
ENDROOT
BRANCH   1   2
ATOM      2  C   UNL     1      45.431  33.486  17.961  1.00  0.00     0.000 C 
BRANCH   2   3
ATOM      3  C   UNL     1      43.960  33.336  17.522  1.00  0.00     0.000 C 
BRANCH   3   4
ATOM      4  C   UNL     1      43.520  31.894  17.214  1.00  0.00     0.000 C 
BRANCH   4   5
ATOM      5  C   UNL     1      44.427  30.840  17.872  1.00  0.00     0.000 C 
BRANCH   5   6
ATOM      6  C   UNL     1      44.889  29.762  16.869  1.00  0.00     0.000 C 
BRANCH   6   7
ATOM      7  C   UNL     1      45.268  30.328  15.489  1.00  0.00     0.006 C 
BRANCH   7   8
ATOM      8  C   UNL     1      44.646  29.541  14.330  1.00  0.00     0.053 C 
BRANCH   8   9
ATOM      9  C   UNL     1      43.265  30.038  14.042  1.00  0.00     0.041 C 
ATOM     10  O   UNL     1      42.306  29.226  13.949  1.00  0.00    -0.550 OA
ATOM     11  O   UNL     1      43.025  31.401  13.927  1.00  0.00    -0.550 OA
ENDBRANCH   8   9
ENDBRANCH   7   8
ENDBRANCH   6   7
ENDBRANCH   5   6
ENDBRANCH   4   5
ENDBRANCH   3   4
ENDBRANCH   2   3
ENDBRANCH   1   2
BRANCH   1  12
ATOM     12  C   UNL     1      45.794  34.374  15.544  1.00  0.00     0.000 C 
BRANCH  12  13
ATOM     13  C   UNL     1      46.040  33.557  14.263  1.00  0.00    -0.000 C 
BRANCH  13  14
ATOM     14  C   UNL     1      47.444  32.938  14.209  1.00  0.00    -0.000 C 
BRANCH  14  15
ATOM     15  C   UNL     1      47.616  32.076  12.951  1.00  0.00    -0.000 C 
BRANCH  15  16
ATOM     16  C   UNL     1      46.319  32.029  12.135  1.00  0.00    -0.000 C 
BRANCH  16  17
ATOM     17  C   UNL     1      46.572  32.437  10.677  1.00  0.00    -0.000 C 
BRANCH  17  18
ATOM     18  C   UNL     1      47.310  33.783  10.551  1.00  0.00    -0.000 C 
BRANCH  18  19
ATOM     19  C   UNL     1      46.470  35.018  10.920  1.00  0.00    -0.003 C 
ATOM     20  C   UNL     1      47.235  36.028  11.777  1.00  0.00     0.004 C 
ENDBRANCH  18  19
ENDBRANCH  17  18
ENDBRANCH  16  17
ENDBRANCH  15  16
ENDBRANCH  14  15
ENDBRANCH  13  14
ENDBRANCH  12  13
ENDBRANCH   1  12
TORSDOF 16
ENDMDL
MODEL 3
REMARK VINA RESULT:    -4.723      7.933     11.716
REMARK INTER + INTRA:         -11.320
REMARK INTER:                  -8.648
REMARK INTRA:                  -2.672
REMARK UNBOUND:                -2.180
REMARK SMILES CCCCCCCCCCCCCCCCCC(=O)[O-]
REMARK SMILES IDX 10 1 11 2 12 3 13 4 14 5 15 6 16 7 17 8 18 9 19 10 20 11
REMARK SMILES IDX 9 12 8 13 7 14 6 15 5 16 4 17 3 18 2 19 1 20
REMARK H PARENT
REMARK Flexibility Score: inf
ROOT
ATOM      1  C   UNL     1      47.039  32.871  14.613  1.00  0.00     0.000 C 
ENDROOT
BRANCH   1   2
ATOM      2  C   UNL     1      45.953  33.926  14.900  1.00  0.00     0.000 C 
BRANCH   2   3
ATOM      3  C   UNL     1      46.012  34.557  16.306  1.00  0.00     0.000 C 
BRANCH   3   4
ATOM      4  C   UNL     1      45.245  33.785  17.395  1.00  0.00     0.000 C 
BRANCH   4   5
ATOM      5  C   UNL     1      43.895  33.238  16.900  1.00  0.00     0.000 C 
BRANCH   5   6
ATOM      6  C   UNL     1      43.861  31.695  16.890  1.00  0.00     0.000 C 
BRANCH   6   7
ATOM      7  C   UNL     1      44.999  31.050  17.700  1.00  0.00     0.006 C 
BRANCH   7   8
ATOM      8  C   UNL     1      45.333  29.629  17.233  1.00  0.00     0.053 C 
BRANCH   8   9
ATOM      9  C   UNL     1      45.331  28.683  18.392  1.00  0.00     0.041 C 
ATOM     10  O   UNL     1      44.307  28.572  19.117  1.00  0.00    -0.550 OA
ATOM     11  O   UNL     1      46.441  27.887  18.643  1.00  0.00    -0.550 OA
ENDBRANCH   8   9
ENDBRANCH   7   8
ENDBRANCH   6   7
ENDBRANCH   5   6
ENDBRANCH   4   5
ENDBRANCH   3   4
ENDBRANCH   2   3
ENDBRANCH   1   2
BRANCH   1  12
ATOM     12  C   UNL     1      46.538  31.591  13.915  1.00  0.00     0.000 C 
BRANCH  12  13
ATOM     13  C   UNL     1      45.104  31.673  13.361  1.00  0.00    -0.000 C 
BRANCH  13  14
ATOM     14  C   UNL     1      45.059  31.752  11.828  1.00  0.00    -0.000 C 
BRANCH  14  15
ATOM     15  C   UNL     1      46.470  31.665  11.232  1.00  0.00    -0.000 C 
BRANCH  15  16
ATOM     16  C   UNL     1      46.775  32.890  10.360  1.00  0.00    -0.000 C 
BRANCH  16  17
ATOM     17  C   UNL     1      47.913  33.725  10.966  1.00  0.00    -0.000 C 
BRANCH  17  18
ATOM     18  C   UNL     1      47.431  35.070  11.539  1.00  0.00    -0.000 C 
BRANCH  18  19
ATOM     19  C   UNL     1      45.910  35.294  11.470  1.00  0.00    -0.003 C 
ATOM     20  C   UNL     1      45.532  36.652  10.877  1.00  0.00     0.004 C 
ENDBRANCH  18  19
ENDBRANCH  17  18
ENDBRANCH  16  17
ENDBRANCH  15  16
ENDBRANCH  14  15
ENDBRANCH  13  14
ENDBRANCH  12  13
ENDBRANCH   1  12
TORSDOF 16
ENDMDL
MODEL 4
REMARK VINA RESULT:    -4.673      8.035     10.908
REMARK INTER + INTRA:         -11.223
REMARK INTER:                  -8.344
REMARK INTRA:                  -2.879
REMARK UNBOUND:                -2.180
REMARK SMILES CCCCCCCCCCCCCCCCCC(=O)[O-]
REMARK SMILES IDX 10 1 11 2 12 3 13 4 14 5 15 6 16 7 17 8 18 9 19 10 20 11
REMARK SMILES IDX 9 12 8 13 7 14 6 15 5 16 4 17 3 18 2 19 1 20
REMARK H PARENT
REMARK Flexibility Score: inf
ROOT
ATOM      1  C   UNL     1      43.498  33.199  15.902  1.00  0.00     0.000 C 
ENDROOT
BRANCH   1   2
ATOM      2  C   UNL     1      44.977  33.618  15.812  1.00  0.00     0.000 C 
BRANCH   2   3
ATOM      3  C   UNL     1      45.479  33.940  14.389  1.00  0.00     0.000 C 
BRANCH   3   4
ATOM      4  C   UNL     1      46.959  33.605  14.133  1.00  0.00     0.000 C 
BRANCH   4   5
ATOM      5  C   UNL     1      47.379  33.837  12.671  1.00  0.00     0.000 C 
BRANCH   5   6
ATOM      6  C   UNL     1      46.272  33.430  11.677  1.00  0.00     0.000 C 
BRANCH   6   7
ATOM      7  C   UNL     1      46.699  32.321  10.700  1.00  0.00     0.006 C 
BRANCH   7   8
ATOM      8  C   UNL     1      48.207  32.317  10.425  1.00  0.00     0.053 C 
BRANCH   8   9
ATOM      9  C   UNL     1      48.796  30.984  10.764  1.00  0.00     0.041 C 
ATOM     10  O   UNL     1      49.444  30.831  11.834  1.00  0.00    -0.550 OA
ATOM     11  O   UNL     1      48.589  29.897   9.924  1.00  0.00    -0.550 OA
ENDBRANCH   8   9
ENDBRANCH   7   8
ENDBRANCH   6   7
ENDBRANCH   5   6
ENDBRANCH   4   5
ENDBRANCH   3   4
ENDBRANCH   2   3
ENDBRANCH   1   2
BRANCH   1  12
ATOM     12  C   UNL     1      43.178  32.161  16.997  1.00  0.00     0.000 C 
BRANCH  12  13
ATOM     13  C   UNL     1      44.381  31.733  17.856  1.00  0.00    -0.000 C 
BRANCH  13  14
ATOM     14  C   UNL     1      44.732  30.247  17.695  1.00  0.00    -0.000 C 
BRANCH  14  15
ATOM     15  C   UNL     1      46.208  30.069  17.317  1.00  0.00    -0.000 C 
BRANCH  15  16
ATOM     16  C   UNL     1      46.427  30.326  15.821  1.00  0.00    -0.000 C 
BRANCH  16  17
ATOM     17  C   UNL     1      45.298  29.705  14.986  1.00  0.00    -0.000 C 
BRANCH  17  18
ATOM     18  C   UNL     1      45.129  30.378  13.612  1.00  0.00    -0.000 C 
BRANCH  18  19
ATOM     19  C   UNL     1      43.671  30.601  13.175  1.00  0.00    -0.003 C 
ATOM     20  C   UNL     1      42.682  29.688  13.902  1.00  0.00     0.004 C 
ENDBRANCH  18  19
ENDBRANCH  17  18
ENDBRANCH  16  17
ENDBRANCH  15  16
ENDBRANCH  14  15
ENDBRANCH  13  14
ENDBRANCH  12  13
ENDBRANCH   1  12
TORSDOF 16
ENDMDL
MODEL 5
REMARK VINA RESULT:    -4.628      7.665     11.092
REMARK INTER + INTRA:         -11.136
REMARK INTER:                  -8.313
REMARK INTRA:                  -2.823
REMARK UNBOUND:                -2.180
REMARK SMILES CCCCCCCCCCCCCCCCCC(=O)[O-]
REMARK SMILES IDX 10 1 11 2 12 3 13 4 14 5 15 6 16 7 17 8 18 9 19 10 20 11
REMARK SMILES IDX 9 12 8 13 7 14 6 15 5 16 4 17 3 18 2 19 1 20
REMARK H PARENT
REMARK Flexibility Score: inf
ROOT
ATOM      1  C   UNL     1      44.997  29.634  16.970  1.00  0.00     0.000 C 
ENDROOT
BRANCH   1   2
ATOM      2  C   UNL     1      44.804  30.811  17.945  1.00  0.00     0.000 C 
BRANCH   2   3
ATOM      3  C   UNL     1      43.595  31.718  17.641  1.00  0.00     0.000 C 
BRANCH   3   4
ATOM      4  C   UNL     1      43.953  33.142  17.178  1.00  0.00     0.000 C 
BRANCH   4   5
ATOM      5  C   UNL     1      43.599  33.397  15.703  1.00  0.00     0.000 C 
BRANCH   5   6
ATOM      6  C   UNL     1      44.850  33.689  14.847  1.00  0.00     0.000 C 
BRANCH   6   7
ATOM      7  C   UNL     1      46.152  33.751  15.663  1.00  0.00     0.006 C 
BRANCH   7   8
ATOM      8  C   UNL     1      47.361  33.197  14.900  1.00  0.00     0.053 C 
BRANCH   8   9
ATOM      9  C   UNL     1      48.336  32.573  15.848  1.00  0.00     0.041 C 
ATOM     10  O   UNL     1      47.922  31.940  16.857  1.00  0.00    -0.550 OA
ATOM     11  O   UNL     1      49.699  32.646  15.593  1.00  0.00    -0.550 OA
ENDBRANCH   8   9
ENDBRANCH   7   8
ENDBRANCH   6   7
ENDBRANCH   5   6
ENDBRANCH   4   5
ENDBRANCH   3   4
ENDBRANCH   2   3
ENDBRANCH   1   2
BRANCH   1  12
ATOM     12  C   UNL     1      45.162  30.031  15.489  1.00  0.00     0.000 C 
BRANCH  12  13
ATOM     13  C   UNL     1      43.957  29.701  14.590  1.00  0.00    -0.000 C 
BRANCH  13  14
ATOM     14  C   UNL     1      43.945  30.511  13.286  1.00  0.00    -0.000 C 
BRANCH  14  15
ATOM     15  C   UNL     1      45.373  30.764  12.783  1.00  0.00    -0.000 C 
BRANCH  15  16
ATOM     16  C   UNL     1      45.382  31.797  11.649  1.00  0.00    -0.000 C 
BRANCH  16  17
ATOM     17  C   UNL     1      46.817  32.216  11.301  1.00  0.00    -0.000 C 
BRANCH  17  18
ATOM     18  C   UNL     1      46.879  33.521  10.485  1.00  0.00    -0.000 C 
BRANCH  18  19
ATOM     19  C   UNL     1      47.100  34.795  11.319  1.00  0.00    -0.003 C 
ATOM     20  C   UNL     1      45.924  35.769  11.246  1.00  0.00     0.004 C 
ENDBRANCH  18  19
ENDBRANCH  17  18
ENDBRANCH  16  17
ENDBRANCH  15  16
ENDBRANCH  14  15
ENDBRANCH  13  14
ENDBRANCH  12  13
ENDBRANCH   1  12
TORSDOF 16
ENDMDL
MODEL 6
REMARK VINA RESULT:    -4.617      8.322     11.667
REMARK INTER + INTRA:         -11.115
REMARK INTER:                  -8.096
REMARK INTRA:                  -3.020
REMARK UNBOUND:                -2.180
REMARK SMILES CCCCCCCCCCCCCCCCCC(=O)[O-]
REMARK SMILES IDX 10 1 11 2 12 3 13 4 14 5 15 6 16 7 17 8 18 9 19 10 20 11
REMARK SMILES IDX 9 12 8 13 7 14 6 15 5 16 4 17 3 18 2 19 1 20
REMARK H PARENT
REMARK Flexibility Score: inf
ROOT
ATOM      1  C   UNL     1      46.908  31.466  14.215  1.00  0.00     0.000 C 
ENDROOT
BRANCH   1   2
ATOM      2  C   UNL     1      47.243  32.953  14.438  1.00  0.00     0.000 C 
BRANCH   2   3
ATOM      3  C   UNL     1      46.308  33.948  13.723  1.00  0.00     0.000 C 
BRANCH   3   4
ATOM      4  C   UNL     1      47.012  35.166  13.100  1.00  0.00     0.000 C 
BRANCH   4   5
ATOM      5  C   UNL     1      47.554  34.885  11.687  1.00  0.00     0.000 C 
BRANCH   5   6
ATOM      6  C   UNL     1      46.550  34.087  10.828  1.00  0.00     0.000 C 
BRANCH   6   7
ATOM      7  C   UNL     1      47.084  32.718  10.374  1.00  0.00     0.006 C 
BRANCH   7   8
ATOM      8  C   UNL     1      48.589  32.555  10.609  1.00  0.00     0.053 C 
BRANCH   8   9
ATOM      9  C   UNL     1      48.914  31.137  10.960  1.00  0.00     0.041 C 
ATOM     10  O   UNL     1      49.575  30.877  12.000  1.00  0.00    -0.550 OA
ATOM     11  O   UNL     1      48.444  30.099  10.165  1.00  0.00    -0.550 OA
ENDBRANCH   8   9
ENDBRANCH   7   8
ENDBRANCH   6   7
ENDBRANCH   5   6
ENDBRANCH   4   5
ENDBRANCH   3   4
ENDBRANCH   2   3
ENDBRANCH   1   2
BRANCH   1  12
ATOM     12  C   UNL     1      45.618  31.201  13.413  1.00  0.00     0.000 C 
BRANCH  12  13
ATOM     13  C   UNL     1      44.816  29.967  13.863  1.00  0.00    -0.000 C 
BRANCH  13  14
ATOM     14  C   UNL     1      43.436  30.327  14.433  1.00  0.00    -0.000 C 
BRANCH  14  15
ATOM     15  C   UNL     1      43.131  31.817  14.235  1.00  0.00    -0.000 C 
BRANCH  15  16
ATOM     16  C   UNL     1      42.663  32.462  15.546  1.00  0.00    -0.000 C 
BRANCH  16  17
ATOM     17  C   UNL     1      43.762  33.354  16.142  1.00  0.00    -0.000 C 
BRANCH  17  18
ATOM     18  C   UNL     1      44.271  32.849  17.504  1.00  0.00    -0.000 C 
BRANCH  18  19
ATOM     19  C   UNL     1      45.236  31.653  17.432  1.00  0.00    -0.003 C 
ATOM     20  C   UNL     1      44.656  30.378  18.046  1.00  0.00     0.004 C 
ENDBRANCH  18  19
ENDBRANCH  17  18
ENDBRANCH  16  17
ENDBRANCH  15  16
ENDBRANCH  14  15
ENDBRANCH  13  14
ENDBRANCH  12  13
ENDBRANCH   1  12
TORSDOF 16
ENDMDL
MODEL 7
REMARK VINA RESULT:    -4.609      7.735     11.048
REMARK INTER + INTRA:         -11.100
REMARK INTER:                  -8.297
REMARK INTRA:                  -2.803
REMARK UNBOUND:                -2.180
REMARK SMILES CCCCCCCCCCCCCCCCCC(=O)[O-]
REMARK SMILES IDX 10 1 11 2 12 3 13 4 14 5 15 6 16 7 17 8 18 9 19 10 20 11
REMARK SMILES IDX 9 12 8 13 7 14 6 15 5 16 4 17 3 18 2 19 1 20
REMARK H PARENT
REMARK Flexibility Score: inf
ROOT
ATOM      1  C   UNL     1      44.783  33.623  17.601  1.00  0.00     0.000 C 
ENDROOT
BRANCH   1   2
ATOM      2  C   UNL     1      46.043  33.477  16.727  1.00  0.00     0.000 C 
BRANCH   2   3
ATOM      3  C   UNL     1      46.122  34.445  15.529  1.00  0.00     0.000 C 
BRANCH   3   4
ATOM      4  C   UNL     1      46.514  33.789  14.192  1.00  0.00     0.000 C 
BRANCH   4   5
ATOM      5  C   UNL     1      46.109  34.634  12.972  1.00  0.00     0.000 C 
BRANCH   5   6
ATOM      6  C   UNL     1      46.222  33.842  11.653  1.00  0.00     0.000 C 
BRANCH   6   7
ATOM      7  C   UNL     1      45.979  32.332  11.819  1.00  0.00     0.006 C 
BRANCH   7   8
ATOM      8  C   UNL     1      46.641  31.496  10.718  1.00  0.00     0.053 C 
BRANCH   8   9
ATOM      9  C   UNL     1      48.059  31.184  11.081  1.00  0.00     0.041 C 
ATOM     10  O   UNL     1      48.855  30.750  10.206  1.00  0.00    -0.550 OA
ATOM     11  O   UNL     1      48.515  31.420  12.371  1.00  0.00    -0.550 OA
ENDBRANCH   8   9
ENDBRANCH   7   8
ENDBRANCH   6   7
ENDBRANCH   5   6
ENDBRANCH   4   5
ENDBRANCH   3   4
ENDBRANCH   2   3
ENDBRANCH   1   2
BRANCH   1  12
ATOM     12  C   UNL     1      43.598  32.725  17.194  1.00  0.00     0.000 C 
BRANCH  12  13
ATOM     13  C   UNL     1      42.652  33.334  16.144  1.00  0.00    -0.000 C 
BRANCH  13  14
ATOM     14  C   UNL     1      42.234  32.328  15.061  1.00  0.00    -0.000 C 
BRANCH  14  15
ATOM     15  C   UNL     1      43.449  31.860  14.249  1.00  0.00    -0.000 C 
BRANCH  15  16
ATOM     16  C   UNL     1      43.302  30.389  13.840  1.00  0.00    -0.000 C 
BRANCH  16  17
ATOM     17  C   UNL     1      44.297  29.504  14.606  1.00  0.00    -0.000 C 
BRANCH  17  18
ATOM     18  C   UNL     1      45.633  30.214  14.891  1.00  0.00    -0.000 C 
BRANCH  18  19
ATOM     19  C   UNL     1      46.276  29.862  16.244  1.00  0.00    -0.003 C 
ATOM     20  C   UNL     1      45.263  29.373  17.279  1.00  0.00     0.004 C 
ENDBRANCH  18  19
ENDBRANCH  17  18
ENDBRANCH  16  17
ENDBRANCH  15  16
ENDBRANCH  14  15
ENDBRANCH  13  14
ENDBRANCH  12  13
ENDBRANCH   1  12
TORSDOF 16
ENDMDL
MODEL 8
REMARK VINA RESULT:    -4.528      7.973     11.097
REMARK INTER + INTRA:         -10.944
REMARK INTER:                  -7.935
REMARK INTRA:                  -3.008
REMARK UNBOUND:                -2.180
REMARK SMILES CCCCCCCCCCCCCCCCCC(=O)[O-]
REMARK SMILES IDX 10 1 11 2 12 3 13 4 14 5 15 6 16 7 17 8 18 9 19 10 20 11
REMARK SMILES IDX 9 12 8 13 7 14 6 15 5 16 4 17 3 18 2 19 1 20
REMARK H PARENT
REMARK Flexibility Score: inf
ROOT
ATOM      1  C   UNL     1      43.300  32.685  16.876  1.00  0.00     0.000 C 
ENDROOT
BRANCH   1   2
ATOM      2  C   UNL     1      44.631  33.365  17.252  1.00  0.00     0.000 C 
BRANCH   2   3
ATOM      3  C   UNL     1      45.416  33.960  16.066  1.00  0.00     0.000 C 
BRANCH   3   4
ATOM      4  C   UNL     1      46.737  33.240  15.738  1.00  0.00     0.000 C 
BRANCH   4   5
ATOM      5  C   UNL     1      47.100  33.311  14.244  1.00  0.00     0.000 C 
BRANCH   5   6
ATOM      6  C   UNL     1      46.502  34.557  13.558  1.00  0.00     0.000 C 
BRANCH   6   7
ATOM      7  C   UNL     1      45.944  34.277  12.153  1.00  0.00     0.006 C 
BRANCH   7   8
ATOM      8  C   UNL     1      47.005  34.401  11.054  1.00  0.00     0.053 C 
BRANCH   8   9
ATOM      9  C   UNL     1      47.417  33.047  10.569  1.00  0.00     0.041 C 
ATOM     10  O   UNL     1      48.609  32.835  10.219  1.00  0.00    -0.550 OA
ATOM     11  O   UNL     1      46.499  32.005  10.550  1.00  0.00    -0.550 OA
ENDBRANCH   8   9
ENDBRANCH   7   8
ENDBRANCH   6   7
ENDBRANCH   5   6
ENDBRANCH   4   5
ENDBRANCH   3   4
ENDBRANCH   2   3
ENDBRANCH   1   2
BRANCH   1  12
ATOM     12  C   UNL     1      42.881  32.838  15.401  1.00  0.00     0.000 C 
BRANCH  12  13
ATOM     13  C   UNL     1      42.866  31.530  14.591  1.00  0.00    -0.000 C 
BRANCH  13  14
ATOM     14  C   UNL     1      43.912  31.509  13.467  1.00  0.00    -0.000 C 
BRANCH  14  15
ATOM     15  C   UNL     1      44.926  30.378  13.681  1.00  0.00    -0.000 C 
BRANCH  15  16
ATOM     16  C   UNL     1      44.643  29.625  14.987  1.00  0.00    -0.000 C 
BRANCH  16  17
ATOM     17  C   UNL     1      45.763  29.864  16.010  1.00  0.00    -0.000 C 
BRANCH  17  18
ATOM     18  C   UNL     1      45.310  29.624  17.462  1.00  0.00    -0.000 C 
BRANCH  18  19
ATOM     19  C   UNL     1      46.296  30.112  18.537  1.00  0.00    -0.003 C 
ATOM     20  C   UNL     1      45.601  30.743  19.744  1.00  0.00     0.004 C 
ENDBRANCH  18  19
ENDBRANCH  17  18
ENDBRANCH  16  17
ENDBRANCH  15  16
ENDBRANCH  14  15
ENDBRANCH  13  14
ENDBRANCH  12  13
ENDBRANCH   1  12
TORSDOF 16
ENDMDL
MODEL 9
REMARK VINA RESULT:    -4.505      7.340     11.401
REMARK INTER + INTRA:         -10.899
REMARK INTER:                  -8.268
REMARK INTRA:                  -2.631
REMARK UNBOUND:                -2.180
REMARK SMILES CCCCCCCCCCCCCCCCCC(=O)[O-]
REMARK SMILES IDX 10 1 11 2 12 3 13 4 14 5 15 6 16 7 17 8 18 9 19 10 20 11
REMARK SMILES IDX 9 12 8 13 7 14 6 15 5 16 4 17 3 18 2 19 1 20
REMARK H PARENT
REMARK Flexibility Score: inf
ROOT
ATOM      1  C   UNL     1      43.653  33.227  17.040  1.00  0.00     0.000 C 
ENDROOT
BRANCH   1   2
ATOM      2  C   UNL     1      42.751  32.980  15.815  1.00  0.00     0.000 C 
BRANCH   2   3
ATOM      3  C   UNL     1      43.427  32.231  14.649  1.00  0.00     0.000 C 
BRANCH   3   4
ATOM      4  C   UNL     1      42.757  30.901  14.259  1.00  0.00     0.000 C 
BRANCH   4   5
ATOM      5  C   UNL     1      43.736  29.714  14.266  1.00  0.00     0.000 C 
BRANCH   5   6
ATOM      6  C   UNL     1      45.205  30.173  14.386  1.00  0.00     0.000 C 
BRANCH   6   7
ATOM      7  C   UNL     1      45.903  29.673  15.662  1.00  0.00     0.006 C 
BRANCH   7   8
ATOM      8  C   UNL     1      44.971  29.641  16.879  1.00  0.00     0.053 C 
BRANCH   8   9
ATOM      9  C   UNL     1      45.573  28.823  17.977  1.00  0.00     0.041 C 
ATOM     10  O   UNL     1      46.812  28.878  18.203  1.00  0.00    -0.550 OA
ATOM     11  O   UNL     1      44.761  28.036  18.784  1.00  0.00    -0.550 OA
ENDBRANCH   8   9
ENDBRANCH   7   8
ENDBRANCH   6   7
ENDBRANCH   5   6
ENDBRANCH   4   5
ENDBRANCH   3   4
ENDBRANCH   2   3
ENDBRANCH   1   2
BRANCH   1  12
ATOM     12  C   UNL     1      45.168  33.157  16.762  1.00  0.00     0.000 C 
BRANCH  12  13
ATOM     13  C   UNL     1      45.821  34.499  16.386  1.00  0.00    -0.000 C 
BRANCH  13  14
ATOM     14  C   UNL     1      46.455  34.484  14.988  1.00  0.00    -0.000 C 
BRANCH  14  15
ATOM     15  C   UNL     1      47.205  33.169  14.739  1.00  0.00    -0.000 C 
BRANCH  15  16
ATOM     16  C   UNL     1      47.459  32.955  13.241  1.00  0.00    -0.000 C 
BRANCH  16  17
ATOM     17  C   UNL     1      46.196  33.258  12.422  1.00  0.00    -0.000 C 
BRANCH  17  18
ATOM     18  C   UNL     1      46.482  34.115  11.175  1.00  0.00    -0.000 C 
BRANCH  18  19
ATOM     19  C   UNL     1      46.134  35.606  11.321  1.00  0.00    -0.003 C 
ATOM     20  C   UNL     1      47.300  36.444  11.848  1.00  0.00     0.004 C 
ENDBRANCH  18  19
ENDBRANCH  17  18
ENDBRANCH  16  17
ENDBRANCH  15  16
ENDBRANCH  14  15
ENDBRANCH  13  14
ENDBRANCH  12  13
ENDBRANCH   1  12
TORSDOF 16
ENDMDL
