MODEL 1
REMARK VINA RESULT:    -3.263      0.000      0.000
REMARK INTER + INTRA:         -12.778
REMARK INTER:                  -8.223
REMARK INTRA:                  -4.555
REMARK UNBOUND:                -4.555
REMARK SMILES CCCCCCCCCCCCCCCCCCCCCCCCCCCC(=O)[O-]
REMARK SMILES IDX 15 1 16 2 17 3 18 4 19 5 20 6 21 7 22 8 23 9 24 10 25 11
REMARK SMILES IDX 26 12 27 13 28 14 29 15 30 16 14 17 13 18 12 19 11 20 10 21
REMARK SMILES IDX 9 22 8 23 7 24 6 25 5 26 4 27 3 28 2 29 1 30
REMARK H PARENT
REMARK Flexibility Score: inf
ROOT
ATOM      1  C   UNL     1      63.993  33.772  59.557  1.00  0.00     0.000 C 
ENDROOT
BRANCH   1   2
ATOM      2  C   UNL     1      62.615  33.252  59.102  1.00  0.00     0.000 C 
BRANCH   2   3
ATOM      3  C   UNL     1      61.591  33.118  60.245  1.00  0.00     0.000 C 
BRANCH   3   4
ATOM      4  C   UNL     1      60.843  31.767  60.277  1.00  0.00     0.000 C 
BRANCH   4   5
ATOM      5  C   UNL     1      61.152  30.857  61.485  1.00  0.00     0.000 C 
BRANCH   5   6
ATOM      6  C   UNL     1      62.583  30.292  61.552  1.00  0.00     0.000 C 
BRANCH   6   7
ATOM      7  C   UNL     1      62.912  29.339  60.391  1.00  0.00     0.000 C 
BRANCH   7   8
ATOM      8  C   UNL     1      63.948  29.929  59.418  1.00  0.00     0.000 C 
BRANCH   8   9
ATOM      9  C   UNL     1      65.285  30.257  60.107  1.00  0.00     0.000 C 
BRANCH   9  10
ATOM     10  C   UNL     1      66.379  29.213  59.793  1.00  0.00     0.000 C 
BRANCH  10  11
ATOM     11  C   UNL     1      66.804  28.376  61.014  1.00  0.00     0.000 C 
BRANCH  11  12
ATOM     12  C   UNL     1      68.270  28.566  61.450  1.00  0.00     0.006 C 
BRANCH  12  13
ATOM     13  C   UNL     1      69.268  28.662  60.285  1.00  0.00     0.053 C 
BRANCH  13  14
ATOM     14  C   UNL     1      70.543  29.333  60.694  1.00  0.00     0.041 C 
ATOM     15  O   UNL     1      71.653  28.867  60.320  1.00  0.00    -0.550 OA
ATOM     16  O   UNL     1      70.509  30.449  61.519  1.00  0.00    -0.550 OA
ENDBRANCH  13  14
ENDBRANCH  12  13
ENDBRANCH  11  12
ENDBRANCH  10  11
ENDBRANCH   9  10
ENDBRANCH   8   9
ENDBRANCH   7   8
ENDBRANCH   6   7
ENDBRANCH   5   6
ENDBRANCH   4   5
ENDBRANCH   3   4
ENDBRANCH   2   3
ENDBRANCH   1   2
BRANCH   1  17
ATOM     17  C   UNL     1      64.091  33.887  61.086  1.00  0.00     0.000 C 
BRANCH  17  18
ATOM     18  C   UNL     1      64.583  35.282  61.496  1.00  0.00     0.000 C 
BRANCH  18  19
ATOM     19  C   UNL     1      63.884  36.414  60.728  1.00  0.00     0.000 C 
BRANCH  19  20
ATOM     20  C   UNL     1      62.439  36.646  61.207  1.00  0.00     0.000 C 
BRANCH  20  21
ATOM     21  C   UNL     1      61.449  36.861  60.048  1.00  0.00     0.000 C 
BRANCH  21  22
ATOM     22  C   UNL     1      62.084  36.931  58.646  1.00  0.00    -0.000 C 
BRANCH  22  23
ATOM     23  C   UNL     1      61.290  36.157  57.584  1.00  0.00    -0.000 C 
BRANCH  23  24
ATOM     24  C   UNL     1      59.794  36.113  57.937  1.00  0.00    -0.000 C 
BRANCH  24  25
ATOM     25  C   UNL     1      59.202  34.698  57.831  1.00  0.00    -0.000 C 
BRANCH  25  26
ATOM     26  C   UNL     1      59.726  33.925  56.611  1.00  0.00    -0.000 C 
BRANCH  26  27
ATOM     27  C   UNL     1      59.488  32.416  56.774  1.00  0.00    -0.000 C 
BRANCH  27  28
ATOM     28  C   UNL     1      60.784  31.596  56.682  1.00  0.00    -0.000 C 
BRANCH  28  29
ATOM     29  C   UNL     1      60.567  30.215  56.047  1.00  0.00    -0.003 C 
ATOM     30  C   UNL     1      61.824  29.355  56.155  1.00  0.00     0.004 C 
ENDBRANCH  28  29
ENDBRANCH  27  28
ENDBRANCH  26  27
ENDBRANCH  25  26
ENDBRANCH  24  25
ENDBRANCH  23  24
ENDBRANCH  22  23
ENDBRANCH  21  22
ENDBRANCH  20  21
ENDBRANCH  19  20
ENDBRANCH  18  19
ENDBRANCH  17  18
ENDBRANCH   1  17
TORSDOF 26
ENDMDL
MODEL 2
REMARK VINA RESULT:    -3.250      3.408      6.506
REMARK INTER + INTRA:         -12.743
REMARK INTER:                  -7.551
REMARK INTRA:                  -5.192
REMARK UNBOUND:                -4.555
REMARK SMILES CCCCCCCCCCCCCCCCCCCCCCCCCCCC(=O)[O-]
REMARK SMILES IDX 15 1 16 2 17 3 18 4 19 5 20 6 21 7 22 8 23 9 24 10 25 11
REMARK SMILES IDX 26 12 27 13 28 14 29 15 30 16 14 17 13 18 12 19 11 20 10 21
REMARK SMILES IDX 9 22 8 23 7 24 6 25 5 26 4 27 3 28 2 29 1 30
REMARK H PARENT
REMARK Flexibility Score: inf
ROOT
ATOM      1  C   UNL     1      64.169  29.880  60.381  1.00  0.00     0.000 C 
ENDROOT
BRANCH   1   2
ATOM      2  C   UNL     1      64.258  28.363  60.640  1.00  0.00     0.000 C 
BRANCH   2   3
ATOM      3  C   UNL     1      65.682  27.791  60.508  1.00  0.00     0.000 C 
BRANCH   3   4
ATOM      4  C   UNL     1      66.808  28.835  60.674  1.00  0.00     0.000 C 
BRANCH   4   5
ATOM      5  C   UNL     1      67.603  29.174  59.395  1.00  0.00     0.000 C 
BRANCH   5   6
ATOM      6  C   UNL     1      67.035  28.608  58.081  1.00  0.00     0.000 C 
BRANCH   6   7
ATOM      7  C   UNL     1      66.168  29.618  57.311  1.00  0.00     0.000 C 
BRANCH   7   8
ATOM      8  C   UNL     1      66.545  31.077  57.622  1.00  0.00     0.000 C 
BRANCH   8   9
ATOM      9  C   UNL     1      65.320  31.943  57.970  1.00  0.00     0.000 C 
BRANCH   9  10
ATOM     10  C   UNL     1      65.483  33.406  57.502  1.00  0.00     0.000 C 
BRANCH  10  11
ATOM     11  C   UNL     1      64.825  34.432  58.442  1.00  0.00     0.000 C 
BRANCH  11  12
ATOM     12  C   UNL     1      64.179  33.831  59.706  1.00  0.00     0.006 C 
BRANCH  12  13
ATOM     13  C   UNL     1      64.281  34.725  60.953  1.00  0.00     0.053 C 
BRANCH  13  14
ATOM     14  C   UNL     1      63.164  35.721  61.020  1.00  0.00     0.041 C 
ATOM     15  O   UNL     1      62.054  35.467  60.480  1.00  0.00    -0.550 OA
ATOM     16  O   UNL     1      63.361  36.945  61.646  1.00  0.00    -0.550 OA
ENDBRANCH  13  14
ENDBRANCH  12  13
ENDBRANCH  11  12
ENDBRANCH  10  11
ENDBRANCH   9  10
ENDBRANCH   8   9
ENDBRANCH   7   8
ENDBRANCH   6   7
ENDBRANCH   5   6
ENDBRANCH   4   5
ENDBRANCH   3   4
ENDBRANCH   2   3
ENDBRANCH   1   2
BRANCH   1  17
ATOM     17  C   UNL     1      63.350  30.605  61.461  1.00  0.00     0.000 C 
BRANCH  17  18
ATOM     18  C   UNL     1      61.991  29.920  61.663  1.00  0.00     0.000 C 
BRANCH  18  19
ATOM     19  C   UNL     1      60.808  30.895  61.561  1.00  0.00     0.000 C 
BRANCH  19  20
ATOM     20  C   UNL     1      61.114  32.099  60.651  1.00  0.00     0.000 C 
BRANCH  20  21
ATOM     21  C   UNL     1      60.533  31.944  59.234  1.00  0.00     0.000 C 
BRANCH  21  22
ATOM     22  C   UNL     1      61.571  31.699  58.122  1.00  0.00    -0.000 C 
BRANCH  22  23
ATOM     23  C   UNL     1      61.843  30.209  57.868  1.00  0.00    -0.000 C 
BRANCH  23  24
ATOM     24  C   UNL     1      60.528  29.422  57.739  1.00  0.00    -0.000 C 
BRANCH  24  25
ATOM     25  C   UNL     1      60.411  28.292  58.776  1.00  0.00    -0.000 C 
BRANCH  25  26
ATOM     26  C   UNL     1      59.061  28.299  59.510  1.00  0.00    -0.000 C 
BRANCH  26  27
ATOM     27  C   UNL     1      59.183  27.630  60.887  1.00  0.00    -0.000 C 
BRANCH  27  28
ATOM     28  C   UNL     1      60.033  26.351  60.854  1.00  0.00    -0.000 C 
BRANCH  28  29
ATOM     29  C   UNL     1      61.103  26.320  61.955  1.00  0.00    -0.003 C 
ATOM     30  C   UNL     1      62.328  25.526  61.511  1.00  0.00     0.004 C 
ENDBRANCH  28  29
ENDBRANCH  27  28
ENDBRANCH  26  27
ENDBRANCH  25  26
ENDBRANCH  24  25
ENDBRANCH  23  24
ENDBRANCH  22  23
ENDBRANCH  21  22
ENDBRANCH  20  21
ENDBRANCH  19  20
ENDBRANCH  18  19
ENDBRANCH  17  18
ENDBRANCH   1  17
TORSDOF 26
ENDMDL
MODEL 3
REMARK VINA RESULT:    -3.244      3.385      8.005
REMARK INTER + INTRA:         -12.729
REMARK INTER:                  -8.686
REMARK INTRA:                  -4.043
REMARK UNBOUND:                -4.555
REMARK SMILES CCCCCCCCCCCCCCCCCCCCCCCCCCCC(=O)[O-]
REMARK SMILES IDX 15 1 16 2 17 3 18 4 19 5 20 6 21 7 22 8 23 9 24 10 25 11
REMARK SMILES IDX 26 12 27 13 28 14 29 15 30 16 14 17 13 18 12 19 11 20 10 21
REMARK SMILES IDX 9 22 8 23 7 24 6 25 5 26 4 27 3 28 2 29 1 30
REMARK H PARENT
REMARK Flexibility Score: inf
ROOT
ATOM      1  C   UNL     1      69.895  28.449  60.175  1.00  0.00     0.000 C 
ENDROOT
BRANCH   1   2
ATOM      2  C   UNL     1      69.049  29.219  61.208  1.00  0.00     0.000 C 
BRANCH   2   3
ATOM      3  C   UNL     1      67.804  28.452  61.691  1.00  0.00     0.000 C 
BRANCH   3   4
ATOM      4  C   UNL     1      66.939  27.860  60.557  1.00  0.00     0.000 C 
BRANCH   4   5
ATOM      5  C   UNL     1      65.777  28.749  60.064  1.00  0.00     0.000 C 
BRANCH   5   6
ATOM      6  C   UNL     1      64.379  28.382  60.594  1.00  0.00     0.000 C 
BRANCH   6   7
ATOM      7  C   UNL     1      63.640  29.572  61.229  1.00  0.00     0.000 C 
BRANCH   7   8
ATOM      8  C   UNL     1      62.136  29.303  61.412  1.00  0.00     0.000 C 
BRANCH   8   9
ATOM      9  C   UNL     1      61.293  30.588  61.333  1.00  0.00     0.000 C 
BRANCH   9  10
ATOM     10  C   UNL     1      62.128  31.814  60.902  1.00  0.00     0.000 C 
BRANCH  10  11
ATOM     11  C   UNL     1      61.283  32.975  60.349  1.00  0.00     0.000 C 
BRANCH  11  12
ATOM     12  C   UNL     1      62.093  34.198  59.877  1.00  0.00     0.006 C 
BRANCH  12  13
ATOM     13  C   UNL     1      63.191  34.644  60.855  1.00  0.00     0.053 C 
BRANCH  13  14
ATOM     14  C   UNL     1      63.292  36.136  60.943  1.00  0.00     0.041 C 
ATOM     15  O   UNL     1      62.273  36.825  61.219  1.00  0.00    -0.550 OA
ATOM     16  O   UNL     1      64.500  36.768  60.682  1.00  0.00    -0.550 OA
ENDBRANCH  13  14
ENDBRANCH  12  13
ENDBRANCH  11  12
ENDBRANCH  10  11
ENDBRANCH   9  10
ENDBRANCH   8   9
ENDBRANCH   7   8
ENDBRANCH   6   7
ENDBRANCH   5   6
ENDBRANCH   4   5
ENDBRANCH   3   4
ENDBRANCH   2   3
ENDBRANCH   1   2
BRANCH   1  17
ATOM     17  C   UNL     1      71.281  29.083  59.974  1.00  0.00     0.000 C 
BRANCH  17  18
ATOM     18  C   UNL     1      71.620  30.028  61.135  1.00  0.00     0.000 C 
BRANCH  18  19
ATOM     19  C   UNL     1      72.390  31.279  60.684  1.00  0.00     0.000 C 
BRANCH  19  20
ATOM     20  C   UNL     1      71.455  32.449  60.331  1.00  0.00     0.000 C 
BRANCH  20  21
ATOM     21  C   UNL     1      71.280  32.641  58.814  1.00  0.00     0.000 C 
BRANCH  21  22
ATOM     22  C   UNL     1      70.032  31.970  58.207  1.00  0.00    -0.000 C 
BRANCH  22  23
ATOM     23  C   UNL     1      70.096  31.846  56.677  1.00  0.00    -0.000 C 
BRANCH  23  24
ATOM     24  C   UNL     1      69.300  30.625  56.189  1.00  0.00    -0.000 C 
BRANCH  24  25
ATOM     25  C   UNL     1      68.441  29.996  57.298  1.00  0.00    -0.000 C 
BRANCH  25  26
ATOM     26  C   UNL     1      67.056  29.556  56.798  1.00  0.00    -0.000 C 
BRANCH  26  27
ATOM     27  C   UNL     1      66.142  30.771  56.575  1.00  0.00    -0.000 C 
BRANCH  27  28
ATOM     28  C   UNL     1      66.137  31.738  57.769  1.00  0.00    -0.000 C 
BRANCH  28  29
ATOM     29  C   UNL     1      64.748  31.885  58.407  1.00  0.00    -0.003 C 
ATOM     30  C   UNL     1      63.718  31.014  57.694  1.00  0.00     0.004 C 
ENDBRANCH  28  29
ENDBRANCH  27  28
ENDBRANCH  26  27
ENDBRANCH  25  26
ENDBRANCH  24  25
ENDBRANCH  23  24
ENDBRANCH  22  23
ENDBRANCH  21  22
ENDBRANCH  20  21
ENDBRANCH  19  20
ENDBRANCH  18  19
ENDBRANCH  17  18
ENDBRANCH   1  17
TORSDOF 26
ENDMDL
MODEL 4
REMARK VINA RESULT:    -3.207     10.228     13.746
REMARK INTER + INTRA:         -12.636
REMARK INTER:                  -9.017
REMARK INTRA:                  -3.620
REMARK UNBOUND:                -4.555
REMARK SMILES CCCCCCCCCCCCCCCCCCCCCCCCCCCC(=O)[O-]
REMARK SMILES IDX 15 1 16 2 17 3 18 4 19 5 20 6 21 7 22 8 23 9 24 10 25 11
REMARK SMILES IDX 26 12 27 13 28 14 29 15 30 16 14 17 13 18 12 19 11 20 10 21
REMARK SMILES IDX 9 22 8 23 7 24 6 25 5 26 4 27 3 28 2 29 1 30
REMARK H PARENT
REMARK Flexibility Score: inf
ROOT
ATOM      1  C   UNL     1      58.419  26.464  49.917  1.00  0.00     0.000 C 
ENDROOT
BRANCH   1   2
ATOM      2  C   UNL     1      58.291  26.000  51.381  1.00  0.00     0.000 C 
BRANCH   2   3
ATOM      3  C   UNL     1      59.560  25.324  51.934  1.00  0.00     0.000 C 
BRANCH   3   4
ATOM      4  C   UNL     1      60.818  25.511  51.058  1.00  0.00     0.000 C 
BRANCH   4   5
ATOM      5  C   UNL     1      61.221  24.297  50.194  1.00  0.00     0.000 C 
BRANCH   5   6
ATOM      6  C   UNL     1      60.263  23.093  50.239  1.00  0.00     0.000 C 
BRANCH   6   7
ATOM      7  C   UNL     1      60.774  21.883  49.439  1.00  0.00     0.000 C 
BRANCH   7   8
ATOM      8  C   UNL     1      61.509  20.859  50.321  1.00  0.00     0.000 C 
BRANCH   8   9
ATOM      9  C   UNL     1      60.666  19.600  50.592  1.00  0.00     0.000 C 
BRANCH   9  10
ATOM     10  C   UNL     1      59.384  19.554  49.731  1.00  0.00     0.000 C 
BRANCH  10  11
ATOM     11  C   UNL     1      58.791  18.142  49.579  1.00  0.00     0.000 C 
BRANCH  11  12
ATOM     12  C   UNL     1      57.636  17.817  50.545  1.00  0.00     0.006 C 
BRANCH  12  13
ATOM     13  C   UNL     1      57.220  18.989  51.448  1.00  0.00     0.053 C 
BRANCH  13  14
ATOM     14  C   UNL     1      55.741  19.226  51.413  1.00  0.00     0.041 C 
ATOM     15  O   UNL     1      55.152  19.396  50.312  1.00  0.00    -0.550 OA
ATOM     16  O   UNL     1      55.020  19.298  52.597  1.00  0.00    -0.550 OA
ENDBRANCH  13  14
ENDBRANCH  12  13
ENDBRANCH  11  12
ENDBRANCH  10  11
ENDBRANCH   9  10
ENDBRANCH   8   9
ENDBRANCH   7   8
ENDBRANCH   6   7
ENDBRANCH   5   6
ENDBRANCH   4   5
ENDBRANCH   3   4
ENDBRANCH   2   3
ENDBRANCH   1   2
BRANCH   1  17
ATOM     17  C   UNL     1      58.139  27.966  49.759  1.00  0.00     0.000 C 
BRANCH  17  18
ATOM     18  C   UNL     1      59.390  28.705  49.264  1.00  0.00     0.000 C 
BRANCH  18  19
ATOM     19  C   UNL     1      59.960  29.682  50.304  1.00  0.00     0.000 C 
BRANCH  19  20
ATOM     20  C   UNL     1      60.946  29.004  51.271  1.00  0.00     0.000 C 
BRANCH  20  21
ATOM     21  C   UNL     1      60.438  28.970  52.724  1.00  0.00     0.000 C 
BRANCH  21  22
ATOM     22  C   UNL     1      58.988  29.454  52.922  1.00  0.00    -0.000 C 
BRANCH  22  23
ATOM     23  C   UNL     1      58.238  28.680  54.017  1.00  0.00    -0.000 C 
BRANCH  23  24
ATOM     24  C   UNL     1      56.725  28.661  53.742  1.00  0.00    -0.000 C 
BRANCH  24  25
ATOM     25  C   UNL     1      56.348  29.417  52.457  1.00  0.00    -0.000 C 
BRANCH  25  26
ATOM     26  C   UNL     1      54.934  29.075  51.961  1.00  0.00    -0.000 C 
BRANCH  26  27
ATOM     27  C   UNL     1      54.956  28.678  50.477  1.00  0.00    -0.000 C 
BRANCH  27  28
ATOM     28  C   UNL     1      53.584  28.211  49.966  1.00  0.00    -0.000 C 
BRANCH  28  29
ATOM     29  C   UNL     1      53.435  26.683  49.979  1.00  0.00    -0.003 C 
ATOM     30  C   UNL     1      54.623  26.007  49.299  1.00  0.00     0.004 C 
ENDBRANCH  28  29
ENDBRANCH  27  28
ENDBRANCH  26  27
ENDBRANCH  25  26
ENDBRANCH  24  25
ENDBRANCH  23  24
ENDBRANCH  22  23
ENDBRANCH  21  22
ENDBRANCH  20  21
ENDBRANCH  19  20
ENDBRANCH  18  19
ENDBRANCH  17  18
ENDBRANCH   1  17
TORSDOF 26
ENDMDL
MODEL 5
REMARK VINA RESULT:    -3.200     10.958     13.944
REMARK INTER + INTRA:         -12.618
REMARK INTER:                  -8.812
REMARK INTRA:                  -3.806
REMARK UNBOUND:                -4.555
REMARK SMILES CCCCCCCCCCCCCCCCCCCCCCCCCCCC(=O)[O-]
REMARK SMILES IDX 15 1 16 2 17 3 18 4 19 5 20 6 21 7 22 8 23 9 24 10 25 11
REMARK SMILES IDX 26 12 27 13 28 14 29 15 30 16 14 17 13 18 12 19 11 20 10 21
REMARK SMILES IDX 9 22 8 23 7 24 6 25 5 26 4 27 3 28 2 29 1 30
REMARK H PARENT
REMARK Flexibility Score: inf
ROOT
ATOM      1  C   UNL     1      61.327  24.232  50.107  1.00  0.00     0.000 C 
ENDROOT
BRANCH   1   2
ATOM      2  C   UNL     1      61.300  22.719  50.402  1.00  0.00     0.000 C 
BRANCH   2   3
ATOM      3  C   UNL     1      60.798  21.863  49.223  1.00  0.00     0.000 C 
BRANCH   3   4
ATOM      4  C   UNL     1      59.943  20.646  49.636  1.00  0.00     0.000 C 
BRANCH   4   5
ATOM      5  C   UNL     1      60.663  19.577  50.487  1.00  0.00     0.000 C 
BRANCH   5   6
ATOM      6  C   UNL     1      60.062  18.161  50.434  1.00  0.00     0.000 C 
BRANCH   6   7
ATOM      7  C   UNL     1      58.764  18.084  49.613  1.00  0.00     0.000 C 
BRANCH   7   8
ATOM      8  C   UNL     1      57.564  17.607  50.450  1.00  0.00     0.000 C 
BRANCH   8   9
ATOM      9  C   UNL     1      56.403  18.618  50.446  1.00  0.00     0.000 C 
BRANCH   9  10
ATOM     10  C   UNL     1      56.113  19.185  51.853  1.00  0.00     0.000 C 
BRANCH  10  11
ATOM     11  C   UNL     1      57.371  19.352  52.724  1.00  0.00     0.000 C 
BRANCH  11  12
ATOM     12  C   UNL     1      57.972  20.771  52.729  1.00  0.00     0.006 C 
BRANCH  12  13
ATOM     13  C   UNL     1      59.067  20.989  53.785  1.00  0.00     0.053 C 
BRANCH  13  14
ATOM     14  C   UNL     1      58.917  22.306  54.484  1.00  0.00     0.041 C 
ATOM     15  O   UNL     1      59.499  23.331  54.037  1.00  0.00    -0.550 OA
ATOM     16  O   UNL     1      58.168  22.392  55.649  1.00  0.00    -0.550 OA
ENDBRANCH  13  14
ENDBRANCH  12  13
ENDBRANCH  11  12
ENDBRANCH  10  11
ENDBRANCH   9  10
ENDBRANCH   8   9
ENDBRANCH   7   8
ENDBRANCH   6   7
ENDBRANCH   5   6
ENDBRANCH   4   5
ENDBRANCH   3   4
ENDBRANCH   2   3
ENDBRANCH   1   2
BRANCH   1  17
ATOM     17  C   UNL     1      60.961  25.069  51.343  1.00  0.00     0.000 C 
BRANCH  17  18
ATOM     18  C   UNL     1      59.587  25.729  51.165  1.00  0.00     0.000 C 
BRANCH  18  19
ATOM     19  C   UNL     1      59.341  26.227  49.733  1.00  0.00     0.000 C 
BRANCH  19  20
ATOM     20  C   UNL     1      59.904  27.640  49.496  1.00  0.00     0.000 C 
BRANCH  20  21
ATOM     21  C   UNL     1      58.822  28.734  49.542  1.00  0.00     0.000 C 
BRANCH  21  22
ATOM     22  C   UNL     1      58.520  29.301  50.942  1.00  0.00    -0.000 C 
BRANCH  22  23
ATOM     23  C   UNL     1      57.059  29.744  51.113  1.00  0.00    -0.000 C 
BRANCH  23  24
ATOM     24  C   UNL     1      56.457  29.174  52.407  1.00  0.00    -0.000 C 
BRANCH  24  25
ATOM     25  C   UNL     1      56.850  27.707  52.648  1.00  0.00    -0.000 C 
BRANCH  25  26
ATOM     26  C   UNL     1      55.659  26.745  52.519  1.00  0.00    -0.000 C 
BRANCH  26  27
ATOM     27  C   UNL     1      55.850  25.794  51.328  1.00  0.00    -0.000 C 
BRANCH  27  28
ATOM     28  C   UNL     1      55.700  26.501  49.972  1.00  0.00    -0.000 C 
BRANCH  28  29
ATOM     29  C   UNL     1      54.245  26.876  49.657  1.00  0.00    -0.003 C 
ATOM     30  C   UNL     1      53.517  25.730  48.960  1.00  0.00     0.004 C 
ENDBRANCH  28  29
ENDBRANCH  27  28
ENDBRANCH  26  27
ENDBRANCH  25  26
ENDBRANCH  24  25
ENDBRANCH  23  24
ENDBRANCH  22  23
ENDBRANCH  21  22
ENDBRANCH  20  21
ENDBRANCH  19  20
ENDBRANCH  18  19
ENDBRANCH  17  18
ENDBRANCH   1  17
TORSDOF 26
ENDMDL
MODEL 6
REMARK VINA RESULT:    -3.172     10.135     12.500
REMARK INTER + INTRA:         -12.549
REMARK INTER:                  -7.141
REMARK INTRA:                  -5.407
REMARK UNBOUND:                -4.555
REMARK SMILES CCCCCCCCCCCCCCCCCCCCCCCCCCCC(=O)[O-]
REMARK SMILES IDX 15 1 16 2 17 3 18 4 19 5 20 6 21 7 22 8 23 9 24 10 25 11
REMARK SMILES IDX 26 12 27 13 28 14 29 15 30 16 14 17 13 18 12 19 11 20 10 21
REMARK SMILES IDX 9 22 8 23 7 24 6 25 5 26 4 27 3 28 2 29 1 30
REMARK H PARENT
REMARK Flexibility Score: inf
ROOT
ATOM      1  C   UNL     1      53.264  27.883  49.691  1.00  0.00     0.000 C 
ENDROOT
BRANCH   1   2
ATOM      2  C   UNL     1      54.723  27.396  49.796  1.00  0.00     0.000 C 
BRANCH   2   3
ATOM      3  C   UNL     1      54.863  25.963  50.346  1.00  0.00     0.000 C 
BRANCH   3   4
ATOM      4  C   UNL     1      55.582  25.870  51.709  1.00  0.00     0.000 C 
BRANCH   4   5
ATOM      5  C   UNL     1      54.773  26.359  52.930  1.00  0.00     0.000 C 
BRANCH   5   6
ATOM      6  C   UNL     1      55.511  26.327  54.281  1.00  0.00     0.000 C 
BRANCH   6   7
ATOM      7  C   UNL     1      57.035  26.188  54.135  1.00  0.00     0.000 C 
BRANCH   7   8
ATOM      8  C   UNL     1      57.603  25.020  54.960  1.00  0.00     0.000 C 
BRANCH   8   9
ATOM      9  C   UNL     1      57.155  23.647  54.428  1.00  0.00     0.000 C 
BRANCH   9  10
ATOM     10  C   UNL     1      58.060  23.135  53.286  1.00  0.00     0.000 C 
BRANCH  10  11
ATOM     11  C   UNL     1      59.391  22.534  53.775  1.00  0.00     0.000 C 
BRANCH  11  12
ATOM     12  C   UNL     1      60.030  21.512  52.815  1.00  0.00     0.006 C 
BRANCH  12  13
ATOM     13  C   UNL     1      59.994  21.926  51.336  1.00  0.00     0.053 C 
BRANCH  13  14
ATOM     14  C   UNL     1      60.591  20.880  50.446  1.00  0.00     0.041 C 
ATOM     15  O   UNL     1      59.993  20.525  49.394  1.00  0.00    -0.550 OA
ATOM     16  O   UNL     1      61.786  20.268  50.797  1.00  0.00    -0.550 OA
ENDBRANCH  13  14
ENDBRANCH  12  13
ENDBRANCH  11  12
ENDBRANCH  10  11
ENDBRANCH   9  10
ENDBRANCH   8   9
ENDBRANCH   7   8
ENDBRANCH   6   7
ENDBRANCH   5   6
ENDBRANCH   4   5
ENDBRANCH   3   4
ENDBRANCH   2   3
ENDBRANCH   1   2
BRANCH   1  17
ATOM     17  C   UNL     1      53.017  29.152  50.522  1.00  0.00     0.000 C 
BRANCH  17  18
ATOM     18  C   UNL     1      54.344  29.830  50.888  1.00  0.00     0.000 C 
BRANCH  18  19
ATOM     19  C   UNL     1      54.452  30.168  52.383  1.00  0.00     0.000 C 
BRANCH  19  20
ATOM     20  C   UNL     1      55.900  30.454  52.819  1.00  0.00     0.000 C 
BRANCH  20  21
ATOM     21  C   UNL     1      56.881  29.340  52.413  1.00  0.00     0.000 C 
BRANCH  21  22
ATOM     22  C   UNL     1      58.011  29.776  51.460  1.00  0.00    -0.000 C 
BRANCH  22  23
ATOM     23  C   UNL     1      57.845  29.226  50.035  1.00  0.00    -0.000 C 
BRANCH  23  24
ATOM     24  C   UNL     1      59.211  29.040  49.353  1.00  0.00    -0.000 C 
BRANCH  24  25
ATOM     25  C   UNL     1      59.687  27.579  49.368  1.00  0.00    -0.000 C 
BRANCH  25  26
ATOM     26  C   UNL     1      58.590  26.602  49.819  1.00  0.00    -0.000 C 
BRANCH  26  27
ATOM     27  C   UNL     1      59.201  25.361  50.488  1.00  0.00    -0.000 C 
BRANCH  27  28
ATOM     28  C   UNL     1      60.567  25.646  51.131  1.00  0.00    -0.000 C 
BRANCH  28  29
ATOM     29  C   UNL     1      60.477  25.841  52.652  1.00  0.00    -0.003 C 
ATOM     30  C   UNL     1      60.305  27.314  53.010  1.00  0.00     0.004 C 
ENDBRANCH  28  29
ENDBRANCH  27  28
ENDBRANCH  26  27
ENDBRANCH  25  26
ENDBRANCH  24  25
ENDBRANCH  23  24
ENDBRANCH  22  23
ENDBRANCH  21  22
ENDBRANCH  20  21
ENDBRANCH  19  20
ENDBRANCH  18  19
ENDBRANCH  17  18
ENDBRANCH   1  17
TORSDOF 26
ENDMDL
MODEL 7
REMARK VINA RESULT:    -3.151      4.012      6.427
REMARK INTER + INTRA:         -12.494
REMARK INTER:                  -7.355
REMARK INTRA:                  -5.139
REMARK UNBOUND:                -4.555
REMARK SMILES CCCCCCCCCCCCCCCCCCCCCCCCCCCC(=O)[O-]
REMARK SMILES IDX 15 1 16 2 17 3 18 4 19 5 20 6 21 7 22 8 23 9 24 10 25 11
REMARK SMILES IDX 26 12 27 13 28 14 29 15 30 16 14 17 13 18 12 19 11 20 10 21
REMARK SMILES IDX 9 22 8 23 7 24 6 25 5 26 4 27 3 28 2 29 1 30
REMARK H PARENT
REMARK Flexibility Score: inf
ROOT
ATOM      1  C   UNL     1      61.816  30.491  61.333  1.00  0.00     0.000 C 
ENDROOT
BRANCH   1   2
ATOM      2  C   UNL     1      63.332  30.549  61.607  1.00  0.00     0.000 C 
BRANCH   2   3
ATOM      3  C   UNL     1      64.154  31.136  60.444  1.00  0.00     0.000 C 
BRANCH   3   4
ATOM      4  C   UNL     1      64.755  30.080  59.490  1.00  0.00     0.000 C 
BRANCH   4   5
ATOM      5  C   UNL     1      66.002  29.335  60.013  1.00  0.00     0.000 C 
BRANCH   5   6
ATOM      6  C   UNL     1      65.742  27.961  60.656  1.00  0.00     0.000 C 
BRANCH   6   7
ATOM      7  C   UNL     1      65.473  26.852  59.625  1.00  0.00     0.000 C 
BRANCH   7   8
ATOM      8  C   UNL     1      63.996  26.421  59.594  1.00  0.00     0.000 C 
BRANCH   8   9
ATOM      9  C   UNL     1      63.212  26.910  60.824  1.00  0.00     0.000 C 
BRANCH   9  10
ATOM     10  C   UNL     1      61.690  26.969  60.566  1.00  0.00     0.000 C 
BRANCH  10  11
ATOM     11  C   UNL     1      61.319  27.533  59.183  1.00  0.00     0.000 C 
BRANCH  11  12
ATOM     12  C   UNL     1      59.898  28.121  59.083  1.00  0.00     0.006 C 
BRANCH  12  13
ATOM     13  C   UNL     1      59.196  28.308  60.438  1.00  0.00     0.053 C 
BRANCH  13  14
ATOM     14  C   UNL     1      58.048  27.360  60.609  1.00  0.00     0.041 C 
ATOM     15  O   UNL     1      57.154  27.281  59.724  1.00  0.00    -0.550 OA
ATOM     16  O   UNL     1      57.944  26.595  61.762  1.00  0.00    -0.550 OA
ENDBRANCH  13  14
ENDBRANCH  12  13
ENDBRANCH  11  12
ENDBRANCH  10  11
ENDBRANCH   9  10
ENDBRANCH   8   9
ENDBRANCH   7   8
ENDBRANCH   6   7
ENDBRANCH   5   6
ENDBRANCH   4   5
ENDBRANCH   3   4
ENDBRANCH   2   3
ENDBRANCH   1   2
BRANCH   1  17
ATOM     17  C   UNL     1      61.251  31.857  60.915  1.00  0.00     0.000 C 
BRANCH  17  18
ATOM     18  C   UNL     1      60.570  31.768  59.542  1.00  0.00     0.000 C 
BRANCH  18  19
ATOM     19  C   UNL     1      61.436  32.334  58.406  1.00  0.00     0.000 C 
BRANCH  19  20
ATOM     20  C   UNL     1      60.615  33.155  57.394  1.00  0.00     0.000 C 
BRANCH  20  21
ATOM     21  C   UNL     1      60.003  34.427  58.007  1.00  0.00     0.000 C 
BRANCH  21  22
ATOM     22  C   UNL     1      60.775  35.730  57.722  1.00  0.00    -0.000 C 
BRANCH  22  23
ATOM     23  C   UNL     1      60.947  36.615  58.966  1.00  0.00    -0.000 C 
BRANCH  23  24
ATOM     24  C   UNL     1      61.042  35.762  60.241  1.00  0.00    -0.000 C 
BRANCH  24  25
ATOM     25  C   UNL     1      62.381  35.940  60.975  1.00  0.00    -0.000 C 
BRANCH  25  26
ATOM     26  C   UNL     1      63.290  34.707  60.858  1.00  0.00    -0.000 C 
BRANCH  26  27
ATOM     27  C   UNL     1      64.529  35.019  60.004  1.00  0.00    -0.000 C 
BRANCH  27  28
ATOM     28  C   UNL     1      64.271  34.852  58.499  1.00  0.00    -0.000 C 
BRANCH  28  29
ATOM     29  C   UNL     1      64.959  33.610  57.913  1.00  0.00    -0.003 C 
ATOM     30  C   UNL     1      64.414  33.280  56.527  1.00  0.00     0.004 C 
ENDBRANCH  28  29
ENDBRANCH  27  28
ENDBRANCH  26  27
ENDBRANCH  25  26
ENDBRANCH  24  25
ENDBRANCH  23  24
ENDBRANCH  22  23
ENDBRANCH  21  22
ENDBRANCH  20  21
ENDBRANCH  19  20
ENDBRANCH  18  19
ENDBRANCH  17  18
ENDBRANCH   1  17
TORSDOF 26
ENDMDL
MODEL 8
REMARK VINA RESULT:    -3.149      3.851      6.685
REMARK INTER + INTRA:         -12.491
REMARK INTER:                  -7.774
REMARK INTRA:                  -4.716
REMARK UNBOUND:                -4.555
REMARK SMILES CCCCCCCCCCCCCCCCCCCCCCCCCCCC(=O)[O-]
REMARK SMILES IDX 15 1 16 2 17 3 18 4 19 5 20 6 21 7 22 8 23 9 24 10 25 11
REMARK SMILES IDX 26 12 27 13 28 14 29 15 30 16 14 17 13 18 12 19 11 20 10 21
REMARK SMILES IDX 9 22 8 23 7 24 6 25 5 26 4 27 3 28 2 29 1 30
REMARK H PARENT
REMARK Flexibility Score: inf
ROOT
ATOM      1  C   UNL     1      60.368  35.699  59.196  1.00  0.00     0.000 C 
ENDROOT
BRANCH   1   2
ATOM      2  C   UNL     1      59.962  34.854  57.973  1.00  0.00     0.000 C 
BRANCH   2   3
ATOM      3  C   UNL     1      60.435  33.389  58.042  1.00  0.00     0.000 C 
BRANCH   3   4
ATOM      4  C   UNL     1      59.297  32.347  57.975  1.00  0.00     0.000 C 
BRANCH   4   5
ATOM      5  C   UNL     1      59.591  30.987  58.644  1.00  0.00     0.000 C 
BRANCH   5   6
ATOM      6  C   UNL     1      60.912  30.897  59.430  1.00  0.00     0.000 C 
BRANCH   6   7
ATOM      7  C   UNL     1      60.707  30.835  60.953  1.00  0.00     0.000 C 
BRANCH   7   8
ATOM      8  C   UNL     1      61.805  30.024  61.663  1.00  0.00     0.000 C 
BRANCH   8   9
ATOM      9  C   UNL     1      62.787  29.368  60.676  1.00  0.00     0.000 C 
BRANCH   9  10
ATOM     10  C   UNL     1      62.908  27.843  60.894  1.00  0.00     0.000 C 
BRANCH  10  11
ATOM     11  C   UNL     1      61.893  27.281  61.906  1.00  0.00     0.000 C 
BRANCH  11  12
ATOM     12  C   UNL     1      60.860  26.304  61.312  1.00  0.00     0.006 C 
BRANCH  12  13
ATOM     13  C   UNL     1      59.948  26.924  60.242  1.00  0.00     0.053 C 
BRANCH  13  14
ATOM     14  C   UNL     1      58.582  27.228  60.778  1.00  0.00     0.041 C 
ATOM     15  O   UNL     1      58.040  26.451  61.610  1.00  0.00    -0.550 OA
ATOM     16  O   UNL     1      57.891  28.345  60.329  1.00  0.00    -0.550 OA
ENDBRANCH  13  14
ENDBRANCH  12  13
ENDBRANCH  11  12
ENDBRANCH  10  11
ENDBRANCH   9  10
ENDBRANCH   8   9
ENDBRANCH   7   8
ENDBRANCH   6   7
ENDBRANCH   5   6
ENDBRANCH   4   5
ENDBRANCH   3   4
ENDBRANCH   2   3
ENDBRANCH   1   2
BRANCH   1  17
ATOM     17  C   UNL     1      61.192  34.890  60.210  1.00  0.00     0.000 C 
BRANCH  17  18
ATOM     18  C   UNL     1      62.417  35.689  60.677  1.00  0.00     0.000 C 
BRANCH  18  19
ATOM     19  C   UNL     1      63.618  34.797  61.025  1.00  0.00     0.000 C 
BRANCH  19  20
ATOM     20  C   UNL     1      63.356  33.311  60.719  1.00  0.00     0.000 C 
BRANCH  20  21
ATOM     21  C   UNL     1      64.390  32.704  59.753  1.00  0.00     0.000 C 
BRANCH  21  22
ATOM     22  C   UNL     1      64.014  32.775  58.260  1.00  0.00    -0.000 C 
BRANCH  22  23
ATOM     23  C   UNL     1      64.711  31.701  57.411  1.00  0.00    -0.000 C 
BRANCH  23  24
ATOM     24  C   UNL     1      63.893  30.399  57.389  1.00  0.00    -0.000 C 
BRANCH  24  25
ATOM     25  C   UNL     1      64.778  29.143  57.438  1.00  0.00    -0.000 C 
BRANCH  25  26
ATOM     26  C   UNL     1      66.050  29.345  58.276  1.00  0.00    -0.000 C 
BRANCH  26  27
ATOM     27  C   UNL     1      66.155  28.281  59.380  1.00  0.00    -0.000 C 
BRANCH  27  28
ATOM     28  C   UNL     1      66.411  28.888  60.768  1.00  0.00    -0.000 C 
BRANCH  28  29
ATOM     29  C   UNL     1      67.784  28.504  61.338  1.00  0.00    -0.003 C 
ATOM     30  C   UNL     1      68.294  27.204  60.723  1.00  0.00     0.004 C 
ENDBRANCH  28  29
ENDBRANCH  27  28
ENDBRANCH  26  27
ENDBRANCH  25  26
ENDBRANCH  24  25
ENDBRANCH  23  24
ENDBRANCH  22  23
ENDBRANCH  21  22
ENDBRANCH  20  21
ENDBRANCH  19  20
ENDBRANCH  18  19
ENDBRANCH  17  18
ENDBRANCH   1  17
TORSDOF 26
ENDMDL
MODEL 9
REMARK VINA RESULT:    -3.129      9.899     13.788
REMARK INTER + INTRA:         -12.440
REMARK INTER:                  -8.653
REMARK INTRA:                  -3.787
REMARK UNBOUND:                -4.555
REMARK SMILES CCCCCCCCCCCCCCCCCCCCCCCCCCCC(=O)[O-]
REMARK SMILES IDX 15 1 16 2 17 3 18 4 19 5 20 6 21 7 22 8 23 9 24 10 25 11
REMARK SMILES IDX 26 12 27 13 28 14 29 15 30 16 14 17 13 18 12 19 11 20 10 21
REMARK SMILES IDX 9 22 8 23 7 24 6 25 5 26 4 27 3 28 2 29 1 30
REMARK H PARENT
REMARK Flexibility Score: inf
ROOT
ATOM      1  C   UNL     1      55.086  26.227  49.620  1.00  0.00     0.000 C 
ENDROOT
BRANCH   1   2
ATOM      2  C   UNL     1      54.197  27.022  50.598  1.00  0.00     0.000 C 
BRANCH   2   3
ATOM      3  C   UNL     1      53.796  28.417  50.082  1.00  0.00     0.000 C 
BRANCH   3   4
ATOM      4  C   UNL     1      54.514  29.589  50.786  1.00  0.00     0.000 C 
BRANCH   4   5
ATOM      5  C   UNL     1      55.328  29.219  52.045  1.00  0.00     0.000 C 
BRANCH   5   6
ATOM      6  C   UNL     1      56.619  30.026  52.271  1.00  0.00     0.000 C 
BRANCH   6   7
ATOM      7  C   UNL     1      57.881  29.302  51.772  1.00  0.00     0.000 C 
BRANCH   7   8
ATOM      8  C   UNL     1      58.121  29.504  50.266  1.00  0.00     0.000 C 
BRANCH   8   9
ATOM      9  C   UNL     1      59.597  29.319  49.873  1.00  0.00     0.000 C 
BRANCH   9  10
ATOM     10  C   UNL     1      59.858  27.957  49.192  1.00  0.00     0.000 C 
BRANCH  10  11
ATOM     11  C   UNL     1      61.038  27.177  49.800  1.00  0.00     0.000 C 
BRANCH  11  12
ATOM     12  C   UNL     1      61.453  27.631  51.213  1.00  0.00     0.006 C 
BRANCH  12  13
ATOM     13  C   UNL     1      62.790  28.388  51.265  1.00  0.00     0.053 C 
BRANCH  13  14
ATOM     14  C   UNL     1      63.960  27.476  51.051  1.00  0.00     0.041 C 
ATOM     15  O   UNL     1      65.012  27.911  50.510  1.00  0.00    -0.550 OA
ATOM     16  O   UNL     1      63.873  26.139  51.411  1.00  0.00    -0.550 OA
ENDBRANCH  13  14
ENDBRANCH  12  13
ENDBRANCH  11  12
ENDBRANCH  10  11
ENDBRANCH   9  10
ENDBRANCH   8   9
ENDBRANCH   7   8
ENDBRANCH   6   7
ENDBRANCH   5   6
ENDBRANCH   4   5
ENDBRANCH   3   4
ENDBRANCH   2   3
ENDBRANCH   1   2
BRANCH   1  17
ATOM     17  C   UNL     1      56.559  26.213  50.059  1.00  0.00     0.000 C 
BRANCH  17  18
ATOM     18  C   UNL     1      56.681  25.821  51.538  1.00  0.00     0.000 C 
BRANCH  18  19
ATOM     19  C   UNL     1      58.135  25.588  51.978  1.00  0.00     0.000 C 
BRANCH  19  20
ATOM     20  C   UNL     1      58.916  24.707  50.986  1.00  0.00     0.000 C 
BRANCH  20  21
ATOM     21  C   UNL     1      59.847  23.698  51.682  1.00  0.00     0.000 C 
BRANCH  21  22
ATOM     22  C   UNL     1      61.197  23.458  50.978  1.00  0.00    -0.000 C 
BRANCH  22  23
ATOM     23  C   UNL     1      61.046  22.857  49.572  1.00  0.00    -0.000 C 
BRANCH  23  24
ATOM     24  C   UNL     1      60.397  21.465  49.633  1.00  0.00    -0.000 C 
BRANCH  24  25
ATOM     25  C   UNL     1      61.209  20.469  50.477  1.00  0.00    -0.000 C 
BRANCH  25  26
ATOM     26  C   UNL     1      60.320  19.487  51.256  1.00  0.00    -0.000 C 
BRANCH  26  27
ATOM     27  C   UNL     1      60.320  18.102  50.591  1.00  0.00    -0.000 C 
BRANCH  27  28
ATOM     28  C   UNL     1      58.907  17.518  50.436  1.00  0.00    -0.000 C 
BRANCH  28  29
ATOM     29  C   UNL     1      57.871  18.573  50.023  1.00  0.00    -0.003 C 
ATOM     30  C   UNL     1      56.570  18.403  50.801  1.00  0.00     0.004 C 
ENDBRANCH  28  29
ENDBRANCH  27  28
ENDBRANCH  26  27
ENDBRANCH  25  26
ENDBRANCH  24  25
ENDBRANCH  23  24
ENDBRANCH  22  23
ENDBRANCH  21  22
ENDBRANCH  20  21
ENDBRANCH  19  20
ENDBRANCH  18  19
ENDBRANCH  17  18
ENDBRANCH   1  17
TORSDOF 26
ENDMDL
