MODEL 1
REMARK VINA RESULT:    -4.397      0.000      0.000
REMARK INTER + INTRA:          -8.364
REMARK INTER:                  -7.482
REMARK INTRA:                  -0.882
REMARK UNBOUND:                -0.882
REMARK SMILES CCCCCCCCCCCCCC(=O)[O-]
REMARK SMILES IDX 8 1 9 2 10 3 11 4 12 5 13 6 14 7 15 8 16 9 7 10 6 11 5 12
REMARK SMILES IDX 4 13 3 14 2 15 1 16
REMARK H PARENT
REMARK Flexibility Score: inf
ROOT
ATOM      1  C   UNL     1     -45.394  27.800  -1.120  1.00  0.00     0.000 C 
ENDROOT
BRANCH   1   2
ATOM      2  C   UNL     1     -44.190  28.672  -0.737  1.00  0.00     0.000 C 
BRANCH   2   3
ATOM      3  C   UNL     1     -43.055  27.864  -0.087  1.00  0.00     0.000 C 
BRANCH   3   4
ATOM      4  C   UNL     1     -42.571  28.481   1.234  1.00  0.00     0.000 C 
BRANCH   4   5
ATOM      5  C   UNL     1     -43.760  28.917   2.104  1.00  0.00     0.006 C 
BRANCH   5   6
ATOM      6  C   UNL     1     -43.681  28.342   3.525  1.00  0.00     0.053 C 
BRANCH   6   7
ATOM      7  C   UNL     1     -44.533  27.119   3.678  1.00  0.00     0.041 C 
ATOM      8  O   UNL     1     -44.150  26.017   3.203  1.00  0.00    -0.550 OA
ATOM      9  O   UNL     1     -45.733  27.188   4.374  1.00  0.00    -0.550 OA
ENDBRANCH   6   7
ENDBRANCH   5   6
ENDBRANCH   4   5
ENDBRANCH   3   4
ENDBRANCH   2   3
ENDBRANCH   1   2
BRANCH   1  10
ATOM     10  C   UNL     1     -44.958  26.357  -1.405  1.00  0.00     0.000 C 
BRANCH  10  11
ATOM     11  C   UNL     1     -45.860  25.708  -2.463  1.00  0.00    -0.000 C 
BRANCH  11  12
ATOM     12  C   UNL     1     -46.650  26.772  -3.238  1.00  0.00    -0.000 C 
BRANCH  12  13
ATOM     13  C   UNL     1     -46.314  26.785  -4.738  1.00  0.00    -0.000 C 
BRANCH  13  14
ATOM     14  C   UNL     1     -46.005  28.195  -5.264  1.00  0.00    -0.000 C 
BRANCH  14  15
ATOM     15  C   UNL     1     -45.609  28.152  -6.744  1.00  0.00    -0.003 C 
ATOM     16  C   UNL     1     -45.442  26.715  -7.228  1.00  0.00     0.004 C 
ENDBRANCH  14  15
ENDBRANCH  13  14
ENDBRANCH  12  13
ENDBRANCH  11  12
ENDBRANCH  10  11
ENDBRANCH   1  10
TORSDOF 12
ENDMDL
MODEL 2
REMARK VINA RESULT:    -4.304      0.808      1.568
REMARK INTER + INTRA:          -8.205
REMARK INTER:                  -7.345
REMARK INTRA:                  -0.861
REMARK UNBOUND:                -0.882
REMARK SMILES CCCCCCCCCCCCCC(=O)[O-]
REMARK SMILES IDX 8 1 9 2 10 3 11 4 12 5 13 6 14 7 15 8 16 9 7 10 6 11 5 12
REMARK SMILES IDX 4 13 3 14 2 15 1 16
REMARK H PARENT
REMARK Flexibility Score: inf
ROOT
ATOM      1  C   UNL     1     -44.123  27.108   0.272  1.00  0.00     0.000 C 
ENDROOT
BRANCH   1   2
ATOM      2  C   UNL     1     -42.778  27.834   0.406  1.00  0.00     0.000 C 
BRANCH   2   3
ATOM      3  C   UNL     1     -42.928  29.268   0.941  1.00  0.00     0.000 C 
BRANCH   3   4
ATOM      4  C   UNL     1     -43.808  29.341   2.198  1.00  0.00     0.000 C 
BRANCH   4   5
ATOM      5  C   UNL     1     -43.054  28.809   3.426  1.00  0.00     0.006 C 
BRANCH   5   6
ATOM      6  C   UNL     1     -44.007  28.316   4.524  1.00  0.00     0.053 C 
BRANCH   6   7
ATOM      7  C   UNL     1     -44.818  27.141   4.070  1.00  0.00     0.041 C 
ATOM      8  O   UNL     1     -46.072  27.156   4.182  1.00  0.00    -0.550 OA
ATOM      9  O   UNL     1     -44.192  26.043   3.493  1.00  0.00    -0.550 OA
ENDBRANCH   6   7
ENDBRANCH   5   6
ENDBRANCH   4   5
ENDBRANCH   3   4
ENDBRANCH   2   3
ENDBRANCH   1   2
BRANCH   1  10
ATOM     10  C   UNL     1     -44.777  27.409  -1.083  1.00  0.00     0.000 C 
BRANCH  10  11
ATOM     11  C   UNL     1     -45.236  26.118  -1.773  1.00  0.00    -0.000 C 
BRANCH  11  12
ATOM     12  C   UNL     1     -46.376  26.401  -2.762  1.00  0.00    -0.000 C 
BRANCH  12  13
ATOM     13  C   UNL     1     -46.311  27.818  -3.353  1.00  0.00    -0.000 C 
BRANCH  13  14
ATOM     14  C   UNL     1     -46.434  27.828  -4.884  1.00  0.00    -0.000 C 
BRANCH  14  15
ATOM     15  C   UNL     1     -46.084  26.456  -5.471  1.00  0.00    -0.003 C 
ATOM     16  C   UNL     1     -45.676  26.571  -6.936  1.00  0.00     0.004 C 
ENDBRANCH  14  15
ENDBRANCH  13  14
ENDBRANCH  12  13
ENDBRANCH  11  12
ENDBRANCH  10  11
ENDBRANCH   1  10
TORSDOF 12
ENDMDL
MODEL 3
REMARK VINA RESULT:    -4.049      1.799      2.397
REMARK INTER + INTRA:          -7.771
REMARK INTER:                  -7.143
REMARK INTRA:                  -0.628
REMARK UNBOUND:                -0.882
REMARK SMILES CCCCCCCCCCCCCC(=O)[O-]
REMARK SMILES IDX 8 1 9 2 10 3 11 4 12 5 13 6 14 7 15 8 16 9 7 10 6 11 5 12
REMARK SMILES IDX 4 13 3 14 2 15 1 16
REMARK H PARENT
REMARK Flexibility Score: inf
ROOT
ATOM      1  C   UNL     1     -43.259  28.117  -0.286  1.00  0.00     0.000 C 
ENDROOT
BRANCH   1   2
ATOM      2  C   UNL     1     -42.835  28.184   1.188  1.00  0.00     0.000 C 
BRANCH   2   3
ATOM      3  C   UNL     1     -43.568  27.155   2.064  1.00  0.00     0.000 C 
BRANCH   3   4
ATOM      4  C   UNL     1     -44.132  27.769   3.354  1.00  0.00     0.000 C 
BRANCH   4   5
ATOM      5  C   UNL     1     -43.162  28.809   3.935  1.00  0.00     0.006 C 
BRANCH   5   6
ATOM      6  C   UNL     1     -43.532  29.210   5.369  1.00  0.00     0.053 C 
BRANCH   6   7
ATOM      7  C   UNL     1     -43.150  28.153   6.360  1.00  0.00     0.041 C 
ATOM      8  O   UNL     1     -41.975  28.102   6.811  1.00  0.00    -0.550 OA
ATOM      9  O   UNL     1     -44.099  27.244   6.810  1.00  0.00    -0.550 OA
ENDBRANCH   6   7
ENDBRANCH   5   6
ENDBRANCH   4   5
ENDBRANCH   3   4
ENDBRANCH   2   3
ENDBRANCH   1   2
BRANCH   1  10
ATOM     10  C   UNL     1     -44.129  26.881  -0.551  1.00  0.00     0.000 C 
BRANCH  10  11
ATOM     11  C   UNL     1     -45.287  27.216  -1.500  1.00  0.00    -0.000 C 
BRANCH  11  12
ATOM     12  C   UNL     1     -45.798  25.953  -2.209  1.00  0.00    -0.000 C 
BRANCH  12  13
ATOM     13  C   UNL     1     -46.698  26.272  -3.413  1.00  0.00    -0.000 C 
BRANCH  13  14
ATOM     14  C   UNL     1     -46.370  27.628  -4.056  1.00  0.00    -0.000 C 
BRANCH  14  15
ATOM     15  C   UNL     1     -46.155  27.479  -5.567  1.00  0.00    -0.003 C 
ATOM     16  C   UNL     1     -45.588  28.760  -6.170  1.00  0.00     0.004 C 
ENDBRANCH  14  15
ENDBRANCH  13  14
ENDBRANCH  12  13
ENDBRANCH  11  12
ENDBRANCH  10  11
ENDBRANCH   1  10
TORSDOF 12
ENDMDL
MODEL 4
REMARK VINA RESULT:    -4.048      1.920      3.533
REMARK INTER + INTRA:          -7.769
REMARK INTER:                  -6.804
REMARK INTRA:                  -0.965
REMARK UNBOUND:                -0.882
REMARK SMILES CCCCCCCCCCCCCC(=O)[O-]
REMARK SMILES IDX 8 1 9 2 10 3 11 4 12 5 13 6 14 7 15 8 16 9 7 10 6 11 5 12
REMARK SMILES IDX 4 13 3 14 2 15 1 16
REMARK H PARENT
REMARK Flexibility Score: inf
ROOT
ATOM      1  C   UNL     1     -42.992  27.476   1.457  1.00  0.00     0.000 C 
ENDROOT
BRANCH   1   2
ATOM      2  C   UNL     1     -43.003  28.851   2.139  1.00  0.00     0.000 C 
BRANCH   2   3
ATOM      3  C   UNL     1     -44.025  28.938   3.284  1.00  0.00     0.000 C 
BRANCH   3   4
ATOM      4  C   UNL     1     -44.748  27.606   3.534  1.00  0.00     0.000 C 
BRANCH   4   5
ATOM      5  C   UNL     1     -44.984  27.384   5.036  1.00  0.00     0.006 C 
BRANCH   5   6
ATOM      6  C   UNL     1     -43.768  26.753   5.728  1.00  0.00     0.053 C 
BRANCH   6   7
ATOM      7  C   UNL     1     -43.393  27.492   6.977  1.00  0.00     0.041 C 
ATOM      8  O   UNL     1     -44.177  27.511   7.961  1.00  0.00    -0.550 OA
ATOM      9  O   UNL     1     -42.162  28.130   7.065  1.00  0.00    -0.550 OA
ENDBRANCH   6   7
ENDBRANCH   5   6
ENDBRANCH   4   5
ENDBRANCH   3   4
ENDBRANCH   2   3
ENDBRANCH   1   2
BRANCH   1  10
ATOM     10  C   UNL     1     -43.104  27.617  -0.066  1.00  0.00     0.000 C 
BRANCH  10  11
ATOM     11  C   UNL     1     -44.327  28.458  -0.454  1.00  0.00    -0.000 C 
BRANCH  11  12
ATOM     12  C   UNL     1     -45.487  27.560  -0.909  1.00  0.00    -0.000 C 
BRANCH  12  13
ATOM     13  C   UNL     1     -45.028  26.144  -1.288  1.00  0.00    -0.000 C 
BRANCH  13  14
ATOM     14  C   UNL     1     -45.588  25.680  -2.641  1.00  0.00    -0.000 C 
BRANCH  14  15
ATOM     15  C   UNL     1     -46.298  26.832  -3.362  1.00  0.00    -0.003 C 
ATOM     16  C   UNL     1     -46.242  26.651  -4.876  1.00  0.00     0.004 C 
ENDBRANCH  14  15
ENDBRANCH  13  14
ENDBRANCH  12  13
ENDBRANCH  11  12
ENDBRANCH  10  11
ENDBRANCH   1  10
TORSDOF 12
ENDMDL
MODEL 5
REMARK VINA RESULT:    -3.973      4.677      7.991
REMARK INTER + INTRA:          -7.642
REMARK INTER:                  -6.649
REMARK INTRA:                  -0.992
REMARK UNBOUND:                -0.882
REMARK SMILES CCCCCCCCCCCCCC(=O)[O-]
REMARK SMILES IDX 8 1 9 2 10 3 11 4 12 5 13 6 14 7 15 8 16 9 7 10 6 11 5 12
REMARK SMILES IDX 4 13 3 14 2 15 1 16
REMARK H PARENT
REMARK Flexibility Score: inf
ROOT
ATOM      1  C   UNL     1     -45.081  26.399  -1.397  1.00  0.00     0.000 C 
ENDROOT
BRANCH   1   2
ATOM      2  C   UNL     1     -45.953  25.385  -2.151  1.00  0.00     0.000 C 
BRANCH   2   3
ATOM      3  C   UNL     1     -46.967  26.056  -3.090  1.00  0.00     0.000 C 
BRANCH   3   4
ATOM      4  C   UNL     1     -46.298  26.758  -4.281  1.00  0.00     0.000 C 
BRANCH   4   5
ATOM      5  C   UNL     1     -46.888  26.265  -5.610  1.00  0.00     0.006 C 
BRANCH   5   6
ATOM      6  C   UNL     1     -45.883  26.367  -6.765  1.00  0.00     0.053 C 
BRANCH   6   7
ATOM      7  C   UNL     1     -46.561  26.318  -8.100  1.00  0.00     0.041 C 
ATOM      8  O   UNL     1     -46.879  27.385  -8.688  1.00  0.00    -0.550 OA
ATOM      9  O   UNL     1     -46.812  25.095  -8.710  1.00  0.00    -0.550 OA
ENDBRANCH   6   7
ENDBRANCH   5   6
ENDBRANCH   4   5
ENDBRANCH   3   4
ENDBRANCH   2   3
ENDBRANCH   1   2
BRANCH   1  10
ATOM     10  C   UNL     1     -45.942  27.500  -0.764  1.00  0.00     0.000 C 
BRANCH  10  11
ATOM     11  C   UNL     1     -45.565  28.881  -1.317  1.00  0.00    -0.000 C 
BRANCH  11  12
ATOM     12  C   UNL     1     -44.914  29.747  -0.230  1.00  0.00    -0.000 C 
BRANCH  12  13
ATOM     13  C   UNL     1     -43.421  30.003  -0.490  1.00  0.00    -0.000 C 
BRANCH  13  14
ATOM     14  C   UNL     1     -42.519  29.433   0.615  1.00  0.00    -0.000 C 
BRANCH  14  15
ATOM     15  C   UNL     1     -42.353  27.917   0.458  1.00  0.00    -0.003 C 
ATOM     16  C   UNL     1     -43.016  27.168   1.610  1.00  0.00     0.004 C 
ENDBRANCH  14  15
ENDBRANCH  13  14
ENDBRANCH  12  13
ENDBRANCH  11  12
ENDBRANCH  10  11
ENDBRANCH   1  10
TORSDOF 12
ENDMDL
MODEL 6
REMARK VINA RESULT:    -3.971      2.408      3.915
REMARK INTER + INTRA:          -7.639
REMARK INTER:                  -6.582
REMARK INTRA:                  -1.057
REMARK UNBOUND:                -0.882
REMARK SMILES CCCCCCCCCCCCCC(=O)[O-]
REMARK SMILES IDX 8 1 9 2 10 3 11 4 12 5 13 6 14 7 15 8 16 9 7 10 6 11 5 12
REMARK SMILES IDX 4 13 3 14 2 15 1 16
REMARK H PARENT
REMARK Flexibility Score: inf
ROOT
ATOM      1  C   UNL     1     -43.013  27.381   1.624  1.00  0.00     0.000 C 
ENDROOT
BRANCH   1   2
ATOM      2  C   UNL     1     -43.007  28.753   2.313  1.00  0.00     0.000 C 
BRANCH   2   3
ATOM      3  C   UNL     1     -43.736  28.740   3.666  1.00  0.00     0.000 C 
BRANCH   3   4
ATOM      4  C   UNL     1     -44.670  27.530   3.824  1.00  0.00     0.000 C 
BRANCH   4   5
ATOM      5  C   UNL     1     -45.012  27.292   5.303  1.00  0.00     0.006 C 
BRANCH   5   6
ATOM      6  C   UNL     1     -43.856  26.632   6.067  1.00  0.00     0.053 C 
BRANCH   6   7
ATOM      7  C   UNL     1     -43.355  27.502   7.179  1.00  0.00     0.041 C 
ATOM      8  O   UNL     1     -43.878  27.435   8.322  1.00  0.00    -0.550 OA
ATOM      9  O   UNL     1     -42.287  28.364   6.962  1.00  0.00    -0.550 OA
ENDBRANCH   6   7
ENDBRANCH   5   6
ENDBRANCH   4   5
ENDBRANCH   3   4
ENDBRANCH   2   3
ENDBRANCH   1   2
BRANCH   1  10
ATOM     10  C   UNL     1     -43.384  27.513   0.141  1.00  0.00     0.000 C 
BRANCH  10  11
ATOM     11  C   UNL     1     -43.498  28.987  -0.270  1.00  0.00    -0.000 C 
BRANCH  11  12
ATOM     12  C   UNL     1     -44.845  29.263  -0.953  1.00  0.00    -0.000 C 
BRANCH  12  13
ATOM     13  C   UNL     1     -45.668  27.985  -1.179  1.00  0.00    -0.000 C 
BRANCH  13  14
ATOM     14  C   UNL     1     -46.238  27.891  -2.603  1.00  0.00    -0.000 C 
BRANCH  14  15
ATOM     15  C   UNL     1     -46.280  26.436  -3.081  1.00  0.00    -0.003 C 
ATOM     16  C   UNL     1     -45.490  25.526  -2.145  1.00  0.00     0.004 C 
ENDBRANCH  14  15
ENDBRANCH  13  14
ENDBRANCH  12  13
ENDBRANCH  11  12
ENDBRANCH  10  11
ENDBRANCH   1  10
TORSDOF 12
ENDMDL
MODEL 7
REMARK VINA RESULT:    -3.929      3.772      7.793
REMARK INTER + INTRA:          -7.566
REMARK INTER:                  -6.546
REMARK INTRA:                  -1.020
REMARK UNBOUND:                -0.882
REMARK SMILES CCCCCCCCCCCCCC(=O)[O-]
REMARK SMILES IDX 8 1 9 2 10 3 11 4 12 5 13 6 14 7 15 8 16 9 7 10 6 11 5 12
REMARK SMILES IDX 4 13 3 14 2 15 1 16
REMARK H PARENT
REMARK Flexibility Score: inf
ROOT
ATOM      1  C   UNL     1     -43.780  27.109  -0.053  1.00  0.00     0.000 C 
ENDROOT
BRANCH   1   2
ATOM      2  C   UNL     1     -44.843  27.391  -1.124  1.00  0.00     0.000 C 
BRANCH   2   3
ATOM      3  C   UNL     1     -45.358  26.110  -1.800  1.00  0.00     0.000 C 
BRANCH   3   4
ATOM      4  C   UNL     1     -46.646  26.342  -2.605  1.00  0.00     0.000 C 
BRANCH   4   5
ATOM      5  C   UNL     1     -46.361  27.164  -3.871  1.00  0.00     0.006 C 
BRANCH   5   6
ATOM      6  C   UNL     1     -46.507  26.329  -5.150  1.00  0.00     0.053 C 
BRANCH   6   7
ATOM      7  C   UNL     1     -45.739  26.920  -6.292  1.00  0.00     0.041 C 
ATOM      8  O   UNL     1     -45.384  26.197  -7.260  1.00  0.00    -0.550 OA
ATOM      9  O   UNL     1     -45.444  28.278  -6.305  1.00  0.00    -0.550 OA
ENDBRANCH   6   7
ENDBRANCH   5   6
ENDBRANCH   4   5
ENDBRANCH   3   4
ENDBRANCH   2   3
ENDBRANCH   1   2
BRANCH   1  10
ATOM     10  C   UNL     1     -42.669  28.167  -0.091  1.00  0.00     0.000 C 
BRANCH  10  11
ATOM     11  C   UNL     1     -43.257  29.582  -0.166  1.00  0.00    -0.000 C 
BRANCH  11  12
ATOM     12  C   UNL     1     -43.765  30.039   1.209  1.00  0.00    -0.000 C 
BRANCH  12  13
ATOM     13  C   UNL     1     -42.673  29.994   2.289  1.00  0.00    -0.000 C 
BRANCH  13  14
ATOM     14  C   UNL     1     -43.148  29.318   3.585  1.00  0.00    -0.000 C 
BRANCH  14  15
ATOM     15  C   UNL     1     -44.500  28.627   3.377  1.00  0.00    -0.003 C 
ATOM     16  C   UNL     1     -44.378  27.116   3.548  1.00  0.00     0.004 C 
ENDBRANCH  14  15
ENDBRANCH  13  14
ENDBRANCH  12  13
ENDBRANCH  11  12
ENDBRANCH  10  11
ENDBRANCH   1  10
TORSDOF 12
ENDMDL
MODEL 8
REMARK VINA RESULT:    -3.813      2.952      7.893
REMARK INTER + INTRA:          -7.370
REMARK INTER:                  -5.986
REMARK INTRA:                  -1.384
REMARK UNBOUND:                -0.882
REMARK SMILES CCCCCCCCCCCCCC(=O)[O-]
REMARK SMILES IDX 8 1 9 2 10 3 11 4 12 5 13 6 14 7 15 8 16 9 7 10 6 11 5 12
REMARK SMILES IDX 4 13 3 14 2 15 1 16
REMARK H PARENT
REMARK Flexibility Score: inf
ROOT
ATOM      1  C   UNL     1     -44.125  27.715   3.080  1.00  0.00     0.000 C 
ENDROOT
BRANCH   1   2
ATOM      2  C   UNL     1     -43.396  26.938   1.975  1.00  0.00     0.000 C 
BRANCH   2   3
ATOM      3  C   UNL     1     -42.594  27.853   1.036  1.00  0.00     0.000 C 
BRANCH   3   4
ATOM      4  C   UNL     1     -43.084  27.784  -0.418  1.00  0.00     0.000 C 
BRANCH   4   5
ATOM      5  C   UNL     1     -44.293  28.707  -0.634  1.00  0.00     0.006 C 
BRANCH   5   6
ATOM      6  C   UNL     1     -45.411  28.023  -1.431  1.00  0.00     0.053 C 
BRANCH   6   7
ATOM      7  C   UNL     1     -45.899  26.779  -0.752  1.00  0.00     0.041 C 
ATOM      8  O   UNL     1     -46.564  26.859   0.314  1.00  0.00    -0.550 OA
ATOM      9  O   UNL     1     -45.649  25.534  -1.315  1.00  0.00    -0.550 OA
ENDBRANCH   6   7
ENDBRANCH   5   6
ENDBRANCH   4   5
ENDBRANCH   3   4
ENDBRANCH   2   3
ENDBRANCH   1   2
BRANCH   1  10
ATOM     10  C   UNL     1     -43.740  29.200   3.052  1.00  0.00     0.000 C 
BRANCH  10  11
ATOM     11  C   UNL     1     -42.847  29.561   4.246  1.00  0.00    -0.000 C 
BRANCH  11  12
ATOM     12  C   UNL     1     -43.093  28.605   5.423  1.00  0.00    -0.000 C 
BRANCH  12  13
ATOM     13  C   UNL     1     -43.723  29.308   6.636  1.00  0.00    -0.000 C 
BRANCH  13  14
ATOM     14  C   UNL     1     -44.686  28.398   7.414  1.00  0.00    -0.000 C 
BRANCH  14  15
ATOM     15  C   UNL     1     -45.096  27.186   6.570  1.00  0.00    -0.003 C 
ATOM     16  C   UNL     1     -46.574  27.251   6.195  1.00  0.00     0.004 C 
ENDBRANCH  14  15
ENDBRANCH  13  14
ENDBRANCH  12  13
ENDBRANCH  11  12
ENDBRANCH  10  11
ENDBRANCH   1  10
TORSDOF 12
ENDMDL
MODEL 9
REMARK VINA RESULT:    -3.735      3.506      8.422
REMARK INTER + INTRA:          -7.238
REMARK INTER:                  -5.772
REMARK INTRA:                  -1.466
REMARK UNBOUND:                -0.882
REMARK SMILES CCCCCCCCCCCCCC(=O)[O-]
REMARK SMILES IDX 8 1 9 2 10 3 11 4 12 5 13 6 14 7 15 8 16 9 7 10 6 11 5 12
REMARK SMILES IDX 4 13 3 14 2 15 1 16
REMARK H PARENT
REMARK Flexibility Score: inf
ROOT
ATOM      1  C   UNL     1     -45.304  27.487   4.301  1.00  0.00     0.000 C 
ENDROOT
BRANCH   1   2
ATOM      2  C   UNL     1     -44.714  28.816   3.808  1.00  0.00     0.000 C 
BRANCH   2   3
ATOM      3  C   UNL     1     -43.247  28.687   3.367  1.00  0.00     0.000 C 
BRANCH   3   4
ATOM      4  C   UNL     1     -43.045  29.011   1.879  1.00  0.00     0.000 C 
BRANCH   4   5
ATOM      5  C   UNL     1     -42.729  27.738   1.079  1.00  0.00     0.006 C 
BRANCH   5   6
ATOM      6  C   UNL     1     -43.434  27.718  -0.284  1.00  0.00     0.053 C 
BRANCH   6   7
ATOM      7  C   UNL     1     -44.702  26.921  -0.243  1.00  0.00     0.041 C 
ATOM      8  O   UNL     1     -44.913  26.022  -1.099  1.00  0.00    -0.550 OA
ATOM      9  O   UNL     1     -45.636  27.148   0.760  1.00  0.00    -0.550 OA
ENDBRANCH   6   7
ENDBRANCH   5   6
ENDBRANCH   4   5
ENDBRANCH   3   4
ENDBRANCH   2   3
ENDBRANCH   1   2
BRANCH   1  10
ATOM     10  C   UNL     1     -46.627  27.714   5.042  1.00  0.00     0.000 C 
BRANCH  10  11
ATOM     11  C   UNL     1     -46.552  27.182   6.480  1.00  0.00    -0.000 C 
BRANCH  11  12
ATOM     12  C   UNL     1     -46.456  28.337   7.487  1.00  0.00    -0.000 C 
BRANCH  12  13
ATOM     13  C   UNL     1     -45.085  28.407   8.179  1.00  0.00    -0.000 C 
BRANCH  13  14
ATOM     14  C   UNL     1     -44.313  29.690   7.838  1.00  0.00    -0.000 C 
BRANCH  14  15
ATOM     15  C   UNL     1     -43.011  29.365   7.098  1.00  0.00    -0.003 C 
ATOM     16  C   UNL     1     -42.791  27.858   7.006  1.00  0.00     0.004 C 
ENDBRANCH  14  15
ENDBRANCH  13  14
ENDBRANCH  12  13
ENDBRANCH  11  12
ENDBRANCH  10  11
ENDBRANCH   1  10
TORSDOF 12
ENDMDL
