MODEL 1
REMARK VINA RESULT:    -4.750      0.000      0.000
REMARK INTER + INTRA:         -14.073
REMARK INTER:                 -10.859
REMARK INTRA:                  -3.213
REMARK UNBOUND:                -3.213
REMARK SMILES CCCCCCCCCCCCCCCCCCCCCCCC(=O)[O-]
REMARK SMILES IDX 13 1 14 2 15 3 16 4 17 5 18 6 19 7 20 8 21 9 22 10 23 11
REMARK SMILES IDX 24 12 25 13 26 14 12 15 11 16 10 17 9 18 8 19 7 20 6 21 5 22
REMARK SMILES IDX 4 23 3 24 2 25 1 26
REMARK H PARENT
REMARK Flexibility Score: inf
ROOT
ATOM      1  C   UNL     1      32.164   2.926   9.650  1.00  0.00     0.000 C 
ENDROOT
BRANCH   1   2
ATOM      2  C   UNL     1      33.576   3.016  10.247  1.00  0.00     0.000 C 
BRANCH   2   3
ATOM      3  C   UNL     1      33.798   1.919  11.298  1.00  0.00     0.000 C 
BRANCH   3   4
ATOM      4  C   UNL     1      32.855   2.047  12.506  1.00  0.00     0.000 C 
BRANCH   4   5
ATOM      5  C   UNL     1      33.536   2.700  13.722  1.00  0.00     0.000 C 
BRANCH   5   6
ATOM      6  C   UNL     1      33.476   4.237  13.685  1.00  0.00     0.000 C 
BRANCH   6   7
ATOM      7  C   UNL     1      32.139   4.830  13.195  1.00  0.00     0.000 C 
BRANCH   7   8
ATOM      8  C   UNL     1      32.268   6.030  12.236  1.00  0.00     0.000 C 
BRANCH   8   9
ATOM      9  C   UNL     1      32.811   7.321  12.879  1.00  0.00     0.000 C 
BRANCH   9  10
ATOM     10  C   UNL     1      32.478   8.620  12.117  1.00  0.00     0.006 C 
BRANCH  10  11
ATOM     11  C   UNL     1      31.057   9.153  12.361  1.00  0.00     0.053 C 
BRANCH  11  12
ATOM     12  C   UNL     1      30.984  10.642  12.218  1.00  0.00     0.041 C 
ATOM     13  O   UNL     1      32.040  11.319  12.106  1.00  0.00    -0.550 OA
ATOM     14  O   UNL     1      29.750  11.278  12.174  1.00  0.00    -0.550 OA
ENDBRANCH  11  12
ENDBRANCH  10  11
ENDBRANCH   9  10
ENDBRANCH   8   9
ENDBRANCH   7   8
ENDBRANCH   6   7
ENDBRANCH   5   6
ENDBRANCH   4   5
ENDBRANCH   3   4
ENDBRANCH   2   3
ENDBRANCH   1   2
BRANCH   1  15
ATOM     15  C   UNL     1      32.107   2.061   8.378  1.00  0.00     0.000 C 
BRANCH  15  16
ATOM     16  C   UNL     1      31.797   2.832   7.081  1.00  0.00     0.000 C 
BRANCH  16  17
ATOM     17  C   UNL     1      31.917   4.366   7.185  1.00  0.00     0.000 C 
BRANCH  17  18
ATOM     18  C   UNL     1      33.218   4.962   6.619  1.00  0.00    -0.000 C 
BRANCH  18  19
ATOM     19  C   UNL     1      33.557   6.337   7.217  1.00  0.00    -0.000 C 
BRANCH  19  20
ATOM     20  C   UNL     1      33.680   6.307   8.752  1.00  0.00    -0.000 C 
BRANCH  20  21
ATOM     21  C   UNL     1      34.263   7.586   9.387  1.00  0.00    -0.000 C 
BRANCH  21  22
ATOM     22  C   UNL     1      35.395   7.354  10.409  1.00  0.00    -0.000 C 
BRANCH  22  23
ATOM     23  C   UNL     1      35.721   5.878  10.694  1.00  0.00    -0.000 C 
BRANCH  23  24
ATOM     24  C   UNL     1      37.187   5.523  10.403  1.00  0.00    -0.000 C 
BRANCH  24  25
ATOM     25  C   UNL     1      38.062   6.781  10.380  1.00  0.00    -0.003 C 
ATOM     26  C   UNL     1      38.984   6.834  11.593  1.00  0.00     0.004 C 
ENDBRANCH  24  25
ENDBRANCH  23  24
ENDBRANCH  22  23
ENDBRANCH  21  22
ENDBRANCH  20  21
ENDBRANCH  19  20
ENDBRANCH  18  19
ENDBRANCH  17  18
ENDBRANCH  16  17
ENDBRANCH  15  16
ENDBRANCH   1  15
TORSDOF 22
ENDMDL
MODEL 2
REMARK VINA RESULT:    -4.714      2.194      6.160
REMARK INTER + INTRA:         -13.991
REMARK INTER:                 -11.024
REMARK INTRA:                  -2.967
REMARK UNBOUND:                -3.213
REMARK SMILES CCCCCCCCCCCCCCCCCCCCCCCC(=O)[O-]
REMARK SMILES IDX 13 1 14 2 15 3 16 4 17 5 18 6 19 7 20 8 21 9 22 10 23 11
REMARK SMILES IDX 24 12 25 13 26 14 12 15 11 16 10 17 9 18 8 19 7 20 6 21 5 22
REMARK SMILES IDX 4 23 3 24 2 25 1 26
REMARK H PARENT
REMARK Flexibility Score: inf
ROOT
ATOM      1  C   UNL     1      32.635   2.101   8.917  1.00  0.00     0.000 C 
ENDROOT
BRANCH   1   2
ATOM      2  C   UNL     1      31.439   2.353   7.987  1.00  0.00     0.000 C 
BRANCH   2   3
ATOM      3  C   UNL     1      31.753   1.895   6.555  1.00  0.00     0.000 C 
BRANCH   3   4
ATOM      4  C   UNL     1      31.725   3.049   5.539  1.00  0.00     0.000 C 
BRANCH   4   5
ATOM      5  C   UNL     1      31.533   4.422   6.208  1.00  0.00     0.000 C 
BRANCH   5   6
ATOM      6  C   UNL     1      32.821   5.264   6.224  1.00  0.00     0.000 C 
BRANCH   6   7
ATOM      7  C   UNL     1      33.426   5.510   7.621  1.00  0.00     0.000 C 
BRANCH   7   8
ATOM      8  C   UNL     1      34.928   5.191   7.748  1.00  0.00     0.000 C 
BRANCH   8   9
ATOM      9  C   UNL     1      35.337   4.492   9.059  1.00  0.00     0.000 C 
BRANCH   9  10
ATOM     10  C   UNL     1      35.731   5.439  10.210  1.00  0.00     0.006 C 
BRANCH  10  11
ATOM     11  C   UNL     1      37.246   5.552  10.450  1.00  0.00     0.053 C 
BRANCH  11  12
ATOM     12  C   UNL     1      37.616   6.850  11.100  1.00  0.00     0.041 C 
ATOM     13  O   UNL     1      36.763   7.770  11.205  1.00  0.00    -0.550 OA
ATOM     14  O   UNL     1      38.892   7.029  11.619  1.00  0.00    -0.550 OA
ENDBRANCH  11  12
ENDBRANCH  10  11
ENDBRANCH   9  10
ENDBRANCH   8   9
ENDBRANCH   7   8
ENDBRANCH   6   7
ENDBRANCH   5   6
ENDBRANCH   4   5
ENDBRANCH   3   4
ENDBRANCH   2   3
ENDBRANCH   1   2
BRANCH   1  15
ATOM     15  C   UNL     1      32.429   2.682  10.328  1.00  0.00     0.000 C 
BRANCH  15  16
ATOM     16  C   UNL     1      33.420   2.173  11.392  1.00  0.00     0.000 C 
BRANCH  16  17
ATOM     17  C   UNL     1      32.888   2.176  12.839  1.00  0.00     0.000 C 
BRANCH  17  18
ATOM     18  C   UNL     1      33.659   3.078  13.819  1.00  0.00    -0.000 C 
BRANCH  18  19
ATOM     19  C   UNL     1      33.494   4.575  13.511  1.00  0.00    -0.000 C 
BRANCH  19  20
ATOM     20  C   UNL     1      32.020   4.993  13.351  1.00  0.00    -0.000 C 
BRANCH  20  21
ATOM     21  C   UNL     1      31.745   6.001  12.216  1.00  0.00    -0.000 C 
BRANCH  21  22
ATOM     22  C   UNL     1      33.000   6.629  11.577  1.00  0.00    -0.000 C 
BRANCH  22  23
ATOM     23  C   UNL     1      33.187   8.131  11.851  1.00  0.00    -0.000 C 
BRANCH  23  24
ATOM     24  C   UNL     1      31.912   8.805  12.379  1.00  0.00    -0.000 C 
BRANCH  24  25
ATOM     25  C   UNL     1      31.732  10.199  11.767  1.00  0.00    -0.003 C 
ATOM     26  C   UNL     1      30.464  10.870  12.284  1.00  0.00     0.004 C 
ENDBRANCH  24  25
ENDBRANCH  23  24
ENDBRANCH  22  23
ENDBRANCH  21  22
ENDBRANCH  20  21
ENDBRANCH  19  20
ENDBRANCH  18  19
ENDBRANCH  17  18
ENDBRANCH  16  17
ENDBRANCH  15  16
ENDBRANCH   1  15
TORSDOF 22
ENDMDL
MODEL 3
REMARK VINA RESULT:    -4.667      3.304      6.817
REMARK INTER + INTRA:         -13.882
REMARK INTER:                 -10.631
REMARK INTRA:                  -3.251
REMARK UNBOUND:                -3.213
REMARK SMILES CCCCCCCCCCCCCCCCCCCCCCCC(=O)[O-]
REMARK SMILES IDX 13 1 14 2 15 3 16 4 17 5 18 6 19 7 20 8 21 9 22 10 23 11
REMARK SMILES IDX 24 12 25 13 26 14 12 15 11 16 10 17 9 18 8 19 7 20 6 21 5 22
REMARK SMILES IDX 4 23 3 24 2 25 1 26
REMARK H PARENT
REMARK Flexibility Score: inf
ROOT
ATOM      1  C   UNL     1      36.744   5.951  10.308  1.00  0.00     0.000 C 
ENDROOT
BRANCH   1   2
ATOM      2  C   UNL     1      35.687   4.846  10.161  1.00  0.00     0.000 C 
BRANCH   2   3
ATOM      3  C   UNL     1      35.479   4.480   8.684  1.00  0.00     0.000 C 
BRANCH   3   4
ATOM      4  C   UNL     1      34.848   5.620   7.868  1.00  0.00     0.000 C 
BRANCH   4   5
ATOM      5  C   UNL     1      33.310   5.611   7.931  1.00  0.00     0.000 C 
BRANCH   5   6
ATOM      6  C   UNL     1      32.717   4.193   7.840  1.00  0.00     0.000 C 
BRANCH   6   7
ATOM      7  C   UNL     1      32.126   3.816   6.466  1.00  0.00     0.000 C 
BRANCH   7   8
ATOM      8  C   UNL     1      32.155   4.940   5.412  1.00  0.00     0.000 C 
BRANCH   8   9
ATOM      9  C   UNL     1      31.118   4.798   4.280  1.00  0.00     0.000 C 
BRANCH   9  10
ATOM     10  C   UNL     1      30.287   3.500   4.315  1.00  0.00     0.006 C 
BRANCH  10  11
ATOM     11  C   UNL     1      28.765   3.720   4.347  1.00  0.00     0.053 C 
BRANCH  11  12
ATOM     12  C   UNL     1      28.237   3.785   5.747  1.00  0.00     0.041 C 
ATOM     13  O   UNL     1      27.535   2.845   6.203  1.00  0.00    -0.550 OA
ATOM     14  O   UNL     1      28.550   4.868   6.560  1.00  0.00    -0.550 OA
ENDBRANCH  11  12
ENDBRANCH  10  11
ENDBRANCH   9  10
ENDBRANCH   8   9
ENDBRANCH   7   8
ENDBRANCH   6   7
ENDBRANCH   5   6
ENDBRANCH   4   5
ENDBRANCH   3   4
ENDBRANCH   2   3
ENDBRANCH   1   2
BRANCH   1  15
ATOM     15  C   UNL     1      36.217   7.185  11.063  1.00  0.00     0.000 C 
BRANCH  15  16
ATOM     16  C   UNL     1      34.682   7.303  11.125  1.00  0.00     0.000 C 
BRANCH  16  17
ATOM     17  C   UNL     1      34.143   8.303  12.167  1.00  0.00     0.000 C 
BRANCH  17  18
ATOM     18  C   UNL     1      32.858   7.863  12.893  1.00  0.00    -0.000 C 
BRANCH  18  19
ATOM     19  C   UNL     1      31.752   7.406  11.927  1.00  0.00    -0.000 C 
BRANCH  19  20
ATOM     20  C   UNL     1      31.340   5.938  12.141  1.00  0.00    -0.000 C 
BRANCH  20  21
ATOM     21  C   UNL     1      32.213   4.899  11.409  1.00  0.00    -0.000 C 
BRANCH  21  22
ATOM     22  C   UNL     1      32.848   3.821  12.313  1.00  0.00    -0.000 C 
BRANCH  22  23
ATOM     23  C   UNL     1      32.868   4.161  13.813  1.00  0.00    -0.000 C 
BRANCH  23  24
ATOM     24  C   UNL     1      34.249   3.954  14.453  1.00  0.00    -0.000 C 
BRANCH  24  25
ATOM     25  C   UNL     1      35.068   5.249  14.420  1.00  0.00    -0.003 C 
ATOM     26  C   UNL     1      36.007   5.339  15.619  1.00  0.00     0.004 C 
ENDBRANCH  24  25
ENDBRANCH  23  24
ENDBRANCH  22  23
ENDBRANCH  21  22
ENDBRANCH  20  21
ENDBRANCH  19  20
ENDBRANCH  18  19
ENDBRANCH  17  18
ENDBRANCH  16  17
ENDBRANCH  15  16
ENDBRANCH   1  15
TORSDOF 22
ENDMDL
MODEL 4
REMARK VINA RESULT:    -4.619      3.615      7.175
REMARK INTER + INTRA:         -13.773
REMARK INTER:                 -10.715
REMARK INTRA:                  -3.058
REMARK UNBOUND:                -3.213
REMARK SMILES CCCCCCCCCCCCCCCCCCCCCCCC(=O)[O-]
REMARK SMILES IDX 13 1 14 2 15 3 16 4 17 5 18 6 19 7 20 8 21 9 22 10 23 11
REMARK SMILES IDX 24 12 25 13 26 14 12 15 11 16 10 17 9 18 8 19 7 20 6 21 5 22
REMARK SMILES IDX 4 23 3 24 2 25 1 26
REMARK H PARENT
REMARK Flexibility Score: inf
ROOT
ATOM      1  C   UNL     1      35.557   4.472   8.617  1.00  0.00     0.000 C 
ENDROOT
BRANCH   1   2
ATOM      2  C   UNL     1      34.685   5.608   8.062  1.00  0.00     0.000 C 
BRANCH   2   3
ATOM      3  C   UNL     1      33.194   5.302   8.261  1.00  0.00     0.000 C 
BRANCH   3   4
ATOM      4  C   UNL     1      32.928   3.829   8.618  1.00  0.00     0.000 C 
BRANCH   4   5
ATOM      5  C   UNL     1      32.101   3.101   7.544  1.00  0.00     0.000 C 
BRANCH   5   6
ATOM      6  C   UNL     1      31.393   4.068   6.578  1.00  0.00     0.000 C 
BRANCH   6   7
ATOM      7  C   UNL     1      31.613   3.776   5.079  1.00  0.00     0.000 C 
BRANCH   7   8
ATOM      8  C   UNL     1      31.323   4.958   4.134  1.00  0.00     0.000 C 
BRANCH   8   9
ATOM      9  C   UNL     1      30.250   4.687   3.062  1.00  0.00     0.000 C 
BRANCH   9  10
ATOM     10  C   UNL     1      29.418   3.407   3.279  1.00  0.00     0.006 C 
BRANCH  10  11
ATOM     11  C   UNL     1      27.996   3.655   3.808  1.00  0.00     0.053 C 
BRANCH  11  12
ATOM     12  C   UNL     1      27.918   3.509   5.296  1.00  0.00     0.041 C 
ATOM     13  O   UNL     1      28.287   2.439   5.847  1.00  0.00    -0.550 OA
ATOM     14  O   UNL     1      27.470   4.567   6.077  1.00  0.00    -0.550 OA
ENDBRANCH  11  12
ENDBRANCH  10  11
ENDBRANCH   9  10
ENDBRANCH   8   9
ENDBRANCH   7   8
ENDBRANCH   6   7
ENDBRANCH   5   6
ENDBRANCH   4   5
ENDBRANCH   3   4
ENDBRANCH   2   3
ENDBRANCH   1   2
BRANCH   1  15
ATOM     15  C   UNL     1      36.259   4.846   9.935  1.00  0.00     0.000 C 
BRANCH  15  16
ATOM     16  C   UNL     1      36.883   6.254   9.962  1.00  0.00     0.000 C 
BRANCH  16  17
ATOM     17  C   UNL     1      36.900   6.939  11.343  1.00  0.00     0.000 C 
BRANCH  17  18
ATOM     18  C   UNL     1      35.697   6.619  12.248  1.00  0.00    -0.000 C 
BRANCH  18  19
ATOM     19  C   UNL     1      34.612   7.708  12.207  1.00  0.00    -0.000 C 
BRANCH  19  20
ATOM     20  C   UNL     1      33.421   7.332  11.306  1.00  0.00    -0.000 C 
BRANCH  20  21
ATOM     21  C   UNL     1      32.034   7.445  11.971  1.00  0.00    -0.000 C 
BRANCH  21  22
ATOM     22  C   UNL     1      31.331   6.102  12.255  1.00  0.00    -0.000 C 
BRANCH  22  23
ATOM     23  C   UNL     1      32.231   4.859  12.140  1.00  0.00    -0.000 C 
BRANCH  23  24
ATOM     24  C   UNL     1      32.723   4.351  13.503  1.00  0.00    -0.000 C 
BRANCH  24  25
ATOM     25  C   UNL     1      33.334   2.950  13.379  1.00  0.00    -0.003 C 
ATOM     26  C   UNL     1      33.229   2.427  11.950  1.00  0.00     0.004 C 
ENDBRANCH  24  25
ENDBRANCH  23  24
ENDBRANCH  22  23
ENDBRANCH  21  22
ENDBRANCH  20  21
ENDBRANCH  19  20
ENDBRANCH  18  19
ENDBRANCH  17  18
ENDBRANCH  16  17
ENDBRANCH  15  16
ENDBRANCH   1  15
TORSDOF 22
ENDMDL
MODEL 5
REMARK VINA RESULT:    -4.608      3.322      7.355
REMARK INTER + INTRA:         -13.747
REMARK INTER:                 -10.936
REMARK INTRA:                  -2.811
REMARK UNBOUND:                -3.213
REMARK SMILES CCCCCCCCCCCCCCCCCCCCCCCC(=O)[O-]
REMARK SMILES IDX 13 1 14 2 15 3 16 4 17 5 18 6 19 7 20 8 21 9 22 10 23 11
REMARK SMILES IDX 24 12 25 13 26 14 12 15 11 16 10 17 9 18 8 19 7 20 6 21 5 22
REMARK SMILES IDX 4 23 3 24 2 25 1 26
REMARK H PARENT
REMARK Flexibility Score: inf
ROOT
ATOM      1  C   UNL     1      35.266   6.822   9.855  1.00  0.00     0.000 C 
ENDROOT
BRANCH   1   2
ATOM      2  C   UNL     1      35.690   5.370   9.592  1.00  0.00     0.000 C 
BRANCH   2   3
ATOM      3  C   UNL     1      35.197   4.895   8.217  1.00  0.00     0.000 C 
BRANCH   3   4
ATOM      4  C   UNL     1      33.783   4.290   8.265  1.00  0.00     0.000 C 
BRANCH   4   5
ATOM      5  C   UNL     1      32.852   4.880   7.191  1.00  0.00     0.000 C 
BRANCH   5   6
ATOM      6  C   UNL     1      31.497   4.152   7.112  1.00  0.00     0.000 C 
BRANCH   6   7
ATOM      7  C   UNL     1      31.574   2.665   6.709  1.00  0.00     0.000 C 
BRANCH   7   8
ATOM      8  C   UNL     1      31.466   2.391   5.197  1.00  0.00     0.000 C 
BRANCH   8   9
ATOM      9  C   UNL     1      30.668   3.442   4.400  1.00  0.00     0.000 C 
BRANCH   9  10
ATOM     10  C   UNL     1      29.325   2.947   3.828  1.00  0.00     0.006 C 
BRANCH  10  11
ATOM     11  C   UNL     1      28.091   3.687   4.371  1.00  0.00     0.053 C 
BRANCH  11  12
ATOM     12  C   UNL     1      28.058   3.700   5.868  1.00  0.00     0.041 C 
ATOM     13  O   UNL     1      28.057   4.794   6.491  1.00  0.00    -0.550 OA
ATOM     14  O   UNL     1      27.995   2.505   6.573  1.00  0.00    -0.550 OA
ENDBRANCH  11  12
ENDBRANCH  10  11
ENDBRANCH   9  10
ENDBRANCH   8   9
ENDBRANCH   7   8
ENDBRANCH   6   7
ENDBRANCH   5   6
ENDBRANCH   4   5
ENDBRANCH   3   4
ENDBRANCH   2   3
ENDBRANCH   1   2
BRANCH   1  15
ATOM     15  C   UNL     1      35.841   7.384  11.168  1.00  0.00     0.000 C 
BRANCH  15  16
ATOM     16  C   UNL     1      36.069   6.340  12.277  1.00  0.00     0.000 C 
BRANCH  16  17
ATOM     17  C   UNL     1      35.019   6.340  13.405  1.00  0.00     0.000 C 
BRANCH  17  18
ATOM     18  C   UNL     1      34.763   4.971  14.062  1.00  0.00    -0.000 C 
BRANCH  18  19
ATOM     19  C   UNL     1      33.404   4.366  13.674  1.00  0.00    -0.000 C 
BRANCH  19  20
ATOM     20  C   UNL     1      33.274   4.108  12.162  1.00  0.00    -0.000 C 
BRANCH  20  21
ATOM     21  C   UNL     1      32.187   4.936  11.447  1.00  0.00    -0.000 C 
BRANCH  21  22
ATOM     22  C   UNL     1      31.613   6.111  12.264  1.00  0.00    -0.000 C 
BRANCH  22  23
ATOM     23  C   UNL     1      32.204   7.490  11.924  1.00  0.00    -0.000 C 
BRANCH  23  24
ATOM     24  C   UNL     1      31.465   8.644  12.618  1.00  0.00    -0.000 C 
BRANCH  24  25
ATOM     25  C   UNL     1      31.650   9.956  11.848  1.00  0.00    -0.003 C 
ATOM     26  C   UNL     1      30.741  11.051  12.397  1.00  0.00     0.004 C 
ENDBRANCH  24  25
ENDBRANCH  23  24
ENDBRANCH  22  23
ENDBRANCH  21  22
ENDBRANCH  20  21
ENDBRANCH  19  20
ENDBRANCH  18  19
ENDBRANCH  17  18
ENDBRANCH  16  17
ENDBRANCH  15  16
ENDBRANCH   1  15
TORSDOF 22
ENDMDL
MODEL 6
REMARK VINA RESULT:    -4.551      3.056      6.776
REMARK INTER + INTRA:         -13.616
REMARK INTER:                 -10.801
REMARK INTRA:                  -2.815
REMARK UNBOUND:                -3.213
REMARK SMILES CCCCCCCCCCCCCCCCCCCCCCCC(=O)[O-]
REMARK SMILES IDX 13 1 14 2 15 3 16 4 17 5 18 6 19 7 20 8 21 9 22 10 23 11
REMARK SMILES IDX 24 12 25 13 26 14 12 15 11 16 10 17 9 18 8 19 7 20 6 21 5 22
REMARK SMILES IDX 4 23 3 24 2 25 1 26
REMARK H PARENT
REMARK Flexibility Score: inf
ROOT
ATOM      1  C   UNL     1      36.576   6.363  11.345  1.00  0.00     0.000 C 
ENDROOT
BRANCH   1   2
ATOM      2  C   UNL     1      35.662   7.570  11.086  1.00  0.00     0.000 C 
BRANCH   2   3
ATOM      3  C   UNL     1      34.621   7.720  12.206  1.00  0.00     0.000 C 
BRANCH   3   4
ATOM      4  C   UNL     1      33.295   8.321  11.713  1.00  0.00     0.000 C 
BRANCH   4   5
ATOM      5  C   UNL     1      32.117   8.004  12.651  1.00  0.00     0.000 C 
BRANCH   5   6
ATOM      6  C   UNL     1      31.196   6.901  12.099  1.00  0.00     0.000 C 
BRANCH   6   7
ATOM      7  C   UNL     1      31.695   5.458  12.321  1.00  0.00     0.000 C 
BRANCH   7   8
ATOM      8  C   UNL     1      32.595   4.899  11.202  1.00  0.00     0.000 C 
BRANCH   8   9
ATOM      9  C   UNL     1      32.522   3.371  11.009  1.00  0.00     0.000 C 
BRANCH   9  10
ATOM     10  C   UNL     1      33.580   2.564  11.788  1.00  0.00     0.006 C 
BRANCH  10  11
ATOM     11  C   UNL     1      33.074   1.964  13.110  1.00  0.00     0.053 C 
BRANCH  11  12
ATOM     12  C   UNL     1      33.745   2.581  14.299  1.00  0.00     0.041 C 
ATOM     13  O   UNL     1      34.012   1.879  15.310  1.00  0.00    -0.550 OA
ATOM     14  O   UNL     1      34.106   3.922  14.277  1.00  0.00    -0.550 OA
ENDBRANCH  11  12
ENDBRANCH  10  11
ENDBRANCH   9  10
ENDBRANCH   8   9
ENDBRANCH   7   8
ENDBRANCH   6   7
ENDBRANCH   5   6
ENDBRANCH   4   5
ENDBRANCH   3   4
ENDBRANCH   2   3
ENDBRANCH   1   2
BRANCH   1  15
ATOM     15  C   UNL     1      36.877   5.556  10.069  1.00  0.00     0.000 C 
BRANCH  15  16
ATOM     16  C   UNL     1      35.695   4.727   9.531  1.00  0.00     0.000 C 
BRANCH  16  17
ATOM     17  C   UNL     1      35.285   5.036   8.077  1.00  0.00     0.000 C 
BRANCH  17  18
ATOM     18  C   UNL     1      33.928   5.744   7.915  1.00  0.00    -0.000 C 
BRANCH  18  19
ATOM     19  C   UNL     1      33.021   5.068   6.873  1.00  0.00    -0.000 C 
BRANCH  19  20
ATOM     20  C   UNL     1      31.931   4.187   7.511  1.00  0.00    -0.000 C 
BRANCH  20  21
ATOM     21  C   UNL     1      32.045   2.680   7.204  1.00  0.00    -0.000 C 
BRANCH  21  22
ATOM     22  C   UNL     1      31.094   2.160   6.106  1.00  0.00    -0.000 C 
BRANCH  22  23
ATOM     23  C   UNL     1      31.041   3.021   4.832  1.00  0.00    -0.000 C 
BRANCH  23  24
ATOM     24  C   UNL     1      29.607   3.387   4.419  1.00  0.00    -0.000 C 
BRANCH  24  25
ATOM     25  C   UNL     1      28.885   4.136   5.544  1.00  0.00    -0.003 C 
ATOM     26  C   UNL     1      27.586   3.436   5.928  1.00  0.00     0.004 C 
ENDBRANCH  24  25
ENDBRANCH  23  24
ENDBRANCH  22  23
ENDBRANCH  21  22
ENDBRANCH  20  21
ENDBRANCH  19  20
ENDBRANCH  18  19
ENDBRANCH  17  18
ENDBRANCH  16  17
ENDBRANCH  15  16
ENDBRANCH   1  15
TORSDOF 22
ENDMDL
MODEL 7
REMARK VINA RESULT:    -4.536      3.654      7.116
REMARK INTER + INTRA:         -13.583
REMARK INTER:                 -10.592
REMARK INTRA:                  -2.990
REMARK UNBOUND:                -3.213
REMARK SMILES CCCCCCCCCCCCCCCCCCCCCCCC(=O)[O-]
REMARK SMILES IDX 13 1 14 2 15 3 16 4 17 5 18 6 19 7 20 8 21 9 22 10 23 11
REMARK SMILES IDX 24 12 25 13 26 14 12 15 11 16 10 17 9 18 8 19 7 20 6 21 5 22
REMARK SMILES IDX 4 23 3 24 2 25 1 26
REMARK H PARENT
REMARK Flexibility Score: inf
ROOT
ATOM      1  C   UNL     1      37.078   6.325  11.223  1.00  0.00     0.000 C 
ENDROOT
BRANCH   1   2
ATOM      2  C   UNL     1      36.822   5.929   9.762  1.00  0.00     0.000 C 
BRANCH   2   3
ATOM      3  C   UNL     1      36.229   4.515   9.673  1.00  0.00     0.000 C 
BRANCH   3   4
ATOM      4  C   UNL     1      34.811   4.497   9.077  1.00  0.00     0.000 C 
BRANCH   4   5
ATOM      5  C   UNL     1      34.724   5.246   7.735  1.00  0.00     0.000 C 
BRANCH   5   6
ATOM      6  C   UNL     1      33.283   5.633   7.360  1.00  0.00     0.000 C 
BRANCH   6   7
ATOM      7  C   UNL     1      32.574   4.662   6.391  1.00  0.00     0.000 C 
BRANCH   7   8
ATOM      8  C   UNL     1      31.950   3.419   7.053  1.00  0.00     0.000 C 
BRANCH   8   9
ATOM      9  C   UNL     1      30.546   3.043   6.541  1.00  0.00     0.000 C 
BRANCH   9  10
ATOM     10  C   UNL     1      29.619   4.239   6.241  1.00  0.00     0.006 C 
BRANCH  10  11
ATOM     11  C   UNL     1      28.647   4.011   5.071  1.00  0.00     0.053 C 
BRANCH  11  12
ATOM     12  C   UNL     1      29.367   3.698   3.796  1.00  0.00     0.041 C 
ATOM     13  O   UNL     1      30.215   4.506   3.333  1.00  0.00    -0.550 OA
ATOM     14  O   UNL     1      29.126   2.499   3.137  1.00  0.00    -0.550 OA
ENDBRANCH  11  12
ENDBRANCH  10  11
ENDBRANCH   9  10
ENDBRANCH   8   9
ENDBRANCH   7   8
ENDBRANCH   6   7
ENDBRANCH   5   6
ENDBRANCH   4   5
ENDBRANCH   3   4
ENDBRANCH   2   3
ENDBRANCH   1   2
BRANCH   1  15
ATOM     15  C   UNL     1      35.847   6.961  11.895  1.00  0.00     0.000 C 
BRANCH  15  16
ATOM     16  C   UNL     1      35.011   7.878  10.983  1.00  0.00     0.000 C 
BRANCH  16  17
ATOM     17  C   UNL     1      33.551   7.433  10.766  1.00  0.00     0.000 C 
BRANCH  17  18
ATOM     18  C   UNL     1      32.516   8.116  11.678  1.00  0.00    -0.000 C 
BRANCH  18  19
ATOM     19  C   UNL     1      31.792   7.126  12.607  1.00  0.00    -0.000 C 
BRANCH  19  20
ATOM     20  C   UNL     1      32.004   5.657  12.197  1.00  0.00    -0.000 C 
BRANCH  20  21
ATOM     21  C   UNL     1      32.088   4.656  13.367  1.00  0.00    -0.000 C 
BRANCH  21  22
ATOM     22  C   UNL     1      33.513   4.193  13.735  1.00  0.00    -0.000 C 
BRANCH  22  23
ATOM     23  C   UNL     1      33.688   2.671  13.870  1.00  0.00    -0.000 C 
BRANCH  23  24
ATOM     24  C   UNL     1      32.886   1.883  12.824  1.00  0.00    -0.000 C 
BRANCH  24  25
ATOM     25  C   UNL     1      33.585   1.912  11.460  1.00  0.00    -0.003 C 
ATOM     26  C   UNL     1      32.571   1.941  10.321  1.00  0.00     0.004 C 
ENDBRANCH  24  25
ENDBRANCH  23  24
ENDBRANCH  22  23
ENDBRANCH  21  22
ENDBRANCH  20  21
ENDBRANCH  19  20
ENDBRANCH  18  19
ENDBRANCH  17  18
ENDBRANCH  16  17
ENDBRANCH  15  16
ENDBRANCH   1  15
TORSDOF 22
ENDMDL
MODEL 8
REMARK VINA RESULT:    -4.510      3.365      7.062
REMARK INTER + INTRA:         -13.524
REMARK INTER:                 -10.163
REMARK INTRA:                  -3.361
REMARK UNBOUND:                -3.213
REMARK SMILES CCCCCCCCCCCCCCCCCCCCCCCC(=O)[O-]
REMARK SMILES IDX 13 1 14 2 15 3 16 4 17 5 18 6 19 7 20 8 21 9 22 10 23 11
REMARK SMILES IDX 24 12 25 13 26 14 12 15 11 16 10 17 9 18 8 19 7 20 6 21 5 22
REMARK SMILES IDX 4 23 3 24 2 25 1 26
REMARK H PARENT
REMARK Flexibility Score: inf
ROOT
ATOM      1  C   UNL     1      35.746   6.305  13.338  1.00  0.00     0.000 C 
ENDROOT
BRANCH   1   2
ATOM      2  C   UNL     1      36.334   6.307  11.920  1.00  0.00     0.000 C 
BRANCH   2   3
ATOM      3  C   UNL     1      35.697   7.411  11.064  1.00  0.00     0.000 C 
BRANCH   3   4
ATOM      4  C   UNL     1      35.285   6.921   9.665  1.00  0.00     0.000 C 
BRANCH   4   5
ATOM      5  C   UNL     1      35.662   5.449   9.420  1.00  0.00     0.000 C 
BRANCH   5   6
ATOM      6  C   UNL     1      34.844   4.805   8.286  1.00  0.00     0.000 C 
BRANCH   6   7
ATOM      7  C   UNL     1      33.793   5.725   7.630  1.00  0.00     0.000 C 
BRANCH   7   8
ATOM      8  C   UNL     1      32.821   5.021   6.664  1.00  0.00     0.000 C 
BRANCH   8   9
ATOM      9  C   UNL     1      31.801   4.081   7.337  1.00  0.00     0.000 C 
BRANCH   9  10
ATOM     10  C   UNL     1      30.803   3.405   6.376  1.00  0.00     0.006 C 
BRANCH  10  11
ATOM     11  C   UNL     1      31.337   3.196   4.949  1.00  0.00     0.053 C 
BRANCH  11  12
ATOM     12  C   UNL     1      30.635   4.067   3.954  1.00  0.00     0.041 C 
ATOM     13  O   UNL     1      29.499   3.742   3.519  1.00  0.00    -0.550 OA
ATOM     14  O   UNL     1      31.220   5.254   3.532  1.00  0.00    -0.550 OA
ENDBRANCH  11  12
ENDBRANCH  10  11
ENDBRANCH   9  10
ENDBRANCH   8   9
ENDBRANCH   7   8
ENDBRANCH   6   7
ENDBRANCH   5   6
ENDBRANCH   4   5
ENDBRANCH   3   4
ENDBRANCH   2   3
ENDBRANCH   1   2
BRANCH   1  15
ATOM     15  C   UNL     1      34.638   5.252  13.525  1.00  0.00     0.000 C 
BRANCH  15  16
ATOM     16  C   UNL     1      34.748   4.415  14.814  1.00  0.00     0.000 C 
BRANCH  16  17
ATOM     17  C   UNL     1      34.050   3.041  14.765  1.00  0.00     0.000 C 
BRANCH  17  18
ATOM     18  C   UNL     1      32.947   2.904  13.700  1.00  0.00    -0.000 C 
BRANCH  18  19
ATOM     19  C   UNL     1      33.350   1.983  12.536  1.00  0.00    -0.000 C 
BRANCH  19  20
ATOM     20  C   UNL     1      33.574   2.749  11.219  1.00  0.00    -0.000 C 
BRANCH  20  21
ATOM     21  C   UNL     1      32.364   3.567  10.723  1.00  0.00    -0.000 C 
BRANCH  21  22
ATOM     22  C   UNL     1      32.426   5.078  11.024  1.00  0.00    -0.000 C 
BRANCH  22  23
ATOM     23  C   UNL     1      31.336   5.596  11.980  1.00  0.00    -0.000 C 
BRANCH  23  24
ATOM     24  C   UNL     1      31.720   6.916  12.663  1.00  0.00    -0.000 C 
BRANCH  24  25
ATOM     25  C   UNL     1      32.221   7.940  11.638  1.00  0.00    -0.003 C 
ATOM     26  C   UNL     1      32.414   9.311  12.277  1.00  0.00     0.004 C 
ENDBRANCH  24  25
ENDBRANCH  23  24
ENDBRANCH  22  23
ENDBRANCH  21  22
ENDBRANCH  20  21
ENDBRANCH  19  20
ENDBRANCH  18  19
ENDBRANCH  17  18
ENDBRANCH  16  17
ENDBRANCH  15  16
ENDBRANCH   1  15
TORSDOF 22
ENDMDL
MODEL 9
REMARK VINA RESULT:    -4.418      3.340      6.675
REMARK INTER + INTRA:         -13.313
REMARK INTER:                 -10.365
REMARK INTRA:                  -2.948
REMARK UNBOUND:                -3.213
REMARK SMILES CCCCCCCCCCCCCCCCCCCCCCCC(=O)[O-]
REMARK SMILES IDX 13 1 14 2 15 3 16 4 17 5 18 6 19 7 20 8 21 9 22 10 23 11
REMARK SMILES IDX 24 12 25 13 26 14 12 15 11 16 10 17 9 18 8 19 7 20 6 21 5 22
REMARK SMILES IDX 4 23 3 24 2 25 1 26
REMARK H PARENT
REMARK Flexibility Score: inf
ROOT
ATOM      1  C   UNL     1      33.671   3.239  10.656  1.00  0.00     0.000 C 
ENDROOT
BRANCH   1   2
ATOM      2  C   UNL     1      33.248   2.612  11.993  1.00  0.00     0.000 C 
BRANCH   2   3
ATOM      3  C   UNL     1      32.753   3.688  12.971  1.00  0.00     0.000 C 
BRANCH   3   4
ATOM      4  C   UNL     1      33.889   4.315  13.797  1.00  0.00     0.000 C 
BRANCH   4   5
ATOM      5  C   UNL     1      34.222   5.749  13.352  1.00  0.00     0.000 C 
BRANCH   5   6
ATOM      6  C   UNL     1      32.974   6.553  12.946  1.00  0.00     0.000 C 
BRANCH   6   7
ATOM      7  C   UNL     1      33.247   7.784  12.057  1.00  0.00     0.000 C 
BRANCH   7   8
ATOM      8  C   UNL     1      34.637   7.815  11.392  1.00  0.00     0.000 C 
BRANCH   8   9
ATOM      9  C   UNL     1      34.713   7.138  10.010  1.00  0.00     0.000 C 
BRANCH   9  10
ATOM     10  C   UNL     1      35.883   6.149   9.830  1.00  0.00     0.006 C 
BRANCH  10  11
ATOM     11  C   UNL     1      36.827   6.055  11.039  1.00  0.00     0.053 C 
BRANCH  11  12
ATOM     12  C   UNL     1      38.142   6.725  10.778  1.00  0.00     0.041 C 
ATOM     13  O   UNL     1      38.393   7.203   9.641  1.00  0.00    -0.550 OA
ATOM     14  O   UNL     1      39.075   6.849  11.800  1.00  0.00    -0.550 OA
ENDBRANCH  11  12
ENDBRANCH  10  11
ENDBRANCH   9  10
ENDBRANCH   8   9
ENDBRANCH   7   8
ENDBRANCH   6   7
ENDBRANCH   5   6
ENDBRANCH   4   5
ENDBRANCH   3   4
ENDBRANCH   2   3
ENDBRANCH   1   2
BRANCH   1  15
ATOM     15  C   UNL     1      32.515   3.965   9.945  1.00  0.00     0.000 C 
BRANCH  15  16
ATOM     16  C   UNL     1      32.707   4.163   8.429  1.00  0.00     0.000 C 
BRANCH  16  17
ATOM     17  C   UNL     1      32.228   2.992   7.548  1.00  0.00     0.000 C 
BRANCH  17  18
ATOM     18  C   UNL     1      31.041   3.313   6.622  1.00  0.00    -0.000 C 
BRANCH  18  19
ATOM     19  C   UNL     1      31.430   3.335   5.135  1.00  0.00    -0.000 C 
BRANCH  19  20
ATOM     20  C   UNL     1      31.359   4.744   4.519  1.00  0.00    -0.000 C 
BRANCH  20  21
ATOM     21  C   UNL     1      30.466   4.868   3.268  1.00  0.00    -0.000 C 
BRANCH  21  22
ATOM     22  C   UNL     1      29.533   3.667   3.005  1.00  0.00    -0.000 C 
BRANCH  22  23
ATOM     23  C   UNL     1      28.159   3.750   3.691  1.00  0.00    -0.000 C 
BRANCH  23  24
ATOM     24  C   UNL     1      27.858   2.530   4.574  1.00  0.00    -0.000 C 
BRANCH  24  25
ATOM     25  C   UNL     1      27.280   2.959   5.927  1.00  0.00    -0.003 C 
ATOM     26  C   UNL     1      27.590   4.424   6.220  1.00  0.00     0.004 C 
ENDBRANCH  24  25
ENDBRANCH  23  24
ENDBRANCH  22  23
ENDBRANCH  21  22
ENDBRANCH  20  21
ENDBRANCH  19  20
ENDBRANCH  18  19
ENDBRANCH  17  18
ENDBRANCH  16  17
ENDBRANCH  15  16
ENDBRANCH   1  15
TORSDOF 22
ENDMDL
