MODEL 1
REMARK VINA RESULT:    -4.731      0.000      0.000
REMARK INTER + INTRA:         -14.259
REMARK INTER:                 -10.816
REMARK INTRA:                  -3.443
REMARK UNBOUND:                -3.443
REMARK SMILES CCCCCCCCCCCCCCCCCCCCCCCC(=O)[O-]
REMARK SMILES IDX 13 1 14 2 15 3 16 4 17 5 18 6 19 7 20 8 21 9 22 10 23 11
REMARK SMILES IDX 24 12 25 13 26 14 12 15 11 16 10 17 9 18 8 19 7 20 6 21 5 22
REMARK SMILES IDX 4 23 3 24 2 25 1 26
REMARK H PARENT
REMARK Flexibility Score: inf
ROOT
ATOM      1  C   UNL     1      -5.064   6.867  15.757  1.00  0.00     0.000 C 
ENDROOT
BRANCH   1   2
ATOM      2  C   UNL     1      -4.725   5.952  16.947  1.00  0.00     0.000 C 
BRANCH   2   3
ATOM      3  C   UNL     1      -5.520   4.636  16.939  1.00  0.00     0.000 C 
BRANCH   3   4
ATOM      4  C   UNL     1      -4.892   3.579  16.016  1.00  0.00     0.000 C 
BRANCH   4   5
ATOM      5  C   UNL     1      -3.404   3.854  15.733  1.00  0.00     0.000 C 
BRANCH   5   6
ATOM      6  C   UNL     1      -2.465   2.973  16.574  1.00  0.00     0.000 C 
BRANCH   6   7
ATOM      7  C   UNL     1      -1.061   3.588  16.765  1.00  0.00     0.000 C 
BRANCH   7   8
ATOM      8  C   UNL     1      -1.061   5.115  16.571  1.00  0.00     0.000 C 
BRANCH   8   9
ATOM      9  C   UNL     1       0.084   5.807  17.324  1.00  0.00     0.000 C 
BRANCH   9  10
ATOM     10  C   UNL     1      -0.222   6.010  18.817  1.00  0.00     0.006 C 
BRANCH  10  11
ATOM     11  C   UNL     1       0.525   7.214  19.402  1.00  0.00     0.053 C 
BRANCH  11  12
ATOM     12  C   UNL     1       0.664   7.111  20.891  1.00  0.00     0.041 C 
ATOM     13  O   UNL     1       1.761   7.385  21.445  1.00  0.00    -0.550 OA
ATOM     14  O   UNL     1      -0.426   6.746  21.669  1.00  0.00    -0.550 OA
ENDBRANCH  11  12
ENDBRANCH  10  11
ENDBRANCH   9  10
ENDBRANCH   8   9
ENDBRANCH   7   8
ENDBRANCH   6   7
ENDBRANCH   5   6
ENDBRANCH   4   5
ENDBRANCH   3   4
ENDBRANCH   2   3
ENDBRANCH   1   2
BRANCH   1  15
ATOM     15  C   UNL     1      -6.221   7.853  16.002  1.00  0.00     0.000 C 
BRANCH  15  16
ATOM     16  C   UNL     1      -7.448   7.685  15.085  1.00  0.00     0.000 C 
BRANCH  16  17
ATOM     17  C   UNL     1      -8.373   6.510  15.466  1.00  0.00     0.000 C 
BRANCH  17  18
ATOM     18  C   UNL     1      -8.246   5.306  14.514  1.00  0.00    -0.000 C 
BRANCH  18  19
ATOM     19  C   UNL     1      -7.659   5.689  13.148  1.00  0.00    -0.000 C 
BRANCH  19  20
ATOM     20  C   UNL     1      -6.343   4.952  12.840  1.00  0.00    -0.000 C 
BRANCH  20  21
ATOM     21  C   UNL     1      -5.290   5.878  12.209  1.00  0.00    -0.000 C 
BRANCH  21  22
ATOM     22  C   UNL     1      -5.838   7.291  11.937  1.00  0.00    -0.000 C 
BRANCH  22  23
ATOM     23  C   UNL     1      -4.858   8.391  12.399  1.00  0.00    -0.000 C 
BRANCH  23  24
ATOM     24  C   UNL     1      -3.414   7.889  12.568  1.00  0.00    -0.000 C 
BRANCH  24  25
ATOM     25  C   UNL     1      -2.620   8.697  13.603  1.00  0.00    -0.003 C 
ATOM     26  C   UNL     1      -1.358   9.294  12.986  1.00  0.00     0.004 C 
ENDBRANCH  24  25
ENDBRANCH  23  24
ENDBRANCH  22  23
ENDBRANCH  21  22
ENDBRANCH  20  21
ENDBRANCH  19  20
ENDBRANCH  18  19
ENDBRANCH  17  18
ENDBRANCH  16  17
ENDBRANCH  15  16
ENDBRANCH   1  15
TORSDOF 22
ENDMDL
MODEL 2
REMARK VINA RESULT:    -4.671      1.619      2.705
REMARK INTER + INTRA:         -14.121
REMARK INTER:                 -10.241
REMARK INTRA:                  -3.880
REMARK UNBOUND:                -3.443
REMARK SMILES CCCCCCCCCCCCCCCCCCCCCCCC(=O)[O-]
REMARK SMILES IDX 13 1 14 2 15 3 16 4 17 5 18 6 19 7 20 8 21 9 22 10 23 11
REMARK SMILES IDX 24 12 25 13 26 14 12 15 11 16 10 17 9 18 8 19 7 20 6 21 5 22
REMARK SMILES IDX 4 23 3 24 2 25 1 26
REMARK H PARENT
REMARK Flexibility Score: inf
ROOT
ATOM      1  C   UNL     1      -6.047   8.109  16.103  1.00  0.00     0.000 C 
ENDROOT
BRANCH   1   2
ATOM      2  C   UNL     1      -6.556   7.612  17.467  1.00  0.00     0.000 C 
BRANCH   2   3
ATOM      3  C   UNL     1      -5.964   6.251  17.870  1.00  0.00     0.000 C 
BRANCH   3   4
ATOM      4  C   UNL     1      -4.774   5.846  16.986  1.00  0.00     0.000 C 
BRANCH   4   5
ATOM      5  C   UNL     1      -4.796   4.351  16.620  1.00  0.00     0.000 C 
BRANCH   5   6
ATOM      6  C   UNL     1      -3.510   3.892  15.911  1.00  0.00     0.000 C 
BRANCH   6   7
ATOM      7  C   UNL     1      -2.629   5.065  15.426  1.00  0.00     0.000 C 
BRANCH   7   8
ATOM      8  C   UNL     1      -1.141   4.851  15.754  1.00  0.00     0.000 C 
BRANCH   8   9
ATOM      9  C   UNL     1      -0.858   4.883  17.264  1.00  0.00     0.000 C 
BRANCH   9  10
ATOM     10  C   UNL     1       0.171   5.957  17.654  1.00  0.00     0.006 C 
BRANCH  10  11
ATOM     11  C   UNL     1       0.016   6.404  19.112  1.00  0.00     0.053 C 
BRANCH  11  12
ATOM     12  C   UNL     1       0.762   7.675  19.386  1.00  0.00     0.041 C 
ATOM     13  O   UNL     1       0.796   8.588  18.520  1.00  0.00    -0.550 OA
ATOM     14  O   UNL     1       1.391   7.864  20.609  1.00  0.00    -0.550 OA
ENDBRANCH  11  12
ENDBRANCH  10  11
ENDBRANCH   9  10
ENDBRANCH   8   9
ENDBRANCH   7   8
ENDBRANCH   6   7
ENDBRANCH   5   6
ENDBRANCH   4   5
ENDBRANCH   3   4
ENDBRANCH   2   3
ENDBRANCH   1   2
BRANCH   1  15
ATOM     15  C   UNL     1      -7.068   8.019  14.953  1.00  0.00     0.000 C 
BRANCH  15  16
ATOM     16  C   UNL     1      -8.449   7.447  15.329  1.00  0.00     0.000 C 
BRANCH  16  17
ATOM     17  C   UNL     1      -8.773   6.085  14.681  1.00  0.00     0.000 C 
BRANCH  17  18
ATOM     18  C   UNL     1      -7.553   5.148  14.599  1.00  0.00    -0.000 C 
BRANCH  18  19
ATOM     19  C   UNL     1      -7.384   4.512  13.212  1.00  0.00    -0.000 C 
BRANCH  19  20
ATOM     20  C   UNL     1      -5.936   4.591  12.696  1.00  0.00    -0.000 C 
BRANCH  20  21
ATOM     21  C   UNL     1      -5.312   5.977  12.921  1.00  0.00    -0.000 C 
BRANCH  21  22
ATOM     22  C   UNL     1      -4.942   6.677  11.601  1.00  0.00    -0.000 C 
BRANCH  22  23
ATOM     23  C   UNL     1      -6.191   7.047  10.772  1.00  0.00    -0.000 C 
BRANCH  23  24
ATOM     24  C   UNL     1      -6.956   8.259  11.329  1.00  0.00    -0.000 C 
BRANCH  24  25
ATOM     25  C   UNL     1      -8.455   7.986  11.508  1.00  0.00    -0.003 C 
ATOM     26  C   UNL     1      -8.877   6.722  10.764  1.00  0.00     0.004 C 
ENDBRANCH  24  25
ENDBRANCH  23  24
ENDBRANCH  22  23
ENDBRANCH  21  22
ENDBRANCH  20  21
ENDBRANCH  19  20
ENDBRANCH  18  19
ENDBRANCH  17  18
ENDBRANCH  16  17
ENDBRANCH  15  16
ENDBRANCH   1  15
TORSDOF 22
ENDMDL
MODEL 3
REMARK VINA RESULT:    -4.664      1.363      2.778
REMARK INTER + INTRA:         -14.105
REMARK INTER:                 -10.705
REMARK INTRA:                  -3.400
REMARK UNBOUND:                -3.443
REMARK SMILES CCCCCCCCCCCCCCCCCCCCCCCC(=O)[O-]
REMARK SMILES IDX 13 1 14 2 15 3 16 4 17 5 18 6 19 7 20 8 21 9 22 10 23 11
REMARK SMILES IDX 24 12 25 13 26 14 12 15 11 16 10 17 9 18 8 19 7 20 6 21 5 22
REMARK SMILES IDX 4 23 3 24 2 25 1 26
REMARK H PARENT
REMARK Flexibility Score: inf
ROOT
ATOM      1  C   UNL     1      -4.833   6.073  16.698  1.00  0.00     0.000 C 
ENDROOT
BRANCH   1   2
ATOM      2  C   UNL     1      -5.633   4.759  16.726  1.00  0.00     0.000 C 
BRANCH   2   3
ATOM      3  C   UNL     1      -4.921   3.605  16.000  1.00  0.00     0.000 C 
BRANCH   3   4
ATOM      4  C   UNL     1      -3.513   3.343  16.557  1.00  0.00     0.000 C 
BRANCH   4   5
ATOM      5  C   UNL     1      -2.439   3.320  15.455  1.00  0.00     0.000 C 
BRANCH   5   6
ATOM      6  C   UNL     1      -1.344   4.380  15.669  1.00  0.00     0.000 C 
BRANCH   6   7
ATOM      7  C   UNL     1      -0.965   4.576  17.153  1.00  0.00     0.000 C 
BRANCH   7   8
ATOM      8  C   UNL     1      -0.014   5.768  17.359  1.00  0.00     0.000 C 
BRANCH   8   9
ATOM      9  C   UNL     1       0.092   6.192  18.832  1.00  0.00     0.000 C 
BRANCH   9  10
ATOM     10  C   UNL     1       0.671   7.607  19.003  1.00  0.00     0.006 C 
BRANCH  10  11
ATOM     11  C   UNL     1       0.366   8.191  20.388  1.00  0.00     0.053 C 
BRANCH  11  12
ATOM     12  C   UNL     1       0.615   7.194  21.479  1.00  0.00     0.041 C 
ATOM     13  O   UNL     1       1.793   6.901  21.813  1.00  0.00    -0.550 OA
ATOM     14  O   UNL     1      -0.453   6.613  22.148  1.00  0.00    -0.550 OA
ENDBRANCH  11  12
ENDBRANCH  10  11
ENDBRANCH   9  10
ENDBRANCH   8   9
ENDBRANCH   7   8
ENDBRANCH   6   7
ENDBRANCH   5   6
ENDBRANCH   4   5
ENDBRANCH   3   4
ENDBRANCH   2   3
ENDBRANCH   1   2
BRANCH   1  15
ATOM     15  C   UNL     1      -4.311   6.488  15.310  1.00  0.00     0.000 C 
BRANCH  15  16
ATOM     16  C   UNL     1      -4.857   7.820  14.760  1.00  0.00     0.000 C 
BRANCH  16  17
ATOM     17  C   UNL     1      -6.212   8.249  15.360  1.00  0.00     0.000 C 
BRANCH  17  18
ATOM     18  C   UNL     1      -7.221   8.726  14.298  1.00  0.00    -0.000 C 
BRANCH  18  19
ATOM     19  C   UNL     1      -8.575   8.010  14.401  1.00  0.00    -0.000 C 
BRANCH  19  20
ATOM     20  C   UNL     1      -8.529   6.786  15.334  1.00  0.00    -0.000 C 
BRANCH  20  21
ATOM     21  C   UNL     1      -8.740   5.467  14.575  1.00  0.00    -0.000 C 
BRANCH  21  22
ATOM     22  C   UNL     1      -8.099   5.486  13.174  1.00  0.00    -0.000 C 
BRANCH  22  23
ATOM     23  C   UNL     1      -6.752   4.733  13.143  1.00  0.00    -0.000 C 
BRANCH  23  24
ATOM     24  C   UNL     1      -5.778   5.269  12.080  1.00  0.00    -0.000 C 
BRANCH  24  25
ATOM     25  C   UNL     1      -6.194   6.638  11.527  1.00  0.00    -0.003 C 
ATOM     26  C   UNL     1      -6.280   6.614  10.004  1.00  0.00     0.004 C 
ENDBRANCH  24  25
ENDBRANCH  23  24
ENDBRANCH  22  23
ENDBRANCH  21  22
ENDBRANCH  20  21
ENDBRANCH  19  20
ENDBRANCH  18  19
ENDBRANCH  17  18
ENDBRANCH  16  17
ENDBRANCH  15  16
ENDBRANCH   1  15
TORSDOF 22
ENDMDL
MODEL 4
REMARK VINA RESULT:    -4.562      2.836      6.715
REMARK INTER + INTRA:         -13.872
REMARK INTER:                 -11.133
REMARK INTRA:                  -2.739
REMARK UNBOUND:                -3.443
REMARK SMILES CCCCCCCCCCCCCCCCCCCCCCCC(=O)[O-]
REMARK SMILES IDX 13 1 14 2 15 3 16 4 17 5 18 6 19 7 20 8 21 9 22 10 23 11
REMARK SMILES IDX 24 12 25 13 26 14 12 15 11 16 10 17 9 18 8 19 7 20 6 21 5 22
REMARK SMILES IDX 4 23 3 24 2 25 1 26
REMARK H PARENT
REMARK Flexibility Score: inf
ROOT
ATOM      1  C   UNL     1       0.768   7.428  19.829  1.00  0.00     0.000 C 
ENDROOT
BRANCH   1   2
ATOM      2  C   UNL     1      -0.054   6.253  19.271  1.00  0.00     0.000 C 
BRANCH   2   3
ATOM      3  C   UNL     1       0.086   6.091  17.749  1.00  0.00     0.000 C 
BRANCH   3   4
ATOM      4  C   UNL     1      -0.647   4.847  17.223  1.00  0.00     0.000 C 
BRANCH   4   5
ATOM      5  C   UNL     1      -1.490   5.145  15.971  1.00  0.00     0.000 C 
BRANCH   5   6
ATOM      6  C   UNL     1      -2.221   3.902  15.434  1.00  0.00     0.000 C 
BRANCH   6   7
ATOM      7  C   UNL     1      -2.875   3.052  16.544  1.00  0.00     0.000 C 
BRANCH   7   8
ATOM      8  C   UNL     1      -4.412   3.139  16.516  1.00  0.00     0.000 C 
BRANCH   8   9
ATOM      9  C   UNL     1      -4.930   4.108  15.442  1.00  0.00     0.000 C 
BRANCH   9  10
ATOM     10  C   UNL     1      -6.128   4.944  15.923  1.00  0.00     0.006 C 
BRANCH  10  11
ATOM     11  C   UNL     1      -5.755   5.874  17.084  1.00  0.00     0.053 C 
BRANCH  11  12
ATOM     12  C   UNL     1      -6.591   7.118  17.090  1.00  0.00     0.041 C 
ATOM     13  O   UNL     1      -6.681   7.816  18.133  1.00  0.00    -0.550 OA
ATOM     14  O   UNL     1      -7.243   7.523  15.933  1.00  0.00    -0.550 OA
ENDBRANCH  11  12
ENDBRANCH  10  11
ENDBRANCH   9  10
ENDBRANCH   8   9
ENDBRANCH   7   8
ENDBRANCH   6   7
ENDBRANCH   5   6
ENDBRANCH   4   5
ENDBRANCH   3   4
ENDBRANCH   2   3
ENDBRANCH   1   2
BRANCH   1  15
ATOM     15  C   UNL     1       0.746   8.706  18.970  1.00  0.00     0.000 C 
BRANCH  15  16
ATOM     16  C   UNL     1       2.110   9.169  18.424  1.00  0.00     0.000 C 
BRANCH  16  17
ATOM     17  C   UNL     1       2.318   8.904  16.918  1.00  0.00     0.000 C 
BRANCH  17  18
ATOM     18  C   UNL     1       1.060   9.183  16.075  1.00  0.00    -0.000 C 
BRANCH  18  19
ATOM     19  C   UNL     1       0.913  10.666  15.701  1.00  0.00    -0.000 C 
BRANCH  19  20
ATOM     20  C   UNL     1      -0.084  10.891  14.550  1.00  0.00    -0.000 C 
BRANCH  20  21
ATOM     21  C   UNL     1      -0.597   9.568  13.957  1.00  0.00    -0.000 C 
BRANCH  21  22
ATOM     22  C   UNL     1      -1.375   9.775  12.645  1.00  0.00    -0.000 C 
BRANCH  22  23
ATOM     23  C   UNL     1      -2.528   8.760  12.489  1.00  0.00    -0.000 C 
BRANCH  23  24
ATOM     24  C   UNL     1      -2.680   7.818  13.696  1.00  0.00    -0.000 C 
BRANCH  24  25
ATOM     25  C   UNL     1      -4.063   7.909  14.352  1.00  0.00    -0.003 C 
ATOM     26  C   UNL     1      -4.928   8.966  13.670  1.00  0.00     0.004 C 
ENDBRANCH  24  25
ENDBRANCH  23  24
ENDBRANCH  22  23
ENDBRANCH  21  22
ENDBRANCH  20  21
ENDBRANCH  19  20
ENDBRANCH  18  19
ENDBRANCH  17  18
ENDBRANCH  16  17
ENDBRANCH  15  16
ENDBRANCH   1  15
TORSDOF 22
ENDMDL
MODEL 5
REMARK VINA RESULT:    -4.472      2.459      6.421
REMARK INTER + INTRA:         -13.667
REMARK INTER:                 -10.736
REMARK INTRA:                  -2.931
REMARK UNBOUND:                -3.443
REMARK SMILES CCCCCCCCCCCCCCCCCCCCCCCC(=O)[O-]
REMARK SMILES IDX 13 1 14 2 15 3 16 4 17 5 18 6 19 7 20 8 21 9 22 10 23 11
REMARK SMILES IDX 24 12 25 13 26 14 12 15 11 16 10 17 9 18 8 19 7 20 6 21 5 22
REMARK SMILES IDX 4 23 3 24 2 25 1 26
REMARK H PARENT
REMARK Flexibility Score: inf
ROOT
ATOM      1  C   UNL     1      -5.942   7.731  16.172  1.00  0.00     0.000 C 
ENDROOT
BRANCH   1   2
ATOM      2  C   UNL     1      -7.196   7.765  15.282  1.00  0.00     0.000 C 
BRANCH   2   3
ATOM      3  C   UNL     1      -8.403   7.053  15.917  1.00  0.00     0.000 C 
BRANCH   3   4
ATOM      4  C   UNL     1      -9.023   6.005  14.980  1.00  0.00     0.000 C 
BRANCH   4   5
ATOM      5  C   UNL     1      -8.262   5.882  13.648  1.00  0.00     0.000 C 
BRANCH   5   6
ATOM      6  C   UNL     1      -7.244   4.729  13.647  1.00  0.00     0.000 C 
BRANCH   6   7
ATOM      7  C   UNL     1      -6.389   4.670  12.362  1.00  0.00     0.000 C 
BRANCH   7   8
ATOM      8  C   UNL     1      -6.377   6.012  11.609  1.00  0.00     0.000 C 
BRANCH   8   9
ATOM      9  C   UNL     1      -4.964   6.597  11.465  1.00  0.00     0.000 C 
BRANCH   9  10
ATOM     10  C   UNL     1      -4.752   7.859  12.318  1.00  0.00     0.006 C 
BRANCH  10  11
ATOM     11  C   UNL     1      -3.388   8.510  12.057  1.00  0.00     0.053 C 
BRANCH  11  12
ATOM     12  C   UNL     1      -2.550   8.559  13.299  1.00  0.00     0.041 C 
ATOM     13  O   UNL     1      -2.368   7.517  13.981  1.00  0.00    -0.550 OA
ATOM     14  O   UNL     1      -1.944   9.747  13.684  1.00  0.00    -0.550 OA
ENDBRANCH  11  12
ENDBRANCH  10  11
ENDBRANCH   9  10
ENDBRANCH   8   9
ENDBRANCH   7   8
ENDBRANCH   6   7
ENDBRANCH   5   6
ENDBRANCH   4   5
ENDBRANCH   3   4
ENDBRANCH   2   3
ENDBRANCH   1   2
BRANCH   1  15
ATOM     15  C   UNL     1      -5.189   6.387  16.187  1.00  0.00     0.000 C 
BRANCH  15  16
ATOM     16  C   UNL     1      -5.594   5.406  17.305  1.00  0.00     0.000 C 
BRANCH  16  17
ATOM     17  C   UNL     1      -5.415   3.917  16.942  1.00  0.00     0.000 C 
BRANCH  17  18
ATOM     18  C   UNL     1      -4.431   3.691  15.780  1.00  0.00    -0.000 C 
BRANCH  18  19
ATOM     19  C   UNL     1      -3.038   3.256  16.258  1.00  0.00    -0.000 C 
BRANCH  19  20
ATOM     20  C   UNL     1      -1.907   4.093  15.632  1.00  0.00    -0.000 C 
BRANCH  20  21
ATOM     21  C   UNL     1      -1.524   5.299  16.505  1.00  0.00    -0.000 C 
BRANCH  21  22
ATOM     22  C   UNL     1      -0.345   4.991  17.447  1.00  0.00    -0.000 C 
BRANCH  22  23
ATOM     23  C   UNL     1       0.289   6.277  18.020  1.00  0.00    -0.000 C 
BRANCH  23  24
ATOM     24  C   UNL     1      -0.079   6.536  19.491  1.00  0.00    -0.000 C 
BRANCH  24  25
ATOM     25  C   UNL     1       0.526   7.836  20.036  1.00  0.00    -0.003 C 
ATOM     26  C   UNL     1       1.135   8.673  18.915  1.00  0.00     0.004 C 
ENDBRANCH  24  25
ENDBRANCH  23  24
ENDBRANCH  22  23
ENDBRANCH  21  22
ENDBRANCH  20  21
ENDBRANCH  19  20
ENDBRANCH  18  19
ENDBRANCH  17  18
ENDBRANCH  16  17
ENDBRANCH  15  16
ENDBRANCH   1  15
TORSDOF 22
ENDMDL
MODEL 6
REMARK VINA RESULT:    -4.460      2.255      5.580
REMARK INTER + INTRA:         -13.639
REMARK INTER:                 -10.458
REMARK INTRA:                  -3.181
REMARK UNBOUND:                -3.443
REMARK SMILES CCCCCCCCCCCCCCCCCCCCCCCC(=O)[O-]
REMARK SMILES IDX 13 1 14 2 15 3 16 4 17 5 18 6 19 7 20 8 21 9 22 10 23 11
REMARK SMILES IDX 24 12 25 13 26 14 12 15 11 16 10 17 9 18 8 19 7 20 6 21 5 22
REMARK SMILES IDX 4 23 3 24 2 25 1 26
REMARK H PARENT
REMARK Flexibility Score: inf
ROOT
ATOM      1  C   UNL     1      -6.399   7.632  16.514  1.00  0.00     0.000 C 
ENDROOT
BRANCH   1   2
ATOM      2  C   UNL     1      -7.771   6.954  16.359  1.00  0.00     0.000 C 
BRANCH   2   3
ATOM      3  C   UNL     1      -8.345   7.079  14.938  1.00  0.00     0.000 C 
BRANCH   3   4
ATOM      4  C   UNL     1      -8.921   5.751  14.421  1.00  0.00     0.000 C 
BRANCH   4   5
ATOM      5  C   UNL     1      -7.938   4.998  13.508  1.00  0.00     0.000 C 
BRANCH   5   6
ATOM      6  C   UNL     1      -6.882   5.923  12.878  1.00  0.00     0.000 C 
BRANCH   6   7
ATOM      7  C   UNL     1      -5.446   5.362  12.971  1.00  0.00     0.000 C 
BRANCH   7   8
ATOM      8  C   UNL     1      -5.291   4.344  14.115  1.00  0.00     0.000 C 
BRANCH   8   9
ATOM      9  C   UNL     1      -4.350   4.841  15.224  1.00  0.00     0.000 C 
BRANCH   9  10
ATOM     10  C   UNL     1      -2.984   4.135  15.206  1.00  0.00     0.006 C 
BRANCH  10  11
ATOM     11  C   UNL     1      -1.841   5.081  15.593  1.00  0.00     0.053 C 
BRANCH  11  12
ATOM     12  C   UNL     1      -1.026   4.532  16.726  1.00  0.00     0.041 C 
ATOM     13  O   UNL     1      -1.049   3.300  16.984  1.00  0.00    -0.550 OA
ATOM     14  O   UNL     1      -0.217   5.376  17.474  1.00  0.00    -0.550 OA
ENDBRANCH  11  12
ENDBRANCH  10  11
ENDBRANCH   9  10
ENDBRANCH   8   9
ENDBRANCH   7   8
ENDBRANCH   6   7
ENDBRANCH   5   6
ENDBRANCH   4   5
ENDBRANCH   3   4
ENDBRANCH   2   3
ENDBRANCH   1   2
BRANCH   1  15
ATOM     15  C   UNL     1      -6.024   8.611  15.386  1.00  0.00     0.000 C 
BRANCH  15  16
ATOM     16  C   UNL     1      -4.611   8.440  14.794  1.00  0.00     0.000 C 
BRANCH  16  17
ATOM     17  C   UNL     1      -4.484   8.863  13.315  1.00  0.00     0.000 C 
BRANCH  17  18
ATOM     18  C   UNL     1      -3.184   8.371  12.654  1.00  0.00    -0.000 C 
BRANCH  18  19
ATOM     19  C   UNL     1      -1.967   8.477  13.585  1.00  0.00    -0.000 C 
BRANCH  19  20
ATOM     20  C   UNL     1      -1.468   9.925  13.745  1.00  0.00    -0.000 C 
BRANCH  20  21
ATOM     21  C   UNL     1       0.022   9.989  14.119  1.00  0.00    -0.000 C 
BRANCH  21  22
ATOM     22  C   UNL     1       0.248  10.539  15.540  1.00  0.00    -0.000 C 
BRANCH  22  23
ATOM     23  C   UNL     1       1.749  10.674  15.876  1.00  0.00    -0.000 C 
BRANCH  23  24
ATOM     24  C   UNL     1       2.172   9.865  17.114  1.00  0.00    -0.000 C 
BRANCH  24  25
ATOM     25  C   UNL     1       1.251   8.668  17.387  1.00  0.00    -0.003 C 
ATOM     26  C   UNL     1       1.066   8.446  18.885  1.00  0.00     0.004 C 
ENDBRANCH  24  25
ENDBRANCH  23  24
ENDBRANCH  22  23
ENDBRANCH  21  22
ENDBRANCH  20  21
ENDBRANCH  19  20
ENDBRANCH  18  19
ENDBRANCH  17  18
ENDBRANCH  16  17
ENDBRANCH  15  16
ENDBRANCH   1  15
TORSDOF 22
ENDMDL
MODEL 7
REMARK VINA RESULT:    -4.391      2.885      5.247
REMARK INTER + INTRA:         -13.481
REMARK INTER:                  -8.777
REMARK INTRA:                  -4.704
REMARK UNBOUND:                -3.443
REMARK SMILES CCCCCCCCCCCCCCCCCCCCCCCC(=O)[O-]
REMARK SMILES IDX 13 1 14 2 15 3 16 4 17 5 18 6 19 7 20 8 21 9 22 10 23 11
REMARK SMILES IDX 24 12 25 13 26 14 12 15 11 16 10 17 9 18 8 19 7 20 6 21 5 22
REMARK SMILES IDX 4 23 3 24 2 25 1 26
REMARK H PARENT
REMARK Flexibility Score: inf
ROOT
ATOM      1  C   UNL     1      -6.000   4.972  13.111  1.00  0.00     0.000 C 
ENDROOT
BRANCH   1   2
ATOM      2  C   UNL     1      -7.501   4.757  12.854  1.00  0.00     0.000 C 
BRANCH   2   3
ATOM      3  C   UNL     1      -8.383   5.210  14.030  1.00  0.00     0.000 C 
BRANCH   3   4
ATOM      4  C   UNL     1      -8.640   6.725  14.019  1.00  0.00     0.000 C 
BRANCH   4   5
ATOM      5  C   UNL     1      -8.525   7.352  15.420  1.00  0.00     0.000 C 
BRANCH   5   6
ATOM      6  C   UNL     1      -7.773   6.452  16.416  1.00  0.00     0.000 C 
BRANCH   6   7
ATOM      7  C   UNL     1      -6.420   7.041  16.869  1.00  0.00     0.000 C 
BRANCH   7   8
ATOM      8  C   UNL     1      -5.245   6.090  16.584  1.00  0.00     0.000 C 
BRANCH   8   9
ATOM      9  C   UNL     1      -5.561   4.632  16.952  1.00  0.00     0.000 C 
BRANCH   9  10
ATOM     10  C   UNL     1      -4.631   3.626  16.254  1.00  0.00     0.006 C 
BRANCH  10  11
ATOM     11  C   UNL     1      -3.472   4.320  15.526  1.00  0.00     0.053 C 
BRANCH  11  12
ATOM     12  C   UNL     1      -2.141   3.800  15.980  1.00  0.00     0.041 C 
ATOM     13  O   UNL     1      -2.079   2.814  16.760  1.00  0.00    -0.550 OA
ATOM     14  O   UNL     1      -0.970   4.385  15.516  1.00  0.00    -0.550 OA
ENDBRANCH  11  12
ENDBRANCH  10  11
ENDBRANCH   9  10
ENDBRANCH   8   9
ENDBRANCH   7   8
ENDBRANCH   6   7
ENDBRANCH   5   6
ENDBRANCH   4   5
ENDBRANCH   3   4
ENDBRANCH   2   3
ENDBRANCH   1   2
BRANCH   1  15
ATOM     15  C   UNL     1      -5.377   6.169  12.368  1.00  0.00     0.000 C 
BRANCH  15  16
ATOM     16  C   UNL     1      -4.968   7.365  13.250  1.00  0.00     0.000 C 
BRANCH  16  17
ATOM     17  C   UNL     1      -5.710   8.678  12.926  1.00  0.00     0.000 C 
BRANCH  17  18
ATOM     18  C   UNL     1      -5.876   9.598  14.151  1.00  0.00    -0.000 C 
BRANCH  18  19
ATOM     19  C   UNL     1      -4.626   9.631  15.042  1.00  0.00    -0.000 C 
BRANCH  19  20
ATOM     20  C   UNL     1      -3.856  10.960  14.934  1.00  0.00    -0.000 C 
BRANCH  20  21
ATOM     21  C   UNL     1      -2.932  11.000  13.707  1.00  0.00    -0.000 C 
BRANCH  21  22
ATOM     22  C   UNL     1      -2.136   9.694  13.527  1.00  0.00    -0.000 C 
BRANCH  22  23
ATOM     23  C   UNL     1      -2.011   9.292  12.041  1.00  0.00    -0.000 C 
BRANCH  23  24
ATOM     24  C   UNL     1      -2.607  10.331  11.076  1.00  0.00    -0.000 C 
BRANCH  24  25
ATOM     25  C   UNL     1      -3.452   9.695   9.965  1.00  0.00    -0.003 C 
ATOM     26  C   UNL     1      -3.444   8.173  10.069  1.00  0.00     0.004 C 
ENDBRANCH  24  25
ENDBRANCH  23  24
ENDBRANCH  22  23
ENDBRANCH  21  22
ENDBRANCH  20  21
ENDBRANCH  19  20
ENDBRANCH  18  19
ENDBRANCH  17  18
ENDBRANCH  16  17
ENDBRANCH  15  16
ENDBRANCH   1  15
TORSDOF 22
ENDMDL
MODEL 8
REMARK VINA RESULT:    -4.327      2.822      5.121
REMARK INTER + INTRA:         -13.335
REMARK INTER:                  -8.317
REMARK INTRA:                  -5.018
REMARK UNBOUND:                -3.443
REMARK SMILES CCCCCCCCCCCCCCCCCCCCCCCC(=O)[O-]
REMARK SMILES IDX 13 1 14 2 15 3 16 4 17 5 18 6 19 7 20 8 21 9 22 10 23 11
REMARK SMILES IDX 24 12 25 13 26 14 12 15 11 16 10 17 9 18 8 19 7 20 6 21 5 22
REMARK SMILES IDX 4 23 3 24 2 25 1 26
REMARK H PARENT
REMARK Flexibility Score: inf
ROOT
ATOM      1  C   UNL     1      -5.997   4.938  12.905  1.00  0.00     0.000 C 
ENDROOT
BRANCH   1   2
ATOM      2  C   UNL     1      -7.505   4.911  12.598  1.00  0.00     0.000 C 
BRANCH   2   3
ATOM      3  C   UNL     1      -8.378   5.058  13.855  1.00  0.00     0.000 C 
BRANCH   3   4
ATOM      4  C   UNL     1      -9.226   6.339  13.831  1.00  0.00     0.000 C 
BRANCH   4   5
ATOM      5  C   UNL     1      -8.797   7.350  14.910  1.00  0.00     0.000 C 
BRANCH   5   6
ATOM      6  C   UNL     1      -7.767   6.769  15.895  1.00  0.00     0.000 C 
BRANCH   6   7
ATOM      7  C   UNL     1      -6.613   7.744  16.215  1.00  0.00     0.000 C 
BRANCH   7   8
ATOM      8  C   UNL     1      -5.232   7.126  15.932  1.00  0.00     0.000 C 
BRANCH   8   9
ATOM      9  C   UNL     1      -4.836   6.064  16.969  1.00  0.00     0.000 C 
BRANCH   9  10
ATOM     10  C   UNL     1      -4.374   4.746  16.325  1.00  0.00     0.006 C 
BRANCH  10  11
ATOM     11  C   UNL     1      -3.161   4.946  15.409  1.00  0.00     0.053 C 
BRANCH  11  12
ATOM     12  C   UNL     1      -2.017   4.059  15.800  1.00  0.00     0.041 C 
ATOM     13  O   UNL     1      -2.231   2.871  16.158  1.00  0.00    -0.550 OA
ATOM     14  O   UNL     1      -0.714   4.534  15.737  1.00  0.00    -0.550 OA
ENDBRANCH  11  12
ENDBRANCH  10  11
ENDBRANCH   9  10
ENDBRANCH   8   9
ENDBRANCH   7   8
ENDBRANCH   6   7
ENDBRANCH   5   6
ENDBRANCH   4   5
ENDBRANCH   3   4
ENDBRANCH   2   3
ENDBRANCH   1   2
BRANCH   1  15
ATOM     15  C   UNL     1      -5.230   6.127  12.298  1.00  0.00     0.000 C 
BRANCH  15  16
ATOM     16  C   UNL     1      -5.891   7.508  12.469  1.00  0.00     0.000 C 
BRANCH  16  17
ATOM     17  C   UNL     1      -6.205   8.234  11.144  1.00  0.00     0.000 C 
BRANCH  17  18
ATOM     18  C   UNL     1      -6.707   9.676  11.347  1.00  0.00    -0.000 C 
BRANCH  18  19
ATOM     19  C   UNL     1      -7.826   9.773  12.395  1.00  0.00    -0.000 C 
BRANCH  19  20
ATOM     20  C   UNL     1      -7.438  10.654  13.596  1.00  0.00    -0.000 C 
BRANCH  20  21
ATOM     21  C   UNL     1      -5.977  11.125  13.525  1.00  0.00    -0.000 C 
BRANCH  21  22
ATOM     22  C   UNL     1      -5.171  10.732  14.778  1.00  0.00    -0.000 C 
BRANCH  22  23
ATOM     23  C   UNL     1      -3.722  10.330  14.431  1.00  0.00    -0.000 C 
BRANCH  23  24
ATOM     24  C   UNL     1      -3.425  10.357  12.922  1.00  0.00    -0.000 C 
BRANCH  24  25
ATOM     25  C   UNL     1      -2.641   9.126  12.447  1.00  0.00    -0.003 C 
ATOM     26  C   UNL     1      -2.395   8.153  13.596  1.00  0.00     0.004 C 
ENDBRANCH  24  25
ENDBRANCH  23  24
ENDBRANCH  22  23
ENDBRANCH  21  22
ENDBRANCH  20  21
ENDBRANCH  19  20
ENDBRANCH  18  19
ENDBRANCH  17  18
ENDBRANCH  16  17
ENDBRANCH  15  16
ENDBRANCH   1  15
TORSDOF 22
ENDMDL
MODEL 9
REMARK VINA RESULT:    -4.260      3.050      4.837
REMARK INTER + INTRA:         -13.183
REMARK INTER:                  -8.735
REMARK INTRA:                  -4.449
REMARK UNBOUND:                -3.443
REMARK SMILES CCCCCCCCCCCCCCCCCCCCCCCC(=O)[O-]
REMARK SMILES IDX 13 1 14 2 15 3 16 4 17 5 18 6 19 7 20 8 21 9 22 10 23 11
REMARK SMILES IDX 24 12 25 13 26 14 12 15 11 16 10 17 9 18 8 19 7 20 6 21 5 22
REMARK SMILES IDX 4 23 3 24 2 25 1 26
REMARK H PARENT
REMARK Flexibility Score: inf
ROOT
ATOM      1  C   UNL     1      -5.986   8.536  16.201  1.00  0.00     0.000 C 
ENDROOT
BRANCH   1   2
ATOM      2  C   UNL     1      -5.976   7.106  16.770  1.00  0.00     0.000 C 
BRANCH   2   3
ATOM      3  C   UNL     1      -7.200   6.280  16.342  1.00  0.00     0.000 C 
BRANCH   3   4
ATOM      4  C   UNL     1      -8.250   7.127  15.607  1.00  0.00     0.000 C 
BRANCH   4   5
ATOM      5  C   UNL     1      -9.038   6.313  14.565  1.00  0.00     0.000 C 
BRANCH   5   6
ATOM      6  C   UNL     1      -8.237   5.125  14.005  1.00  0.00     0.000 C 
BRANCH   6   7
ATOM      7  C   UNL     1      -7.563   5.428  12.649  1.00  0.00     0.000 C 
BRANCH   7   8
ATOM      8  C   UNL     1      -6.187   4.751  12.518  1.00  0.00     0.000 C 
BRANCH   8   9
ATOM      9  C   UNL     1      -5.124   5.392  13.424  1.00  0.00     0.000 C 
BRANCH   9  10
ATOM     10  C   UNL     1      -4.486   4.386  14.396  1.00  0.00     0.006 C 
BRANCH  10  11
ATOM     11  C   UNL     1      -3.474   5.053  15.336  1.00  0.00     0.053 C 
BRANCH  11  12
ATOM     12  C   UNL     1      -2.389   4.104  15.747  1.00  0.00     0.041 C 
ATOM     13  O   UNL     1      -1.184   4.375  15.503  1.00  0.00    -0.550 OA
ATOM     14  O   UNL     1      -2.706   2.937  16.429  1.00  0.00    -0.550 OA
ENDBRANCH  11  12
ENDBRANCH  10  11
ENDBRANCH   9  10
ENDBRANCH   8   9
ENDBRANCH   7   8
ENDBRANCH   6   7
ENDBRANCH   5   6
ENDBRANCH   4   5
ENDBRANCH   3   4
ENDBRANCH   2   3
ENDBRANCH   1   2
BRANCH   1  15
ATOM     15  C   UNL     1      -5.133   8.739  14.935  1.00  0.00     0.000 C 
BRANCH  15  16
ATOM     16  C   UNL     1      -5.181  10.149  14.316  1.00  0.00     0.000 C 
BRANCH  16  17
ATOM     17  C   UNL     1      -5.987  10.242  13.003  1.00  0.00     0.000 C 
BRANCH  17  18
ATOM     18  C   UNL     1      -6.807   8.973  12.705  1.00  0.00    -0.000 C 
BRANCH  18  19
ATOM     19  C   UNL     1      -7.173   8.838  11.220  1.00  0.00    -0.000 C 
BRANCH  19  20
ATOM     20  C   UNL     1      -5.935   8.772  10.308  1.00  0.00    -0.000 C 
BRANCH  20  21
ATOM     21  C   UNL     1      -5.285   7.379  10.307  1.00  0.00    -0.000 C 
BRANCH  21  22
ATOM     22  C   UNL     1      -3.749   7.447  10.219  1.00  0.00    -0.000 C 
BRANCH  22  23
ATOM     23  C   UNL     1      -3.187   8.726  10.875  1.00  0.00    -0.000 C 
BRANCH  23  24
ATOM     24  C   UNL     1      -2.621   8.490  12.286  1.00  0.00    -0.000 C 
BRANCH  24  25
ATOM     25  C   UNL     1      -1.860   9.705  12.834  1.00  0.00    -0.003 C 
ATOM     26  C   UNL     1      -0.377   9.629  12.484  1.00  0.00     0.004 C 
ENDBRANCH  24  25
ENDBRANCH  23  24
ENDBRANCH  22  23
ENDBRANCH  21  22
ENDBRANCH  20  21
ENDBRANCH  19  20
ENDBRANCH  18  19
ENDBRANCH  17  18
ENDBRANCH  16  17
ENDBRANCH  15  16
ENDBRANCH   1  15
TORSDOF 22
ENDMDL
