MODEL 1
REMARK VINA RESULT:    -5.197      0.000      0.000
REMARK INTER + INTRA:          -6.476
REMARK INTER:                  -6.260
REMARK INTRA:                  -0.216
REMARK UNBOUND:                -0.216
REMARK SMILES O=c1c(O)c(-c2ccc(O)c(O)c2)oc2cc(O)cc(O)c12
REMARK SMILES IDX 5 1 3 2 2 3 1 4 22 5 20 6 19 7 17 8 16 9 15 10 14 11 6 12
REMARK SMILES IDX 7 13 8 14 9 15 13 16 11 17 10 18 12 20 4 22 21 24 18 26
REMARK H PARENT 10 19 12 21 4 23 21 25 18 27
REMARK Flexibility Score: inf
ROOT
ATOM      1  C   UNL     1      -7.487  30.915  36.507  1.00  0.00     0.180 A 
ATOM      2  C   UNL     1      -6.686  30.857  37.661  1.00  0.00     0.208 A 
ATOM      3  C   UNL     1      -6.471  29.614  38.279  1.00  0.00     0.238 A 
ATOM      4  O   UNL     1      -5.798  29.575  39.342  1.00  0.00    -0.285 OA
ATOM      5  C   UNL     1      -7.045  28.444  37.725  1.00  0.00     0.111 A 
ATOM      6  C   UNL     1      -6.860  27.127  38.245  1.00  0.00     0.134 A 
ATOM      7  C   UNL     1      -7.582  26.061  37.695  1.00  0.00     0.093 A 
ATOM      8  C   UNL     1      -8.430  26.251  36.605  1.00  0.00     0.123 A 
ATOM      9  C   UNL     1      -8.572  27.523  36.051  1.00  0.00     0.094 A 
ATOM     10  C   UNL     1      -7.894  28.614  36.600  1.00  0.00     0.146 A 
ATOM     11  O   UNL     1      -8.065  29.810  36.052  1.00  0.00    -0.452 OA
ENDROOT
BRANCH   1  12
ATOM     12  C   UNL     1      -7.738  32.184  35.786  1.00  0.00     0.025 A 
ATOM     13  C   UNL     1      -8.587  33.146  36.357  1.00  0.00     0.016 A 
ATOM     14  C   UNL     1      -8.855  34.341  35.685  1.00  0.00     0.051 A 
ATOM     15  C   UNL     1      -8.292  34.588  34.428  1.00  0.00     0.157 A 
ATOM     16  C   UNL     1      -7.190  32.425  34.514  1.00  0.00     0.062 A 
ATOM     17  C   UNL     1      -7.459  33.624  33.837  1.00  0.00     0.158 A 
BRANCH  15  18
ATOM     18  O   UNL     1      -8.576  35.791  33.783  1.00  0.00    -0.504 OA
ATOM     19  H   UNL     1      -8.221  36.001  32.858  1.00  0.00     0.293 HD
ENDBRANCH  15  18
BRANCH  17  20
ATOM     20  O   UNL     1      -6.907  33.857  32.579  1.00  0.00    -0.504 OA
ATOM     21  H   UNL     1      -6.270  34.628  32.414  1.00  0.00     0.293 HD
ENDBRANCH  17  20
ENDBRANCH   1  12
BRANCH   2  22
ATOM     22  O   UNL     1      -6.147  32.026  38.203  1.00  0.00    -0.502 OA
ATOM     23  H   UNL     1      -6.634  32.914  38.176  1.00  0.00     0.293 HD
ENDBRANCH   2  22
BRANCH   6  24
ATOM     24  O   UNL     1      -5.967  26.812  39.272  1.00  0.00    -0.507 OA
ATOM     25  H   UNL     1      -6.217  26.336  40.126  1.00  0.00     0.293 HD
ENDBRANCH   6  24
BRANCH   8  26
ATOM     26  O   UNL     1      -9.121  25.163  36.073  1.00  0.00    -0.508 OA
ATOM     27  H   UNL     1      -9.933  24.774  36.537  1.00  0.00     0.293 HD
ENDBRANCH   8  26
TORSDOF 6
ENDMDL
MODEL 2
REMARK VINA RESULT:    -5.185      1.287      1.899
REMARK INTER + INTRA:          -6.462
REMARK INTER:                  -6.196
REMARK INTRA:                  -0.266
REMARK UNBOUND:                -0.216
REMARK SMILES O=c1c(O)c(-c2ccc(O)c(O)c2)oc2cc(O)cc(O)c12
REMARK SMILES IDX 5 1 3 2 2 3 1 4 22 5 20 6 19 7 17 8 16 9 15 10 14 11 6 12
REMARK SMILES IDX 7 13 8 14 9 15 13 16 11 17 10 18 12 20 4 22 21 24 18 26
REMARK H PARENT 10 19 12 21 4 23 21 25 18 27
REMARK Flexibility Score: inf
ROOT
ATOM      1  C   UNL     1      -7.435  29.242  37.266  1.00  0.00     0.180 A 
ATOM      2  C   UNL     1      -6.530  28.995  38.313  1.00  0.00     0.208 A 
ATOM      3  C   UNL     1      -6.263  27.668  38.684  1.00  0.00     0.238 A 
ATOM      4  O   UNL     1      -5.494  27.454  39.658  1.00  0.00    -0.285 OA
ATOM      5  C   UNL     1      -6.891  26.603  37.993  1.00  0.00     0.111 A 
ATOM      6  C   UNL     1      -6.664  25.219  38.258  1.00  0.00     0.134 A 
ATOM      7  C   UNL     1      -7.438  24.255  37.601  1.00  0.00     0.093 A 
ATOM      8  C   UNL     1      -8.383  24.619  36.643  1.00  0.00     0.123 A 
ATOM      9  C   UNL     1      -8.571  25.966  36.334  1.00  0.00     0.094 A 
ATOM     10  C   UNL     1      -7.841  26.954  36.998  1.00  0.00     0.146 A 
ATOM     11  O   UNL     1      -8.057  28.225  36.682  1.00  0.00    -0.452 OA
ENDROOT
BRANCH   1  12
ATOM     12  C   UNL     1      -7.748  30.613  36.802  1.00  0.00     0.025 A 
ATOM     13  C   UNL     1      -8.628  31.412  37.549  1.00  0.00     0.016 A 
ATOM     14  C   UNL     1      -8.954  32.700  37.119  1.00  0.00     0.051 A 
ATOM     15  C   UNL     1      -8.417  33.205  35.930  1.00  0.00     0.157 A 
ATOM     16  C   UNL     1      -7.226  31.115  35.596  1.00  0.00     0.062 A 
ATOM     17  C   UNL     1      -7.553  32.408  35.161  1.00  0.00     0.158 A 
BRANCH  15  18
ATOM     18  O   UNL     1      -8.759  34.496  35.527  1.00  0.00    -0.504 OA
ATOM     19  H   UNL     1      -8.936  35.237  36.193  1.00  0.00     0.293 HD
ENDBRANCH  15  18
BRANCH  17  20
ATOM     20  O   UNL     1      -7.027  32.899  33.969  1.00  0.00    -0.504 OA
ATOM     21  H   UNL     1      -6.032  32.880  33.779  1.00  0.00     0.293 HD
ENDBRANCH  17  20
ENDBRANCH   1  12
BRANCH   2  22
ATOM     22  O   UNL     1      -5.938  30.061  38.996  1.00  0.00    -0.502 OA
ATOM     23  H   UNL     1      -6.261  31.016  38.900  1.00  0.00     0.293 HD
ENDBRANCH   2  22
BRANCH   6  24
ATOM     24  O   UNL     1      -5.680  24.743  39.128  1.00  0.00    -0.507 OA
ATOM     25  H   UNL     1      -4.889  24.181  38.851  1.00  0.00     0.293 HD
ENDBRANCH   6  24
BRANCH   8  26
ATOM     26  O   UNL     1      -9.125  23.631  35.998  1.00  0.00    -0.508 OA
ATOM     27  H   UNL     1      -9.736  23.851  35.221  1.00  0.00     0.293 HD
ENDBRANCH   8  26
TORSDOF 6
ENDMDL
MODEL 3
REMARK VINA RESULT:    -4.652      2.017      7.335
REMARK INTER + INTRA:          -5.820
REMARK INTER:                  -5.501
REMARK INTRA:                  -0.319
REMARK UNBOUND:                -0.216
REMARK SMILES O=c1c(O)c(-c2ccc(O)c(O)c2)oc2cc(O)cc(O)c12
REMARK SMILES IDX 5 1 3 2 2 3 1 4 22 5 20 6 19 7 17 8 16 9 15 10 14 11 6 12
REMARK SMILES IDX 7 13 8 14 9 15 13 16 11 17 10 18 12 20 4 22 21 24 18 26
REMARK H PARENT 10 19 12 21 4 23 21 25 18 27
REMARK Flexibility Score: inf
ROOT
ATOM      1  C   UNL     1      -8.153  32.842  36.374  1.00  0.00     0.180 A 
ATOM      2  C   UNL     1      -8.561  33.966  37.113  1.00  0.00     0.208 A 
ATOM      3  C   UNL     1      -8.691  35.201  36.459  1.00  0.00     0.238 A 
ATOM      4  O   UNL     1      -9.005  36.215  37.136  1.00  0.00    -0.285 OA
ATOM      5  C   UNL     1      -8.428  35.295  35.070  1.00  0.00     0.111 A 
ATOM      6  C   UNL     1      -8.566  36.487  34.297  1.00  0.00     0.134 A 
ATOM      7  C   UNL     1      -8.152  36.494  32.960  1.00  0.00     0.093 A 
ATOM      8  C   UNL     1      -7.668  35.338  32.349  1.00  0.00     0.123 A 
ATOM      9  C   UNL     1      -7.584  34.152  33.079  1.00  0.00     0.094 A 
ATOM     10  C   UNL     1      -7.954  34.122  34.426  1.00  0.00     0.146 A 
ATOM     11  O   UNL     1      -7.849  32.977  35.088  1.00  0.00    -0.452 OA
ENDROOT
BRANCH   1  12
ATOM     12  C   UNL     1      -8.017  31.502  36.988  1.00  0.00     0.025 A 
ATOM     13  C   UNL     1      -9.112  30.623  36.976  1.00  0.00     0.016 A 
ATOM     14  C   UNL     1      -9.013  29.361  37.567  1.00  0.00     0.051 A 
ATOM     15  C   UNL     1      -7.826  28.964  38.192  1.00  0.00     0.157 A 
ATOM     16  C   UNL     1      -6.832  31.109  37.635  1.00  0.00     0.062 A 
ATOM     17  C   UNL     1      -6.731  29.843  38.230  1.00  0.00     0.158 A 
BRANCH  15  18
ATOM     18  O   UNL     1      -7.756  27.698  38.772  1.00  0.00    -0.504 OA
ATOM     19  H   UNL     1      -7.172  26.964  38.392  1.00  0.00     0.293 HD
ENDBRANCH  15  18
BRANCH  17  20
ATOM     20  O   UNL     1      -5.551  29.459  38.864  1.00  0.00    -0.504 OA
ATOM     21  H   UNL     1      -5.498  28.614  39.421  1.00  0.00     0.293 HD
ENDBRANCH  17  20
ENDBRANCH   1  12
BRANCH   2  22
ATOM     22  O   UNL     1      -8.795  33.857  38.486  1.00  0.00    -0.502 OA
ATOM     23  H   UNL     1      -9.633  33.431  38.863  1.00  0.00     0.293 HD
ENDBRANCH   2  22
BRANCH   6  24
ATOM     24  O   UNL     1      -9.125  37.671  34.784  1.00  0.00    -0.507 OA
ATOM     25  H   UNL     1      -9.580  37.767  35.679  1.00  0.00     0.293 HD
ENDBRANCH   6  24
BRANCH   8  26
ATOM     26  O   UNL     1      -7.279  35.378  31.012  1.00  0.00    -0.508 OA
ATOM     27  H   UNL     1      -6.992  36.243  30.569  1.00  0.00     0.293 HD
ENDBRANCH   8  26
TORSDOF 6
ENDMDL
MODEL 4
REMARK VINA RESULT:    -4.323     19.710     21.264
REMARK INTER + INTRA:          -5.423
REMARK INTER:                  -5.496
REMARK INTRA:                   0.073
REMARK UNBOUND:                -0.216
REMARK SMILES O=c1c(O)c(-c2ccc(O)c(O)c2)oc2cc(O)cc(O)c12
REMARK SMILES IDX 5 1 3 2 2 3 1 4 22 5 20 6 19 7 17 8 16 9 15 10 14 11 6 12
REMARK SMILES IDX 7 13 8 14 9 15 13 16 11 17 10 18 12 20 4 22 21 24 18 26
REMARK H PARENT 10 19 12 21 4 23 21 25 18 27
REMARK Flexibility Score: inf
ROOT
ATOM      1  C   UNL     1       8.186  20.994  27.286  1.00  0.00     0.180 A 
ATOM      2  C   UNL     1       9.266  21.649  26.668  1.00  0.00     0.208 A 
ATOM      3  C   UNL     1       9.218  21.886  25.286  1.00  0.00     0.238 A 
ATOM      4  O   UNL     1      10.211  22.425  24.729  1.00  0.00    -0.285 OA
ATOM      5  C   UNL     1       8.085  21.481  24.540  1.00  0.00     0.111 A 
ATOM      6  C   UNL     1       7.912  21.707  23.140  1.00  0.00     0.134 A 
ATOM      7  C   UNL     1       6.810  21.146  22.482  1.00  0.00     0.093 A 
ATOM      8  C   UNL     1       5.843  20.426  23.181  1.00  0.00     0.123 A 
ATOM      9  C   UNL     1       5.971  20.250  24.559  1.00  0.00     0.094 A 
ATOM     10  C   UNL     1       7.077  20.766  25.239  1.00  0.00     0.146 A 
ATOM     11  O   UNL     1       7.168  20.568  26.548  1.00  0.00    -0.452 OA
ENDROOT
BRANCH   1  12
ATOM     12  C   UNL     1       8.153  20.731  28.742  1.00  0.00     0.025 A 
ATOM     13  C   UNL     1       9.269  20.151  29.366  1.00  0.00     0.016 A 
ATOM     14  C   UNL     1       9.251  19.875  30.735  1.00  0.00     0.051 A 
ATOM     15  C   UNL     1       8.115  20.160  31.499  1.00  0.00     0.157 A 
ATOM     16  C   UNL     1       7.003  20.998  29.509  1.00  0.00     0.062 A 
ATOM     17  C   UNL     1       6.983  20.720  30.883  1.00  0.00     0.158 A 
BRANCH  15  18
ATOM     18  O   UNL     1       8.128  19.876  32.864  1.00  0.00    -0.504 OA
ATOM     19  H   UNL     1       8.428  20.555  33.552  1.00  0.00     0.293 HD
ENDBRANCH  15  18
BRANCH  17  20
ATOM     20  O   UNL     1       5.843  20.993  31.636  1.00  0.00    -0.504 OA
ATOM     21  H   UNL     1       4.916  20.760  31.299  1.00  0.00     0.293 HD
ENDBRANCH  17  20
ENDBRANCH   1  12
BRANCH   2  22
ATOM     22  O   UNL     1      10.384  22.022  27.419  1.00  0.00    -0.502 OA
ATOM     23  H   UNL     1      11.064  22.694  27.086  1.00  0.00     0.293 HD
ENDBRANCH   2  22
BRANCH   6  24
ATOM     24  O   UNL     1       8.771  22.489  22.365  1.00  0.00    -0.507 OA
ATOM     25  H   UNL     1       9.303  23.273  22.710  1.00  0.00     0.293 HD
ENDBRANCH   6  24
BRANCH   8  26
ATOM     26  O   UNL     1       4.751  19.896  22.496  1.00  0.00    -0.508 OA
ATOM     27  H   UNL     1       4.439  20.287  21.615  1.00  0.00     0.293 HD
ENDBRANCH   8  26
TORSDOF 6
ENDMDL
MODEL 5
REMARK VINA RESULT:    -4.240      2.694      4.622
REMARK INTER + INTRA:          -5.324
REMARK INTER:                  -5.123
REMARK INTRA:                  -0.201
REMARK UNBOUND:                -0.216
REMARK SMILES O=c1c(O)c(-c2ccc(O)c(O)c2)oc2cc(O)cc(O)c12
REMARK SMILES IDX 5 1 3 2 2 3 1 4 22 5 20 6 19 7 17 8 16 9 15 10 14 11 6 12
REMARK SMILES IDX 7 13 8 14 9 15 13 16 11 17 10 18 12 20 4 22 21 24 18 26
REMARK H PARENT 10 19 12 21 4 23 21 25 18 27
REMARK Flexibility Score: inf
ROOT
ATOM      1  C   UNL     1      -6.878  26.998  38.280  1.00  0.00     0.180 A 
ATOM      2  C   UNL     1      -6.583  26.640  39.607  1.00  0.00     0.208 A 
ATOM      3  C   UNL     1      -6.096  25.351  39.872  1.00  0.00     0.238 A 
ATOM      4  O   UNL     1      -5.883  25.018  41.068  1.00  0.00    -0.285 OA
ATOM      5  C   UNL     1      -5.894  24.440  38.806  1.00  0.00     0.111 A 
ATOM      6  C   UNL     1      -5.367  23.122  38.955  1.00  0.00     0.134 A 
ATOM      7  C   UNL     1      -5.333  22.263  37.849  1.00  0.00     0.093 A 
ATOM      8  C   UNL     1      -5.746  22.694  36.590  1.00  0.00     0.123 A 
ATOM      9  C   UNL     1      -6.207  24.000  36.421  1.00  0.00     0.094 A 
ATOM     10  C   UNL     1      -6.287  24.869  37.511  1.00  0.00     0.146 A 
ATOM     11  O   UNL     1      -6.741  26.100  37.311  1.00  0.00    -0.452 OA
ENDROOT
BRANCH   1  12
ATOM     12  C   UNL     1      -7.371  28.346  37.918  1.00  0.00     0.025 A 
ATOM     13  C   UNL     1      -8.647  28.486  37.349  1.00  0.00     0.016 A 
ATOM     14  C   UNL     1      -9.124  29.746  36.981  1.00  0.00     0.051 A 
ATOM     15  C   UNL     1      -8.330  30.883  37.163  1.00  0.00     0.157 A 
ATOM     16  C   UNL     1      -6.566  29.488  38.080  1.00  0.00     0.062 A 
ATOM     17  C   UNL     1      -7.043  30.755  37.711  1.00  0.00     0.158 A 
BRANCH  15  18
ATOM     18  O   UNL     1      -8.834  32.128  36.788  1.00  0.00    -0.504 OA
ATOM     19  H   UNL     1      -8.323  32.754  36.178  1.00  0.00     0.293 HD
ENDBRANCH  15  18
BRANCH  17  20
ATOM     20  O   UNL     1      -6.242  31.881  37.880  1.00  0.00    -0.504 OA
ATOM     21  H   UNL     1      -6.191  32.368  38.768  1.00  0.00     0.293 HD
ENDBRANCH  17  20
ENDBRANCH   1  12
BRANCH   2  22
ATOM     22  O   UNL     1      -6.809  27.546  40.646  1.00  0.00    -0.502 OA
ATOM     23  H   UNL     1      -6.055  27.971  41.171  1.00  0.00     0.293 HD
ENDBRANCH   2  22
BRANCH   6  24
ATOM     24  O   UNL     1      -4.842  22.622  40.150  1.00  0.00    -0.507 OA
ATOM     25  H   UNL     1      -5.120  22.925  41.071  1.00  0.00     0.293 HD
ENDBRANCH   6  24
BRANCH   8  26
ATOM     26  O   UNL     1      -5.684  21.817  35.508  1.00  0.00    -0.508 OA
ATOM     27  H   UNL     1      -5.480  22.144  34.572  1.00  0.00     0.293 HD
ENDBRANCH   8  26
TORSDOF 6
ENDMDL
MODEL 6
REMARK VINA RESULT:    -4.228      3.035      8.094
REMARK INTER + INTRA:          -5.309
REMARK INTER:                  -5.260
REMARK INTRA:                  -0.049
REMARK UNBOUND:                -0.216
REMARK SMILES O=c1c(O)c(-c2ccc(O)c(O)c2)oc2cc(O)cc(O)c12
REMARK SMILES IDX 5 1 3 2 2 3 1 4 22 5 20 6 19 7 17 8 16 9 15 10 14 11 6 12
REMARK SMILES IDX 7 13 8 14 9 15 13 16 11 17 10 18 12 20 4 22 21 24 18 26
REMARK H PARENT 10 19 12 21 4 23 21 25 18 27
REMARK Flexibility Score: inf
ROOT
ATOM      1  C   UNL     1      -6.859  24.988  37.335  1.00  0.00     0.180 A 
ATOM      2  C   UNL     1      -6.173  25.152  38.551  1.00  0.00     0.208 A 
ATOM      3  C   UNL     1      -6.082  26.435  39.113  1.00  0.00     0.238 A 
ATOM      4  O   UNL     1      -5.421  26.586  40.174  1.00  0.00    -0.285 OA
ATOM      5  C   UNL     1      -6.691  27.535  38.461  1.00  0.00     0.111 A 
ATOM      6  C   UNL     1      -6.695  28.873  38.961  1.00  0.00     0.134 A 
ATOM      7  C   UNL     1      -7.214  29.904  38.168  1.00  0.00     0.093 A 
ATOM      8  C   UNL     1      -7.787  29.638  36.925  1.00  0.00     0.123 A 
ATOM      9  C   UNL     1      -7.842  28.327  36.453  1.00  0.00     0.094 A 
ATOM     10  C   UNL     1      -7.300  27.281  37.204  1.00  0.00     0.146 A 
ATOM     11  O   UNL     1      -7.362  26.049  36.715  1.00  0.00    -0.452 OA
ENDROOT
BRANCH   1  12
ATOM     12  C   UNL     1      -7.019  23.662  36.694  1.00  0.00     0.025 A 
ATOM     13  C   UNL     1      -8.309  23.174  36.430  1.00  0.00     0.016 A 
ATOM     14  C   UNL     1      -8.484  21.918  35.845  1.00  0.00     0.051 A 
ATOM     15  C   UNL     1      -7.376  21.125  35.528  1.00  0.00     0.157 A 
ATOM     16  C   UNL     1      -5.908  22.855  36.394  1.00  0.00     0.062 A 
ATOM     17  C   UNL     1      -6.081  21.592  35.808  1.00  0.00     0.158 A 
BRANCH  15  18
ATOM     18  O   UNL     1      -7.582  19.876  34.943  1.00  0.00    -0.504 OA
ATOM     19  H   UNL     1      -8.498  19.570  34.638  1.00  0.00     0.293 HD
ENDBRANCH  15  18
BRANCH  17  20
ATOM     20  O   UNL     1      -4.975  20.801  35.508  1.00  0.00    -0.504 OA
ATOM     21  H   UNL     1      -4.286  21.089  34.823  1.00  0.00     0.293 HD
ENDBRANCH  17  20
ENDBRANCH   1  12
BRANCH   2  22
ATOM     22  O   UNL     1      -5.562  24.057  39.167  1.00  0.00    -0.502 OA
ATOM     23  H   UNL     1      -6.000  23.541  39.920  1.00  0.00     0.293 HD
ENDBRANCH   2  22
BRANCH   6  24
ATOM     24  O   UNL     1      -6.231  29.233  40.229  1.00  0.00    -0.507 OA
ATOM     25  H   UNL     1      -5.262  29.233  40.508  1.00  0.00     0.293 HD
ENDBRANCH   6  24
BRANCH   8  26
ATOM     26  O   UNL     1      -8.308  30.687  36.170  1.00  0.00    -0.508 OA
ATOM     27  H   UNL     1      -8.210  31.651  36.465  1.00  0.00     0.293 HD
ENDBRANCH   8  26
TORSDOF 6
ENDMDL
MODEL 7
REMARK VINA RESULT:    -4.218      3.192      5.908
REMARK INTER + INTRA:          -5.297
REMARK INTER:                  -5.007
REMARK INTRA:                  -0.290
REMARK UNBOUND:                -0.216
REMARK SMILES O=c1c(O)c(-c2ccc(O)c(O)c2)oc2cc(O)cc(O)c12
REMARK SMILES IDX 5 1 3 2 2 3 1 4 22 5 20 6 19 7 17 8 16 9 15 10 14 11 6 12
REMARK SMILES IDX 7 13 8 14 9 15 13 16 11 17 10 18 12 20 4 22 21 24 18 26
REMARK H PARENT 10 19 12 21 4 23 21 25 18 27
REMARK Flexibility Score: inf
ROOT
ATOM      1  C   UNL     1      -7.934  25.881  37.136  1.00  0.00     0.180 A 
ATOM      2  C   UNL     1      -7.558  25.328  35.900  1.00  0.00     0.208 A 
ATOM      3  C   UNL     1      -7.598  23.934  35.736  1.00  0.00     0.238 A 
ATOM      4  O   UNL     1      -7.210  23.441  34.645  1.00  0.00    -0.285 OA
ATOM      5  C   UNL     1      -8.030  23.112  36.805  1.00  0.00     0.111 A 
ATOM      6  C   UNL     1      -8.149  21.691  36.737  1.00  0.00     0.134 A 
ATOM      7  C   UNL     1      -8.460  20.968  37.896  1.00  0.00     0.093 A 
ATOM      8  C   UNL     1      -8.721  21.618  39.102  1.00  0.00     0.123 A 
ATOM      9  C   UNL     1      -8.665  23.010  39.165  1.00  0.00     0.094 A 
ATOM     10  C   UNL     1      -8.322  23.757  38.036  1.00  0.00     0.146 A 
ATOM     11  O   UNL     1      -8.270  25.079  38.140  1.00  0.00    -0.452 OA
ENDROOT
BRANCH   1  12
ATOM     12  C   UNL     1      -7.941  27.342  37.376  1.00  0.00     0.025 A 
ATOM     13  C   UNL     1      -9.002  28.118  36.883  1.00  0.00     0.016 A 
ATOM     14  C   UNL     1      -9.019  29.501  37.080  1.00  0.00     0.051 A 
ATOM     15  C   UNL     1      -7.971  30.131  37.759  1.00  0.00     0.157 A 
ATOM     16  C   UNL     1      -6.878  27.981  38.041  1.00  0.00     0.062 A 
ATOM     17  C   UNL     1      -6.893  29.369  38.239  1.00  0.00     0.158 A 
BRANCH  15  18
ATOM     18  O   UNL     1      -8.017  31.513  37.942  1.00  0.00    -0.504 OA
ATOM     19  H   UNL     1      -8.376  32.138  37.232  1.00  0.00     0.293 HD
ENDBRANCH  15  18
BRANCH  17  20
ATOM     20  O   UNL     1      -5.839  29.993  38.903  1.00  0.00    -0.504 OA
ATOM     21  H   UNL     1      -4.995  30.270  38.416  1.00  0.00     0.293 HD
ENDBRANCH  17  20
ENDBRANCH   1  12
BRANCH   2  22
ATOM     22  O   UNL     1      -7.115  26.156  34.865  1.00  0.00    -0.502 OA
ATOM     23  H   UNL     1      -7.695  26.391  34.069  1.00  0.00     0.293 HD
ENDBRANCH   2  22
BRANCH   6  24
ATOM     24  O   UNL     1      -8.000  20.951  35.562  1.00  0.00    -0.507 OA
ATOM     25  H   UNL     1      -7.827  19.958  35.525  1.00  0.00     0.293 HD
ENDBRANCH   6  24
BRANCH   8  26
ATOM     26  O   UNL     1      -9.042  20.868  40.232  1.00  0.00    -0.508 OA
ATOM     27  H   UNL     1      -9.878  20.297  40.268  1.00  0.00     0.293 HD
ENDBRANCH   8  26
TORSDOF 6
ENDMDL
MODEL 8
REMARK VINA RESULT:    -4.117      2.140      4.219
REMARK INTER + INTRA:          -5.175
REMARK INTER:                  -4.885
REMARK INTRA:                  -0.291
REMARK UNBOUND:                -0.216
REMARK SMILES O=c1c(O)c(-c2ccc(O)c(O)c2)oc2cc(O)cc(O)c12
REMARK SMILES IDX 5 1 3 2 2 3 1 4 22 5 20 6 19 7 17 8 16 9 15 10 14 11 6 12
REMARK SMILES IDX 7 13 8 14 9 15 13 16 11 17 10 18 12 20 4 22 21 24 18 26
REMARK H PARENT 10 19 12 21 4 23 21 25 18 27
REMARK Flexibility Score: inf
ROOT
ATOM      1  C   UNL     1      -7.578  27.877  37.237  1.00  0.00     0.180 A 
ATOM      2  C   UNL     1      -8.219  26.898  36.458  1.00  0.00     0.208 A 
ATOM      3  C   UNL     1      -7.905  25.546  36.670  1.00  0.00     0.238 A 
ATOM      4  O   UNL     1      -8.441  24.677  35.934  1.00  0.00    -0.285 OA
ATOM      5  C   UNL     1      -6.967  25.189  37.670  1.00  0.00     0.111 A 
ATOM      6  C   UNL     1      -6.604  23.847  37.998  1.00  0.00     0.134 A 
ATOM      7  C   UNL     1      -5.569  23.617  38.913  1.00  0.00     0.093 A 
ATOM      8  C   UNL     1      -4.931  24.674  39.560  1.00  0.00     0.123 A 
ATOM      9  C   UNL     1      -5.319  25.987  39.290  1.00  0.00     0.094 A 
ATOM     10  C   UNL     1      -6.322  26.251  38.356  1.00  0.00     0.146 A 
ATOM     11  O   UNL     1      -6.655  27.514  38.120  1.00  0.00    -0.452 OA
ENDROOT
BRANCH   1  12
ATOM     12  C   UNL     1      -7.875  29.320  37.089  1.00  0.00     0.025 A 
ATOM     13  C   UNL     1      -8.780  29.933  37.970  1.00  0.00     0.016 A 
ATOM     14  C   UNL     1      -9.090  31.289  37.836  1.00  0.00     0.051 A 
ATOM     15  C   UNL     1      -8.513  32.048  36.812  1.00  0.00     0.157 A 
ATOM     16  C   UNL     1      -7.312  30.080  36.048  1.00  0.00     0.062 A 
ATOM     17  C   UNL     1      -7.623  31.441  35.911  1.00  0.00     0.158 A 
BRANCH  15  18
ATOM     18  O   UNL     1      -8.841  33.399  36.705  1.00  0.00    -0.504 OA
ATOM     19  H   UNL     1      -9.352  33.767  35.912  1.00  0.00     0.293 HD
ENDBRANCH  15  18
BRANCH  17  20
ATOM     20  O   UNL     1      -7.057  32.188  34.880  1.00  0.00    -0.504 OA
ATOM     21  H   UNL     1      -6.603  33.077  35.057  1.00  0.00     0.293 HD
ENDBRANCH  17  20
ENDBRANCH   1  12
BRANCH   2  22
ATOM     22  O   UNL     1      -9.125  27.273  35.463  1.00  0.00    -0.502 OA
ATOM     23  H   UNL     1      -9.983  27.770  35.668  1.00  0.00     0.293 HD
ENDBRANCH   2  22
BRANCH   6  24
ATOM     24  O   UNL     1      -7.241  22.717  37.478  1.00  0.00    -0.507 OA
ATOM     25  H   UNL     1      -6.776  21.858  37.229  1.00  0.00     0.293 HD
ENDBRANCH   6  24
BRANCH   8  26
ATOM     26  O   UNL     1      -3.916  24.407  40.476  1.00  0.00    -0.508 OA
ATOM     27  H   UNL     1      -3.179  25.077  40.660  1.00  0.00     0.293 HD
ENDBRANCH   8  26
TORSDOF 6
ENDMDL
MODEL 9
REMARK VINA RESULT:    -4.018      3.225      5.822
REMARK INTER + INTRA:          -5.056
REMARK INTER:                  -4.733
REMARK INTRA:                  -0.323
REMARK UNBOUND:                -0.216
REMARK SMILES O=c1c(O)c(-c2ccc(O)c(O)c2)oc2cc(O)cc(O)c12
REMARK SMILES IDX 5 1 3 2 2 3 1 4 22 5 20 6 19 7 17 8 16 9 15 10 14 11 6 12
REMARK SMILES IDX 7 13 8 14 9 15 13 16 11 17 10 18 12 20 4 22 21 24 18 26
REMARK H PARENT 10 19 12 21 4 23 21 25 18 27
REMARK Flexibility Score: inf
ROOT
ATOM      1  C   UNL     1      -7.201  25.822  38.141  1.00  0.00     0.180 A 
ATOM      2  C   UNL     1      -8.142  25.224  38.997  1.00  0.00     0.208 A 
ATOM      3  C   UNL     1      -8.244  23.824  39.025  1.00  0.00     0.238 A 
ATOM      4  O   UNL     1      -9.125  23.296  39.753  1.00  0.00    -0.285 OA
ATOM      5  C   UNL     1      -7.393  23.039  38.210  1.00  0.00     0.111 A 
ATOM      6  C   UNL     1      -7.383  21.611  38.188  1.00  0.00     0.134 A 
ATOM      7  C   UNL     1      -6.591  20.942  37.246  1.00  0.00     0.093 A 
ATOM      8  C   UNL     1      -5.762  21.643  36.373  1.00  0.00     0.123 A 
ATOM      9  C   UNL     1      -5.720  23.037  36.426  1.00  0.00     0.094 A 
ATOM     10  C   UNL     1      -6.525  23.735  37.328  1.00  0.00     0.146 A 
ATOM     11  O   UNL     1      -6.464  25.061  37.340  1.00  0.00    -0.452 OA
ENDROOT
BRANCH   1  12
ATOM     12  C   UNL     1      -7.017  27.290  38.074  1.00  0.00     0.025 A 
ATOM     13  C   UNL     1      -6.146  27.919  38.978  1.00  0.00     0.016 A 
ATOM     14  C   UNL     1      -5.974  29.305  38.947  1.00  0.00     0.051 A 
ATOM     15  C   UNL     1      -6.678  30.084  38.024  1.00  0.00     0.157 A 
ATOM     16  C   UNL     1      -7.740  28.078  37.161  1.00  0.00     0.062 A 
ATOM     17  C   UNL     1      -7.569  29.469  37.128  1.00  0.00     0.158 A 
BRANCH  15  18
ATOM     18  O   UNL     1      -6.483  31.465  38.015  1.00  0.00    -0.504 OA
ATOM     19  H   UNL     1      -5.574  31.881  38.173  1.00  0.00     0.293 HD
ENDBRANCH  15  18
BRANCH  17  20
ATOM     20  O   UNL     1      -8.285  30.242  36.216  1.00  0.00    -0.504 OA
ATOM     21  H   UNL     1      -8.837  29.818  35.480  1.00  0.00     0.293 HD
ENDBRANCH  17  20
ENDBRANCH   1  12
BRANCH   2  22
ATOM     22  O   UNL     1      -8.986  26.018  39.777  1.00  0.00    -0.502 OA
ATOM     23  H   UNL     1      -9.054  25.916  40.782  1.00  0.00     0.293 HD
ENDBRANCH   2  22
BRANCH   6  24
ATOM     24  O   UNL     1      -8.104  20.812  39.079  1.00  0.00    -0.507 OA
ATOM     25  H   UNL     1      -7.728  20.411  39.924  1.00  0.00     0.293 HD
ENDBRANCH   6  24
BRANCH   8  26
ATOM     26  O   UNL     1      -4.976  20.943  35.459  1.00  0.00    -0.508 OA
ATOM     27  H   UNL     1      -4.136  20.456  35.748  1.00  0.00     0.293 HD
ENDBRANCH   8  26
TORSDOF 6
ENDMDL
