MODEL 1
REMARK VINA RESULT:    20.229      0.000      0.000
REMARK INTER + INTRA:          43.452
REMARK INTER:                  43.881
REMARK INTRA:                  -0.429
REMARK UNBOUND:                -0.429
REMARK SMILES CCCCCCCCCCCCCCCCCCCCCC(=O)[O-]
REMARK SMILES IDX 12 1 11 2 10 3 9 4 8 5 7 6 6 7 5 8 4 9 3 10 2 11 1 12 13 13
REMARK SMILES IDX 14 14 15 15 16 16 17 17 18 18 19 19 20 20 21 21 22 22 23 23
REMARK SMILES IDX 24 24
REMARK H PARENT
REMARK Flexibility Score: inf
ROOT
ATOM      1  C   UNL     1     -14.146   5.646 -21.608  1.00  0.00     0.000 C 
ENDROOT
BRANCH   1   2
ATOM      2  C   UNL     1     -14.257   6.643 -20.443  1.00  0.00     0.000 C 
BRANCH   2   3
ATOM      3  C   UNL     1     -15.218   6.162 -19.343  1.00  0.00     0.000 C 
BRANCH   3   4
ATOM      4  C   UNL     1     -16.398   7.124 -19.131  1.00  0.00    -0.000 C 
BRANCH   4   5
ATOM      5  C   UNL     1     -17.308   6.703 -17.963  1.00  0.00    -0.000 C 
BRANCH   5   6
ATOM      6  C   UNL     1     -18.676   6.147 -18.410  1.00  0.00    -0.000 C 
BRANCH   6   7
ATOM      7  C   UNL     1     -19.612   5.882 -17.216  1.00  0.00    -0.000 C 
BRANCH   7   8
ATOM      8  C   UNL     1     -19.628   4.406 -16.793  1.00  0.00    -0.000 C 
BRANCH   8   9
ATOM      9  C   UNL     1     -19.834   4.224 -15.281  1.00  0.00    -0.000 C 
BRANCH   9  10
ATOM     10  C   UNL     1     -18.526   4.482 -14.518  1.00  0.00    -0.000 C 
BRANCH  10  11
ATOM     11  C   UNL     1     -17.955   3.209 -13.875  1.00  0.00    -0.003 C 
ATOM     12  C   UNL     1     -18.871   1.998 -14.043  1.00  0.00     0.004 C 
ENDBRANCH  10  11
ENDBRANCH   9  10
ENDBRANCH   8   9
ENDBRANCH   7   8
ENDBRANCH   6   7
ENDBRANCH   5   6
ENDBRANCH   4   5
ENDBRANCH   3   4
ENDBRANCH   2   3
ENDBRANCH   1   2
BRANCH   1  13
ATOM     13  C   UNL     1     -13.413   6.276 -22.802  1.00  0.00     0.000 C 
BRANCH  13  14
ATOM     14  C   UNL     1     -11.920   6.519 -22.526  1.00  0.00     0.000 C 
BRANCH  14  15
ATOM     15  C   UNL     1     -11.008   5.778 -23.519  1.00  0.00     0.000 C 
BRANCH  15  16
ATOM     16  C   UNL     1     -10.757   4.312 -23.118  1.00  0.00     0.000 C 
BRANCH  16  17
ATOM     17  C   UNL     1     -11.956   3.367 -23.332  1.00  0.00     0.000 C 
BRANCH  17  18
ATOM     18  C   UNL     1     -12.261   3.015 -24.801  1.00  0.00     0.000 C 
BRANCH  18  19
ATOM     19  C   UNL     1     -11.102   3.327 -25.771  1.00  0.00     0.000 C 
BRANCH  19  20
ATOM     20  C   UNL     1     -10.719   2.112 -26.633  1.00  0.00     0.006 C 
BRANCH  20  21
ATOM     21  C   UNL     1      -9.384   1.491 -26.201  1.00  0.00     0.053 C 
BRANCH  21  22
ATOM     22  C   UNL     1      -8.790   2.211 -25.029  1.00  0.00     0.041 C 
ATOM     23  O   UNL     1      -8.316   3.370 -25.171  1.00  0.00    -0.550 OA
ATOM     24  O   UNL     1      -8.732   1.590 -23.787  1.00  0.00    -0.550 OA
ENDBRANCH  21  22
ENDBRANCH  20  21
ENDBRANCH  19  20
ENDBRANCH  18  19
ENDBRANCH  17  18
ENDBRANCH  16  17
ENDBRANCH  15  16
ENDBRANCH  14  15
ENDBRANCH  13  14
ENDBRANCH   1  13
TORSDOF 20
ENDMDL
MODEL 2
REMARK VINA RESULT:    20.656      1.789      2.178
REMARK INTER + INTRA:          44.379
REMARK INTER:                  44.934
REMARK INTRA:                  -0.555
REMARK UNBOUND:                -0.429
REMARK SMILES CCCCCCCCCCCCCCCCCCCCCC(=O)[O-]
REMARK SMILES IDX 12 1 11 2 10 3 9 4 8 5 7 6 6 7 5 8 4 9 3 10 2 11 1 12 13 13
REMARK SMILES IDX 14 14 15 15 16 16 17 17 18 18 19 19 20 20 21 21 22 22 23 23
REMARK SMILES IDX 24 24
REMARK H PARENT
REMARK Flexibility Score: inf
ROOT
ATOM      1  C   UNL     1     -14.236   5.995 -21.456  1.00  0.00     0.000 C 
ENDROOT
BRANCH   1   2
ATOM      2  C   UNL     1     -14.617   6.930 -20.297  1.00  0.00     0.000 C 
BRANCH   2   3
ATOM      3  C   UNL     1     -15.867   6.451 -19.539  1.00  0.00     0.000 C 
BRANCH   3   4
ATOM      4  C   UNL     1     -16.014   7.125 -18.165  1.00  0.00    -0.000 C 
BRANCH   4   5
ATOM      5  C   UNL     1     -16.802   6.264 -17.160  1.00  0.00    -0.000 C 
BRANCH   5   6
ATOM      6  C   UNL     1     -17.808   7.067 -16.309  1.00  0.00    -0.000 C 
BRANCH   6   7
ATOM      7  C   UNL     1     -18.266   6.286 -15.064  1.00  0.00    -0.000 C 
BRANCH   7   8
ATOM      8  C   UNL     1     -19.652   5.650 -15.240  1.00  0.00    -0.000 C 
BRANCH   8   9
ATOM      9  C   UNL     1     -19.883   4.458 -14.298  1.00  0.00    -0.000 C 
BRANCH   9  10
ATOM     10  C   UNL     1     -19.834   3.133 -15.072  1.00  0.00    -0.000 C 
BRANCH  10  11
ATOM     11  C   UNL     1     -20.125   1.916 -14.181  1.00  0.00    -0.003 C 
ATOM     12  C   UNL     1     -19.886   0.587 -14.898  1.00  0.00     0.004 C 
ENDBRANCH  10  11
ENDBRANCH   9  10
ENDBRANCH   8   9
ENDBRANCH   7   8
ENDBRANCH   6   7
ENDBRANCH   5   6
ENDBRANCH   4   5
ENDBRANCH   3   4
ENDBRANCH   2   3
ENDBRANCH   1   2
BRANCH   1  13
ATOM     13  C   UNL     1     -13.361   6.727 -22.485  1.00  0.00     0.000 C 
BRANCH  13  14
ATOM     14  C   UNL     1     -11.906   6.899 -22.019  1.00  0.00     0.000 C 
BRANCH  14  15
ATOM     15  C   UNL     1     -10.968   5.829 -22.604  1.00  0.00     0.000 C 
BRANCH  15  16
ATOM     16  C   UNL     1     -11.366   5.405 -24.030  1.00  0.00     0.000 C 
BRANCH  16  17
ATOM     17  C   UNL     1     -10.703   4.104 -24.528  1.00  0.00     0.000 C 
BRANCH  17  18
ATOM     18  C   UNL     1      -9.191   4.204 -24.809  1.00  0.00     0.000 C 
BRANCH  18  19
ATOM     19  C   UNL     1      -8.420   2.893 -24.547  1.00  0.00     0.000 C 
BRANCH  19  20
ATOM     20  C   UNL     1      -8.581   1.881 -25.695  1.00  0.00     0.006 C 
BRANCH  20  21
ATOM     21  C   UNL     1      -9.984   1.262 -25.732  1.00  0.00     0.053 C 
BRANCH  21  22
ATOM     22  C   UNL     1     -10.534   1.213 -27.125  1.00  0.00     0.041 C 
ATOM     23  O   UNL     1     -11.188   2.188 -27.582  1.00  0.00    -0.550 OA
ATOM     24  O   UNL     1     -10.349   0.079 -27.906  1.00  0.00    -0.550 OA
ENDBRANCH  21  22
ENDBRANCH  20  21
ENDBRANCH  19  20
ENDBRANCH  18  19
ENDBRANCH  17  18
ENDBRANCH  16  17
ENDBRANCH  15  16
ENDBRANCH  14  15
ENDBRANCH  13  14
ENDBRANCH   1  13
TORSDOF 20
ENDMDL
MODEL 3
REMARK VINA RESULT:    22.347     11.511     16.450
REMARK INTER + INTRA:          48.046
REMARK INTER:                  48.191
REMARK INTRA:                  -0.145
REMARK UNBOUND:                -0.429
REMARK SMILES CCCCCCCCCCCCCCCCCCCCCC(=O)[O-]
REMARK SMILES IDX 12 1 11 2 10 3 9 4 8 5 7 6 6 7 5 8 4 9 3 10 2 11 1 12 13 13
REMARK SMILES IDX 14 14 15 15 16 16 17 17 18 18 19 19 20 20 21 21 22 22 23 23
REMARK SMILES IDX 24 24
REMARK H PARENT
REMARK Flexibility Score: inf
ROOT
ATOM      1  C   UNL     1     -16.301  -5.850 -25.896  1.00  0.00     0.000 C 
ENDROOT
BRANCH   1   2
ATOM      2  C   UNL     1     -17.599  -6.622 -26.181  1.00  0.00     0.000 C 
BRANCH   2   3
ATOM      3  C   UNL     1     -17.747  -7.003 -27.663  1.00  0.00     0.000 C 
BRANCH   3   4
ATOM      4  C   UNL     1     -18.969  -7.900 -27.921  1.00  0.00    -0.000 C 
BRANCH   4   5
ATOM      5  C   UNL     1     -18.730  -8.925 -29.044  1.00  0.00    -0.000 C 
BRANCH   5   6
ATOM      6  C   UNL     1     -17.471  -8.640 -29.889  1.00  0.00    -0.000 C 
BRANCH   6   7
ATOM      7  C   UNL     1     -17.415  -9.509 -31.158  1.00  0.00    -0.000 C 
BRANCH   7   8
ATOM      8  C   UNL     1     -17.335 -11.011 -30.845  1.00  0.00    -0.000 C 
BRANCH   8   9
ATOM      9  C   UNL     1     -16.786 -11.295 -29.438  1.00  0.00    -0.000 C 
BRANCH   9  10
ATOM     10  C   UNL     1     -15.367 -10.728 -29.282  1.00  0.00    -0.000 C 
BRANCH  10  11
ATOM     11  C   UNL     1     -14.445 -11.111 -30.449  1.00  0.00    -0.003 C 
ATOM     12  C   UNL     1     -13.278 -10.140 -30.625  1.00  0.00     0.004 C 
ENDBRANCH  10  11
ENDBRANCH   9  10
ENDBRANCH   8   9
ENDBRANCH   7   8
ENDBRANCH   6   7
ENDBRANCH   5   6
ENDBRANCH   4   5
ENDBRANCH   3   4
ENDBRANCH   2   3
ENDBRANCH   1   2
BRANCH   1  13
ATOM     13  C   UNL     1     -16.028  -5.775 -24.386  1.00  0.00     0.000 C 
BRANCH  13  14
ATOM     14  C   UNL     1     -17.188  -6.326 -23.540  1.00  0.00     0.000 C 
BRANCH  14  15
ATOM     15  C   UNL     1     -16.962  -6.131 -22.031  1.00  0.00     0.000 C 
BRANCH  15  16
ATOM     16  C   UNL     1     -17.435  -4.752 -21.532  1.00  0.00     0.000 C 
BRANCH  16  17
ATOM     17  C   UNL     1     -18.140  -4.767 -20.161  1.00  0.00     0.000 C 
BRANCH  17  18
ATOM     18  C   UNL     1     -18.697  -3.408 -19.694  1.00  0.00     0.000 C 
BRANCH  18  19
ATOM     19  C   UNL     1     -19.170  -3.399 -18.225  1.00  0.00     0.000 C 
BRANCH  19  20
ATOM     20  C   UNL     1     -19.227  -1.978 -17.638  1.00  0.00     0.006 C 
BRANCH  20  21
ATOM     21  C   UNL     1     -19.843  -1.954 -16.233  1.00  0.00     0.053 C 
BRANCH  21  22
ATOM     22  C   UNL     1     -20.022  -0.555 -15.728  1.00  0.00     0.041 C 
ATOM     23  O   UNL     1     -20.114  -0.335 -14.491  1.00  0.00    -0.550 OA
ATOM     24  O   UNL     1     -20.118   0.502 -16.625  1.00  0.00    -0.550 OA
ENDBRANCH  21  22
ENDBRANCH  20  21
ENDBRANCH  19  20
ENDBRANCH  18  19
ENDBRANCH  17  18
ENDBRANCH  16  17
ENDBRANCH  15  16
ENDBRANCH  14  15
ENDBRANCH  13  14
ENDBRANCH   1  13
TORSDOF 20
ENDMDL
MODEL 4
REMARK VINA RESULT:    22.563     14.042     16.534
REMARK INTER + INTRA:          48.514
REMARK INTER:                  48.736
REMARK INTRA:                  -0.222
REMARK UNBOUND:                -0.429
REMARK SMILES CCCCCCCCCCCCCCCCCCCCCC(=O)[O-]
REMARK SMILES IDX 12 1 11 2 10 3 9 4 8 5 7 6 6 7 5 8 4 9 3 10 2 11 1 12 13 13
REMARK SMILES IDX 14 14 15 15 16 16 17 17 18 18 19 19 20 20 21 21 22 22 23 23
REMARK SMILES IDX 24 24
REMARK H PARENT
REMARK Flexibility Score: inf
ROOT
ATOM      1  C   UNL     1     -16.369 -12.688 -24.926  1.00  0.00     0.000 C 
ENDROOT
BRANCH   1   2
ATOM      2  C   UNL     1     -16.633 -12.932 -23.431  1.00  0.00     0.000 C 
BRANCH   2   3
ATOM      3  C   UNL     1     -15.371 -12.754 -22.571  1.00  0.00     0.000 C 
BRANCH   3   4
ATOM      4  C   UNL     1     -15.306 -11.372 -21.901  1.00  0.00    -0.000 C 
BRANCH   4   5
ATOM      5  C   UNL     1     -13.958 -10.664 -22.125  1.00  0.00    -0.000 C 
BRANCH   5   6
ATOM      6  C   UNL     1     -13.751  -9.422 -21.233  1.00  0.00    -0.000 C 
BRANCH   6   7
ATOM      7  C   UNL     1     -13.967  -8.109 -22.007  1.00  0.00    -0.000 C 
BRANCH   7   8
ATOM      8  C   UNL     1     -15.449  -7.727 -22.124  1.00  0.00    -0.000 C 
BRANCH   8   9
ATOM      9  C   UNL     1     -15.791  -7.082 -23.477  1.00  0.00    -0.000 C 
BRANCH   9  10
ATOM     10  C   UNL     1     -17.021  -6.173 -23.352  1.00  0.00    -0.000 C 
BRANCH  10  11
ATOM     11  C   UNL     1     -16.874  -5.127 -22.237  1.00  0.00    -0.003 C 
ATOM     12  C   UNL     1     -17.650  -5.496 -20.973  1.00  0.00     0.004 C 
ENDBRANCH  10  11
ENDBRANCH   9  10
ENDBRANCH   8   9
ENDBRANCH   7   8
ENDBRANCH   6   7
ENDBRANCH   5   6
ENDBRANCH   4   5
ENDBRANCH   3   4
ENDBRANCH   2   3
ENDBRANCH   1   2
BRANCH   1  13
ATOM     13  C   UNL     1     -17.603 -13.048 -25.767  1.00  0.00     0.000 C 
BRANCH  13  14
ATOM     14  C   UNL     1     -17.313 -13.070 -27.276  1.00  0.00     0.000 C 
BRANCH  14  15
ATOM     15  C   UNL     1     -18.536 -12.671 -28.118  1.00  0.00     0.000 C 
BRANCH  15  16
ATOM     16  C   UNL     1     -18.150 -12.058 -29.478  1.00  0.00     0.000 C 
BRANCH  16  17
ATOM     17  C   UNL     1     -18.865 -10.736 -29.819  1.00  0.00     0.000 C 
BRANCH  17  18
ATOM     18  C   UNL     1     -18.209  -9.904 -30.939  1.00  0.00     0.000 C 
BRANCH  18  19
ATOM     19  C   UNL     1     -16.699  -9.660 -30.731  1.00  0.00     0.000 C 
BRANCH  19  20
ATOM     20  C   UNL     1     -15.882 -10.962 -30.798  1.00  0.00     0.006 C 
BRANCH  20  21
ATOM     21  C   UNL     1     -15.013 -11.167 -29.550  1.00  0.00     0.053 C 
BRANCH  21  22
ATOM     22  C   UNL     1     -13.881 -10.187 -29.494  1.00  0.00     0.041 C 
ATOM     23  O   UNL     1     -13.789  -9.380 -28.531  1.00  0.00    -0.550 OA
ATOM     24  O   UNL     1     -12.946 -10.145 -30.520  1.00  0.00    -0.550 OA
ENDBRANCH  21  22
ENDBRANCH  20  21
ENDBRANCH  19  20
ENDBRANCH  18  19
ENDBRANCH  17  18
ENDBRANCH  16  17
ENDBRANCH  15  16
ENDBRANCH  14  15
ENDBRANCH  13  14
ENDBRANCH   1  13
TORSDOF 20
ENDMDL
MODEL 5
REMARK VINA RESULT:    22.808     10.871     12.395
REMARK INTER + INTRA:          49.046
REMARK INTER:                  48.708
REMARK INTRA:                   0.338
REMARK UNBOUND:                -0.429
REMARK SMILES CCCCCCCCCCCCCCCCCCCCCC(=O)[O-]
REMARK SMILES IDX 12 1 11 2 10 3 9 4 8 5 7 6 6 7 5 8 4 9 3 10 2 11 1 12 13 13
REMARK SMILES IDX 14 14 15 15 16 16 17 17 18 18 19 19 20 20 21 21 22 22 23 23
REMARK SMILES IDX 24 24
REMARK H PARENT
REMARK Flexibility Score: inf
ROOT
ATOM      1  C   UNL     1     -16.280  -5.757 -24.088  1.00  0.00     0.000 C 
ENDROOT
BRANCH   1   2
ATOM      2  C   UNL     1     -16.641  -5.199 -22.702  1.00  0.00     0.000 C 
BRANCH   2   3
ATOM      3  C   UNL     1     -17.950  -5.789 -22.151  1.00  0.00     0.000 C 
BRANCH   3   4
ATOM      4  C   UNL     1     -18.907  -4.707 -21.625  1.00  0.00    -0.000 C 
BRANCH   4   5
ATOM      5  C   UNL     1     -18.528  -4.206 -20.220  1.00  0.00    -0.000 C 
BRANCH   5   6
ATOM      6  C   UNL     1     -19.684  -3.505 -19.477  1.00  0.00    -0.000 C 
BRANCH   6   7
ATOM      7  C   UNL     1     -19.252  -2.979 -18.096  1.00  0.00    -0.000 C 
BRANCH   7   8
ATOM      8  C   UNL     1     -20.123  -1.813 -17.607  1.00  0.00    -0.000 C 
BRANCH   8   9
ATOM      9  C   UNL     1     -19.973  -1.552 -16.100  1.00  0.00    -0.000 C 
BRANCH   9  10
ATOM     10  C   UNL     1     -19.849  -0.048 -15.818  1.00  0.00    -0.000 C 
BRANCH  10  11
ATOM     11  C   UNL     1     -18.459   0.344 -15.293  1.00  0.00    -0.003 C 
ATOM     12  C   UNL     1     -18.089  -0.379 -13.998  1.00  0.00     0.004 C 
ENDBRANCH  10  11
ENDBRANCH   9  10
ENDBRANCH   8   9
ENDBRANCH   7   8
ENDBRANCH   6   7
ENDBRANCH   5   6
ENDBRANCH   4   5
ENDBRANCH   3   4
ENDBRANCH   2   3
ENDBRANCH   1   2
BRANCH   1  13
ATOM     13  C   UNL     1     -17.504  -6.401 -24.757  1.00  0.00     0.000 C 
BRANCH  13  14
ATOM     14  C   UNL     1     -17.368  -6.500 -26.285  1.00  0.00     0.000 C 
BRANCH  14  15
ATOM     15  C   UNL     1     -18.619  -7.099 -26.951  1.00  0.00     0.000 C 
BRANCH  15  16
ATOM     16  C   UNL     1     -18.468  -7.245 -28.477  1.00  0.00     0.000 C 
BRANCH  16  17
ATOM     17  C   UNL     1     -18.480  -8.697 -28.993  1.00  0.00     0.000 C 
BRANCH  17  18
ATOM     18  C   UNL     1     -17.946  -8.889 -30.427  1.00  0.00     0.000 C 
BRANCH  18  19
ATOM     19  C   UNL     1     -17.557 -10.345 -30.758  1.00  0.00     0.000 C 
BRANCH  19  20
ATOM     20  C   UNL     1     -17.540 -11.244 -29.508  1.00  0.00     0.006 C 
BRANCH  20  21
ATOM     21  C   UNL     1     -16.207 -11.162 -28.753  1.00  0.00     0.053 C 
BRANCH  21  22
ATOM     22  C   UNL     1     -15.129 -10.546 -29.592  1.00  0.00     0.041 C 
ATOM     23  O   UNL     1     -14.291  -9.764 -29.072  1.00  0.00    -0.550 OA
ATOM     24  O   UNL     1     -15.070 -10.813 -30.954  1.00  0.00    -0.550 OA
ENDBRANCH  21  22
ENDBRANCH  20  21
ENDBRANCH  19  20
ENDBRANCH  18  19
ENDBRANCH  17  18
ENDBRANCH  16  17
ENDBRANCH  15  16
ENDBRANCH  14  15
ENDBRANCH  13  14
ENDBRANCH   1  13
TORSDOF 20
ENDMDL
MODEL 6
REMARK VINA RESULT:    22.997     12.836     15.025
REMARK INTER + INTRA:          49.455
REMARK INTER:                  49.655
REMARK INTRA:                  -0.200
REMARK UNBOUND:                -0.429
REMARK SMILES CCCCCCCCCCCCCCCCCCCCCC(=O)[O-]
REMARK SMILES IDX 12 1 11 2 10 3 9 4 8 5 7 6 6 7 5 8 4 9 3 10 2 11 1 12 13 13
REMARK SMILES IDX 14 14 15 15 16 16 17 17 18 18 19 19 20 20 21 21 22 22 23 23
REMARK SMILES IDX 24 24
REMARK H PARENT
REMARK Flexibility Score: inf
ROOT
ATOM      1  C   UNL     1     -18.232  -6.129 -26.812  1.00  0.00     0.000 C 
ENDROOT
BRANCH   1   2
ATOM      2  C   UNL     1     -17.415  -6.762 -25.675  1.00  0.00     0.000 C 
BRANCH   2   3
ATOM      3  C   UNL     1     -16.270  -5.855 -25.194  1.00  0.00     0.000 C 
BRANCH   3   4
ATOM      4  C   UNL     1     -16.622  -5.100 -23.901  1.00  0.00    -0.000 C 
BRANCH   4   5
ATOM      5  C   UNL     1     -17.916  -5.613 -23.244  1.00  0.00    -0.000 C 
BRANCH   5   6
ATOM      6  C   UNL     1     -17.816  -5.767 -21.712  1.00  0.00    -0.000 C 
BRANCH   6   7
ATOM      7  C   UNL     1     -16.375  -6.049 -21.250  1.00  0.00    -0.000 C 
BRANCH   7   8
ATOM      8  C   UNL     1     -15.730  -7.222 -22.002  1.00  0.00    -0.000 C 
BRANCH   8   9
ATOM      9  C   UNL     1     -14.369  -7.627 -21.414  1.00  0.00    -0.000 C 
BRANCH   9  10
ATOM     10  C   UNL     1     -13.817  -8.871 -22.125  1.00  0.00    -0.000 C 
BRANCH  10  11
ATOM     11  C   UNL     1     -13.768 -10.103 -21.208  1.00  0.00    -0.003 C 
ATOM     12  C   UNL     1     -14.387 -11.344 -21.851  1.00  0.00     0.004 C 
ENDBRANCH  10  11
ENDBRANCH   9  10
ENDBRANCH   8   9
ENDBRANCH   7   8
ENDBRANCH   6   7
ENDBRANCH   5   6
ENDBRANCH   4   5
ENDBRANCH   3   4
ENDBRANCH   2   3
ENDBRANCH   1   2
BRANCH   1  13
ATOM     13  C   UNL     1     -18.819  -7.210 -27.733  1.00  0.00     0.000 C 
BRANCH  13  14
ATOM     14  C   UNL     1     -17.888  -7.570 -28.902  1.00  0.00     0.000 C 
BRANCH  14  15
ATOM     15  C   UNL     1     -18.432  -8.730 -29.754  1.00  0.00     0.000 C 
BRANCH  15  16
ATOM     16  C   UNL     1     -17.568  -9.012 -30.997  1.00  0.00     0.000 C 
BRANCH  16  17
ATOM     17  C   UNL     1     -17.449 -10.501 -31.380  1.00  0.00     0.000 C 
BRANCH  17  18
ATOM     18  C   UNL     1     -18.244 -11.474 -30.487  1.00  0.00     0.000 C 
BRANCH  18  19
ATOM     19  C   UNL     1     -17.408 -12.103 -29.353  1.00  0.00     0.000 C 
BRANCH  19  20
ATOM     20  C   UNL     1     -16.196 -11.236 -28.970  1.00  0.00     0.006 C 
BRANCH  20  21
ATOM     21  C   UNL     1     -14.991 -11.485 -29.886  1.00  0.00     0.053 C 
BRANCH  21  22
ATOM     22  C   UNL     1     -13.988 -10.375 -29.799  1.00  0.00     0.041 C 
ATOM     23  O   UNL     1     -14.008  -9.578 -28.824  1.00  0.00    -0.550 OA
ATOM     24  O   UNL     1     -13.050 -10.204 -30.810  1.00  0.00    -0.550 OA
ENDBRANCH  21  22
ENDBRANCH  20  21
ENDBRANCH  19  20
ENDBRANCH  18  19
ENDBRANCH  17  18
ENDBRANCH  16  17
ENDBRANCH  15  16
ENDBRANCH  14  15
ENDBRANCH  13  14
ENDBRANCH   1  13
TORSDOF 20
ENDMDL
MODEL 7
REMARK VINA RESULT:    23.057     11.200     12.823
REMARK INTER + INTRA:          49.586
REMARK INTER:                  50.710
REMARK INTRA:                  -1.125
REMARK UNBOUND:                -0.429
REMARK SMILES CCCCCCCCCCCCCCCCCCCCCC(=O)[O-]
REMARK SMILES IDX 12 1 11 2 10 3 9 4 8 5 7 6 6 7 5 8 4 9 3 10 2 11 1 12 13 13
REMARK SMILES IDX 14 14 15 15 16 16 17 17 18 18 19 19 20 20 21 21 22 22 23 23
REMARK SMILES IDX 24 24
REMARK H PARENT
REMARK Flexibility Score: inf
ROOT
ATOM      1  C   UNL     1     -15.944  -6.022 -25.264  1.00  0.00     0.000 C 
ENDROOT
BRANCH   1   2
ATOM      2  C   UNL     1     -16.882  -5.363 -24.240  1.00  0.00     0.000 C 
BRANCH   2   3
ATOM      3  C   UNL     1     -16.643  -5.869 -22.808  1.00  0.00     0.000 C 
BRANCH   3   4
ATOM      4  C   UNL     1     -17.923  -5.852 -21.957  1.00  0.00    -0.000 C 
BRANCH   4   5
ATOM      5  C   UNL     1     -17.638  -5.965 -20.448  1.00  0.00    -0.000 C 
BRANCH   5   6
ATOM      6  C   UNL     1     -17.884  -4.656 -19.670  1.00  0.00    -0.000 C 
BRANCH   6   7
ATOM      7  C   UNL     1     -18.588  -3.592 -20.532  1.00  0.00    -0.000 C 
BRANCH   7   8
ATOM      8  C   UNL     1     -19.974  -3.213 -19.991  1.00  0.00    -0.000 C 
BRANCH   8   9
ATOM      9  C   UNL     1     -19.927  -2.023 -19.019  1.00  0.00    -0.000 C 
BRANCH   9  10
ATOM     10  C   UNL     1     -19.960  -2.508 -17.562  1.00  0.00    -0.000 C 
BRANCH  10  11
ATOM     11  C   UNL     1     -19.925  -1.351 -16.552  1.00  0.00    -0.003 C 
ATOM     12  C   UNL     1     -20.041  -1.824 -15.104  1.00  0.00     0.004 C 
ENDBRANCH  10  11
ENDBRANCH   9  10
ENDBRANCH   8   9
ENDBRANCH   7   8
ENDBRANCH   6   7
ENDBRANCH   5   6
ENDBRANCH   4   5
ENDBRANCH   3   4
ENDBRANCH   2   3
ENDBRANCH   1   2
BRANCH   1  13
ATOM     13  C   UNL     1     -16.684  -6.312 -26.578  1.00  0.00     0.000 C 
BRANCH  13  14
ATOM     14  C   UNL     1     -18.129  -6.790 -26.358  1.00  0.00     0.000 C 
BRANCH  14  15
ATOM     15  C   UNL     1     -18.953  -6.796 -27.656  1.00  0.00     0.000 C 
BRANCH  15  16
ATOM     16  C   UNL     1     -19.174  -8.214 -28.215  1.00  0.00     0.000 C 
BRANCH  16  17
ATOM     17  C   UNL     1     -18.463  -8.501 -29.553  1.00  0.00     0.000 C 
BRANCH  17  18
ATOM     18  C   UNL     1     -18.825  -9.846 -30.214  1.00  0.00     0.000 C 
BRANCH  18  19
ATOM     19  C   UNL     1     -17.653 -10.847 -30.273  1.00  0.00     0.000 C 
BRANCH  19  20
ATOM     20  C   UNL     1     -16.397 -10.321 -29.555  1.00  0.00     0.006 C 
BRANCH  20  21
ATOM     21  C   UNL     1     -15.215 -10.133 -30.515  1.00  0.00     0.053 C 
BRANCH  21  22
ATOM     22  C   UNL     1     -13.914 -10.512 -29.875  1.00  0.00     0.041 C 
ATOM     23  O   UNL     1     -13.135 -11.316 -30.452  1.00  0.00    -0.550 OA
ATOM     24  O   UNL     1     -13.578 -10.001 -28.628  1.00  0.00    -0.550 OA
ENDBRANCH  21  22
ENDBRANCH  20  21
ENDBRANCH  19  20
ENDBRANCH  18  19
ENDBRANCH  17  18
ENDBRANCH  16  17
ENDBRANCH  15  16
ENDBRANCH  14  15
ENDBRANCH  13  14
ENDBRANCH   1  13
TORSDOF 20
ENDMDL
