MODEL 1
REMARK VINA RESULT:    -5.753      0.000      0.000
REMARK INTER + INTRA:         -11.178
REMARK INTER:                 -10.125
REMARK INTRA:                  -1.053
REMARK UNBOUND:                -1.053
REMARK SMILES COc1cc(-c2[o+]c3cc(O)cc(O[C@@H]4O[C@@H](CO)[C@@H](O)[C@@H](O)[C@@H]4O)c3cc2O[C@@H]2O[C@@H](CO)[C@H](O)[C@H](O)[C@H]2O)ccc1O
REMARK SMILES IDX 6 1 28 2 27 3 26 4 13 5 12 6 10 7 9 8 8 9 7 10 5 11 3 12
REMARK SMILES IDX 43 13 4 14 42 15 41 16 2 17 1 18 44 19 29 21 30 22 39 23
REMARK SMILES IDX 31 24 37 25 32 26 35 27 40 28 38 30 33 32 34 33 36 35 14 37
REMARK SMILES IDX 15 38 24 39 16 40 22 41 17 42 20 43 25 44 23 46 18 48 19 49
REMARK SMILES IDX 21 51 11 53
REMARK H PARENT 44 20 40 29 38 31 34 34 36 36 25 45 23 47 19 50 21 52 11 54
REMARK Flexibility Score: inf
ROOT
ATOM      1  C   UNL     1      13.442   0.486   4.849  1.00  0.00     0.402 A 
ATOM      2  C   UNL     1      13.043   0.434   3.498  1.00  0.00     0.229 A 
ATOM      3  C   UNL     1      11.741   0.007   3.208  1.00  0.00     0.079 A 
ATOM      4  C   UNL     1      10.858  -0.313   4.250  1.00  0.00     0.126 A 
ATOM      5  C   UNL     1       9.542  -0.751   4.003  1.00  0.00     0.143 A 
ATOM      6  C   UNL     1       8.701  -1.040   5.100  1.00  0.00     0.094 A 
ATOM      7  C   UNL     1       9.160  -0.874   6.408  1.00  0.00     0.128 A 
ATOM      8  C   UNL     1      10.471  -0.457   6.645  1.00  0.00     0.162 A 
ATOM      9  C   UNL     1      11.322  -0.184   5.574  1.00  0.00     0.368 A 
ATOM     10  O   UNL     1      12.573   0.187   5.811  1.00  0.00    -0.202 OA
ENDROOT
BRANCH   1  11
ATOM     11  C   UNL     1      14.832   0.809   5.242  1.00  0.00     0.087 A 
ATOM     12  C   UNL     1      17.085   0.026   5.788  1.00  0.00     0.161 A 
ATOM     13  C   UNL     1      17.504   1.366   5.915  1.00  0.00     0.157 A 
ATOM     14  C   UNL     1      15.740  -0.240   5.461  1.00  0.00     0.068 A 
ATOM     15  C   UNL     1      16.588   2.410   5.730  1.00  0.00     0.051 A 
ATOM     16  C   UNL     1      15.260   2.133   5.403  1.00  0.00     0.022 A 
BRANCH  12  17
ATOM     17  O   UNL     1      18.025  -0.999   5.969  1.00  0.00    -0.493 OA
ATOM     18  C   UNL     1      18.867  -1.125   7.114  1.00  0.00     0.278 C 
ENDBRANCH  12  17
BRANCH  13  19
ATOM     19  O   UNL     1      18.830   1.679   6.220  1.00  0.00    -0.504 OA
ATOM     20  H   UNL     1      19.315   2.457   5.791  1.00  0.00     0.293 HD
ENDBRANCH  13  19
ENDBRANCH   1  11
BRANCH   2  21
ATOM     21  O   UNL     1      13.963   0.781   2.491  1.00  0.00    -0.452 OA
BRANCH  21  22
ATOM     22  C   UNL     1      13.883   0.420   1.100  1.00  0.00     0.339 C 
ATOM     23  C   UNL     1      12.549   0.864   0.442  1.00  0.00     0.214 C 
ATOM     24  O   UNL     1      15.005   0.946   0.405  1.00  0.00    -0.332 OA
ATOM     25  C   UNL     1      12.487   2.397   0.282  1.00  0.00     0.180 C 
ATOM     26  C   UNL     1      15.008   2.365   0.419  1.00  0.00     0.179 C 
ATOM     27  C   UNL     1      13.800   2.903  -0.370  1.00  0.00     0.177 C 
BRANCH  23  28
ATOM     28  O   UNL     1      12.431   0.247  -0.816  1.00  0.00    -0.384 OA
ATOM     29  H   UNL     1      11.635   0.642  -1.262  1.00  0.00     0.211 HD
ENDBRANCH  23  28
BRANCH  25  30
ATOM     30  O   UNL     1      12.247   2.970   1.549  1.00  0.00    -0.387 OA
ATOM     31  H   UNL     1      11.688   3.781   1.425  1.00  0.00     0.211 HD
ENDBRANCH  25  30
BRANCH  26  32
ATOM     32  C   UNL     1      16.326   2.863  -0.185  1.00  0.00     0.191 C 
BRANCH  32  33
ATOM     33  O   UNL     1      16.128   4.078  -0.852  1.00  0.00    -0.394 OA
ATOM     34  H   UNL     1      16.348   3.926  -1.805  1.00  0.00     0.210 HD
ENDBRANCH  32  33
ENDBRANCH  26  32
BRANCH  27  35
ATOM     35  O   UNL     1      13.818   4.304  -0.422  1.00  0.00    -0.387 OA
ATOM     36  H   UNL     1      12.917   4.594  -0.731  1.00  0.00     0.211 HD
ENDBRANCH  27  35
ENDBRANCH  21  22
ENDBRANCH   2  21
BRANCH   5  37
ATOM     37  O   UNL     1       9.117  -0.895   2.672  1.00  0.00    -0.461 OA
BRANCH  37  38
ATOM     38  C   UNL     1       7.948  -0.321   2.072  1.00  0.00     0.339 C 
ATOM     39  C   UNL     1       7.875   1.206   2.296  1.00  0.00     0.214 C 
ATOM     40  O   UNL     1       7.900  -0.632   0.688  1.00  0.00    -0.332 OA
ATOM     41  C   UNL     1       9.008   1.907   1.521  1.00  0.00     0.180 C 
ATOM     42  C   UNL     1       9.014  -0.102  -0.013  1.00  0.00     0.179 C 
ATOM     43  C   UNL     1       9.031   1.450   0.047  1.00  0.00     0.177 C 
BRANCH  39  44
ATOM     44  O   UNL     1       7.972   1.506   3.664  1.00  0.00    -0.384 OA
ATOM     45  H   UNL     1       8.940   1.556   3.877  1.00  0.00     0.211 HD
ENDBRANCH  39  44
BRANCH  41  46
ATOM     46  O   UNL     1       8.913   3.308   1.619  1.00  0.00    -0.387 OA
ATOM     47  H   UNL     1       8.282   3.620   0.921  1.00  0.00     0.211 HD
ENDBRANCH  41  46
BRANCH  42  48
ATOM     48  C   UNL     1       9.008  -0.631  -1.456  1.00  0.00     0.191 C 
BRANCH  48  49
ATOM     49  O   UNL     1       9.854   0.121  -2.285  1.00  0.00    -0.394 OA
ATOM     50  H   UNL     1      10.464  -0.520  -2.733  1.00  0.00     0.210 HD
ENDBRANCH  48  49
ENDBRANCH  42  48
BRANCH  43  51
ATOM     51  O   UNL     1       7.972   2.021  -0.685  1.00  0.00    -0.387 OA
ATOM     52  H   UNL     1       7.552   2.727  -0.127  1.00  0.00     0.211 HD
ENDBRANCH  43  51
ENDBRANCH  37  38
ENDBRANCH   5  37
BRANCH   7  53
ATOM     53  O   UNL     1       8.294  -1.123   7.467  1.00  0.00    -0.507 OA
ATOM     54  H   UNL     1       7.649  -1.903   7.454  1.00  0.00     0.293 HD
ENDBRANCH   7  53
TORSDOF 18
ENDMDL
MODEL 2
REMARK VINA RESULT:    -4.228      1.597      5.962
REMARK INTER + INTRA:          -8.495
REMARK INTER:                  -7.896
REMARK INTRA:                  -0.599
REMARK UNBOUND:                -1.053
REMARK SMILES COc1cc(-c2[o+]c3cc(O)cc(O[C@@H]4O[C@@H](CO)[C@@H](O)[C@@H](O)[C@@H]4O)c3cc2O[C@@H]2O[C@@H](CO)[C@H](O)[C@H](O)[C@H]2O)ccc1O
REMARK SMILES IDX 6 1 28 2 27 3 26 4 13 5 12 6 10 7 9 8 8 9 7 10 5 11 3 12
REMARK SMILES IDX 43 13 4 14 42 15 41 16 2 17 1 18 44 19 29 21 30 22 39 23
REMARK SMILES IDX 31 24 37 25 32 26 35 27 40 28 38 30 33 32 34 33 36 35 14 37
REMARK SMILES IDX 15 38 24 39 16 40 22 41 17 42 20 43 25 44 23 46 18 48 19 49
REMARK SMILES IDX 21 51 11 53
REMARK H PARENT 44 20 40 29 38 31 34 34 36 36 25 45 23 47 19 50 21 52 11 54
REMARK Flexibility Score: inf
ROOT
ATOM      1  C   UNL     1      15.154   1.966   3.857  1.00  0.00     0.402 A 
ATOM      2  C   UNL     1      13.752   1.839   3.921  1.00  0.00     0.229 A 
ATOM      3  C   UNL     1      12.997   2.256   2.816  1.00  0.00     0.079 A 
ATOM      4  C   UNL     1      13.642   2.742   1.670  1.00  0.00     0.126 A 
ATOM      5  C   UNL     1      12.922   3.177   0.539  1.00  0.00     0.143 A 
ATOM      6  C   UNL     1      13.636   3.640  -0.589  1.00  0.00     0.094 A 
ATOM      7  C   UNL     1      15.032   3.647  -0.590  1.00  0.00     0.128 A 
ATOM      8  C   UNL     1      15.738   3.231   0.540  1.00  0.00     0.162 A 
ATOM      9  C   UNL     1      15.050   2.788   1.670  1.00  0.00     0.368 A 
ATOM     10  O   UNL     1      15.731   2.420   2.747  1.00  0.00    -0.202 OA
ENDROOT
BRANCH   1  11
ATOM     11  C   UNL     1      16.020   1.664   5.018  1.00  0.00     0.087 A 
ATOM     12  C   UNL     1      17.634   0.169   6.090  1.00  0.00     0.161 A 
ATOM     13  C   UNL     1      17.739   1.076   7.164  1.00  0.00     0.157 A 
ATOM     14  C   UNL     1      16.760   0.470   5.025  1.00  0.00     0.068 A 
ATOM     15  C   UNL     1      16.973   2.249   7.171  1.00  0.00     0.051 A 
ATOM     16  C   UNL     1      16.115   2.538   6.110  1.00  0.00     0.022 A 
BRANCH  12  17
ATOM     17  O   UNL     1      18.419  -0.993   6.104  1.00  0.00    -0.493 OA
ATOM     18  C   UNL     1      19.845  -0.999   6.155  1.00  0.00     0.278 C 
ENDBRANCH  12  17
BRANCH  13  19
ATOM     19  O   UNL     1      18.603   0.829   8.232  1.00  0.00    -0.504 OA
ATOM     20  H   UNL     1      18.770  -0.104   8.590  1.00  0.00     0.293 HD
ENDBRANCH  13  19
ENDBRANCH   1  11
BRANCH   2  21
ATOM     21  O   UNL     1      13.156   1.330   5.090  1.00  0.00    -0.452 OA
BRANCH  21  22
ATOM     22  C   UNL     1      13.397   0.039   5.679  1.00  0.00     0.339 C 
ATOM     23  C   UNL     1      13.786   0.127   7.179  1.00  0.00     0.214 C 
ATOM     24  O   UNL     1      12.263  -0.795   5.486  1.00  0.00    -0.332 OA
ATOM     25  C   UNL     1      12.583   0.550   8.045  1.00  0.00     0.180 C 
ATOM     26  C   UNL     1      11.123  -0.287   6.163  1.00  0.00     0.179 C 
ATOM     27  C   UNL     1      11.354  -0.324   7.684  1.00  0.00     0.177 C 
BRANCH  23  28
ATOM     28  O   UNL     1      14.266  -1.125   7.603  1.00  0.00    -0.384 OA
ATOM     29  H   UNL     1      14.678  -0.992   8.498  1.00  0.00     0.211 HD
ENDBRANCH  23  28
BRANCH  25  30
ATOM     30  O   UNL     1      12.352   1.928   7.851  1.00  0.00    -0.387 OA
ATOM     31  H   UNL     1      11.683   2.231   8.520  1.00  0.00     0.211 HD
ENDBRANCH  25  30
BRANCH  26  32
ATOM     32  C   UNL     1       9.901  -1.125   5.770  1.00  0.00     0.191 C 
BRANCH  32  33
ATOM     33  O   UNL     1       8.810  -0.293   5.488  1.00  0.00    -0.394 OA
ATOM     34  H   UNL     1       8.749  -0.217   4.503  1.00  0.00     0.210 HD
ENDBRANCH  32  33
ENDBRANCH  26  32
BRANCH  27  35
ATOM     35  O   UNL     1      10.215   0.114   8.375  1.00  0.00    -0.387 OA
ATOM     36  H   UNL     1      10.533   0.700   9.115  1.00  0.00     0.211 HD
ENDBRANCH  27  35
ENDBRANCH  21  22
ENDBRANCH   2  21
BRANCH   5  37
ATOM     37  O   UNL     1      11.519   3.144   0.579  1.00  0.00    -0.461 OA
BRANCH  37  38
ATOM     38  C   UNL     1      10.641   2.548  -0.386  1.00  0.00     0.339 C 
ATOM     39  C   UNL     1      11.178   1.189  -0.891  1.00  0.00     0.214 C 
ATOM     40  O   UNL     1       9.336   2.407   0.154  1.00  0.00    -0.332 OA
ATOM     41  C   UNL     1      11.148   0.154   0.249  1.00  0.00     0.180 C 
ATOM     42  C   UNL     1       9.322   1.557   1.291  1.00  0.00     0.179 C 
ATOM     43  C   UNL     1       9.760   0.114   0.921  1.00  0.00     0.177 C 
BRANCH  39  44
ATOM     44  O   UNL     1      12.486   1.330  -1.378  1.00  0.00    -0.384 OA
ATOM     45  H   UNL     1      12.579   2.271  -1.680  1.00  0.00     0.211 HD
ENDBRANCH  39  44
BRANCH  41  46
ATOM     46  O   UNL     1      11.535  -1.123  -0.199  1.00  0.00    -0.387 OA
ATOM     47  H   UNL     1      11.959  -1.597   0.561  1.00  0.00     0.211 HD
ENDBRANCH  41  46
BRANCH  42  48
ATOM     48  C   UNL     1       7.930   1.598   1.941  1.00  0.00     0.191 C 
BRANCH  48  49
ATOM     49  O   UNL     1       8.015   1.596   3.341  1.00  0.00    -0.394 OA
ATOM     50  H   UNL     1       7.788   0.680   3.643  1.00  0.00     0.210 HD
ENDBRANCH  48  49
ENDBRANCH  42  48
BRANCH  43  51
ATOM     51  O   UNL     1       8.812  -0.534   0.105  1.00  0.00    -0.387 OA
ATOM     52  H   UNL     1       8.552  -1.386   0.545  1.00  0.00     0.211 HD
ENDBRANCH  43  51
ENDBRANCH  37  38
ENDBRANCH   5  37
BRANCH   7  53
ATOM     53  O   UNL     1      15.706   4.065  -1.732  1.00  0.00    -0.507 OA
ATOM     54  H   UNL     1      16.671   4.368  -1.697  1.00  0.00     0.293 HD
ENDBRANCH   7  53
TORSDOF 18
ENDMDL
MODEL 3
REMARK VINA RESULT:    -4.176     14.418     19.575
REMARK INTER + INTRA:          -8.402
REMARK INTER:                  -7.749
REMARK INTRA:                  -0.654
REMARK UNBOUND:                -1.053
REMARK SMILES COc1cc(-c2[o+]c3cc(O)cc(O[C@@H]4O[C@@H](CO)[C@@H](O)[C@@H](O)[C@@H]4O)c3cc2O[C@@H]2O[C@@H](CO)[C@H](O)[C@H](O)[C@H]2O)ccc1O
REMARK SMILES IDX 6 1 28 2 27 3 26 4 13 5 12 6 10 7 9 8 8 9 7 10 5 11 3 12
REMARK SMILES IDX 43 13 4 14 42 15 41 16 2 17 1 18 44 19 29 21 30 22 39 23
REMARK SMILES IDX 31 24 37 25 32 26 35 27 40 28 38 30 33 32 34 33 36 35 14 37
REMARK SMILES IDX 15 38 24 39 16 40 22 41 17 42 20 43 25 44 23 46 18 48 19 49
REMARK SMILES IDX 21 51 11 53
REMARK H PARENT 44 20 40 29 38 31 34 34 36 36 25 45 23 47 19 50 21 52 11 54
REMARK Flexibility Score: inf
ROOT
ATOM      1  C   UNL     1      23.726  13.736   5.872  1.00  0.00     0.402 A 
ATOM      2  C   UNL     1      24.777  13.698   6.810  1.00  0.00     0.229 A 
ATOM      3  C   UNL     1      25.234  12.446   7.243  1.00  0.00     0.079 A 
ATOM      4  C   UNL     1      24.677  11.274   6.711  1.00  0.00     0.126 A 
ATOM      5  C   UNL     1      25.103   9.994   7.122  1.00  0.00     0.143 A 
ATOM      6  C   UNL     1      24.511   8.856   6.533  1.00  0.00     0.094 A 
ATOM      7  C   UNL     1      23.535   8.995   5.545  1.00  0.00     0.128 A 
ATOM      8  C   UNL     1      23.106  10.265   5.156  1.00  0.00     0.162 A 
ATOM      9  C   UNL     1      23.665  11.402   5.740  1.00  0.00     0.368 A 
ATOM     10  O   UNL     1      23.232  12.603   5.380  1.00  0.00    -0.202 OA
ENDROOT
BRANCH   1  11
ATOM     11  C   UNL     1      23.101  15.009   5.450  1.00  0.00     0.087 A 
ATOM     12  C   UNL     1      21.138  16.469   5.434  1.00  0.00     0.161 A 
ATOM     13  C   UNL     1      21.885  17.443   4.740  1.00  0.00     0.157 A 
ATOM     14  C   UNL     1      21.756  15.249   5.774  1.00  0.00     0.068 A 
ATOM     15  C   UNL     1      23.217  17.187   4.387  1.00  0.00     0.051 A 
ATOM     16  C   UNL     1      23.818  15.976   4.733  1.00  0.00     0.022 A 
BRANCH  12  17
ATOM     17  O   UNL     1      19.810  16.756   5.783  1.00  0.00    -0.493 OA
ATOM     18  C   UNL     1      19.103  16.120   6.847  1.00  0.00     0.278 C 
ENDBRANCH  12  17
BRANCH  13  19
ATOM     19  O   UNL     1      21.321  18.672   4.397  1.00  0.00    -0.504 OA
ATOM     20  H   UNL     1      21.712  19.553   4.709  1.00  0.00     0.293 HD
ENDBRANCH  13  19
ENDBRANCH   1  11
BRANCH   2  21
ATOM     21  O   UNL     1      25.311  14.904   7.300  1.00  0.00    -0.452 OA
BRANCH  21  22
ATOM     22  C   UNL     1      26.675  15.346   7.177  1.00  0.00     0.339 C 
ATOM     23  C   UNL     1      26.787  16.833   6.745  1.00  0.00     0.214 C 
ATOM     24  O   UNL     1      27.368  15.107   8.394  1.00  0.00    -0.332 OA
ATOM     25  C   UNL     1      26.344  17.779   7.879  1.00  0.00     0.180 C 
ATOM     26  C   UNL     1      26.826  15.871   9.461  1.00  0.00     0.179 C 
ATOM     27  C   UNL     1      27.049  17.372   9.198  1.00  0.00     0.177 C 
BRANCH  23  28
ATOM     28  O   UNL     1      28.118  17.108   6.385  1.00  0.00    -0.384 OA
ATOM     29  H   UNL     1      28.143  17.182   5.394  1.00  0.00     0.211 HD
ENDBRANCH  23  28
BRANCH  25  30
ATOM     30  O   UNL     1      24.937  17.738   7.974  1.00  0.00    -0.387 OA
ATOM     31  H   UNL     1      24.691  17.530   8.913  1.00  0.00     0.211 HD
ENDBRANCH  25  30
BRANCH  26  32
ATOM     32  C   UNL     1      27.493  15.435  10.770  1.00  0.00     0.191 C 
BRANCH  32  33
ATOM     33  O   UNL     1      26.607  15.593  11.843  1.00  0.00    -0.394 OA
ATOM     34  H   UNL     1      26.629  14.752  12.364  1.00  0.00     0.210 HD
ENDBRANCH  32  33
ENDBRANCH  26  32
BRANCH  27  35
ATOM     35  O   UNL     1      26.578  18.144  10.271  1.00  0.00    -0.387 OA
ATOM     36  H   UNL     1      27.036  17.810  11.090  1.00  0.00     0.211 HD
ENDBRANCH  27  35
ENDBRANCH  21  22
ENDBRANCH   2  21
BRANCH   5  37
ATOM     37  O   UNL     1      26.095   9.899   8.112  1.00  0.00    -0.461 OA
BRANCH  37  38
ATOM     38  C   UNL     1      27.377   9.269   7.991  1.00  0.00     0.339 C 
ATOM     39  C   UNL     1      27.995   8.949   9.371  1.00  0.00     0.214 C 
ATOM     40  O   UNL     1      27.277   8.096   7.198  1.00  0.00    -0.332 OA
ATOM     41  C   UNL     1      27.169   7.859  10.079  1.00  0.00     0.180 C 
ATOM     42  C   UNL     1      26.409   7.135   7.780  1.00  0.00     0.179 C 
ATOM     43  C   UNL     1      26.948   6.646   9.151  1.00  0.00     0.177 C 
BRANCH  39  44
ATOM     44  O   UNL     1      28.044  10.106  10.165  1.00  0.00    -0.384 OA
ATOM     45  H   UNL     1      28.044  10.879   9.543  1.00  0.00     0.211 HD
ENDBRANCH  39  44
BRANCH  41  46
ATOM     46  O   UNL     1      27.758   7.469  11.296  1.00  0.00    -0.387 OA
ATOM     47  H   UNL     1      28.656   7.887  11.347  1.00  0.00     0.211 HD
ENDBRANCH  41  46
BRANCH  42  48
ATOM     48  C   UNL     1      26.191   5.979   6.790  1.00  0.00     0.191 C 
BRANCH  48  49
ATOM     49  O   UNL     1      26.689   6.291   5.516  1.00  0.00    -0.394 OA
ATOM     50  H   UNL     1      27.671   6.152   5.548  1.00  0.00     0.210 HD
ENDBRANCH  48  49
ENDBRANCH  42  48
BRANCH  43  51
ATOM     51  O   UNL     1      28.123   5.881   9.017  1.00  0.00    -0.387 OA
ATOM     52  H   UNL     1      28.793   6.222   9.665  1.00  0.00     0.211 HD
ENDBRANCH  43  51
ENDBRANCH  37  38
ENDBRANCH   5  37
BRANCH   7  53
ATOM     53  O   UNL     1      23.003   7.856   4.951  1.00  0.00    -0.507 OA
ATOM     54  H   UNL     1      22.282   7.309   5.403  1.00  0.00     0.293 HD
ENDBRANCH   7  53
TORSDOF 18
ENDMDL
MODEL 4
REMARK VINA RESULT:    -3.862      2.237      6.952
REMARK INTER + INTRA:          -7.851
REMARK INTER:                  -7.815
REMARK INTRA:                  -0.036
REMARK UNBOUND:                -1.053
REMARK SMILES COc1cc(-c2[o+]c3cc(O)cc(O[C@@H]4O[C@@H](CO)[C@@H](O)[C@@H](O)[C@@H]4O)c3cc2O[C@@H]2O[C@@H](CO)[C@H](O)[C@H](O)[C@H]2O)ccc1O
REMARK SMILES IDX 6 1 28 2 27 3 26 4 13 5 12 6 10 7 9 8 8 9 7 10 5 11 3 12
REMARK SMILES IDX 43 13 4 14 42 15 41 16 2 17 1 18 44 19 29 21 30 22 39 23
REMARK SMILES IDX 31 24 37 25 32 26 35 27 40 28 38 30 33 32 34 33 36 35 14 37
REMARK SMILES IDX 15 38 24 39 16 40 22 41 17 42 20 43 25 44 23 46 18 48 19 49
REMARK SMILES IDX 21 51 11 53
REMARK H PARENT 44 20 40 29 38 31 34 34 36 36 25 45 23 47 19 50 21 52 11 54
REMARK Flexibility Score: inf
ROOT
ATOM      1  C   UNL     1      10.121   1.959   1.661  1.00  0.00     0.402 A 
ATOM      2  C   UNL     1      11.404   1.415   1.449  1.00  0.00     0.229 A 
ATOM      3  C   UNL     1      11.931   0.561   2.427  1.00  0.00     0.079 A 
ATOM      4  C   UNL     1      11.168   0.234   3.558  1.00  0.00     0.126 A 
ATOM      5  C   UNL     1      11.660  -0.616   4.568  1.00  0.00     0.143 A 
ATOM      6  C   UNL     1      10.832  -0.917   5.672  1.00  0.00     0.094 A 
ATOM      7  C   UNL     1       9.539  -0.398   5.750  1.00  0.00     0.128 A 
ATOM      8  C   UNL     1       9.064   0.457   4.754  1.00  0.00     0.162 A 
ATOM      9  C   UNL     1       9.875   0.782   3.666  1.00  0.00     0.368 A 
ATOM     10  O   UNL     1       9.422   1.615   2.739  1.00  0.00    -0.202 OA
ENDROOT
BRANCH   1  11
ATOM     11  C   UNL     1       9.536   2.961   0.742  1.00  0.00     0.087 A 
ATOM     12  C   UNL     1       8.998   5.301   0.270  1.00  0.00     0.161 A 
ATOM     13  C   UNL     1       8.506   4.918  -0.994  1.00  0.00     0.157 A 
ATOM     14  C   UNL     1       9.501   4.309   1.136  1.00  0.00     0.068 A 
ATOM     15  C   UNL     1       8.510   3.568  -1.371  1.00  0.00     0.051 A 
ATOM     16  C   UNL     1       9.014   2.597  -0.506  1.00  0.00     0.022 A 
BRANCH  12  17
ATOM     17  O   UNL     1       8.991   6.660   0.616  1.00  0.00    -0.493 OA
ATOM     18  C   UNL     1       7.875   7.338   1.193  1.00  0.00     0.278 C 
ENDBRANCH  12  17
BRANCH  13  19
ATOM     19  O   UNL     1       8.014   5.867  -1.892  1.00  0.00    -0.504 OA
ATOM     20  H   UNL     1       7.035   6.125  -1.926  1.00  0.00     0.293 HD
ENDBRANCH  13  19
ENDBRANCH   1  11
BRANCH   2  21
ATOM     21  O   UNL     1      12.121   1.764   0.290  1.00  0.00    -0.452 OA
BRANCH  21  22
ATOM     22  C   UNL     1      13.410   1.257  -0.102  1.00  0.00     0.339 C 
ATOM     23  C   UNL     1      13.513   0.998  -1.629  1.00  0.00     0.214 C 
ATOM     24  O   UNL     1      14.427   2.142   0.344  1.00  0.00    -0.332 OA
ATOM     25  C   UNL     1      13.541   2.321  -2.420  1.00  0.00     0.180 C 
ATOM     26  C   UNL     1      14.325   3.412  -0.282  1.00  0.00     0.179 C 
ATOM     27  C   UNL     1      14.588   3.277  -1.793  1.00  0.00     0.177 C 
BRANCH  23  28
ATOM     28  O   UNL     1      14.681   0.259  -1.890  1.00  0.00    -0.384 OA
ATOM     29  H   UNL     1      15.034   0.572  -2.765  1.00  0.00     0.211 HD
ENDBRANCH  23  28
BRANCH  25  30
ATOM     30  O   UNL     1      12.239   2.864  -2.431  1.00  0.00    -0.387 OA
ATOM     31  H   UNL     1      11.838   2.699  -3.324  1.00  0.00     0.211 HD
ENDBRANCH  25  30
BRANCH  26  32
ATOM     32  C   UNL     1      15.330   4.368   0.370  1.00  0.00     0.191 C 
BRANCH  32  33
ATOM     33  O   UNL     1      14.836   4.831   1.596  1.00  0.00    -0.394 OA
ATOM     34  H   UNL     1      15.351   4.375   2.307  1.00  0.00     0.210 HD
ENDBRANCH  32  33
ENDBRANCH  26  32
BRANCH  27  35
ATOM     35  O   UNL     1      14.553   4.531  -2.422  1.00  0.00    -0.387 OA
ATOM     36  H   UNL     1      14.894   4.398  -3.349  1.00  0.00     0.211 HD
ENDBRANCH  27  35
ENDBRANCH  21  22
ENDBRANCH   2  21
BRANCH   5  37
ATOM     37  O   UNL     1      12.964  -1.125   4.445  1.00  0.00    -0.461 OA
BRANCH  37  38
ATOM     38  C   UNL     1      14.045  -0.962   5.373  1.00  0.00     0.339 C 
ATOM     39  C   UNL     1      15.178  -0.088   4.791  1.00  0.00     0.214 C 
ATOM     40  O   UNL     1      13.567  -0.422   6.596  1.00  0.00    -0.332 OA
ATOM     41  C   UNL     1      14.688   1.362   4.614  1.00  0.00     0.180 C 
ATOM     42  C   UNL     1      12.991   0.863   6.419  1.00  0.00     0.179 C 
ATOM     43  C   UNL     1      14.042   1.887   5.913  1.00  0.00     0.177 C 
BRANCH  39  44
ATOM     44  O   UNL     1      15.610  -0.603   3.559  1.00  0.00    -0.384 OA
ATOM     45  H   UNL     1      16.096  -1.445   3.756  1.00  0.00     0.211 HD
ENDBRANCH  39  44
BRANCH  41  46
ATOM     46  O   UNL     1      15.724   2.210   4.180  1.00  0.00    -0.387 OA
ATOM     47  H   UNL     1      15.903   2.008   3.226  1.00  0.00     0.211 HD
ENDBRANCH  41  46
BRANCH  42  48
ATOM     48  C   UNL     1      12.324   1.307   7.731  1.00  0.00     0.191 C 
BRANCH  48  49
ATOM     49  O   UNL     1      11.587   0.265   8.313  1.00  0.00    -0.394 OA
ATOM     50  H   UNL     1      12.122  -0.563   8.202  1.00  0.00     0.210 HD
ENDBRANCH  48  49
ENDBRANCH  42  48
BRANCH  43  51
ATOM     51  O   UNL     1      15.015   2.175   6.891  1.00  0.00    -0.387 OA
ATOM     52  H   UNL     1      14.635   1.956   7.782  1.00  0.00     0.211 HD
ENDBRANCH  43  51
ENDBRANCH  37  38
ENDBRANCH   5  37
BRANCH   7  53
ATOM     53  O   UNL     1       8.731  -0.750   6.825  1.00  0.00    -0.507 OA
ATOM     54  H   UNL     1       9.014  -1.454   7.494  1.00  0.00     0.293 HD
ENDBRANCH   7  53
TORSDOF 18
ENDMDL
MODEL 5
REMARK VINA RESULT:    -3.146      2.299      4.268
REMARK INTER + INTRA:          -6.590
REMARK INTER:                  -6.593
REMARK INTRA:                   0.004
REMARK UNBOUND:                -1.053
REMARK SMILES COc1cc(-c2[o+]c3cc(O)cc(O[C@@H]4O[C@@H](CO)[C@@H](O)[C@@H](O)[C@@H]4O)c3cc2O[C@@H]2O[C@@H](CO)[C@H](O)[C@H](O)[C@H]2O)ccc1O
REMARK SMILES IDX 6 1 28 2 27 3 26 4 13 5 12 6 10 7 9 8 8 9 7 10 5 11 3 12
REMARK SMILES IDX 43 13 4 14 42 15 41 16 2 17 1 18 44 19 29 21 30 22 39 23
REMARK SMILES IDX 31 24 37 25 32 26 35 27 40 28 38 30 33 32 34 33 36 35 14 37
REMARK SMILES IDX 15 38 24 39 16 40 22 41 17 42 20 43 25 44 23 46 18 48 19 49
REMARK SMILES IDX 21 51 11 53
REMARK H PARENT 44 20 40 29 38 31 34 34 36 36 25 45 23 47 19 50 21 52 11 54
REMARK Flexibility Score: inf
ROOT
ATOM      1  C   UNL     1      13.609   2.813   2.541  1.00  0.00     0.402 A 
ATOM      2  C   UNL     1      13.452   2.144   1.311  1.00  0.00     0.229 A 
ATOM      3  C   UNL     1      12.347   2.474   0.514  1.00  0.00     0.079 A 
ATOM      4  C   UNL     1      11.459   3.477   0.927  1.00  0.00     0.126 A 
ATOM      5  C   UNL     1      10.333   3.838   0.159  1.00  0.00     0.143 A 
ATOM      6  C   UNL     1       9.489   4.869   0.627  1.00  0.00     0.094 A 
ATOM      7  C   UNL     1       9.777   5.535   1.819  1.00  0.00     0.128 A 
ATOM      8  C   UNL     1      10.884   5.161   2.583  1.00  0.00     0.162 A 
ATOM      9  C   UNL     1      11.719   4.132   2.147  1.00  0.00     0.368 A 
ATOM     10  O   UNL     1      12.753   3.768   2.894  1.00  0.00    -0.202 OA
ENDROOT
BRANCH   1  11
ATOM     11  C   UNL     1      14.675   2.445   3.500  1.00  0.00     0.087 A 
ATOM     12  C   UNL     1      15.646   0.782   5.009  1.00  0.00     0.161 A 
ATOM     13  C   UNL     1      16.714   1.664   5.271  1.00  0.00     0.157 A 
ATOM     14  C   UNL     1      14.625   1.190   4.127  1.00  0.00     0.068 A 
ATOM     15  C   UNL     1      16.744   2.930   4.671  1.00  0.00     0.051 A 
ATOM     16  C   UNL     1      15.729   3.320   3.797  1.00  0.00     0.022 A 
BRANCH  12  17
ATOM     17  O   UNL     1      15.647  -0.482   5.616  1.00  0.00    -0.493 OA
ATOM     18  C   UNL     1      15.139  -0.747   6.923  1.00  0.00     0.278 C 
ENDBRANCH  12  17
BRANCH  13  19
ATOM     19  O   UNL     1      17.757   1.298   6.123  1.00  0.00    -0.504 OA
ATOM     20  H   UNL     1      17.786   1.578   7.096  1.00  0.00     0.293 HD
ENDBRANCH  13  19
ENDBRANCH   1  11
BRANCH   2  21
ATOM     21  O   UNL     1      14.380   1.155   0.937  1.00  0.00    -0.452 OA
BRANCH  21  22
ATOM     22  C   UNL     1      15.452   1.306  -0.013  1.00  0.00     0.339 C 
ATOM     23  C   UNL     1      15.533   0.126  -1.017  1.00  0.00     0.214 C 
ATOM     24  O   UNL     1      15.324   2.551  -0.685  1.00  0.00    -0.332 OA
ATOM     25  C   UNL     1      14.350   0.150  -2.006  1.00  0.00     0.180 C 
ATOM     26  C   UNL     1      14.134   2.605  -1.458  1.00  0.00     0.179 C 
ATOM     27  C   UNL     1      14.201   1.574  -2.600  1.00  0.00     0.177 C 
BRANCH  23  28
ATOM     28  O   UNL     1      16.747   0.206  -1.722  1.00  0.00    -0.384 OA
ATOM     29  H   UNL     1      16.670   0.972  -2.351  1.00  0.00     0.211 HD
ENDBRANCH  23  28
BRANCH  25  30
ATOM     30  O   UNL     1      13.191  -0.286  -1.329  1.00  0.00    -0.387 OA
ATOM     31  H   UNL     1      12.814   0.482  -0.826  1.00  0.00     0.211 HD
ENDBRANCH  25  30
BRANCH  26  32
ATOM     32  C   UNL     1      13.966   4.027  -2.007  1.00  0.00     0.191 C 
BRANCH  32  33
ATOM     33  O   UNL     1      12.670   4.205  -2.507  1.00  0.00    -0.394 OA
ATOM     34  H   UNL     1      12.211   4.842  -1.904  1.00  0.00     0.210 HD
ENDBRANCH  32  33
ENDBRANCH  26  32
BRANCH  27  35
ATOM     35  O   UNL     1      13.062   1.655  -3.415  1.00  0.00    -0.387 OA
ATOM     36  H   UNL     1      13.249   1.108  -4.226  1.00  0.00     0.211 HD
ENDBRANCH  27  35
ENDBRANCH  21  22
ENDBRANCH   2  21
BRANCH   5  37
ATOM     37  O   UNL     1      10.086   3.148  -1.040  1.00  0.00    -0.461 OA
BRANCH  37  38
ATOM     38  C   UNL     1       9.055   2.182  -1.282  1.00  0.00     0.339 C 
ATOM     39  C   UNL     1       9.638   0.787  -1.605  1.00  0.00     0.214 C 
ATOM     40  O   UNL     1       8.171   2.115  -0.174  1.00  0.00    -0.332 OA
ATOM     41  C   UNL     1      10.335   0.205  -0.360  1.00  0.00     0.180 C 
ATOM     42  C   UNL     1       8.836   1.708   1.012  1.00  0.00     0.179 C 
ATOM     43  C   UNL     1       9.408   0.271   0.872  1.00  0.00     0.177 C 
BRANCH  39  44
ATOM     44  O   UNL     1      10.548   0.871  -2.670  1.00  0.00    -0.384 OA
ATOM     45  H   UNL     1      11.405   1.196  -2.288  1.00  0.00     0.211 HD
ENDBRANCH  39  44
BRANCH  41  46
ATOM     46  O   UNL     1      10.791  -1.107  -0.586  1.00  0.00    -0.387 OA
ATOM     47  H   UNL     1      10.044  -1.727  -0.385  1.00  0.00     0.211 HD
ENDBRANCH  41  46
BRANCH  42  48
ATOM     48  C   UNL     1       7.877   1.842   2.207  1.00  0.00     0.191 C 
BRANCH  48  49
ATOM     49  O   UNL     1       8.211   0.951   3.237  1.00  0.00    -0.394 OA
ATOM     50  H   UNL     1       8.003   0.039   2.908  1.00  0.00     0.210 HD
ENDBRANCH  48  49
ENDBRANCH  42  48
BRANCH  43  51
ATOM     51  O   UNL     1       8.390  -0.700   0.802  1.00  0.00    -0.387 OA
ATOM     52  H   UNL     1       7.946  -0.624  -0.084  1.00  0.00     0.211 HD
ENDBRANCH  43  51
ENDBRANCH  37  38
ENDBRANCH   5  37
BRANCH   7  53
ATOM     53  O   UNL     1       8.953   6.577   2.229  1.00  0.00    -0.507 OA
ATOM     54  H   UNL     1       8.430   6.531   3.094  1.00  0.00     0.293 HD
ENDBRANCH   7  53
TORSDOF 18
ENDMDL
MODEL 6
REMARK VINA RESULT:    -3.140      1.882      5.675
REMARK INTER + INTRA:          -6.580
REMARK INTER:                  -5.585
REMARK INTRA:                  -0.995
REMARK UNBOUND:                -1.053
REMARK SMILES COc1cc(-c2[o+]c3cc(O)cc(O[C@@H]4O[C@@H](CO)[C@@H](O)[C@@H](O)[C@@H]4O)c3cc2O[C@@H]2O[C@@H](CO)[C@H](O)[C@H](O)[C@H]2O)ccc1O
REMARK SMILES IDX 6 1 28 2 27 3 26 4 13 5 12 6 10 7 9 8 8 9 7 10 5 11 3 12
REMARK SMILES IDX 43 13 4 14 42 15 41 16 2 17 1 18 44 19 29 21 30 22 39 23
REMARK SMILES IDX 31 24 37 25 32 26 35 27 40 28 38 30 33 32 34 33 36 35 14 37
REMARK SMILES IDX 15 38 24 39 16 40 22 41 17 42 20 43 25 44 23 46 18 48 19 49
REMARK SMILES IDX 21 51 11 53
REMARK H PARENT 44 20 40 29 38 31 34 34 36 36 25 45 23 47 19 50 21 52 11 54
REMARK Flexibility Score: inf
ROOT
ATOM      1  C   UNL     1      15.398   1.817   4.116  1.00  0.00     0.402 A 
ATOM      2  C   UNL     1      13.998   1.856   4.270  1.00  0.00     0.229 A 
ATOM      3  C   UNL     1      13.229   2.359   3.212  1.00  0.00     0.079 A 
ATOM      4  C   UNL     1      13.852   2.766   2.024  1.00  0.00     0.126 A 
ATOM      5  C   UNL     1      13.119   3.283   0.937  1.00  0.00     0.143 A 
ATOM      6  C   UNL     1      13.809   3.659  -0.237  1.00  0.00     0.094 A 
ATOM      7  C   UNL     1      15.193   3.501  -0.326  1.00  0.00     0.128 A 
ATOM      8  C   UNL     1      15.915   3.005   0.760  1.00  0.00     0.162 A 
ATOM      9  C   UNL     1      15.253   2.646   1.935  1.00  0.00     0.368 A 
ATOM     10  O   UNL     1      15.953   2.200   2.970  1.00  0.00    -0.202 OA
ENDROOT
BRANCH   1  11
ATOM     11  C   UNL     1      16.295   1.415   5.223  1.00  0.00     0.087 A 
ATOM     12  C   UNL     1      18.059  -0.064   6.052  1.00  0.00     0.161 A 
ATOM     13  C   UNL     1      18.072   0.654   7.265  1.00  0.00     0.157 A 
ATOM     14  C   UNL     1      17.155   0.320   5.041  1.00  0.00     0.068 A 
ATOM     15  C   UNL     1      17.187   1.725   7.458  1.00  0.00     0.051 A 
ATOM     16  C   UNL     1      16.301   2.097   6.447  1.00  0.00     0.022 A 
BRANCH  12  17
ATOM     17  O   UNL     1      18.962  -1.124   5.883  1.00  0.00    -0.493 OA
ATOM     18  C   UNL     1      20.312  -0.969   5.448  1.00  0.00     0.278 C 
ENDBRANCH  12  17
BRANCH  13  19
ATOM     19  O   UNL     1      18.961   0.322   8.289  1.00  0.00    -0.504 OA
ATOM     20  H   UNL     1      19.799  -0.221   8.123  1.00  0.00     0.293 HD
ENDBRANCH  13  19
ENDBRANCH   1  11
BRANCH   2  21
ATOM     21  O   UNL     1      13.421   1.420   5.477  1.00  0.00    -0.452 OA
BRANCH  21  22
ATOM     22  C   UNL     1      13.543   0.108   6.058  1.00  0.00     0.339 C 
ATOM     23  C   UNL     1      13.534   0.136   7.609  1.00  0.00     0.214 C 
ATOM     24  O   UNL     1      12.521  -0.736   5.548  1.00  0.00    -0.332 OA
ATOM     25  C   UNL     1      12.137   0.495   8.154  1.00  0.00     0.180 C 
ATOM     26  C   UNL     1      11.231  -0.282   5.929  1.00  0.00     0.179 C 
ATOM     27  C   UNL     1      11.067  -0.384   7.457  1.00  0.00     0.177 C 
BRANCH  23  28
ATOM     28  O   UNL     1      13.926  -1.125   8.093  1.00  0.00    -0.384 OA
ATOM     29  H   UNL     1      14.387  -1.593   7.346  1.00  0.00     0.211 HD
ENDBRANCH  23  28
BRANCH  25  30
ATOM     30  O   UNL     1      11.922   1.876   7.961  1.00  0.00    -0.387 OA
ATOM     31  H   UNL     1      12.568   2.203   7.282  1.00  0.00     0.211 HD
ENDBRANCH  25  30
BRANCH  26  32
ATOM     32  C   UNL     1      10.175  -1.124   5.204  1.00  0.00     0.191 C 
BRANCH  32  33
ATOM     33  O   UNL     1      10.256  -0.919   3.821  1.00  0.00    -0.394 OA
ATOM     34  H   UNL     1      10.074   0.040   3.658  1.00  0.00     0.210 HD
ENDBRANCH  32  33
ENDBRANCH  26  32
BRANCH  27  35
ATOM     35  O   UNL     1       9.777   0.000   7.849  1.00  0.00    -0.387 OA
ATOM     36  H   UNL     1       9.142  -0.427   7.211  1.00  0.00     0.211 HD
ENDBRANCH  27  35
ENDBRANCH  21  22
ENDBRANCH   2  21
BRANCH   5  37
ATOM     37  O   UNL     1      11.726   3.416   1.066  1.00  0.00    -0.461 OA
BRANCH  37  38
ATOM     38  C   UNL     1      10.761   2.357   1.134  1.00  0.00     0.339 C 
ATOM     39  C   UNL     1       9.327   2.866   0.863  1.00  0.00     0.214 C 
ATOM     40  O   UNL     1      11.107   1.316   0.233  1.00  0.00    -0.332 OA
ATOM     41  C   UNL     1       9.197   3.322  -0.603  1.00  0.00     0.180 C 
ATOM     42  C   UNL     1      11.121   1.762  -1.114  1.00  0.00     0.179 C 
ATOM     43  C   UNL     1       9.711   2.231  -1.566  1.00  0.00     0.177 C 
BRANCH  39  44
ATOM     44  O   UNL     1       9.013   3.927   1.726  1.00  0.00    -0.384 OA
ATOM     45  H   UNL     1       8.202   3.655   2.229  1.00  0.00     0.211 HD
ENDBRANCH  39  44
BRANCH  41  46
ATOM     46  O   UNL     1       7.877   3.697  -0.914  1.00  0.00    -0.387 OA
ATOM     47  H   UNL     1       7.412   3.905  -0.064  1.00  0.00     0.211 HD
ENDBRANCH  41  46
BRANCH  42  48
ATOM     48  C   UNL     1      11.686   0.652  -2.014  1.00  0.00     0.191 C 
BRANCH  48  49
ATOM     49  O   UNL     1      12.465  -0.256  -1.283  1.00  0.00    -0.394 OA
ATOM     50  H   UNL     1      13.391   0.100  -1.273  1.00  0.00     0.210 HD
ENDBRANCH  48  49
ENDBRANCH  42  48
BRANCH  43  51
ATOM     51  O   UNL     1       8.801   1.159  -1.661  1.00  0.00    -0.387 OA
ATOM     52  H   UNL     1       9.298   0.355  -1.966  1.00  0.00     0.211 HD
ENDBRANCH  43  51
ENDBRANCH  37  38
ENDBRANCH   5  37
BRANCH   7  53
ATOM     53  O   UNL     1      15.838   3.837  -1.511  1.00  0.00    -0.507 OA
ATOM     54  H   UNL     1      16.131   3.132  -2.174  1.00  0.00     0.293 HD
ENDBRANCH   7  53
TORSDOF 18
ENDMDL
