MODEL 1
REMARK VINA RESULT:    -7.375      0.000      0.000
REMARK INTER + INTRA:          -7.591
REMARK INTER:                  -7.591
REMARK INTRA:                   0.000
REMARK UNBOUND:                 0.000
REMARK SMILES CC1(C)CC[C@@]2(C)CC[C@@]3(C)C(=CC[C@@H]4[C@]5(C)CC[C@@H](O)C(C)(C)[C@H]5CC[C@@]43C)[C@H]2C1
REMARK SMILES IDX 1 1 2 2 4 3 5 4 6 5 8 6 9 7 10 8 12 9 13 10 14 11 15 12
REMARK SMILES IDX 28 13 27 14 26 15 25 16 16 17 18 18 19 19 20 20 22 21 23 22
REMARK SMILES IDX 24 23 17 24 29 25 30 26 31 27 11 28 7 29 3 30 21 31
REMARK H PARENT 21 32
REMARK Flexibility Score: inf
ROOT
ATOM      1  C   UNL     1     122.625 116.490 123.606  1.00  0.00     0.011 C 
ATOM      2  C   UNL     1     121.514 117.200 122.796  1.00  0.00    -0.035 C 
ATOM      3  C   UNL     1     121.234 116.377 121.490  1.00  0.00     0.007 C 
ATOM      4  C   UNL     1     119.777 115.899 121.321  1.00  0.00     0.008 C 
ATOM      5  C   UNL     1     118.742 117.033 121.538  1.00  0.00    -0.026 C 
ATOM      6  C   UNL     1     117.289 116.488 121.368  1.00  0.00     0.008 C 
ATOM      7  C   UNL     1     116.728 115.652 122.534  1.00  0.00     0.012 C 
ATOM      8  C   UNL     1     116.979 116.214 123.993  1.00  0.00    -0.006 C 
ATOM      9  C   UNL     1     117.679 117.582 123.824  1.00  0.00    -0.064 C 
ATOM     10  C   UNL     1     117.017 118.728 124.045  1.00  0.00    -0.027 C 
ATOM     11  C   UNL     1     115.602 118.845 124.479  1.00  0.00     0.032 C 
ATOM     12  C   UNL     1     114.738 117.548 124.480  1.00  0.00     0.006 C 
ATOM     13  C   UNL     1     115.609 116.281 124.871  1.00  0.00    -0.020 C 
ATOM     14  C   UNL     1     115.905 116.397 126.407  1.00  0.00     0.008 C 
ATOM     15  C   UNL     1     114.656 116.566 127.302  1.00  0.00     0.005 C 
ATOM     16  C   UNL     1     113.789 117.781 126.897  1.00  0.00     0.003 C 
ATOM     17  C   UNL     1     113.407 117.762 125.364  1.00  0.00    -0.025 C 
ATOM     18  C   UNL     1     112.725 119.136 125.028  1.00  0.00     0.010 C 
ATOM     19  C   UNL     1     111.549 119.503 125.954  1.00  0.00     0.033 C 
ATOM     20  C   UNL     1     111.965 119.489 127.438  1.00  0.00     0.120 C 
ATOM     21  C   UNL     1     112.617 118.141 127.903  1.00  0.00    -0.006 C 
ATOM     22  C   UNL     1     113.206 118.386 129.321  1.00  0.00     0.014 C 
ATOM     23  C   UNL     1     111.553 117.020 128.050  1.00  0.00     0.014 C 
ATOM     24  C   UNL     1     112.369 116.653 124.997  1.00  0.00     0.012 C 
ATOM     25  C   UNL     1     114.827 114.933 124.630  1.00  0.00     0.012 C 
ATOM     26  C   UNL     1     118.948 117.711 122.946  1.00  0.00     0.022 C 
ATOM     27  C   UNL     1     120.252 117.314 123.698  1.00  0.00     0.015 C 
ATOM     28  C   UNL     1     117.964 115.234 124.710  1.00  0.00     0.017 C 
ATOM     29  C   UNL     1     118.911 118.081 120.399  1.00  0.00     0.012 C 
ATOM     30  C   UNL     1     122.040 118.616 122.455  1.00  0.00     0.011 C 
ENDROOT
BRANCH  20  31
ATOM     31  O   UNL     1     110.884 119.864 128.261  1.00  0.00    -0.393 OA
ATOM     32  H   UNL     1     110.324 120.512 127.760  1.00  0.00     0.210 HD
ENDBRANCH  20  31
TORSDOF 1
ENDMDL
MODEL 2
REMARK VINA RESULT:    -7.272      3.880      5.777
REMARK INTER + INTRA:          -7.485
REMARK INTER:                  -7.485
REMARK INTRA:                   0.000
REMARK UNBOUND:                 0.000
REMARK SMILES CC1(C)CC[C@@]2(C)CC[C@@]3(C)C(=CC[C@@H]4[C@]5(C)CC[C@@H](O)C(C)(C)[C@H]5CC[C@@]43C)[C@H]2C1
REMARK SMILES IDX 1 1 2 2 4 3 5 4 6 5 8 6 9 7 10 8 12 9 13 10 14 11 15 12
REMARK SMILES IDX 28 13 27 14 26 15 25 16 16 17 18 18 19 19 20 20 22 21 23 22
REMARK SMILES IDX 24 23 17 24 29 25 30 26 31 27 11 28 7 29 3 30 21 31
REMARK H PARENT 21 32
REMARK Flexibility Score: inf
ROOT
ATOM      1  C   UNL     1     121.822 117.372 130.336  1.00  0.00     0.011 C 
ATOM      2  C   UNL     1     121.021 116.168 129.786  1.00  0.00    -0.035 C 
ATOM      3  C   UNL     1     120.594 115.252 130.987  1.00  0.00     0.007 C 
ATOM      4  C   UNL     1     119.074 115.024 131.123  1.00  0.00     0.008 C 
ATOM      5  C   UNL     1     118.407 114.600 129.790  1.00  0.00    -0.026 C 
ATOM      6  C   UNL     1     116.871 114.397 129.987  1.00  0.00     0.008 C 
ATOM      7  C   UNL     1     116.018 115.676 130.093  1.00  0.00     0.012 C 
ATOM      8  C   UNL     1     116.331 116.825 129.050  1.00  0.00    -0.006 C 
ATOM      9  C   UNL     1     117.411 116.269 128.094  1.00  0.00    -0.064 C 
ATOM     10  C   UNL     1     117.102 115.911 126.838  1.00  0.00    -0.027 C 
ATOM     11  C   UNL     1     115.759 116.007 126.212  1.00  0.00     0.032 C 
ATOM     12  C   UNL     1     114.555 116.354 127.137  1.00  0.00     0.006 C 
ATOM     13  C   UNL     1     114.989 117.351 128.292  1.00  0.00    -0.020 C 
ATOM     14  C   UNL     1     115.209 118.750 127.617  1.00  0.00     0.008 C 
ATOM     15  C   UNL     1     114.011 119.273 126.792  1.00  0.00     0.005 C 
ATOM     16  C   UNL     1     113.566 118.285 125.690  1.00  0.00     0.003 C 
ATOM     17  C   UNL     1     113.293 116.835 126.257  1.00  0.00    -0.025 C 
ATOM     18  C   UNL     1     113.067 115.881 125.031  1.00  0.00     0.010 C 
ATOM     19  C   UNL     1     111.995 116.369 124.037  1.00  0.00     0.033 C 
ATOM     20  C   UNL     1     112.294 117.792 123.527  1.00  0.00     0.120 C 
ATOM     21  C   UNL     1     112.492 118.848 124.669  1.00  0.00    -0.006 C 
ATOM     22  C   UNL     1     113.037 120.143 124.002  1.00  0.00     0.014 C 
ATOM     23  C   UNL     1     111.139 119.224 125.331  1.00  0.00     0.014 C 
ATOM     24  C   UNL     1     112.000 116.746 127.130  1.00  0.00     0.012 C 
ATOM     25  C   UNL     1     113.863 117.513 129.383  1.00  0.00     0.012 C 
ATOM     26  C   UNL     1     118.714 115.651 128.656  1.00  0.00     0.022 C 
ATOM     27  C   UNL     1     119.795 116.716 129.003  1.00  0.00     0.015 C 
ATOM     28  C   UNL     1     116.939 118.027 129.844  1.00  0.00     0.017 C 
ATOM     29  C   UNL     1     118.947 113.195 129.392  1.00  0.00     0.012 C 
ATOM     30  C   UNL     1     121.960 115.407 128.818  1.00  0.00     0.011 C 
ENDROOT
BRANCH  20  31
ATOM     31  O   UNL     1     111.321 118.200 122.593  1.00  0.00    -0.393 OA
ATOM     32  H   UNL     1     110.469 118.349 123.078  1.00  0.00     0.210 HD
ENDBRANCH  20  31
TORSDOF 1
ENDMDL
MODEL 3
REMARK VINA RESULT:    -6.900      2.915      8.213
REMARK INTER + INTRA:          -7.102
REMARK INTER:                  -7.102
REMARK INTRA:                   0.000
REMARK UNBOUND:                 0.000
REMARK SMILES CC1(C)CC[C@@]2(C)CC[C@@]3(C)C(=CC[C@@H]4[C@]5(C)CC[C@@H](O)C(C)(C)[C@H]5CC[C@@]43C)[C@H]2C1
REMARK SMILES IDX 1 1 2 2 4 3 5 4 6 5 8 6 9 7 10 8 12 9 13 10 14 11 15 12
REMARK SMILES IDX 28 13 27 14 26 15 25 16 16 17 18 18 19 19 20 20 22 21 23 22
REMARK SMILES IDX 24 23 17 24 29 25 30 26 31 27 11 28 7 29 3 30 21 31
REMARK H PARENT 21 32
REMARK Flexibility Score: inf
ROOT
ATOM      1  C   UNL     1     112.729 117.270 130.432  1.00  0.00     0.011 C 
ATOM      2  C   UNL     1     112.495 117.303 128.903  1.00  0.00    -0.035 C 
ATOM      3  C   UNL     1     111.572 118.525 128.557  1.00  0.00     0.007 C 
ATOM      4  C   UNL     1     112.176 119.536 127.561  1.00  0.00     0.008 C 
ATOM      5  C   UNL     1     112.758 118.859 126.294  1.00  0.00    -0.026 C 
ATOM      6  C   UNL     1     113.365 119.928 125.332  1.00  0.00     0.008 C 
ATOM      7  C   UNL     1     114.730 120.518 125.734  1.00  0.00     0.012 C 
ATOM      8  C   UNL     1     115.824 119.492 126.239  1.00  0.00    -0.006 C 
ATOM      9  C   UNL     1     115.209 118.082 126.085  1.00  0.00    -0.064 C 
ATOM     10  C   UNL     1     115.614 117.254 125.110  1.00  0.00    -0.027 C 
ATOM     11  C   UNL     1     116.666 117.546 124.103  1.00  0.00     0.032 C 
ATOM     12  C   UNL     1     117.207 119.005 124.027  1.00  0.00     0.006 C 
ATOM     13  C   UNL     1     117.246 119.677 125.464  1.00  0.00    -0.020 C 
ATOM     14  C   UNL     1     118.427 119.001 126.243  1.00  0.00     0.008 C 
ATOM     15  C   UNL     1     119.794 119.046 125.523  1.00  0.00     0.005 C 
ATOM     16  C   UNL     1     119.748 118.423 124.109  1.00  0.00     0.003 C 
ATOM     17  C   UNL     1     118.600 119.044 123.216  1.00  0.00    -0.025 C 
ATOM     18  C   UNL     1     118.508 118.192 121.901  1.00  0.00     0.010 C 
ATOM     19  C   UNL     1     119.848 118.027 121.158  1.00  0.00     0.033 C 
ATOM     20  C   UNL     1     120.940 117.437 122.073  1.00  0.00     0.120 C 
ATOM     21  C   UNL     1     121.156 118.238 123.403  1.00  0.00    -0.006 C 
ATOM     22  C   UNL     1     122.081 117.376 124.308  1.00  0.00     0.014 C 
ATOM     23  C   UNL     1     121.904 119.573 123.143  1.00  0.00     0.014 C 
ATOM     24  C   UNL     1     118.888 120.514 122.771  1.00  0.00     0.012 C 
ATOM     25  C   UNL     1     117.541 121.223 125.383  1.00  0.00     0.012 C 
ATOM     26  C   UNL     1     113.820 117.763 126.688  1.00  0.00     0.022 C 
ATOM     27  C   UNL     1     113.880 117.400 128.201  1.00  0.00     0.015 C 
ATOM     28  C   UNL     1     116.064 119.769 127.758  1.00  0.00     0.017 C 
ATOM     29  C   UNL     1     111.586 118.220 125.492  1.00  0.00     0.012 C 
ATOM     30  C   UNL     1     111.809 115.968 128.523  1.00  0.00     0.011 C 
ENDROOT
BRANCH  20  31
ATOM     31  O   UNL     1     122.143 117.261 121.361  1.00  0.00    -0.393 OA
ATOM     32  H   UNL     1     122.491 118.157 121.114  1.00  0.00     0.210 HD
ENDBRANCH  20  31
TORSDOF 1
ENDMDL
MODEL 4
REMARK VINA RESULT:    -6.890      4.316      6.202
REMARK INTER + INTRA:          -7.091
REMARK INTER:                  -7.091
REMARK INTRA:                   0.000
REMARK UNBOUND:                 0.000
REMARK SMILES CC1(C)CC[C@@]2(C)CC[C@@]3(C)C(=CC[C@@H]4[C@]5(C)CC[C@@H](O)C(C)(C)[C@H]5CC[C@@]43C)[C@H]2C1
REMARK SMILES IDX 1 1 2 2 4 3 5 4 6 5 8 6 9 7 10 8 12 9 13 10 14 11 15 12
REMARK SMILES IDX 28 13 27 14 26 15 25 16 16 17 18 18 19 19 20 20 22 21 23 22
REMARK SMILES IDX 24 23 17 24 29 25 30 26 31 27 11 28 7 29 3 30 21 31
REMARK H PARENT 21 32
REMARK Flexibility Score: inf
ROOT
ATOM      1  C   UNL     1     119.318 126.023 126.708  1.00  0.00     0.011 C 
ATOM      2  C   UNL     1     117.926 125.503 126.275  1.00  0.00    -0.035 C 
ATOM      3  C   UNL     1     117.863 125.467 124.707  1.00  0.00     0.007 C 
ATOM      4  C   UNL     1     117.551 124.084 124.100  1.00  0.00     0.008 C 
ATOM      5  C   UNL     1     116.325 123.400 124.757  1.00  0.00    -0.026 C 
ATOM      6  C   UNL     1     116.067 122.002 124.111  1.00  0.00     0.008 C 
ATOM      7  C   UNL     1     117.018 120.866 124.532  1.00  0.00     0.012 C 
ATOM      8  C   UNL     1     117.344 120.750 126.077  1.00  0.00    -0.006 C 
ATOM      9  C   UNL     1     116.485 121.820 126.789  1.00  0.00    -0.064 C 
ATOM     10  C   UNL     1     115.406 121.473 127.509  1.00  0.00    -0.027 C 
ATOM     11  C   UNL     1     114.919 120.088 127.730  1.00  0.00     0.032 C 
ATOM     12  C   UNL     1     115.576 118.949 126.895  1.00  0.00     0.006 C 
ATOM     13  C   UNL     1     117.116 119.240 126.643  1.00  0.00    -0.020 C 
ATOM     14  C   UNL     1     117.845 119.013 128.013  1.00  0.00     0.008 C 
ATOM     15  C   UNL     1     117.595 117.635 128.666  1.00  0.00     0.005 C 
ATOM     16  C   UNL     1     116.093 117.337 128.879  1.00  0.00     0.003 C 
ATOM     17  C   UNL     1     115.251 117.513 127.553  1.00  0.00    -0.025 C 
ATOM     18  C   UNL     1     113.733 117.402 127.936  1.00  0.00     0.010 C 
ATOM     19  C   UNL     1     113.372 116.134 128.734  1.00  0.00     0.033 C 
ATOM     20  C   UNL     1     114.230 115.996 130.006  1.00  0.00     0.120 C 
ATOM     21  C   UNL     1     115.774 116.043 129.740  1.00  0.00    -0.006 C 
ATOM     22  C   UNL     1     116.472 116.156 131.125  1.00  0.00     0.014 C 
ATOM     23  C   UNL     1     116.277 114.724 129.094  1.00  0.00     0.014 C 
ATOM     24  C   UNL     1     115.522 116.396 126.495  1.00  0.00     0.012 C 
ATOM     25  C   UNL     1     117.738 118.243 125.593  1.00  0.00     0.012 C 
ATOM     26  C   UNL     1     116.517 123.294 126.317  1.00  0.00     0.022 C 
ATOM     27  C   UNL     1     117.717 124.096 126.902  1.00  0.00     0.015 C 
ATOM     28  C   UNL     1     118.853 121.114 126.268  1.00  0.00     0.017 C 
ATOM     29  C   UNL     1     115.055 124.235 124.419  1.00  0.00     0.012 C 
ATOM     30  C   UNL     1     116.879 126.490 126.847  1.00  0.00     0.011 C 
ENDROOT
BRANCH  20  31
ATOM     31  O   UNL     1     113.856 114.851 130.737  1.00  0.00    -0.393 OA
ATOM     32  H   UNL     1     113.019 114.491 130.342  1.00  0.00     0.210 HD
ENDBRANCH  20  31
TORSDOF 1
ENDMDL
MODEL 5
REMARK VINA RESULT:    -6.801      2.188      3.971
REMARK INTER + INTRA:          -7.000
REMARK INTER:                  -7.000
REMARK INTRA:                   0.000
REMARK UNBOUND:                 0.000
REMARK SMILES CC1(C)CC[C@@]2(C)CC[C@@]3(C)C(=CC[C@@H]4[C@]5(C)CC[C@@H](O)C(C)(C)[C@H]5CC[C@@]43C)[C@H]2C1
REMARK SMILES IDX 1 1 2 2 4 3 5 4 6 5 8 6 9 7 10 8 12 9 13 10 14 11 15 12
REMARK SMILES IDX 28 13 27 14 26 15 25 16 16 17 18 18 19 19 20 20 22 21 23 22
REMARK SMILES IDX 24 23 17 24 29 25 30 26 31 27 11 28 7 29 3 30 21 31
REMARK H PARENT 21 32
REMARK Flexibility Score: inf
ROOT
ATOM      1  C   UNL     1     122.411 118.172 121.604  1.00  0.00     0.011 C 
ATOM      2  C   UNL     1     122.287 118.476 123.116  1.00  0.00    -0.035 C 
ATOM      3  C   UNL     1     122.661 119.981 123.363  1.00  0.00     0.007 C 
ATOM      4  C   UNL     1     121.561 120.823 124.039  1.00  0.00     0.008 C 
ATOM      5  C   UNL     1     120.975 120.145 125.304  1.00  0.00    -0.026 C 
ATOM      6  C   UNL     1     119.859 121.037 125.936  1.00  0.00     0.008 C 
ATOM      7  C   UNL     1     118.497 121.043 125.218  1.00  0.00     0.012 C 
ATOM      8  C   UNL     1     117.934 119.638 124.753  1.00  0.00    -0.006 C 
ATOM      9  C   UNL     1     118.930 118.573 125.268  1.00  0.00    -0.064 C 
ATOM     10  C   UNL     1     118.619 117.783 126.308  1.00  0.00    -0.027 C 
ATOM     11  C   UNL     1     117.340 117.802 127.061  1.00  0.00     0.032 C 
ATOM     12  C   UNL     1     116.347 118.967 126.770  1.00  0.00     0.006 C 
ATOM     13  C   UNL     1     116.400 119.395 125.243  1.00  0.00    -0.020 C 
ATOM     14  C   UNL     1     115.701 118.249 124.432  1.00  0.00     0.008 C 
ATOM     15  C   UNL     1     114.274 117.891 124.905  1.00  0.00     0.005 C 
ATOM     16  C   UNL     1     114.218 117.507 126.402  1.00  0.00     0.003 C 
ATOM     17  C   UNL     1     114.879 118.604 127.328  1.00  0.00    -0.025 C 
ATOM     18  C   UNL     1     114.960 118.012 128.780  1.00  0.00     0.010 C 
ATOM     19  C   UNL     1     113.622 117.471 129.320  1.00  0.00     0.033 C 
ATOM     20  C   UNL     1     113.008 116.420 128.374  1.00  0.00     0.120 C 
ATOM     21  C   UNL     1     112.832 116.918 126.898  1.00  0.00    -0.006 C 
ATOM     22  C   UNL     1     112.457 115.676 126.041  1.00  0.00     0.014 C 
ATOM     23  C   UNL     1     111.650 117.917 126.777  1.00  0.00     0.014 C 
ATOM     24  C   UNL     1     114.036 119.916 127.432  1.00  0.00     0.012 C 
ATOM     25  C   UNL     1     115.604 120.730 124.980  1.00  0.00     0.012 C 
ATOM     26  C   UNL     1     120.442 118.701 124.964  1.00  0.00     0.022 C 
ATOM     27  C   UNL     1     120.831 118.156 123.559  1.00  0.00     0.015 C 
ATOM     28  C   UNL     1     117.949 119.620 123.189  1.00  0.00     0.017 C 
ATOM     29  C   UNL     1     122.090 120.075 126.388  1.00  0.00     0.012 C 
ATOM     30  C   UNL     1     123.274 117.534 123.848  1.00  0.00     0.011 C 
ENDROOT
BRANCH  20  31
ATOM     31  O   UNL     1     111.806 115.914 128.908  1.00  0.00    -0.393 OA
ATOM     32  H   UNL     1     111.295 115.489 128.171  1.00  0.00     0.210 HD
ENDBRANCH  20  31
TORSDOF 1
ENDMDL
MODEL 6
REMARK VINA RESULT:    -6.738      2.968      4.562
REMARK INTER + INTRA:          -6.935
REMARK INTER:                  -6.935
REMARK INTRA:                   0.000
REMARK UNBOUND:                 0.000
REMARK SMILES CC1(C)CC[C@@]2(C)CC[C@@]3(C)C(=CC[C@@H]4[C@]5(C)CC[C@@H](O)C(C)(C)[C@H]5CC[C@@]43C)[C@H]2C1
REMARK SMILES IDX 1 1 2 2 4 3 5 4 6 5 8 6 9 7 10 8 12 9 13 10 14 11 15 12
REMARK SMILES IDX 28 13 27 14 26 15 25 16 16 17 18 18 19 19 20 20 22 21 23 22
REMARK SMILES IDX 24 23 17 24 29 25 30 26 31 27 11 28 7 29 3 30 21 31
REMARK H PARENT 21 32
REMARK Flexibility Score: inf
ROOT
ATOM      1  C   UNL     1     118.746 112.191 125.875  1.00  0.00     0.011 C 
ATOM      2  C   UNL     1     118.311 112.990 124.623  1.00  0.00    -0.035 C 
ATOM      3  C   UNL     1     117.055 112.292 123.989  1.00  0.00     0.007 C 
ATOM      4  C   UNL     1     115.806 113.189 123.864  1.00  0.00     0.008 C 
ATOM      5  C   UNL     1     116.113 114.561 123.212  1.00  0.00    -0.026 C 
ATOM      6  C   UNL     1     114.816 115.427 123.125  1.00  0.00     0.008 C 
ATOM      7  C   UNL     1     114.334 116.076 124.437  1.00  0.00     0.012 C 
ATOM      8  C   UNL     1     115.442 116.762 125.336  1.00  0.00    -0.006 C 
ATOM      9  C   UNL     1     116.769 116.668 124.550  1.00  0.00    -0.064 C 
ATOM     10  C   UNL     1     117.301 117.749 123.960  1.00  0.00    -0.027 C 
ATOM     11  C   UNL     1     116.735 119.122 123.991  1.00  0.00     0.032 C 
ATOM     12  C   UNL     1     115.300 119.299 124.573  1.00  0.00     0.006 C 
ATOM     13  C   UNL     1     115.036 118.281 125.761  1.00  0.00    -0.020 C 
ATOM     14  C   UNL     1     115.877 118.791 126.983  1.00  0.00     0.008 C 
ATOM     15  C   UNL     1     115.620 120.261 127.384  1.00  0.00     0.005 C 
ATOM     16  C   UNL     1     115.845 121.249 126.216  1.00  0.00     0.003 C 
ATOM     17  C   UNL     1     115.026 120.848 124.925  1.00  0.00    -0.025 C 
ATOM     18  C   UNL     1     115.498 121.782 123.755  1.00  0.00     0.010 C 
ATOM     19  C   UNL     1     115.439 123.286 124.082  1.00  0.00     0.033 C 
ATOM     20  C   UNL     1     116.234 123.626 125.358  1.00  0.00     0.120 C 
ATOM     21  C   UNL     1     115.814 122.784 126.612  1.00  0.00    -0.006 C 
ATOM     22  C   UNL     1     116.872 123.057 127.718  1.00  0.00     0.014 C 
ATOM     23  C   UNL     1     114.447 123.257 127.176  1.00  0.00     0.014 C 
ATOM     24  C   UNL     1     113.486 121.070 125.074  1.00  0.00     0.012 C 
ATOM     25  C   UNL     1     113.519 118.262 126.191  1.00  0.00     0.012 C 
ATOM     26  C   UNL     1     117.258 115.307 123.997  1.00  0.00     0.022 C 
ATOM     27  C   UNL     1     118.010 114.452 125.059  1.00  0.00     0.015 C 
ATOM     28  C   UNL     1     115.575 115.915 126.644  1.00  0.00     0.017 C 
ATOM     29  C   UNL     1     116.532 114.322 121.732  1.00  0.00     0.012 C 
ATOM     30  C   UNL     1     119.506 112.974 123.640  1.00  0.00     0.011 C 
ENDROOT
BRANCH  20  31
ATOM     31  O   UNL     1     116.197 125.011 125.614  1.00  0.00    -0.393 OA
ATOM     32  H   UNL     1     116.903 125.222 126.277  1.00  0.00     0.210 HD
ENDBRANCH  20  31
TORSDOF 1
ENDMDL
MODEL 7
REMARK VINA RESULT:    -6.714      3.977      7.261
REMARK INTER + INTRA:          -6.911
REMARK INTER:                  -6.911
REMARK INTRA:                   0.000
REMARK UNBOUND:                 0.000
REMARK SMILES CC1(C)CC[C@@]2(C)CC[C@@]3(C)C(=CC[C@@H]4[C@]5(C)CC[C@@H](O)C(C)(C)[C@H]5CC[C@@]43C)[C@H]2C1
REMARK SMILES IDX 1 1 2 2 4 3 5 4 6 5 8 6 9 7 10 8 12 9 13 10 14 11 15 12
REMARK SMILES IDX 28 13 27 14 26 15 25 16 16 17 18 18 19 19 20 20 22 21 23 22
REMARK SMILES IDX 24 23 17 24 29 25 30 26 31 27 11 28 7 29 3 30 21 31
REMARK H PARENT 21 32
REMARK Flexibility Score: inf
ROOT
ATOM      1  C   UNL     1     125.442 119.136 115.376  1.00  0.00     0.011 C 
ATOM      2  C   UNL     1     124.195 118.224 115.472  1.00  0.00    -0.035 C 
ATOM      3  C   UNL     1     124.648 116.728 115.329  1.00  0.00     0.007 C 
ATOM      4  C   UNL     1     124.270 115.817 116.514  1.00  0.00     0.008 C 
ATOM      5  C   UNL     1     122.781 115.946 116.923  1.00  0.00    -0.026 C 
ATOM      6  C   UNL     1     122.463 115.012 118.133  1.00  0.00     0.008 C 
ATOM      7  C   UNL     1     122.959 115.483 119.513  1.00  0.00     0.012 C 
ATOM      8  C   UNL     1     122.723 117.008 119.869  1.00  0.00    -0.006 C 
ATOM      9  C   UNL     1     121.923 117.615 118.694  1.00  0.00    -0.064 C 
ATOM     10  C   UNL     1     120.620 117.908 118.824  1.00  0.00    -0.027 C 
ATOM     11  C   UNL     1     119.806 117.722 120.053  1.00  0.00     0.032 C 
ATOM     12  C   UNL     1     120.447 116.928 121.229  1.00  0.00     0.006 C 
ATOM     13  C   UNL     1     122.008 117.199 121.320  1.00  0.00    -0.020 C 
ATOM     14  C   UNL     1     122.178 118.659 121.867  1.00  0.00     0.008 C 
ATOM     15  C   UNL     1     121.442 118.948 123.195  1.00  0.00     0.005 C 
ATOM     16  C   UNL     1     119.927 118.650 123.117  1.00  0.00     0.003 C 
ATOM     17  C   UNL     1     119.628 117.189 122.593  1.00  0.00    -0.025 C 
ATOM     18  C   UNL     1     118.081 117.079 122.349  1.00  0.00     0.010 C 
ATOM     19  C   UNL     1     117.218 117.492 123.557  1.00  0.00     0.033 C 
ATOM     20  C   UNL     1     117.558 118.914 124.043  1.00  0.00     0.120 C 
ATOM     21  C   UNL     1     119.077 119.130 124.367  1.00  0.00    -0.006 C 
ATOM     22  C   UNL     1     119.284 120.656 124.582  1.00  0.00     0.014 C 
ATOM     23  C   UNL     1     119.474 118.434 125.696  1.00  0.00     0.014 C 
ATOM     24  C   UNL     1     119.992 116.075 123.627  1.00  0.00     0.012 C 
ATOM     25  C   UNL     1     122.718 116.218 122.329  1.00  0.00     0.012 C 
ATOM     26  C   UNL     1     122.419 117.448 117.237  1.00  0.00     0.022 C 
ATOM     27  C   UNL     1     123.498 118.496 116.836  1.00  0.00     0.015 C 
ATOM     28  C   UNL     1     124.125 117.699 119.927  1.00  0.00     0.017 C 
ATOM     29  C   UNL     1     121.900 115.405 115.759  1.00  0.00     0.012 C 
ATOM     30  C   UNL     1     123.250 118.629 114.315  1.00  0.00     0.011 C 
ENDROOT
BRANCH  20  31
ATOM     31  O   UNL     1     116.731 119.282 125.123  1.00  0.00    -0.393 OA
ATOM     32  H   UNL     1     117.311 119.502 125.897  1.00  0.00     0.210 HD
ENDBRANCH  20  31
TORSDOF 1
ENDMDL
MODEL 8
REMARK VINA RESULT:    -6.683      3.750      6.712
REMARK INTER + INTRA:          -6.879
REMARK INTER:                  -6.879
REMARK INTRA:                   0.000
REMARK UNBOUND:                 0.000
REMARK SMILES CC1(C)CC[C@@]2(C)CC[C@@]3(C)C(=CC[C@@H]4[C@]5(C)CC[C@@H](O)C(C)(C)[C@H]5CC[C@@]43C)[C@H]2C1
REMARK SMILES IDX 1 1 2 2 4 3 5 4 6 5 8 6 9 7 10 8 12 9 13 10 14 11 15 12
REMARK SMILES IDX 28 13 27 14 26 15 25 16 16 17 18 18 19 19 20 20 22 21 23 22
REMARK SMILES IDX 24 23 17 24 29 25 30 26 31 27 11 28 7 29 3 30 21 31
REMARK H PARENT 21 32
REMARK Flexibility Score: inf
ROOT
ATOM      1  C   UNL     1     119.126 124.643 127.002  1.00  0.00     0.011 C 
ATOM      2  C   UNL     1     117.813 124.056 126.429  1.00  0.00    -0.035 C 
ATOM      3  C   UNL     1     117.467 124.800 125.090  1.00  0.00     0.007 C 
ATOM      4  C   UNL     1     117.336 123.887 123.854  1.00  0.00     0.008 C 
ATOM      5  C   UNL     1     116.419 122.663 124.104  1.00  0.00    -0.026 C 
ATOM      6  C   UNL     1     116.336 121.772 122.824  1.00  0.00     0.008 C 
ATOM      7  C   UNL     1     117.560 120.887 122.523  1.00  0.00     0.012 C 
ATOM      8  C   UNL     1     118.185 120.102 123.747  1.00  0.00    -0.006 C 
ATOM      9  C   UNL     1     117.274 120.386 124.963  1.00  0.00    -0.064 C 
ATOM     10  C   UNL     1     116.443 119.445 125.439  1.00  0.00    -0.027 C 
ATOM     11  C   UNL     1     116.298 118.066 124.909  1.00  0.00     0.032 C 
ATOM     12  C   UNL     1     117.007 117.732 123.562  1.00  0.00     0.006 C 
ATOM     13  C   UNL     1     118.379 118.516 123.428  1.00  0.00    -0.020 C 
ATOM     14  C   UNL     1     119.382 117.838 124.425  1.00  0.00     0.008 C 
ATOM     15  C   UNL     1     119.545 116.311 124.250  1.00  0.00     0.005 C 
ATOM     16  C   UNL     1     118.202 115.551 124.346  1.00  0.00     0.003 C 
ATOM     17  C   UNL     1     117.109 116.135 123.364  1.00  0.00    -0.025 C 
ATOM     18  C   UNL     1     115.744 115.438 123.705  1.00  0.00     0.010 C 
ATOM     19  C   UNL     1     115.805 113.899 123.717  1.00  0.00     0.033 C 
ATOM     20  C   UNL     1     116.896 113.377 124.673  1.00  0.00     0.120 C 
ATOM     21  C   UNL     1     118.320 113.970 124.395  1.00  0.00    -0.006 C 
ATOM     22  C   UNL     1     119.227 113.554 125.588  1.00  0.00     0.014 C 
ATOM     23  C   UNL     1     118.951 113.351 123.119  1.00  0.00     0.014 C 
ATOM     24  C   UNL     1     117.400 115.826 121.860  1.00  0.00     0.012 C 
ATOM     25  C   UNL     1     118.984 118.398 121.977  1.00  0.00     0.012 C 
ATOM     26  C   UNL     1     116.917 121.841 125.353  1.00  0.00     0.022 C 
ATOM     27  C   UNL     1     118.016 122.530 126.214  1.00  0.00     0.015 C 
ATOM     28  C   UNL     1     119.597 120.714 124.026  1.00  0.00     0.017 C 
ATOM     29  C   UNL     1     114.965 123.172 124.330  1.00  0.00     0.012 C 
ATOM     30  C   UNL     1     116.712 124.292 127.492  1.00  0.00     0.011 C 
ENDROOT
BRANCH  20  31
ATOM     31  O   UNL     1     116.906 111.968 124.694  1.00  0.00    -0.393 OA
ATOM     32  H   UNL     1     117.703 111.656 124.193  1.00  0.00     0.210 HD
ENDBRANCH  20  31
TORSDOF 1
ENDMDL
MODEL 9
REMARK VINA RESULT:    -6.629      2.469      3.088
REMARK INTER + INTRA:          -6.822
REMARK INTER:                  -6.822
REMARK INTRA:                   0.000
REMARK UNBOUND:                 0.000
REMARK SMILES CC1(C)CC[C@@]2(C)CC[C@@]3(C)C(=CC[C@@H]4[C@]5(C)CC[C@@H](O)C(C)(C)[C@H]5CC[C@@]43C)[C@H]2C1
REMARK SMILES IDX 1 1 2 2 4 3 5 4 6 5 8 6 9 7 10 8 12 9 13 10 14 11 15 12
REMARK SMILES IDX 28 13 27 14 26 15 25 16 16 17 18 18 19 19 20 20 22 21 23 22
REMARK SMILES IDX 24 23 17 24 29 25 30 26 31 27 11 28 7 29 3 30 21 31
REMARK H PARENT 21 32
REMARK Flexibility Score: inf
ROOT
ATOM      1  C   UNL     1     123.696 116.706 122.900  1.00  0.00     0.011 C 
ATOM      2  C   UNL     1     122.585 117.273 121.983  1.00  0.00    -0.035 C 
ATOM      3  C   UNL     1     121.938 116.090 121.180  1.00  0.00     0.007 C 
ATOM      4  C   UNL     1     120.416 115.926 121.376  1.00  0.00     0.008 C 
ATOM      5  C   UNL     1     119.640 117.256 121.199  1.00  0.00    -0.026 C 
ATOM      6  C   UNL     1     118.111 117.030 121.421  1.00  0.00     0.008 C 
ATOM      7  C   UNL     1     117.646 116.868 122.881  1.00  0.00     0.012 C 
ATOM      8  C   UNL     1     118.251 117.884 123.934  1.00  0.00    -0.006 C 
ATOM      9  C   UNL     1     119.121 118.880 123.135  1.00  0.00    -0.064 C 
ATOM     10  C   UNL     1     118.708 120.139 122.918  1.00  0.00    -0.027 C 
ATOM     11  C   UNL     1     117.436 120.731 123.403  1.00  0.00     0.032 C 
ATOM     12  C   UNL     1     116.387 119.770 124.037  1.00  0.00     0.006 C 
ATOM     13  C   UNL     1     117.096 118.596 124.836  1.00  0.00    -0.020 C 
ATOM     14  C   UNL     1     117.686 119.235 126.141  1.00  0.00     0.008 C 
ATOM     15  C   UNL     1     116.668 120.018 127.002  1.00  0.00     0.005 C 
ATOM     16  C   UNL     1     115.952 121.138 126.213  1.00  0.00     0.003 C 
ATOM     17  C   UNL     1     115.296 120.607 124.877  1.00  0.00    -0.025 C 
ATOM     18  C   UNL     1     114.798 121.855 124.064  1.00  0.00     0.010 C 
ATOM     19  C   UNL     1     113.889 122.809 124.863  1.00  0.00     0.033 C 
ATOM     20  C   UNL     1     114.564 123.285 126.165  1.00  0.00     0.120 C 
ATOM     21  C   UNL     1     115.061 122.118 127.086  1.00  0.00    -0.006 C 
ATOM     22  C   UNL     1     115.934 122.760 128.202  1.00  0.00     0.014 C 
ATOM     23  C   UNL     1     113.874 121.416 127.798  1.00  0.00     0.014 C 
ATOM     24  C   UNL     1     114.041 119.708 125.119  1.00  0.00     0.012 C 
ATOM     25  C   UNL     1     116.073 117.476 125.265  1.00  0.00     0.012 C 
ATOM     26  C   UNL     1     120.210 118.366 122.162  1.00  0.00     0.022 C 
ATOM     27  C   UNL     1     121.548 118.012 122.875  1.00  0.00     0.015 C 
ATOM     28  C   UNL     1     119.178 117.069 124.894  1.00  0.00     0.017 C 
ATOM     29  C   UNL     1     119.764 117.706 119.713  1.00  0.00     0.012 C 
ATOM     30  C   UNL     1     123.264 118.283 121.026  1.00  0.00     0.011 C 
ENDROOT
BRANCH  20  31
ATOM     31  O   UNL     1     113.730 124.185 126.857  1.00  0.00    -0.393 OA
ATOM     32  H   UNL     1     113.616 124.996 126.296  1.00  0.00     0.210 HD
ENDBRANCH  20  31
TORSDOF 1
ENDMDL
