MODEL 1
REMARK VINA RESULT:    -5.653      0.000      0.000
REMARK INTER + INTRA:         -11.109
REMARK INTER:                 -10.280
REMARK INTRA:                  -0.829
REMARK UNBOUND:                -0.829
REMARK SMILES CCCCCCCCCCCCCCCC(=O)[O-]
REMARK SMILES IDX 9 1 10 2 11 3 12 4 13 5 14 6 15 7 16 8 17 9 18 10 8 11 7 12
REMARK SMILES IDX 6 13 5 14 4 15 3 16 2 17 1 18
REMARK H PARENT
REMARK Flexibility Score: inf
ROOT
ATOM      1  C   UNL     1     -17.884  -6.745  39.950  1.00  0.00     0.000 C 
ENDROOT
BRANCH   1   2
ATOM      2  C   UNL     1     -17.771  -7.394  41.344  1.00  0.00     0.000 C 
BRANCH   2   3
ATOM      3  C   UNL     1     -16.917  -6.621  42.366  1.00  0.00     0.000 C 
BRANCH   3   4
ATOM      4  C   UNL     1     -16.892  -7.289  43.751  1.00  0.00     0.000 C 
BRANCH   4   5
ATOM      5  C   UNL     1     -17.381  -8.749  43.721  1.00  0.00     0.000 C 
BRANCH   5   6
ATOM      6  C   UNL     1     -17.134  -9.551  45.012  1.00  0.00     0.006 C 
BRANCH   6   7
ATOM      7  C   UNL     1     -16.072 -10.645  44.845  1.00  0.00     0.053 C 
BRANCH   7   8
ATOM      8  C   UNL     1     -14.810 -10.260  45.549  1.00  0.00     0.041 C 
ATOM      9  O   UNL     1     -14.430 -10.902  46.564  1.00  0.00    -0.550 OA
ATOM     10  O   UNL     1     -14.027  -9.222  45.059  1.00  0.00    -0.550 OA
ENDBRANCH   7   8
ENDBRANCH   6   7
ENDBRANCH   5   6
ENDBRANCH   4   5
ENDBRANCH   3   4
ENDBRANCH   2   3
ENDBRANCH   1   2
BRANCH   1  11
ATOM     11  C   UNL     1     -16.668  -5.908  39.513  1.00  0.00     0.000 C 
BRANCH  11  12
ATOM     12  C   UNL     1     -16.123  -6.320  38.134  1.00  0.00    -0.000 C 
BRANCH  12  13
ATOM     13  C   UNL     1     -14.683  -5.836  37.906  1.00  0.00    -0.000 C 
BRANCH  13  14
ATOM     14  C   UNL     1     -14.024  -6.499  36.683  1.00  0.00    -0.000 C 
BRANCH  14  15
ATOM     15  C   UNL     1     -12.921  -7.496  37.073  1.00  0.00    -0.000 C 
BRANCH  15  16
ATOM     16  C   UNL     1     -12.491  -7.439  38.552  1.00  0.00    -0.000 C 
BRANCH  16  17
ATOM     17  C   UNL     1     -11.343  -8.408  38.905  1.00  0.00    -0.003 C 
ATOM     18  C   UNL     1     -11.093  -9.445  37.808  1.00  0.00     0.004 C 
ENDBRANCH  16  17
ENDBRANCH  15  16
ENDBRANCH  14  15
ENDBRANCH  13  14
ENDBRANCH  12  13
ENDBRANCH  11  12
ENDBRANCH   1  11
TORSDOF 14
ENDMDL
MODEL 2
REMARK VINA RESULT:    -5.555      1.560      2.549
REMARK INTER + INTRA:         -10.931
REMARK INTER:                  -9.606
REMARK INTRA:                  -1.325
REMARK UNBOUND:                -0.829
REMARK SMILES CCCCCCCCCCCCCCCC(=O)[O-]
REMARK SMILES IDX 9 1 10 2 11 3 12 4 13 5 14 6 15 7 16 8 17 9 18 10 8 11 7 12
REMARK SMILES IDX 6 13 5 14 4 15 3 16 2 17 1 18
REMARK H PARENT
REMARK Flexibility Score: inf
ROOT
ATOM      1  C   UNL     1     -16.781  -6.453  42.061  1.00  0.00     0.000 C 
ENDROOT
BRANCH   1   2
ATOM      2  C   UNL     1     -16.480  -7.049  43.451  1.00  0.00     0.000 C 
BRANCH   2   3
ATOM      3  C   UNL     1     -17.689  -7.655  44.187  1.00  0.00     0.000 C 
BRANCH   3   4
ATOM      4  C   UNL     1     -17.313  -8.861  45.063  1.00  0.00     0.000 C 
BRANCH   4   5
ATOM      5  C   UNL     1     -17.013 -10.128  44.241  1.00  0.00     0.000 C 
BRANCH   5   6
ATOM      6  C   UNL     1     -15.772 -10.923  44.689  1.00  0.00     0.006 C 
BRANCH   6   7
ATOM      7  C   UNL     1     -15.018 -10.255  45.846  1.00  0.00     0.053 C 
BRANCH   7   8
ATOM      8  C   UNL     1     -15.223 -11.021  47.114  1.00  0.00     0.041 C 
ATOM      9  O   UNL     1     -16.268 -10.848  47.796  1.00  0.00    -0.550 OA
ATOM     10  O   UNL     1     -14.282 -11.958  47.522  1.00  0.00    -0.550 OA
ENDBRANCH   7   8
ENDBRANCH   6   7
ENDBRANCH   5   6
ENDBRANCH   4   5
ENDBRANCH   3   4
ENDBRANCH   2   3
ENDBRANCH   1   2
BRANCH   1  11
ATOM     11  C   UNL     1     -17.989  -7.067  41.331  1.00  0.00     0.000 C 
BRANCH  11  12
ATOM     12  C   UNL     1     -17.765  -7.202  39.814  1.00  0.00    -0.000 C 
BRANCH  12  13
ATOM     13  C   UNL     1     -17.010  -6.000  39.226  1.00  0.00    -0.000 C 
BRANCH  13  14
ATOM     14  C   UNL     1     -15.981  -6.414  38.159  1.00  0.00    -0.000 C 
BRANCH  14  15
ATOM     15  C   UNL     1     -14.735  -5.512  38.157  1.00  0.00    -0.000 C 
BRANCH  15  16
ATOM     16  C   UNL     1     -14.221  -5.116  39.555  1.00  0.00    -0.000 C 
BRANCH  16  17
ATOM     17  C   UNL     1     -13.515  -6.263  40.308  1.00  0.00    -0.003 C 
ATOM     18  C   UNL     1     -12.534  -7.030  39.420  1.00  0.00     0.004 C 
ENDBRANCH  16  17
ENDBRANCH  15  16
ENDBRANCH  14  15
ENDBRANCH  13  14
ENDBRANCH  12  13
ENDBRANCH  11  12
ENDBRANCH   1  11
TORSDOF 14
ENDMDL
MODEL 3
REMARK VINA RESULT:    -5.501      1.673      3.542
REMARK INTER + INTRA:         -10.833
REMARK INTER:                  -9.846
REMARK INTRA:                  -0.986
REMARK UNBOUND:                -0.829
REMARK SMILES CCCCCCCCCCCCCCCC(=O)[O-]
REMARK SMILES IDX 9 1 10 2 11 3 12 4 13 5 14 6 15 7 16 8 17 9 18 10 8 11 7 12
REMARK SMILES IDX 6 13 5 14 4 15 3 16 2 17 1 18
REMARK H PARENT
REMARK Flexibility Score: inf
ROOT
ATOM      1  C   UNL     1     -16.755  -6.805  44.047  1.00  0.00     0.000 C 
ENDROOT
BRANCH   1   2
ATOM      2  C   UNL     1     -16.538  -7.953  45.054  1.00  0.00     0.000 C 
BRANCH   2   3
ATOM      3  C   UNL     1     -17.143  -9.310  44.652  1.00  0.00     0.000 C 
BRANCH   3   4
ATOM      4  C   UNL     1     -16.156 -10.477  44.816  1.00  0.00     0.000 C 
BRANCH   4   5
ATOM      5  C   UNL     1     -14.733 -10.012  45.176  1.00  0.00     0.000 C 
BRANCH   5   6
ATOM      6  C   UNL     1     -14.158 -10.605  46.476  1.00  0.00     0.006 C 
BRANCH   6   7
ATOM      7  C   UNL     1     -15.198 -11.382  47.293  1.00  0.00     0.053 C 
BRANCH   7   8
ATOM      8  C   UNL     1     -15.646 -10.578  48.471  1.00  0.00     0.041 C 
ATOM      9  O   UNL     1     -16.617  -9.782  48.362  1.00  0.00    -0.550 OA
ATOM     10  O   UNL     1     -15.022 -10.737  49.701  1.00  0.00    -0.550 OA
ENDBRANCH   7   8
ENDBRANCH   6   7
ENDBRANCH   5   6
ENDBRANCH   4   5
ENDBRANCH   3   4
ENDBRANCH   2   3
ENDBRANCH   1   2
BRANCH   1  11
ATOM     11  C   UNL     1     -17.282  -7.234  42.666  1.00  0.00     0.000 C 
BRANCH  11  12
ATOM     12  C   UNL     1     -16.635  -6.451  41.510  1.00  0.00    -0.000 C 
BRANCH  12  13
ATOM     13  C   UNL     1     -17.425  -6.584  40.199  1.00  0.00    -0.000 C 
BRANCH  13  14
ATOM     14  C   UNL     1     -16.904  -5.644  39.098  1.00  0.00    -0.000 C 
BRANCH  14  15
ATOM     15  C   UNL     1     -15.385  -5.762  38.889  1.00  0.00    -0.000 C 
BRANCH  15  16
ATOM     16  C   UNL     1     -14.947  -5.960  37.425  1.00  0.00    -0.000 C 
BRANCH  16  17
ATOM     17  C   UNL     1     -13.687  -6.835  37.264  1.00  0.00    -0.003 C 
ATOM     18  C   UNL     1     -12.972  -7.083  38.593  1.00  0.00     0.004 C 
ENDBRANCH  16  17
ENDBRANCH  15  16
ENDBRANCH  14  15
ENDBRANCH  13  14
ENDBRANCH  12  13
ENDBRANCH  11  12
ENDBRANCH   1  11
TORSDOF 14
ENDMDL
MODEL 4
REMARK VINA RESULT:    -5.371      1.543      2.780
REMARK INTER + INTRA:         -10.595
REMARK INTER:                  -9.815
REMARK INTRA:                  -0.781
REMARK UNBOUND:                -0.829
REMARK SMILES CCCCCCCCCCCCCCCC(=O)[O-]
REMARK SMILES IDX 9 1 10 2 11 3 12 4 13 5 14 6 15 7 16 8 17 9 18 10 8 11 7 12
REMARK SMILES IDX 6 13 5 14 4 15 3 16 2 17 1 18
REMARK H PARENT
REMARK Flexibility Score: inf
ROOT
ATOM      1  C   UNL     1     -16.152  -6.159  38.151  1.00  0.00     0.000 C 
ENDROOT
BRANCH   1   2
ATOM      2  C   UNL     1     -16.567  -5.997  39.628  1.00  0.00     0.000 C 
BRANCH   2   3
ATOM      3  C   UNL     1     -17.916  -6.635  40.009  1.00  0.00     0.000 C 
BRANCH   3   4
ATOM      4  C   UNL     1     -17.866  -7.379  41.353  1.00  0.00     0.000 C 
BRANCH   4   5
ATOM      5  C   UNL     1     -17.474  -6.466  42.529  1.00  0.00     0.000 C 
BRANCH   5   6
ATOM      6  C   UNL     1     -16.741  -7.167  43.689  1.00  0.00     0.006 C 
BRANCH   6   7
ATOM      7  C   UNL     1     -17.698  -7.742  44.742  1.00  0.00     0.053 C 
BRANCH   7   8
ATOM      8  C   UNL     1     -17.417  -9.193  44.967  1.00  0.00     0.041 C 
ATOM      9  O   UNL     1     -17.583  -9.701  46.108  1.00  0.00    -0.550 OA
ATOM     10  O   UNL     1     -17.014  -9.997  43.908  1.00  0.00    -0.550 OA
ENDBRANCH   7   8
ENDBRANCH   6   7
ENDBRANCH   5   6
ENDBRANCH   4   5
ENDBRANCH   3   4
ENDBRANCH   2   3
ENDBRANCH   1   2
BRANCH   1  11
ATOM     11  C   UNL     1     -14.730  -5.679  37.811  1.00  0.00     0.000 C 
BRANCH  11  12
ATOM     12  C   UNL     1     -13.679  -6.798  37.923  1.00  0.00    -0.000 C 
BRANCH  12  13
ATOM     13  C   UNL     1     -12.948  -6.780  39.274  1.00  0.00    -0.000 C 
BRANCH  13  14
ATOM     14  C   UNL     1     -11.654  -7.613  39.255  1.00  0.00    -0.000 C 
BRANCH  14  15
ATOM     15  C   UNL     1     -11.429  -8.327  37.912  1.00  0.00    -0.000 C 
BRANCH  15  16
ATOM     16  C   UNL     1     -10.872  -9.759  38.025  1.00  0.00    -0.000 C 
BRANCH  16  17
ATOM     17  C   UNL     1     -10.196 -10.059  39.379  1.00  0.00    -0.003 C 
ATOM     18  C   UNL     1      -8.706 -10.371  39.233  1.00  0.00     0.004 C 
ENDBRANCH  16  17
ENDBRANCH  15  16
ENDBRANCH  14  15
ENDBRANCH  13  14
ENDBRANCH  12  13
ENDBRANCH  11  12
ENDBRANCH   1  11
TORSDOF 14
ENDMDL
MODEL 5
REMARK VINA RESULT:    -5.342      2.932      7.391
REMARK INTER + INTRA:         -10.543
REMARK INTER:                  -9.308
REMARK INTRA:                  -1.235
REMARK UNBOUND:                -0.829
REMARK SMILES CCCCCCCCCCCCCCCC(=O)[O-]
REMARK SMILES IDX 9 1 10 2 11 3 12 4 13 5 14 6 15 7 16 8 17 9 18 10 8 11 7 12
REMARK SMILES IDX 6 13 5 14 4 15 3 16 2 17 1 18
REMARK H PARENT
REMARK Flexibility Score: inf
ROOT
ATOM      1  C   UNL     1     -17.663  -7.299  43.014  1.00  0.00     0.000 C 
ENDROOT
BRANCH   1   2
ATOM      2  C   UNL     1     -17.890  -6.691  41.615  1.00  0.00     0.000 C 
BRANCH   2   3
ATOM      3  C   UNL     1     -17.947  -7.703  40.456  1.00  0.00     0.000 C 
BRANCH   3   4
ATOM      4  C   UNL     1     -17.618  -7.071  39.093  1.00  0.00     0.000 C 
BRANCH   4   5
ATOM      5  C   UNL     1     -17.022  -5.657  39.217  1.00  0.00     0.000 C 
BRANCH   5   6
ATOM      6  C   UNL     1     -15.487  -5.581  39.117  1.00  0.00     0.006 C 
BRANCH   6   7
ATOM      7  C   UNL     1     -14.951  -6.037  37.754  1.00  0.00     0.053 C 
BRANCH   7   8
ATOM      8  C   UNL     1     -13.661  -6.776  37.919  1.00  0.00     0.041 C 
ATOM      9  O   UNL     1     -13.078  -6.789  39.036  1.00  0.00    -0.550 OA
ATOM     10  O   UNL     1     -13.124  -7.487  36.854  1.00  0.00    -0.550 OA
ENDBRANCH   7   8
ENDBRANCH   6   7
ENDBRANCH   5   6
ENDBRANCH   4   5
ENDBRANCH   3   4
ENDBRANCH   2   3
ENDBRANCH   1   2
BRANCH   1  11
ATOM     11  C   UNL     1     -17.836  -8.825  43.104  1.00  0.00     0.000 C 
BRANCH  11  12
ATOM     12  C   UNL     1     -17.453  -9.390  44.483  1.00  0.00    -0.000 C 
BRANCH  12  13
ATOM     13  C   UNL     1     -16.509 -10.597  44.379  1.00  0.00    -0.000 C 
BRANCH  13  14
ATOM     14  C   UNL     1     -15.263 -10.451  45.271  1.00  0.00    -0.000 C 
BRANCH  14  15
ATOM     15  C   UNL     1     -14.528  -9.119  45.046  1.00  0.00    -0.000 C 
BRANCH  15  16
ATOM     16  C   UNL     1     -14.275  -8.296  46.324  1.00  0.00    -0.000 C 
BRANCH  16  17
ATOM     17  C   UNL     1     -15.322  -7.191  46.571  1.00  0.00    -0.003 C 
ATOM     18  C   UNL     1     -16.308  -7.556  47.683  1.00  0.00     0.004 C 
ENDBRANCH  16  17
ENDBRANCH  15  16
ENDBRANCH  14  15
ENDBRANCH  13  14
ENDBRANCH  12  13
ENDBRANCH  11  12
ENDBRANCH   1  11
TORSDOF 14
ENDMDL
MODEL 6
REMARK VINA RESULT:    -5.319      1.448      2.996
REMARK INTER + INTRA:         -10.502
REMARK INTER:                  -9.624
REMARK INTRA:                  -0.878
REMARK UNBOUND:                -0.829
REMARK SMILES CCCCCCCCCCCCCCCC(=O)[O-]
REMARK SMILES IDX 9 1 10 2 11 3 12 4 13 5 14 6 15 7 16 8 17 9 18 10 8 11 7 12
REMARK SMILES IDX 6 13 5 14 4 15 3 16 2 17 1 18
REMARK H PARENT
REMARK Flexibility Score: inf
ROOT
ATOM      1  C   UNL     1     -17.266  -7.004  42.562  1.00  0.00     0.000 C 
ENDROOT
BRANCH   1   2
ATOM      2  C   UNL     1     -17.853  -8.238  43.278  1.00  0.00     0.000 C 
BRANCH   2   3
ATOM      3  C   UNL     1     -16.970  -8.840  44.386  1.00  0.00     0.000 C 
BRANCH   3   4
ATOM      4  C   UNL     1     -16.823 -10.367  44.270  1.00  0.00     0.000 C 
BRANCH   4   5
ATOM      5  C   UNL     1     -15.548 -10.899  44.950  1.00  0.00     0.000 C 
BRANCH   5   6
ATOM      6  C   UNL     1     -14.769  -9.866  45.784  1.00  0.00     0.006 C 
BRANCH   6   7
ATOM      7  C   UNL     1     -13.279 -10.206  45.920  1.00  0.00     0.053 C 
BRANCH   7   8
ATOM      8  C   UNL     1     -12.465  -9.374  44.983  1.00  0.00     0.041 C 
ATOM      9  O   UNL     1     -11.288  -9.716  44.691  1.00  0.00    -0.550 OA
ATOM     10  O   UNL     1     -13.018  -8.244  44.394  1.00  0.00    -0.550 OA
ENDBRANCH   7   8
ENDBRANCH   6   7
ENDBRANCH   5   6
ENDBRANCH   4   5
ENDBRANCH   3   4
ENDBRANCH   2   3
ENDBRANCH   1   2
BRANCH   1  11
ATOM     11  C   UNL     1     -18.053  -6.522  41.331  1.00  0.00     0.000 C 
BRANCH  11  12
ATOM     12  C   UNL     1     -18.125  -7.581  40.215  1.00  0.00    -0.000 C 
BRANCH  12  13
ATOM     13  C   UNL     1     -17.516  -7.081  38.896  1.00  0.00    -0.000 C 
BRANCH  13  14
ATOM     14  C   UNL     1     -16.795  -5.731  39.052  1.00  0.00    -0.000 C 
BRANCH  14  15
ATOM     15  C   UNL     1     -15.272  -5.849  38.869  1.00  0.00    -0.000 C 
BRANCH  15  16
ATOM     16  C   UNL     1     -14.780  -5.666  37.420  1.00  0.00    -0.000 C 
BRANCH  16  17
ATOM     17  C   UNL     1     -14.003  -6.880  36.869  1.00  0.00    -0.003 C 
ATOM     18  C   UNL     1     -12.909  -7.358  37.824  1.00  0.00     0.004 C 
ENDBRANCH  16  17
ENDBRANCH  15  16
ENDBRANCH  14  15
ENDBRANCH  13  14
ENDBRANCH  12  13
ENDBRANCH  11  12
ENDBRANCH   1  11
TORSDOF 14
ENDMDL
MODEL 7
REMARK VINA RESULT:    -5.296      2.452      7.004
REMARK INTER + INTRA:         -10.458
REMARK INTER:                  -9.409
REMARK INTRA:                  -1.050
REMARK UNBOUND:                -0.829
REMARK SMILES CCCCCCCCCCCCCCCC(=O)[O-]
REMARK SMILES IDX 9 1 10 2 11 3 12 4 13 5 14 6 15 7 16 8 17 9 18 10 8 11 7 12
REMARK SMILES IDX 6 13 5 14 4 15 3 16 2 17 1 18
REMARK H PARENT
REMARK Flexibility Score: inf
ROOT
ATOM      1  C   UNL     1     -16.183  -6.220  41.657  1.00  0.00     0.000 C 
ENDROOT
BRANCH   1   2
ATOM      2  C   UNL     1     -17.242  -6.484  40.568  1.00  0.00     0.000 C 
BRANCH   2   3
ATOM      3  C   UNL     1     -17.044  -5.709  39.252  1.00  0.00     0.000 C 
BRANCH   3   4
ATOM      4  C   UNL     1     -16.312  -6.531  38.179  1.00  0.00     0.000 C 
BRANCH   4   5
ATOM      5  C   UNL     1     -15.063  -5.819  37.628  1.00  0.00     0.000 C 
BRANCH   5   6
ATOM      6  C   UNL     1     -13.756  -6.630  37.707  1.00  0.00     0.006 C 
BRANCH   6   7
ATOM      7  C   UNL     1     -13.217  -6.761  39.138  1.00  0.00     0.053 C 
BRANCH   7   8
ATOM      8  C   UNL     1     -12.076  -7.726  39.182  1.00  0.00     0.041 C 
ATOM      9  O   UNL     1     -11.398  -7.857  40.235  1.00  0.00    -0.550 OA
ATOM     10  O   UNL     1     -11.789  -8.515  38.075  1.00  0.00    -0.550 OA
ENDBRANCH   7   8
ENDBRANCH   6   7
ENDBRANCH   5   6
ENDBRANCH   4   5
ENDBRANCH   3   4
ENDBRANCH   2   3
ENDBRANCH   1   2
BRANCH   1  11
ATOM     11  C   UNL     1     -16.465  -6.873  43.021  1.00  0.00     0.000 C 
BRANCH  11  12
ATOM     12  C   UNL     1     -17.527  -7.984  42.943  1.00  0.00    -0.000 C 
BRANCH  12  13
ATOM     13  C   UNL     1     -17.548  -8.862  44.205  1.00  0.00    -0.000 C 
BRANCH  13  14
ATOM     14  C   UNL     1     -17.035 -10.288  43.940  1.00  0.00    -0.000 C 
BRANCH  14  15
ATOM     15  C   UNL     1     -15.829 -10.657  44.820  1.00  0.00    -0.000 C 
BRANCH  15  16
ATOM     16  C   UNL     1     -15.138  -9.462  45.503  1.00  0.00    -0.000 C 
BRANCH  16  17
ATOM     17  C   UNL     1     -14.198  -9.862  46.659  1.00  0.00    -0.003 C 
ATOM     18  C   UNL     1     -14.486 -11.269  47.187  1.00  0.00     0.004 C 
ENDBRANCH  16  17
ENDBRANCH  15  16
ENDBRANCH  14  15
ENDBRANCH  13  14
ENDBRANCH  12  13
ENDBRANCH  11  12
ENDBRANCH   1  11
TORSDOF 14
ENDMDL
MODEL 8
REMARK VINA RESULT:    -5.257      1.842      3.706
REMARK INTER + INTRA:         -10.389
REMARK INTER:                  -9.706
REMARK INTRA:                  -0.682
REMARK UNBOUND:                -0.829
REMARK SMILES CCCCCCCCCCCCCCCC(=O)[O-]
REMARK SMILES IDX 9 1 10 2 11 3 12 4 13 5 14 6 15 7 16 8 17 9 18 10 8 11 7 12
REMARK SMILES IDX 6 13 5 14 4 15 3 16 2 17 1 18
REMARK H PARENT
REMARK Flexibility Score: inf
ROOT
ATOM      1  C   UNL     1     -14.835  -5.750  37.374  1.00  0.00     0.000 C 
ENDROOT
BRANCH   1   2
ATOM      2  C   UNL     1     -15.475  -6.119  38.727  1.00  0.00     0.000 C 
BRANCH   2   3
ATOM      3  C   UNL     1     -16.971  -6.480  38.674  1.00  0.00     0.000 C 
BRANCH   3   4
ATOM      4  C   UNL     1     -17.705  -6.181  39.992  1.00  0.00     0.000 C 
BRANCH   4   5
ATOM      5  C   UNL     1     -18.071  -7.454  40.776  1.00  0.00     0.000 C 
BRANCH   5   6
ATOM      6  C   UNL     1     -18.029  -7.315  42.309  1.00  0.00     0.006 C 
BRANCH   6   7
ATOM      7  C   UNL     1     -17.852  -8.659  43.028  1.00  0.00     0.053 C 
BRANCH   7   8
ATOM      8  C   UNL     1     -17.639  -8.445  44.492  1.00  0.00     0.041 C 
ATOM      9  O   UNL     1     -17.655  -9.425  45.284  1.00  0.00    -0.550 OA
ATOM     10  O   UNL     1     -17.378  -7.171  44.979  1.00  0.00    -0.550 OA
ENDBRANCH   7   8
ENDBRANCH   6   7
ENDBRANCH   5   6
ENDBRANCH   4   5
ENDBRANCH   3   4
ENDBRANCH   2   3
ENDBRANCH   1   2
BRANCH   1  11
ATOM     11  C   UNL     1     -13.965  -6.848  36.736  1.00  0.00     0.000 C 
BRANCH  11  12
ATOM     12  C   UNL     1     -12.865  -7.362  37.681  1.00  0.00    -0.000 C 
BRANCH  12  13
ATOM     13  C   UNL     1     -11.925  -8.365  36.993  1.00  0.00    -0.000 C 
BRANCH  13  14
ATOM     14  C   UNL     1     -10.578  -8.507  37.722  1.00  0.00    -0.000 C 
BRANCH  14  15
ATOM     15  C   UNL     1     -10.660  -9.441  38.941  1.00  0.00    -0.000 C 
BRANCH  15  16
ATOM     16  C   UNL     1     -10.222  -8.805  40.274  1.00  0.00    -0.000 C 
BRANCH  16  17
ATOM     17  C   UNL     1     -11.314  -7.947  40.944  1.00  0.00    -0.003 C 
ATOM     18  C   UNL     1     -11.179  -7.909  42.467  1.00  0.00     0.004 C 
ENDBRANCH  16  17
ENDBRANCH  15  16
ENDBRANCH  14  15
ENDBRANCH  13  14
ENDBRANCH  12  13
ENDBRANCH  11  12
ENDBRANCH   1  11
TORSDOF 14
ENDMDL
MODEL 9
REMARK VINA RESULT:    -5.239      3.600      8.266
REMARK INTER + INTRA:         -10.355
REMARK INTER:                  -9.180
REMARK INTRA:                  -1.175
REMARK UNBOUND:                -0.829
REMARK SMILES CCCCCCCCCCCCCCCC(=O)[O-]
REMARK SMILES IDX 9 1 10 2 11 3 12 4 13 5 14 6 15 7 16 8 17 9 18 10 8 11 7 12
REMARK SMILES IDX 6 13 5 14 4 15 3 16 2 17 1 18
REMARK H PARENT
REMARK Flexibility Score: inf
ROOT
ATOM      1  C   UNL     1     -17.437  -9.014  44.478  1.00  0.00     0.000 C 
ENDROOT
BRANCH   1   2
ATOM      2  C   UNL     1     -16.812  -7.696  43.978  1.00  0.00     0.000 C 
BRANCH   2   3
ATOM      3  C   UNL     1     -17.651  -6.914  42.950  1.00  0.00     0.000 C 
BRANCH   3   4
ATOM      4  C   UNL     1     -16.855  -6.542  41.688  1.00  0.00     0.000 C 
BRANCH   4   5
ATOM      5  C   UNL     1     -17.722  -6.521  40.417  1.00  0.00     0.000 C 
BRANCH   5   6
ATOM      6  C   UNL     1     -17.166  -5.675  39.256  1.00  0.00     0.006 C 
BRANCH   6   7
ATOM      7  C   UNL     1     -16.287  -6.483  38.293  1.00  0.00     0.053 C 
BRANCH   7   8
ATOM      8  C   UNL     1     -15.023  -5.743  37.992  1.00  0.00     0.041 C 
ATOM      9  O   UNL     1     -14.376  -5.994  36.941  1.00  0.00    -0.550 OA
ATOM     10  O   UNL     1     -14.582  -4.742  38.849  1.00  0.00    -0.550 OA
ENDBRANCH   7   8
ENDBRANCH   6   7
ENDBRANCH   5   6
ENDBRANCH   4   5
ENDBRANCH   3   4
ENDBRANCH   2   3
ENDBRANCH   1   2
BRANCH   1  11
ATOM     11  C   UNL     1     -16.653 -10.290  44.125  1.00  0.00     0.000 C 
BRANCH  11  12
ATOM     12  C   UNL     1     -15.872 -10.862  45.321  1.00  0.00    -0.000 C 
BRANCH  12  13
ATOM     13  C   UNL     1     -14.498 -10.197  45.494  1.00  0.00    -0.000 C 
BRANCH  13  14
ATOM     14  C   UNL     1     -13.748 -10.708  46.737  1.00  0.00    -0.000 C 
BRANCH  14  15
ATOM     15  C   UNL     1     -14.697 -11.101  47.882  1.00  0.00    -0.000 C 
BRANCH  15  16
ATOM     16  C   UNL     1     -15.009  -9.969  48.880  1.00  0.00    -0.000 C 
BRANCH  16  17
ATOM     17  C   UNL     1     -16.382  -9.302  48.657  1.00  0.00    -0.003 C 
ATOM     18  C   UNL     1     -16.275  -7.977  47.901  1.00  0.00     0.004 C 
ENDBRANCH  16  17
ENDBRANCH  15  16
ENDBRANCH  14  15
ENDBRANCH  13  14
ENDBRANCH  12  13
ENDBRANCH  11  12
ENDBRANCH   1  11
TORSDOF 14
ENDMDL
