MODEL 1
REMARK VINA RESULT:    27.130      0.000      0.000
REMARK INTER + INTRA:          32.274
REMARK INTER:                  32.681
REMARK INTRA:                  -0.407
REMARK UNBOUND:                -0.407
REMARK SMILES O=c1c(O)c(-c2ccc(O)cc2O)oc2cc(O)cc(O)c12
REMARK SMILES IDX 5 1 3 2 2 3 1 4 22 5 20 6 19 7 17 8 16 9 15 10 14 11 6 12
REMARK SMILES IDX 8 13 7 14 9 15 11 16 12 17 10 18 13 20 4 22 21 24 18 26
REMARK H PARENT 10 19 13 21 4 23 21 25 18 27
REMARK Flexibility Score: inf
ROOT
ATOM      1  C   UNL     1      15.321   4.287  15.152  1.00  0.00     0.184 A 
ATOM      2  C   UNL     1      14.230   4.079  14.293  1.00  0.00     0.208 A 
ATOM      3  C   UNL     1      13.367   5.152  14.018  1.00  0.00     0.238 A 
ATOM      4  O   UNL     1      12.422   4.973  13.204  1.00  0.00    -0.285 OA
ATOM      5  C   UNL     1      13.597   6.412  14.619  1.00  0.00     0.111 A 
ATOM      6  C   UNL     1      12.765   7.558  14.443  1.00  0.00     0.134 A 
ATOM      7  C   UNL     1      13.160   8.789  14.982  1.00  0.00     0.093 A 
ATOM      8  C   UNL     1      14.322   8.902  15.743  1.00  0.00     0.123 A 
ATOM      9  C   UNL     1      15.113   7.775  15.972  1.00  0.00     0.094 A 
ATOM     10  C   UNL     1      14.765   6.541  15.418  1.00  0.00     0.146 A 
ATOM     11  O   UNL     1      15.550   5.496  15.650  1.00  0.00    -0.451 OA
ENDROOT
BRANCH   1  12
ATOM     12  C   UNL     1      16.257   3.196  15.496  1.00  0.00     0.063 A 
ATOM     13  C   UNL     1      18.292   1.968  14.985  1.00  0.00     0.047 A 
ATOM     14  C   UNL     1      17.383   2.987  14.685  1.00  0.00     0.020 A 
ATOM     15  C   UNL     1      18.094   1.157  16.105  1.00  0.00     0.119 A 
ATOM     16  C   UNL     1      16.987   1.374  16.936  1.00  0.00     0.093 A 
ATOM     17  C   UNL     1      16.073   2.398  16.644  1.00  0.00     0.130 A 
BRANCH  15  18
ATOM     18  O   UNL     1      19.007   0.143  16.389  1.00  0.00    -0.508 OA
ATOM     19  H   UNL     1      19.240  -0.108  17.343  1.00  0.00     0.293 HD
ENDBRANCH  15  18
BRANCH  17  20
ATOM     20  O   UNL     1      15.001   2.636  17.504  1.00  0.00    -0.507 OA
ATOM     21  H   UNL     1      14.053   2.735  17.158  1.00  0.00     0.293 HD
ENDBRANCH  17  20
ENDBRANCH   1  12
BRANCH   2  22
ATOM     22  O   UNL     1      14.037   2.829  13.699  1.00  0.00    -0.502 OA
ATOM     23  H   UNL     1      14.809   2.240  13.412  1.00  0.00     0.293 HD
ENDBRANCH   2  22
BRANCH   6  24
ATOM     24  O   UNL     1      11.536   7.535  13.776  1.00  0.00    -0.507 OA
ATOM     25  H   UNL     1      11.425   7.429  12.779  1.00  0.00     0.293 HD
ENDBRANCH   6  24
BRANCH   8  26
ATOM     26  O   UNL     1      14.677  10.139  16.278  1.00  0.00    -0.508 OA
ATOM     27  H   UNL     1      14.502  11.001  15.777  1.00  0.00     0.293 HD
ENDBRANCH   8  26
TORSDOF 6
ENDMDL
MODEL 2
REMARK VINA RESULT:    28.636      1.523      6.786
REMARK INTER + INTRA:          34.088
REMARK INTER:                  34.498
REMARK INTRA:                  -0.410
REMARK UNBOUND:                -0.407
REMARK SMILES O=c1c(O)c(-c2ccc(O)cc2O)oc2cc(O)cc(O)c12
REMARK SMILES IDX 5 1 3 2 2 3 1 4 22 5 20 6 19 7 17 8 16 9 15 10 14 11 6 12
REMARK SMILES IDX 8 13 7 14 9 15 11 16 12 17 10 18 13 20 4 22 21 24 18 26
REMARK H PARENT 10 19 13 21 4 23 21 25 18 27
REMARK Flexibility Score: inf
ROOT
ATOM      1  C   UNL     1      14.817   5.380  15.464  1.00  0.00     0.184 A 
ATOM      2  C   UNL     1      14.677   4.821  16.744  1.00  0.00     0.208 A 
ATOM      3  C   UNL     1      15.397   3.658  17.060  1.00  0.00     0.238 A 
ATOM      4  O   UNL     1      15.310   3.191  18.227  1.00  0.00    -0.285 OA
ATOM      5  C   UNL     1      16.233   3.061  16.086  1.00  0.00     0.111 A 
ATOM      6  C   UNL     1      16.978   1.860  16.282  1.00  0.00     0.134 A 
ATOM      7  C   UNL     1      17.874   1.432  15.294  1.00  0.00     0.093 A 
ATOM      8  C   UNL     1      18.003   2.124  14.092  1.00  0.00     0.123 A 
ATOM      9  C   UNL     1      17.237   3.268  13.864  1.00  0.00     0.094 A 
ATOM     10  C   UNL     1      16.361   3.740  14.845  1.00  0.00     0.146 A 
ATOM     11  O   UNL     1      15.658   4.838  14.593  1.00  0.00    -0.451 OA
ENDROOT
BRANCH   1  12
ATOM     12  C   UNL     1      14.074   6.594  15.062  1.00  0.00     0.063 A 
ATOM     13  C   UNL     1      13.988   9.019  14.906  1.00  0.00     0.047 A 
ATOM     14  C   UNL     1      14.660   7.851  15.279  1.00  0.00     0.020 A 
ATOM     15  C   UNL     1      12.732   8.943  14.300  1.00  0.00     0.119 A 
ATOM     16  C   UNL     1      12.149   7.692  14.057  1.00  0.00     0.093 A 
ATOM     17  C   UNL     1      12.820   6.516  14.424  1.00  0.00     0.130 A 
BRANCH  15  18
ATOM     18  O   UNL     1      12.072  10.116  13.937  1.00  0.00    -0.508 OA
ATOM     19  H   UNL     1      12.500  11.026  14.063  1.00  0.00     0.293 HD
ENDBRANCH  15  18
BRANCH  17  20
ATOM     20  O   UNL     1      12.252   5.275  14.133  1.00  0.00    -0.507 OA
ATOM     21  H   UNL     1      11.327   5.024  14.461  1.00  0.00     0.293 HD
ENDBRANCH  17  20
ENDBRANCH   1  12
BRANCH   2  22
ATOM     22  O   UNL     1      13.859   5.441  17.693  1.00  0.00    -0.502 OA
ATOM     23  H   UNL     1      13.876   6.441  17.853  1.00  0.00     0.293 HD
ENDBRANCH   2  22
BRANCH   6  24
ATOM     24  O   UNL     1      16.856   1.042  17.410  1.00  0.00    -0.507 OA
ATOM     25  H   UNL     1      17.533   0.986  18.156  1.00  0.00     0.293 HD
ENDBRANCH   6  24
BRANCH   8  26
ATOM     26  O   UNL     1      18.893   1.661  13.124  1.00  0.00    -0.508 OA
ATOM     27  H   UNL     1      19.563   2.278  12.683  1.00  0.00     0.293 HD
ENDBRANCH   8  26
TORSDOF 6
ENDMDL
