MODEL 1
REMARK VINA RESULT:    -4.957      0.000      0.000
REMARK INTER + INTRA:         -10.274
REMARK INTER:                  -8.435
REMARK INTRA:                  -1.839
REMARK UNBOUND:                -1.839
REMARK SMILES CCCCCCCCCCCCCC(=O)[O-]
REMARK SMILES IDX 8 1 9 2 10 3 11 4 12 5 13 6 14 7 15 8 16 9 7 10 6 11 5 12
REMARK SMILES IDX 4 13 3 14 2 15 1 16
REMARK H PARENT
REMARK Flexibility Score: inf
ROOT
ATOM      1  C   UNL     1       4.859   8.028   9.410  1.00  0.00     0.000 C 
ENDROOT
BRANCH   1   2
ATOM      2  C   UNL     1       3.468   7.698   9.980  1.00  0.00     0.000 C 
BRANCH   2   3
ATOM      3  C   UNL     1       3.522   6.620  11.074  1.00  0.00     0.000 C 
BRANCH   3   4
ATOM      4  C   UNL     1       4.796   6.715  11.932  1.00  0.00     0.000 C 
BRANCH   4   5
ATOM      5  C   UNL     1       4.572   7.484  13.247  1.00  0.00     0.006 C 
BRANCH   5   6
ATOM      6  C   UNL     1       5.768   7.443  14.212  1.00  0.00     0.053 C 
BRANCH   6   7
ATOM      7  C   UNL     1       5.993   6.071  14.770  1.00  0.00     0.041 C 
ATOM      8  O   UNL     1       5.152   5.560  15.555  1.00  0.00    -0.550 OA
ATOM      9  O   UNL     1       7.114   5.342  14.393  1.00  0.00    -0.550 OA
ENDBRANCH   6   7
ENDBRANCH   5   6
ENDBRANCH   4   5
ENDBRANCH   3   4
ENDBRANCH   2   3
ENDBRANCH   1   2
BRANCH   1  10
ATOM     10  C   UNL     1       5.175   9.532   9.450  1.00  0.00     0.000 C 
BRANCH  10  11
ATOM     11  C   UNL     1       6.248   9.880  10.497  1.00  0.00    -0.000 C 
BRANCH  11  12
ATOM     12  C   UNL     1       7.571   9.134  10.258  1.00  0.00    -0.000 C 
BRANCH  12  13
ATOM     13  C   UNL     1       8.267   8.724  11.564  1.00  0.00    -0.000 C 
BRANCH  13  14
ATOM     14  C   UNL     1       8.415   7.197  11.650  1.00  0.00    -0.000 C 
BRANCH  14  15
ATOM     15  C   UNL     1       8.261   6.511  10.284  1.00  0.00    -0.003 C 
ATOM     16  C   UNL     1       9.387   5.521   9.989  1.00  0.00     0.004 C 
ENDBRANCH  14  15
ENDBRANCH  13  14
ENDBRANCH  12  13
ENDBRANCH  11  12
ENDBRANCH  10  11
ENDBRANCH   1  10
TORSDOF 12
ENDMDL
MODEL 2
REMARK VINA RESULT:    -4.858      1.061      1.362
REMARK INTER + INTRA:         -10.104
REMARK INTER:                  -8.454
REMARK INTRA:                  -1.650
REMARK UNBOUND:                -1.839
REMARK SMILES CCCCCCCCCCCCCC(=O)[O-]
REMARK SMILES IDX 8 1 9 2 10 3 11 4 12 5 13 6 14 7 15 8 16 9 7 10 6 11 5 12
REMARK SMILES IDX 4 13 3 14 2 15 1 16
REMARK H PARENT
REMARK Flexibility Score: inf
ROOT
ATOM      1  C   UNL     1       4.657   7.488   9.751  1.00  0.00     0.000 C 
ENDROOT
BRANCH   1   2
ATOM      2  C   UNL     1       4.097   6.725  10.965  1.00  0.00     0.000 C 
BRANCH   2   3
ATOM      3  C   UNL     1       3.456   7.660  12.002  1.00  0.00     0.000 C 
BRANCH   3   4
ATOM      4  C   UNL     1       4.295   7.778  13.287  1.00  0.00     0.000 C 
BRANCH   4   5
ATOM      5  C   UNL     1       5.391   6.701  13.383  1.00  0.00     0.006 C 
BRANCH   5   6
ATOM      6  C   UNL     1       6.130   6.673  14.731  1.00  0.00     0.053 C 
BRANCH   6   7
ATOM      7  C   UNL     1       5.184   6.575  15.888  1.00  0.00     0.041 C 
ATOM      8  O   UNL     1       4.861   7.608  16.532  1.00  0.00    -0.550 OA
ATOM      9  O   UNL     1       4.631   5.349  16.233  1.00  0.00    -0.550 OA
ENDBRANCH   6   7
ENDBRANCH   5   6
ENDBRANCH   4   5
ENDBRANCH   3   4
ENDBRANCH   2   3
ENDBRANCH   1   2
BRANCH   1  10
ATOM     10  C   UNL     1       4.425   9.004   9.845  1.00  0.00     0.000 C 
BRANCH  10  11
ATOM     11  C   UNL     1       5.714   9.778  10.176  1.00  0.00    -0.000 C 
BRANCH  11  12
ATOM     12  C   UNL     1       6.982   8.943   9.937  1.00  0.00    -0.000 C 
BRANCH  12  13
ATOM     13  C   UNL     1       7.954   8.985  11.125  1.00  0.00    -0.000 C 
BRANCH  13  14
ATOM     14  C   UNL     1       8.325   7.565  11.579  1.00  0.00    -0.000 C 
BRANCH  14  15
ATOM     15  C   UNL     1       8.127   6.519  10.471  1.00  0.00    -0.003 C 
ATOM     16  C   UNL     1       9.387   5.700  10.197  1.00  0.00     0.004 C 
ENDBRANCH  14  15
ENDBRANCH  13  14
ENDBRANCH  12  13
ENDBRANCH  11  12
ENDBRANCH  10  11
ENDBRANCH   1  10
TORSDOF 12
ENDMDL
MODEL 3
REMARK VINA RESULT:    -4.803      2.429      5.560
REMARK INTER + INTRA:         -10.012
REMARK INTER:                  -8.728
REMARK INTRA:                  -1.284
REMARK UNBOUND:                -1.839
REMARK SMILES CCCCCCCCCCCCCC(=O)[O-]
REMARK SMILES IDX 8 1 9 2 10 3 11 4 12 5 13 6 14 7 15 8 16 9 7 10 6 11 5 12
REMARK SMILES IDX 4 13 3 14 2 15 1 16
REMARK H PARENT
REMARK Flexibility Score: inf
ROOT
ATOM      1  C   UNL     1       7.815   6.750  12.180  1.00  0.00     0.000 C 
ENDROOT
BRANCH   1   2
ATOM      2  C   UNL     1       8.160   7.953  11.285  1.00  0.00     0.000 C 
BRANCH   2   3
ATOM      3  C   UNL     1       7.051   8.268  10.269  1.00  0.00     0.000 C 
BRANCH   3   4
ATOM      4  C   UNL     1       6.219   7.026   9.902  1.00  0.00     0.000 C 
BRANCH   4   5
ATOM      5  C   UNL     1       4.709   7.237  10.115  1.00  0.00     0.006 C 
BRANCH   5   6
ATOM      6  C   UNL     1       4.179   6.692  11.451  1.00  0.00     0.053 C 
BRANCH   6   7
ATOM      7  C   UNL     1       3.681   7.786  12.345  1.00  0.00     0.041 C 
ATOM      8  O   UNL     1       4.478   8.651  12.794  1.00  0.00    -0.550 OA
ATOM      9  O   UNL     1       2.329   7.872  12.653  1.00  0.00    -0.550 OA
ENDBRANCH   6   7
ENDBRANCH   5   6
ENDBRANCH   4   5
ENDBRANCH   3   4
ENDBRANCH   2   3
ENDBRANCH   1   2
BRANCH   1  10
ATOM     10  C   UNL     1       7.506   7.157  13.629  1.00  0.00     0.000 C 
BRANCH  10  11
ATOM     11  C   UNL     1       7.257   5.943  14.542  1.00  0.00    -0.000 C 
BRANCH  11  12
ATOM     12  C   UNL     1       5.761   5.652  14.742  1.00  0.00    -0.000 C 
BRANCH  12  13
ATOM     13  C   UNL     1       5.081   6.659  15.683  1.00  0.00    -0.000 C 
BRANCH  13  14
ATOM     14  C   UNL     1       4.962   6.086  17.104  1.00  0.00    -0.000 C 
BRANCH  14  15
ATOM     15  C   UNL     1       3.960   4.925  17.192  1.00  0.00    -0.003 C 
ATOM     16  C   UNL     1       2.597   5.360  17.730  1.00  0.00     0.004 C 
ENDBRANCH  14  15
ENDBRANCH  13  14
ENDBRANCH  12  13
ENDBRANCH  11  12
ENDBRANCH  10  11
ENDBRANCH   1  10
TORSDOF 12
ENDMDL
MODEL 4
REMARK VINA RESULT:    -4.776      1.889      4.676
REMARK INTER + INTRA:          -9.965
REMARK INTER:                  -8.265
REMARK INTRA:                  -1.700
REMARK UNBOUND:                -1.839
REMARK SMILES CCCCCCCCCCCCCC(=O)[O-]
REMARK SMILES IDX 8 1 9 2 10 3 11 4 12 5 13 6 14 7 15 8 16 9 7 10 6 11 5 12
REMARK SMILES IDX 4 13 3 14 2 15 1 16
REMARK H PARENT
REMARK Flexibility Score: inf
ROOT
ATOM      1  C   UNL     1       4.041   7.521   9.974  1.00  0.00     0.000 C 
ENDROOT
BRANCH   1   2
ATOM      2  C   UNL     1       4.579   8.963   9.994  1.00  0.00     0.000 C 
BRANCH   2   3
ATOM      3  C   UNL     1       6.067   9.040   9.616  1.00  0.00     0.000 C 
BRANCH   3   4
ATOM      4  C   UNL     1       6.962   9.393  10.817  1.00  0.00     0.000 C 
BRANCH   4   5
ATOM      5  C   UNL     1       8.102   8.379  11.027  1.00  0.00     0.006 C 
BRANCH   5   6
ATOM      6  C   UNL     1       7.856   7.009  10.376  1.00  0.00     0.053 C 
BRANCH   6   7
ATOM      7  C   UNL     1       8.989   6.060  10.619  1.00  0.00     0.041 C 
ATOM      8  O   UNL     1       9.781   5.765   9.685  1.00  0.00    -0.550 OA
ATOM      9  O   UNL     1       9.192   5.529  11.886  1.00  0.00    -0.550 OA
ENDBRANCH   6   7
ENDBRANCH   5   6
ENDBRANCH   4   5
ENDBRANCH   3   4
ENDBRANCH   2   3
ENDBRANCH   1   2
BRANCH   1  10
ATOM     10  C   UNL     1       4.241   6.794  11.313  1.00  0.00     0.000 C 
BRANCH  10  11
ATOM     11  C   UNL     1       3.817   7.652  12.519  1.00  0.00    -0.000 C 
BRANCH  11  12
ATOM     12  C   UNL     1       4.928   7.781  13.573  1.00  0.00    -0.000 C 
BRANCH  12  13
ATOM     13  C   UNL     1       5.981   6.668  13.465  1.00  0.00    -0.000 C 
BRANCH  13  14
ATOM     14  C   UNL     1       5.850   5.675  14.630  1.00  0.00    -0.000 C 
BRANCH  14  15
ATOM     15  C   UNL     1       5.263   6.321  15.894  1.00  0.00    -0.003 C 
ATOM     16  C   UNL     1       4.333   5.382  16.661  1.00  0.00     0.004 C 
ENDBRANCH  14  15
ENDBRANCH  13  14
ENDBRANCH  12  13
ENDBRANCH  11  12
ENDBRANCH  10  11
ENDBRANCH   1  10
TORSDOF 12
ENDMDL
MODEL 5
REMARK VINA RESULT:    -4.763      1.808      4.343
REMARK INTER + INTRA:          -9.944
REMARK INTER:                  -8.538
REMARK INTRA:                  -1.407
REMARK UNBOUND:                -1.839
REMARK SMILES CCCCCCCCCCCCCC(=O)[O-]
REMARK SMILES IDX 8 1 9 2 10 3 11 4 12 5 13 6 14 7 15 8 16 9 7 10 6 11 5 12
REMARK SMILES IDX 4 13 3 14 2 15 1 16
REMARK H PARENT
REMARK Flexibility Score: inf
ROOT
ATOM      1  C   UNL     1       4.406   8.678   9.495  1.00  0.00     0.000 C 
ENDROOT
BRANCH   1   2
ATOM      2  C   UNL     1       5.720   9.458   9.313  1.00  0.00     0.000 C 
BRANCH   2   3
ATOM      3  C   UNL     1       6.344   9.880  10.653  1.00  0.00     0.000 C 
BRANCH   3   4
ATOM      4  C   UNL     1       7.845   9.552  10.733  1.00  0.00     0.000 C 
BRANCH   4   5
ATOM      5  C   UNL     1       8.121   8.180  11.374  1.00  0.00     0.006 C 
BRANCH   5   6
ATOM      6  C   UNL     1       8.042   6.998  10.393  1.00  0.00     0.053 C 
BRANCH   6   7
ATOM      7  C   UNL     1       9.169   6.031  10.587  1.00  0.00     0.041 C 
ATOM      8  O   UNL     1       9.388   5.532  11.723  1.00  0.00    -0.550 OA
ATOM      9  O   UNL     1       9.955   5.652   9.507  1.00  0.00    -0.550 OA
ENDBRANCH   6   7
ENDBRANCH   5   6
ENDBRANCH   4   5
ENDBRANCH   3   4
ENDBRANCH   2   3
ENDBRANCH   1   2
BRANCH   1  10
ATOM     10  C   UNL     1       4.636   7.224   9.938  1.00  0.00     0.000 C 
BRANCH  10  11
ATOM     11  C   UNL     1       3.963   6.905  11.285  1.00  0.00    -0.000 C 
BRANCH  11  12
ATOM     12  C   UNL     1       4.977   6.747  12.429  1.00  0.00    -0.000 C 
BRANCH  12  13
ATOM     13  C   UNL     1       4.806   7.808  13.526  1.00  0.00    -0.000 C 
BRANCH  13  14
ATOM     14  C   UNL     1       5.212   7.247  14.898  1.00  0.00    -0.000 C 
BRANCH  14  15
ATOM     15  C   UNL     1       6.062   5.972  14.788  1.00  0.00    -0.003 C 
ATOM     16  C   UNL     1       7.555   6.267  14.648  1.00  0.00     0.004 C 
ENDBRANCH  14  15
ENDBRANCH  13  14
ENDBRANCH  12  13
ENDBRANCH  11  12
ENDBRANCH  10  11
ENDBRANCH   1  10
TORSDOF 12
ENDMDL
MODEL 6
REMARK VINA RESULT:    -4.678      2.496      4.426
REMARK INTER + INTRA:          -9.798
REMARK INTER:                  -8.388
REMARK INTRA:                  -1.410
REMARK UNBOUND:                -1.839
REMARK SMILES CCCCCCCCCCCCCC(=O)[O-]
REMARK SMILES IDX 8 1 9 2 10 3 11 4 12 5 13 6 14 7 15 8 16 9 7 10 6 11 5 12
REMARK SMILES IDX 4 13 3 14 2 15 1 16
REMARK H PARENT
REMARK Flexibility Score: inf
ROOT
ATOM      1  C   UNL     1       4.876   7.548  15.742  1.00  0.00     0.000 C 
ENDROOT
BRANCH   1   2
ATOM      2  C   UNL     1       3.672   7.925  14.861  1.00  0.00     0.000 C 
BRANCH   2   3
ATOM      3  C   UNL     1       3.978   9.100  13.919  1.00  0.00     0.000 C 
BRANCH   3   4
ATOM      4  C   UNL     1       3.803   8.727  12.436  1.00  0.00     0.000 C 
BRANCH   4   5
ATOM      5  C   UNL     1       3.807   7.206  12.200  1.00  0.00     0.006 C 
BRANCH   5   6
ATOM      6  C   UNL     1       3.507   6.791  10.750  1.00  0.00     0.053 C 
BRANCH   6   7
ATOM      7  C   UNL     1       4.394   7.497   9.770  1.00  0.00     0.041 C 
ATOM      8  O   UNL     1       3.953   8.469   9.103  1.00  0.00    -0.550 OA
ATOM      9  O   UNL     1       5.717   7.103   9.621  1.00  0.00    -0.550 OA
ENDBRANCH   6   7
ENDBRANCH   5   6
ENDBRANCH   4   5
ENDBRANCH   3   4
ENDBRANCH   2   3
ENDBRANCH   1   2
BRANCH   1  10
ATOM     10  C   UNL     1       5.518   6.214  15.329  1.00  0.00     0.000 C 
BRANCH  10  11
ATOM     11  C   UNL     1       6.988   6.374  14.901  1.00  0.00    -0.000 C 
BRANCH  11  12
ATOM     12  C   UNL     1       7.173   6.275  13.378  1.00  0.00    -0.000 C 
BRANCH  12  13
ATOM     13  C   UNL     1       7.499   7.628  12.729  1.00  0.00    -0.000 C 
BRANCH  13  14
ATOM     14  C   UNL     1       8.377   7.441  11.483  1.00  0.00    -0.000 C 
BRANCH  14  15
ATOM     15  C   UNL     1       9.012   6.043  11.411  1.00  0.00    -0.003 C 
ATOM     16  C   UNL     1       9.366   5.627   9.984  1.00  0.00     0.004 C 
ENDBRANCH  14  15
ENDBRANCH  13  14
ENDBRANCH  12  13
ENDBRANCH  11  12
ENDBRANCH  10  11
ENDBRANCH   1  10
TORSDOF 12
ENDMDL
MODEL 7
REMARK VINA RESULT:    -4.548      1.649      3.889
REMARK INTER + INTRA:          -9.577
REMARK INTER:                  -8.169
REMARK INTRA:                  -1.409
REMARK UNBOUND:                -1.839
REMARK SMILES CCCCCCCCCCCCCC(=O)[O-]
REMARK SMILES IDX 8 1 9 2 10 3 11 4 12 5 13 6 14 7 15 8 16 9 7 10 6 11 5 12
REMARK SMILES IDX 4 13 3 14 2 15 1 16
REMARK H PARENT
REMARK Flexibility Score: inf
ROOT
ATOM      1  C   UNL     1       8.270   6.386  12.147  1.00  0.00     0.000 C 
ENDROOT
BRANCH   1   2
ATOM      2  C   UNL     1       7.464   7.118  13.234  1.00  0.00     0.000 C 
BRANCH   2   3
ATOM      3  C   UNL     1       6.170   6.377  13.606  1.00  0.00     0.000 C 
BRANCH   3   4
ATOM      4  C   UNL     1       5.034   7.337  14.003  1.00  0.00     0.000 C 
BRANCH   4   5
ATOM      5  C   UNL     1       4.975   7.592  15.520  1.00  0.00     0.006 C 
BRANCH   5   6
ATOM      6  C   UNL     1       5.217   6.341  16.380  1.00  0.00     0.053 C 
BRANCH   6   7
ATOM      7  C   UNL     1       3.934   5.703  16.816  1.00  0.00     0.041 C 
ATOM      8  O   UNL     1       3.946   4.579  17.384  1.00  0.00    -0.550 OA
ATOM      9  O   UNL     1       2.728   6.365  16.627  1.00  0.00    -0.550 OA
ENDBRANCH   6   7
ENDBRANCH   5   6
ENDBRANCH   4   5
ENDBRANCH   3   4
ENDBRANCH   2   3
ENDBRANCH   1   2
BRANCH   1  10
ATOM     10  C   UNL     1       8.353   7.179  10.834  1.00  0.00     0.000 C 
BRANCH  10  11
ATOM     11  C   UNL     1       7.843   8.624  10.985  1.00  0.00    -0.000 C 
BRANCH  11  12
ATOM     12  C   UNL     1       6.709   8.956  10.002  1.00  0.00    -0.000 C 
BRANCH  12  13
ATOM     13  C   UNL     1       5.316   8.670  10.583  1.00  0.00    -0.000 C 
BRANCH  13  14
ATOM     14  C   UNL     1       4.677   7.453   9.897  1.00  0.00    -0.000 C 
BRANCH  14  15
ATOM     15  C   UNL     1       3.728   6.681  10.827  1.00  0.00    -0.003 C 
ATOM     16  C   UNL     1       2.262   7.065  10.628  1.00  0.00     0.004 C 
ENDBRANCH  14  15
ENDBRANCH  13  14
ENDBRANCH  12  13
ENDBRANCH  11  12
ENDBRANCH  10  11
ENDBRANCH   1  10
TORSDOF 12
ENDMDL
MODEL 8
REMARK VINA RESULT:    -4.514      2.974      6.075
REMARK INTER + INTRA:          -9.520
REMARK INTER:                  -8.238
REMARK INTRA:                  -1.281
REMARK UNBOUND:                -1.839
REMARK SMILES CCCCCCCCCCCCCC(=O)[O-]
REMARK SMILES IDX 8 1 9 2 10 3 11 4 12 5 13 6 14 7 15 8 16 9 7 10 6 11 5 12
REMARK SMILES IDX 4 13 3 14 2 15 1 16
REMARK H PARENT
REMARK Flexibility Score: inf
ROOT
ATOM      1  C   UNL     1       5.694   6.400  13.543  1.00  0.00     0.000 C 
ENDROOT
BRANCH   1   2
ATOM      2  C   UNL     1       7.177   6.772  13.720  1.00  0.00     0.000 C 
BRANCH   2   3
ATOM      3  C   UNL     1       7.937   6.810  12.385  1.00  0.00     0.000 C 
BRANCH   3   4
ATOM      4  C   UNL     1       8.232   8.245  11.916  1.00  0.00     0.000 C 
BRANCH   4   5
ATOM      5  C   UNL     1       7.848   8.481  10.444  1.00  0.00     0.006 C 
BRANCH   5   6
ATOM      6  C   UNL     1       6.433   9.048  10.244  1.00  0.00     0.053 C 
BRANCH   6   7
ATOM      7  C   UNL     1       5.500   8.035   9.656  1.00  0.00     0.041 C 
ATOM      8  O   UNL     1       5.824   6.819   9.622  1.00  0.00    -0.550 OA
ATOM      9  O   UNL     1       4.256   8.429   9.179  1.00  0.00    -0.550 OA
ENDBRANCH   6   7
ENDBRANCH   5   6
ENDBRANCH   4   5
ENDBRANCH   3   4
ENDBRANCH   2   3
ENDBRANCH   1   2
BRANCH   1  10
ATOM     10  C   UNL     1       4.800   7.627  13.304  1.00  0.00     0.000 C 
BRANCH  10  11
ATOM     11  C   UNL     1       3.782   7.844  14.438  1.00  0.00    -0.000 C 
BRANCH  11  12
ATOM     12  C   UNL     1       4.437   8.357  15.731  1.00  0.00    -0.000 C 
BRANCH  12  13
ATOM     13  C   UNL     1       3.976   7.586  16.977  1.00  0.00    -0.000 C 
BRANCH  13  14
ATOM     14  C   UNL     1       2.626   6.897  16.726  1.00  0.00    -0.000 C 
BRANCH  14  15
ATOM     15  C   UNL     1       2.659   5.396  17.053  1.00  0.00    -0.003 C 
ATOM     16  C   UNL     1       4.059   4.899  17.411  1.00  0.00     0.004 C 
ENDBRANCH  14  15
ENDBRANCH  13  14
ENDBRANCH  12  13
ENDBRANCH  11  12
ENDBRANCH  10  11
ENDBRANCH   1  10
TORSDOF 12
ENDMDL
MODEL 9
REMARK VINA RESULT:    -4.467      1.685      2.441
REMARK INTER + INTRA:          -9.440
REMARK INTER:                  -7.713
REMARK INTRA:                  -1.728
REMARK UNBOUND:                -1.839
REMARK SMILES CCCCCCCCCCCCCC(=O)[O-]
REMARK SMILES IDX 8 1 9 2 10 3 11 4 12 5 13 6 14 7 15 8 16 9 7 10 6 11 5 12
REMARK SMILES IDX 4 13 3 14 2 15 1 16
REMARK H PARENT
REMARK Flexibility Score: inf
ROOT
ATOM      1  C   UNL     1       4.551   6.751  11.065  1.00  0.00     0.000 C 
ENDROOT
BRANCH   1   2
ATOM      2  C   UNL     1       3.064   7.147  11.040  1.00  0.00     0.000 C 
BRANCH   2   3
ATOM      3  C   UNL     1       2.633   7.897  12.310  1.00  0.00     0.000 C 
BRANCH   3   4
ATOM      4  C   UNL     1       3.632   8.997  12.711  1.00  0.00     0.000 C 
BRANCH   4   5
ATOM      5  C   UNL     1       4.023   8.932  14.199  1.00  0.00     0.006 C 
BRANCH   5   6
ATOM      6  C   UNL     1       4.144   7.505  14.757  1.00  0.00     0.053 C 
BRANCH   6   7
ATOM      7  C   UNL     1       4.456   7.500  16.222  1.00  0.00     0.041 C 
ATOM      8  O   UNL     1       4.104   8.466  16.949  1.00  0.00    -0.550 OA
ATOM      9  O   UNL     1       5.103   6.411  16.792  1.00  0.00    -0.550 OA
ENDBRANCH   6   7
ENDBRANCH   5   6
ENDBRANCH   4   5
ENDBRANCH   3   4
ENDBRANCH   2   3
ENDBRANCH   1   2
BRANCH   1  10
ATOM     10  C   UNL     1       5.293   7.153   9.781  1.00  0.00     0.000 C 
BRANCH  10  11
ATOM     11  C   UNL     1       5.952   8.540   9.892  1.00  0.00    -0.000 C 
BRANCH  11  12
ATOM     12  C   UNL     1       6.968   8.621  11.043  1.00  0.00    -0.000 C 
BRANCH  12  13
ATOM     13  C   UNL     1       8.177   7.698  10.835  1.00  0.00    -0.000 C 
BRANCH  13  14
ATOM     14  C   UNL     1       8.247   6.631  11.939  1.00  0.00    -0.000 C 
BRANCH  14  15
ATOM     15  C   UNL     1       7.509   7.054  13.218  1.00  0.00    -0.003 C 
ATOM     16  C   UNL     1       7.581   5.998  14.319  1.00  0.00     0.004 C 
ENDBRANCH  14  15
ENDBRANCH  13  14
ENDBRANCH  12  13
ENDBRANCH  11  12
ENDBRANCH  10  11
ENDBRANCH   1  10
TORSDOF 12
ENDMDL
