MODEL 1
REMARK VINA RESULT:     4.948      0.000      0.000
REMARK INTER + INTRA:           9.774
REMARK INTER:                  10.734
REMARK INTRA:                  -0.959
REMARK UNBOUND:                -0.959
REMARK SMILES CCCCCCCCCCCCCCCCCCCCCC(=O)[O-]
REMARK SMILES IDX 12 1 11 2 10 3 9 4 8 5 7 6 6 7 5 8 4 9 3 10 2 11 1 12 13 13
REMARK SMILES IDX 14 14 15 15 16 16 17 17 18 18 19 19 20 20 21 21 22 22 23 23
REMARK SMILES IDX 24 24
REMARK H PARENT
REMARK Flexibility Score: inf
ROOT
ATOM      1  C   UNL     1       4.007 -25.336  -6.057  1.00  0.00     0.000 C 
ENDROOT
BRANCH   1   2
ATOM      2  C   UNL     1       3.194 -26.636  -5.941  1.00  0.00     0.000 C 
BRANCH   2   3
ATOM      3  C   UNL     1       2.570 -27.064  -7.278  1.00  0.00     0.000 C 
BRANCH   3   4
ATOM      4  C   UNL     1       2.528 -28.592  -7.455  1.00  0.00    -0.000 C 
BRANCH   4   5
ATOM      5  C   UNL     1       2.206 -29.330  -6.145  1.00  0.00    -0.000 C 
BRANCH   5   6
ATOM      6  C   UNL     1       2.585 -30.820  -6.195  1.00  0.00    -0.000 C 
BRANCH   6   7
ATOM      7  C   UNL     1       1.354 -31.743  -6.058  1.00  0.00    -0.000 C 
BRANCH   7   8
ATOM      8  C   UNL     1       0.405 -31.341  -4.914  1.00  0.00    -0.000 C 
BRANCH   8   9
ATOM      9  C   UNL     1      -1.055 -31.798  -5.094  1.00  0.00    -0.000 C 
BRANCH   9  10
ATOM     10  C   UNL     1      -2.096 -30.956  -4.334  1.00  0.00    -0.000 C 
BRANCH  10  11
ATOM     11  C   UNL     1      -3.543 -31.319  -4.703  1.00  0.00    -0.003 C 
ATOM     12  C   UNL     1      -3.753 -31.268  -6.214  1.00  0.00     0.004 C 
ENDBRANCH  10  11
ENDBRANCH   9  10
ENDBRANCH   8   9
ENDBRANCH   7   8
ENDBRANCH   6   7
ENDBRANCH   5   6
ENDBRANCH   4   5
ENDBRANCH   3   4
ENDBRANCH   2   3
ENDBRANCH   1   2
BRANCH   1  13
ATOM     13  C   UNL     1       3.922 -24.471  -4.790  1.00  0.00     0.000 C 
BRANCH  13  14
ATOM     14  C   UNL     1       2.722 -23.507  -4.806  1.00  0.00     0.000 C 
BRANCH  14  15
ATOM     15  C   UNL     1       2.087 -23.345  -3.409  1.00  0.00     0.000 C 
BRANCH  15  16
ATOM     16  C   UNL     1       0.572 -23.085  -3.446  1.00  0.00     0.000 C 
BRANCH  16  17
ATOM     17  C   UNL     1       0.132 -21.996  -2.454  1.00  0.00     0.000 C 
BRANCH  17  18
ATOM     18  C   UNL     1      -1.275 -21.444  -2.750  1.00  0.00     0.000 C 
BRANCH  18  19
ATOM     19  C   UNL     1      -2.021 -22.132  -3.908  1.00  0.00     0.000 C 
BRANCH  19  20
ATOM     20  C   UNL     1      -2.150 -21.242  -5.153  1.00  0.00     0.006 C 
BRANCH  20  21
ATOM     21  C   UNL     1      -2.920 -21.961  -6.264  1.00  0.00     0.053 C 
BRANCH  21  22
ATOM     22  C   UNL     1      -4.183 -21.227  -6.586  1.00  0.00     0.041 C 
ATOM     23  O   UNL     1      -5.088 -21.787  -7.260  1.00  0.00    -0.550 OA
ATOM     24  O   UNL     1      -4.343 -19.906  -6.183  1.00  0.00    -0.550 OA
ENDBRANCH  21  22
ENDBRANCH  20  21
ENDBRANCH  19  20
ENDBRANCH  18  19
ENDBRANCH  17  18
ENDBRANCH  16  17
ENDBRANCH  15  16
ENDBRANCH  14  15
ENDBRANCH  13  14
ENDBRANCH   1  13
TORSDOF 20
ENDMDL
MODEL 2
REMARK VINA RESULT:     5.030      3.479      9.248
REMARK INTER + INTRA:           9.952
REMARK INTER:                  11.080
REMARK INTRA:                  -1.128
REMARK UNBOUND:                -0.959
REMARK SMILES CCCCCCCCCCCCCCCCCCCCCC(=O)[O-]
REMARK SMILES IDX 12 1 11 2 10 3 9 4 8 5 7 6 6 7 5 8 4 9 3 10 2 11 1 12 13 13
REMARK SMILES IDX 14 14 15 15 16 16 17 17 18 18 19 19 20 20 21 21 22 22 23 23
REMARK SMILES IDX 24 24
REMARK H PARENT
REMARK Flexibility Score: inf
ROOT
ATOM      1  C   UNL     1       2.482 -23.697  -4.325  1.00  0.00     0.000 C 
ENDROOT
BRANCH   1   2
ATOM      2  C   UNL     1       2.764 -23.007  -2.980  1.00  0.00     0.000 C 
BRANCH   2   3
ATOM      3  C   UNL     1       1.537 -22.263  -2.430  1.00  0.00     0.000 C 
BRANCH   3   4
ATOM      4  C   UNL     1       0.244 -22.598  -3.194  1.00  0.00    -0.000 C 
BRANCH   4   5
ATOM      5  C   UNL     1      -0.937 -21.706  -2.778  1.00  0.00    -0.000 C 
BRANCH   5   6
ATOM      6  C   UNL     1      -1.705 -21.138  -3.984  1.00  0.00    -0.000 C 
BRANCH   6   7
ATOM      7  C   UNL     1      -2.305 -22.248  -4.874  1.00  0.00    -0.000 C 
BRANCH   7   8
ATOM      8  C   UNL     1      -2.744 -21.754  -6.265  1.00  0.00    -0.000 C 
BRANCH   8   9
ATOM      9  C   UNL     1      -4.246 -21.917  -6.564  1.00  0.00    -0.000 C 
BRANCH   9  10
ATOM     10  C   UNL     1      -5.085 -20.639  -6.383  1.00  0.00    -0.000 C 
BRANCH  10  11
ATOM     11  C   UNL     1      -4.239 -19.357  -6.421  1.00  0.00    -0.003 C 
ATOM     12  C   UNL     1      -5.123 -18.114  -6.384  1.00  0.00     0.004 C 
ENDBRANCH  10  11
ENDBRANCH   9  10
ENDBRANCH   8   9
ENDBRANCH   7   8
ENDBRANCH   6   7
ENDBRANCH   5   6
ENDBRANCH   4   5
ENDBRANCH   3   4
ENDBRANCH   2   3
ENDBRANCH   1   2
BRANCH   1  13
ATOM     13  C   UNL     1       3.765 -23.993  -5.117  1.00  0.00     0.000 C 
BRANCH  13  14
ATOM     14  C   UNL     1       3.830 -25.444  -5.626  1.00  0.00     0.000 C 
BRANCH  14  15
ATOM     15  C   UNL     1       2.613 -25.809  -6.503  1.00  0.00     0.000 C 
BRANCH  15  16
ATOM     16  C   UNL     1       2.870 -26.989  -7.454  1.00  0.00     0.000 C 
BRANCH  16  17
ATOM     17  C   UNL     1       1.998 -28.213  -7.131  1.00  0.00     0.000 C 
BRANCH  17  18
ATOM     18  C   UNL     1       2.776 -29.337  -6.422  1.00  0.00     0.000 C 
BRANCH  18  19
ATOM     19  C   UNL     1       2.545 -30.752  -6.982  1.00  0.00     0.000 C 
BRANCH  19  20
ATOM     20  C   UNL     1       2.156 -31.771  -5.900  1.00  0.00     0.006 C 
BRANCH  20  21
ATOM     21  C   UNL     1       0.635 -31.919  -5.807  1.00  0.00     0.053 C 
BRANCH  21  22
ATOM     22  C   UNL     1       0.128 -31.329  -4.530  1.00  0.00     0.041 C 
ATOM     23  O   UNL     1       0.896 -31.208  -3.539  1.00  0.00    -0.550 OA
ATOM     24  O   UNL     1      -1.207 -30.957  -4.416  1.00  0.00    -0.550 OA
ENDBRANCH  21  22
ENDBRANCH  20  21
ENDBRANCH  19  20
ENDBRANCH  18  19
ENDBRANCH  17  18
ENDBRANCH  16  17
ENDBRANCH  15  16
ENDBRANCH  14  15
ENDBRANCH  13  14
ENDBRANCH   1  13
TORSDOF 20
ENDMDL
MODEL 3
REMARK VINA RESULT:     5.317      1.336      1.987
REMARK INTER + INTRA:          10.574
REMARK INTER:                  11.764
REMARK INTRA:                  -1.190
REMARK UNBOUND:                -0.959
REMARK SMILES CCCCCCCCCCCCCCCCCCCCCC(=O)[O-]
REMARK SMILES IDX 12 1 11 2 10 3 9 4 8 5 7 6 6 7 5 8 4 9 3 10 2 11 1 12 13 13
REMARK SMILES IDX 14 14 15 15 16 16 17 17 18 18 19 19 20 20 21 21 22 22 23 23
REMARK SMILES IDX 24 24
REMARK H PARENT
REMARK Flexibility Score: inf
ROOT
ATOM      1  C   UNL     1       3.318 -26.302  -5.807  1.00  0.00     0.000 C 
ENDROOT
BRANCH   1   2
ATOM      2  C   UNL     1       2.514 -26.665  -7.067  1.00  0.00     0.000 C 
BRANCH   2   3
ATOM      3  C   UNL     1       2.673 -28.141  -7.463  1.00  0.00     0.000 C 
BRANCH   3   4
ATOM      4  C   UNL     1       2.267 -29.108  -6.337  1.00  0.00    -0.000 C 
BRANCH   4   5
ATOM      5  C   UNL     1       2.315 -30.581  -6.776  1.00  0.00    -0.000 C 
BRANCH   5   6
ATOM      6  C   UNL     1       2.047 -31.555  -5.615  1.00  0.00    -0.000 C 
BRANCH   6   7
ATOM      7  C   UNL     1       0.597 -32.085  -5.617  1.00  0.00    -0.000 C 
BRANCH   7   8
ATOM      8  C   UNL     1      -0.357 -31.278  -4.717  1.00  0.00    -0.000 C 
BRANCH   8   9
ATOM      9  C   UNL     1      -1.771 -31.873  -4.574  1.00  0.00    -0.000 C 
BRANCH   9  10
ATOM     10  C   UNL     1      -2.920 -30.864  -4.751  1.00  0.00    -0.000 C 
BRANCH  10  11
ATOM     11  C   UNL     1      -4.166 -31.483  -5.402  1.00  0.00    -0.003 C 
ATOM     12  C   UNL     1      -4.584 -30.699  -6.642  1.00  0.00     0.004 C 
ENDBRANCH  10  11
ENDBRANCH   9  10
ENDBRANCH   8   9
ENDBRANCH   7   8
ENDBRANCH   6   7
ENDBRANCH   5   6
ENDBRANCH   4   5
ENDBRANCH   3   4
ENDBRANCH   2   3
ENDBRANCH   1   2
BRANCH   1  13
ATOM     13  C   UNL     1       3.999 -24.929  -5.916  1.00  0.00     0.000 C 
BRANCH  13  14
ATOM     14  C   UNL     1       3.567 -23.959  -4.802  1.00  0.00     0.000 C 
BRANCH  14  15
ATOM     15  C   UNL     1       2.032 -23.873  -4.667  1.00  0.00     0.000 C 
BRANCH  15  16
ATOM     16  C   UNL     1       1.357 -23.081  -5.799  1.00  0.00     0.000 C 
BRANCH  16  17
ATOM     17  C   UNL     1       0.297 -23.903  -6.550  1.00  0.00     0.000 C 
BRANCH  17  18
ATOM     18  C   UNL     1      -0.541 -23.057  -7.527  1.00  0.00     0.000 C 
BRANCH  18  19
ATOM     19  C   UNL     1      -1.339 -21.908  -6.884  1.00  0.00     0.000 C 
BRANCH  19  20
ATOM     20  C   UNL     1      -2.457 -22.400  -5.953  1.00  0.00     0.006 C 
BRANCH  20  21
ATOM     21  C   UNL     1      -3.261 -21.224  -5.391  1.00  0.00     0.053 C 
BRANCH  21  22
ATOM     22  C   UNL     1      -4.261 -20.745  -6.395  1.00  0.00     0.041 C 
ATOM     23  O   UNL     1      -4.672 -19.555  -6.362  1.00  0.00    -0.550 OA
ATOM     24  O   UNL     1      -4.777 -21.626  -7.338  1.00  0.00    -0.550 OA
ENDBRANCH  21  22
ENDBRANCH  20  21
ENDBRANCH  19  20
ENDBRANCH  18  19
ENDBRANCH  17  18
ENDBRANCH  16  17
ENDBRANCH  15  16
ENDBRANCH  14  15
ENDBRANCH  13  14
ENDBRANCH   1  13
TORSDOF 20
ENDMDL
MODEL 4
REMARK VINA RESULT:     5.702      3.159      8.663
REMARK INTER + INTRA:          11.409
REMARK INTER:                  12.636
REMARK INTRA:                  -1.227
REMARK UNBOUND:                -0.959
REMARK SMILES CCCCCCCCCCCCCCCCCCCCCC(=O)[O-]
REMARK SMILES IDX 12 1 11 2 10 3 9 4 8 5 7 6 6 7 5 8 4 9 3 10 2 11 1 12 13 13
REMARK SMILES IDX 14 14 15 15 16 16 17 17 18 18 19 19 20 20 21 21 22 22 23 23
REMARK SMILES IDX 24 24
REMARK H PARENT
REMARK Flexibility Score: inf
ROOT
ATOM      1  C   UNL     1       3.500 -26.244  -5.573  1.00  0.00     0.000 C 
ENDROOT
BRANCH   1   2
ATOM      2  C   UNL     1       3.802 -24.737  -5.628  1.00  0.00     0.000 C 
BRANCH   2   3
ATOM      3  C   UNL     1       2.913 -23.921  -4.677  1.00  0.00     0.000 C 
BRANCH   3   4
ATOM      4  C   UNL     1       1.996 -22.933  -5.419  1.00  0.00    -0.000 C 
BRANCH   4   5
ATOM      5  C   UNL     1       0.597 -23.511  -5.687  1.00  0.00    -0.000 C 
BRANCH   5   6
ATOM      6  C   UNL     1       0.080 -23.184  -7.099  1.00  0.00    -0.000 C 
BRANCH   6   7
ATOM      7  C   UNL     1      -1.388 -22.706  -7.090  1.00  0.00    -0.000 C 
BRANCH   7   8
ATOM      8  C   UNL     1      -1.852 -22.162  -5.726  1.00  0.00    -0.000 C 
BRANCH   8   9
ATOM      9  C   UNL     1      -3.379 -22.132  -5.528  1.00  0.00    -0.000 C 
BRANCH   9  10
ATOM     10  C   UNL     1      -4.188 -21.745  -6.780  1.00  0.00    -0.000 C 
BRANCH  10  11
ATOM     11  C   UNL     1      -5.125 -20.550  -6.541  1.00  0.00    -0.003 C 
ATOM     12  C   UNL     1      -4.331 -19.272  -6.287  1.00  0.00     0.004 C 
ENDBRANCH  10  11
ENDBRANCH   9  10
ENDBRANCH   8   9
ENDBRANCH   7   8
ENDBRANCH   6   7
ENDBRANCH   5   6
ENDBRANCH   4   5
ENDBRANCH   3   4
ENDBRANCH   2   3
ENDBRANCH   1   2
BRANCH   1  13
ATOM     13  C   UNL     1       2.834 -26.760  -6.857  1.00  0.00     0.000 C 
BRANCH  13  14
ATOM     14  C   UNL     1       2.232 -28.167  -6.693  1.00  0.00     0.000 C 
BRANCH  14  15
ATOM     15  C   UNL     1       2.580 -29.091  -7.880  1.00  0.00     0.000 C 
BRANCH  15  16
ATOM     16  C   UNL     1       2.713 -30.572  -7.491  1.00  0.00     0.000 C 
BRANCH  16  17
ATOM     17  C   UNL     1       2.264 -30.850  -6.046  1.00  0.00     0.000 C 
BRANCH  17  18
ATOM     18  C   UNL     1       1.032 -31.770  -5.964  1.00  0.00     0.000 C 
BRANCH  18  19
ATOM     19  C   UNL     1       0.076 -31.486  -4.791  1.00  0.00     0.000 C 
BRANCH  19  20
ATOM     20  C   UNL     1      -1.372 -31.907  -5.080  1.00  0.00     0.006 C 
BRANCH  20  21
ATOM     21  C   UNL     1      -2.293 -30.686  -5.164  1.00  0.00     0.053 C 
BRANCH  21  22
ATOM     22  C   UNL     1      -3.726 -31.103  -5.069  1.00  0.00     0.041 C 
ATOM     23  O   UNL     1      -4.574 -30.646  -5.881  1.00  0.00    -0.550 OA
ATOM     24  O   UNL     1      -4.136 -31.958  -4.053  1.00  0.00    -0.550 OA
ENDBRANCH  21  22
ENDBRANCH  20  21
ENDBRANCH  19  20
ENDBRANCH  18  19
ENDBRANCH  17  18
ENDBRANCH  16  17
ENDBRANCH  15  16
ENDBRANCH  14  15
ENDBRANCH  13  14
ENDBRANCH   1  13
TORSDOF 20
ENDMDL
MODEL 5
REMARK VINA RESULT:     5.874      2.971      8.631
REMARK INTER + INTRA:          11.781
REMARK INTER:                  12.698
REMARK INTRA:                  -0.916
REMARK UNBOUND:                -0.959
REMARK SMILES CCCCCCCCCCCCCCCCCCCCCC(=O)[O-]
REMARK SMILES IDX 12 1 11 2 10 3 9 4 8 5 7 6 6 7 5 8 4 9 3 10 2 11 1 12 13 13
REMARK SMILES IDX 14 14 15 15 16 16 17 17 18 18 19 19 20 20 21 21 22 22 23 23
REMARK SMILES IDX 24 24
REMARK H PARENT
REMARK Flexibility Score: inf
ROOT
ATOM      1  C   UNL     1       2.922 -25.563  -5.782  1.00  0.00     0.000 C 
ENDROOT
BRANCH   1   2
ATOM      2  C   UNL     1       4.062 -24.641  -5.319  1.00  0.00     0.000 C 
BRANCH   2   3
ATOM      3  C   UNL     1       3.548 -23.362  -4.641  1.00  0.00     0.000 C 
BRANCH   3   4
ATOM      4  C   UNL     1       2.255 -23.590  -3.839  1.00  0.00    -0.000 C 
BRANCH   4   5
ATOM      5  C   UNL     1       2.242 -22.824  -2.507  1.00  0.00    -0.000 C 
BRANCH   5   6
ATOM      6  C   UNL     1       1.003 -21.926  -2.350  1.00  0.00    -0.000 C 
BRANCH   6   7
ATOM      7  C   UNL     1      -0.265 -22.563  -2.959  1.00  0.00    -0.000 C 
BRANCH   7   8
ATOM      8  C   UNL     1      -1.506 -21.653  -2.892  1.00  0.00    -0.000 C 
BRANCH   8   9
ATOM      9  C   UNL     1      -1.957 -21.074  -4.246  1.00  0.00    -0.000 C 
BRANCH   9  10
ATOM     10  C   UNL     1      -2.806 -22.025  -5.108  1.00  0.00    -0.000 C 
BRANCH  10  11
ATOM     11  C   UNL     1      -2.415 -21.995  -6.594  1.00  0.00    -0.003 C 
ATOM     12  C   UNL     1      -1.164 -22.830  -6.850  1.00  0.00     0.004 C 
ENDBRANCH  10  11
ENDBRANCH   9  10
ENDBRANCH   8   9
ENDBRANCH   7   8
ENDBRANCH   6   7
ENDBRANCH   5   6
ENDBRANCH   4   5
ENDBRANCH   3   4
ENDBRANCH   2   3
ENDBRANCH   1   2
BRANCH   1  13
ATOM     13  C   UNL     1       3.428 -26.931  -6.266  1.00  0.00     0.000 C 
BRANCH  13  14
ATOM     14  C   UNL     1       2.360 -27.720  -7.045  1.00  0.00     0.000 C 
BRANCH  14  15
ATOM     15  C   UNL     1       1.900 -28.983  -6.286  1.00  0.00     0.000 C 
BRANCH  15  16
ATOM     16  C   UNL     1       2.447 -30.292  -6.878  1.00  0.00     0.000 C 
BRANCH  16  17
ATOM     17  C   UNL     1       2.267 -31.492  -5.934  1.00  0.00     0.000 C 
BRANCH  17  18
ATOM     18  C   UNL     1       0.830 -32.047  -5.933  1.00  0.00     0.000 C 
BRANCH  18  19
ATOM     19  C   UNL     1      -0.146 -31.343  -4.975  1.00  0.00     0.000 C 
BRANCH  19  20
ATOM     20  C   UNL     1      -1.455 -32.119  -4.772  1.00  0.00     0.006 C 
BRANCH  20  21
ATOM     21  C   UNL     1      -2.458 -31.808  -5.887  1.00  0.00     0.053 C 
BRANCH  21  22
ATOM     22  C   UNL     1      -3.749 -31.322  -5.311  1.00  0.00     0.041 C 
ATOM     23  O   UNL     1      -4.050 -31.587  -4.116  1.00  0.00    -0.550 OA
ATOM     24  O   UNL     1      -4.647 -30.620  -6.107  1.00  0.00    -0.550 OA
ENDBRANCH  21  22
ENDBRANCH  20  21
ENDBRANCH  19  20
ENDBRANCH  18  19
ENDBRANCH  17  18
ENDBRANCH  16  17
ENDBRANCH  15  16
ENDBRANCH  14  15
ENDBRANCH  13  14
ENDBRANCH   1  13
TORSDOF 20
ENDMDL
MODEL 6
REMARK VINA RESULT:     6.017      1.544      2.836
REMARK INTER + INTRA:          12.092
REMARK INTER:                  13.369
REMARK INTRA:                  -1.277
REMARK UNBOUND:                -0.959
REMARK SMILES CCCCCCCCCCCCCCCCCCCCCC(=O)[O-]
REMARK SMILES IDX 12 1 11 2 10 3 9 4 8 5 7 6 6 7 5 8 4 9 3 10 2 11 1 12 13 13
REMARK SMILES IDX 14 14 15 15 16 16 17 17 18 18 19 19 20 20 21 21 22 22 23 23
REMARK SMILES IDX 24 24
REMARK H PARENT
REMARK Flexibility Score: inf
ROOT
ATOM      1  C   UNL     1       2.201 -28.052  -7.005  1.00  0.00     0.000 C 
ENDROOT
BRANCH   1   2
ATOM      2  C   UNL     1       2.730 -29.089  -8.010  1.00  0.00     0.000 C 
BRANCH   2   3
ATOM      3  C   UNL     1       2.796 -30.505  -7.417  1.00  0.00     0.000 C 
BRANCH   3   4
ATOM      4  C   UNL     1       2.622 -30.520  -5.888  1.00  0.00    -0.000 C 
BRANCH   4   5
ATOM      5  C   UNL     1       1.983 -31.822  -5.378  1.00  0.00    -0.000 C 
BRANCH   5   6
ATOM      6  C   UNL     1       0.878 -31.573  -4.337  1.00  0.00    -0.000 C 
BRANCH   6   7
ATOM      7  C   UNL     1      -0.477 -31.229  -4.992  1.00  0.00    -0.000 C 
BRANCH   7   8
ATOM      8  C   UNL     1      -1.618 -31.021  -3.978  1.00  0.00    -0.000 C 
BRANCH   8   9
ATOM      9  C   UNL     1      -2.692 -32.125  -3.978  1.00  0.00    -0.000 C 
BRANCH   9  10
ATOM     10  C   UNL     1      -4.067 -31.690  -4.518  1.00  0.00    -0.000 C 
BRANCH  10  11
ATOM     11  C   UNL     1      -3.965 -30.775  -5.748  1.00  0.00    -0.003 C 
ATOM     12  C   UNL     1      -4.678 -31.389  -6.949  1.00  0.00     0.004 C 
ENDBRANCH  10  11
ENDBRANCH   9  10
ENDBRANCH   8   9
ENDBRANCH   7   8
ENDBRANCH   6   7
ENDBRANCH   5   6
ENDBRANCH   4   5
ENDBRANCH   3   4
ENDBRANCH   2   3
ENDBRANCH   1   2
BRANCH   1  13
ATOM     13  C   UNL     1       3.068 -26.784  -6.953  1.00  0.00     0.000 C 
BRANCH  13  14
ATOM     14  C   UNL     1       3.475 -26.398  -5.520  1.00  0.00     0.000 C 
BRANCH  14  15
ATOM     15  C   UNL     1       4.017 -24.955  -5.437  1.00  0.00     0.000 C 
BRANCH  15  16
ATOM     16  C   UNL     1       2.976 -23.933  -4.950  1.00  0.00     0.000 C 
BRANCH  16  17
ATOM     17  C   UNL     1       2.100 -23.388  -6.089  1.00  0.00     0.000 C 
BRANCH  17  18
ATOM     18  C   UNL     1       0.592 -23.510  -5.801  1.00  0.00     0.000 C 
BRANCH  18  19
ATOM     19  C   UNL     1      -0.315 -23.540  -7.044  1.00  0.00     0.000 C 
BRANCH  19  20
ATOM     20  C   UNL     1      -1.153 -22.264  -7.208  1.00  0.00     0.006 C 
BRANCH  20  21
ATOM     21  C   UNL     1      -2.524 -22.417  -6.542  1.00  0.00     0.053 C 
BRANCH  21  22
ATOM     22  C   UNL     1      -2.744 -21.330  -5.539  1.00  0.00     0.041 C 
ATOM     23  O   UNL     1      -3.378 -20.290  -5.861  1.00  0.00    -0.550 OA
ATOM     24  O   UNL     1      -2.206 -21.442  -4.262  1.00  0.00    -0.550 OA
ENDBRANCH  21  22
ENDBRANCH  20  21
ENDBRANCH  19  20
ENDBRANCH  18  19
ENDBRANCH  17  18
ENDBRANCH  16  17
ENDBRANCH  15  16
ENDBRANCH  14  15
ENDBRANCH  13  14
ENDBRANCH   1  13
TORSDOF 20
ENDMDL
MODEL 7
REMARK VINA RESULT:     6.562      3.696      9.360
REMARK INTER + INTRA:          13.275
REMARK INTER:                  13.976
REMARK INTRA:                  -0.701
REMARK UNBOUND:                -0.959
REMARK SMILES CCCCCCCCCCCCCCCCCCCCCC(=O)[O-]
REMARK SMILES IDX 12 1 11 2 10 3 9 4 8 5 7 6 6 7 5 8 4 9 3 10 2 11 1 12 13 13
REMARK SMILES IDX 14 14 15 15 16 16 17 17 18 18 19 19 20 20 21 21 22 22 23 23
REMARK SMILES IDX 24 24
REMARK H PARENT
REMARK Flexibility Score: inf
ROOT
ATOM      1  C   UNL     1       3.256 -23.940  -4.649  1.00  0.00     0.000 C 
ENDROOT
BRANCH   1   2
ATOM      2  C   UNL     1       1.942 -23.452  -5.282  1.00  0.00     0.000 C 
BRANCH   2   3
ATOM      3  C   UNL     1       0.800 -23.338  -4.261  1.00  0.00     0.000 C 
BRANCH   3   4
ATOM      4  C   UNL     1      -0.539 -22.940  -4.906  1.00  0.00    -0.000 C 
BRANCH   4   5
ATOM      5  C   UNL     1      -0.430 -22.750  -6.427  1.00  0.00    -0.000 C 
BRANCH   5   6
ATOM      6  C   UNL     1      -1.799 -22.552  -7.101  1.00  0.00    -0.000 C 
BRANCH   6   7
ATOM      7  C   UNL     1      -2.885 -22.099  -6.101  1.00  0.00    -0.000 C 
BRANCH   7   8
ATOM      8  C   UNL     1      -4.315 -22.176  -6.667  1.00  0.00    -0.000 C 
BRANCH   8   9
ATOM      9  C   UNL     1      -5.125 -20.870  -6.556  1.00  0.00    -0.000 C 
BRANCH   9  10
ATOM     10  C   UNL     1      -4.277 -19.590  -6.436  1.00  0.00    -0.000 C 
BRANCH  10  11
ATOM     11  C   UNL     1      -5.120 -18.340  -6.138  1.00  0.00    -0.003 C 
ATOM     12  C   UNL     1      -4.640 -17.146  -6.957  1.00  0.00     0.004 C 
ENDBRANCH  10  11
ENDBRANCH   9  10
ENDBRANCH   8   9
ENDBRANCH   7   8
ENDBRANCH   6   7
ENDBRANCH   5   6
ENDBRANCH   4   5
ENDBRANCH   3   4
ENDBRANCH   2   3
ENDBRANCH   1   2
BRANCH   1  13
ATOM     13  C   UNL     1       3.981 -24.978  -5.518  1.00  0.00     0.000 C 
BRANCH  13  14
ATOM     14  C   UNL     1       3.195 -26.294  -5.656  1.00  0.00     0.000 C 
BRANCH  14  15
ATOM     15  C   UNL     1       2.782 -26.575  -7.117  1.00  0.00     0.000 C 
BRANCH  15  16
ATOM     16  C   UNL     1       2.097 -27.937  -7.314  1.00  0.00     0.000 C 
BRANCH  16  17
ATOM     17  C   UNL     1       2.841 -29.083  -6.609  1.00  0.00     0.000 C 
BRANCH  17  18
ATOM     18  C   UNL     1       2.541 -30.464  -7.221  1.00  0.00     0.000 C 
BRANCH  18  19
ATOM     19  C   UNL     1       2.887 -31.669  -6.328  1.00  0.00     0.000 C 
BRANCH  19  20
ATOM     20  C   UNL     1       1.760 -32.039  -5.354  1.00  0.00     0.006 C 
BRANCH  20  21
ATOM     21  C   UNL     1       0.839 -30.842  -5.097  1.00  0.00     0.053 C 
BRANCH  21  22
ATOM     22  C   UNL     1      -0.353 -31.259  -4.298  1.00  0.00     0.041 C 
ATOM     23  O   UNL     1      -1.321 -31.841  -4.858  1.00  0.00    -0.550 OA
ATOM     24  O   UNL     1      -0.420 -30.962  -2.941  1.00  0.00    -0.550 OA
ENDBRANCH  21  22
ENDBRANCH  20  21
ENDBRANCH  19  20
ENDBRANCH  18  19
ENDBRANCH  17  18
ENDBRANCH  16  17
ENDBRANCH  15  16
ENDBRANCH  14  15
ENDBRANCH  13  14
ENDBRANCH   1  13
TORSDOF 20
ENDMDL
MODEL 8
REMARK VINA RESULT:     7.082      1.847      2.895
REMARK INTER + INTRA:          14.402
REMARK INTER:                  15.622
REMARK INTRA:                  -1.220
REMARK UNBOUND:                -0.959
REMARK SMILES CCCCCCCCCCCCCCCCCCCCCC(=O)[O-]
REMARK SMILES IDX 12 1 11 2 10 3 9 4 8 5 7 6 6 7 5 8 4 9 3 10 2 11 1 12 13 13
REMARK SMILES IDX 14 14 15 15 16 16 17 17 18 18 19 19 20 20 21 21 22 22 23 23
REMARK SMILES IDX 24 24
REMARK H PARENT
REMARK Flexibility Score: inf
ROOT
ATOM      1  C   UNL     1       2.903 -27.135  -6.768  1.00  0.00     0.000 C 
ENDROOT
BRANCH   1   2
ATOM      2  C   UNL     1       3.042 -28.664  -6.671  1.00  0.00     0.000 C 
BRANCH   2   3
ATOM      3  C   UNL     1       2.204 -29.400  -7.728  1.00  0.00     0.000 C 
BRANCH   3   4
ATOM      4  C   UNL     1       2.724 -30.820  -8.017  1.00  0.00    -0.000 C 
BRANCH   4   5
ATOM      5  C   UNL     1       2.933 -31.645  -6.737  1.00  0.00    -0.000 C 
BRANCH   5   6
ATOM      6  C   UNL     1       1.609 -32.124  -6.117  1.00  0.00    -0.000 C 
BRANCH   6   7
ATOM      7  C   UNL     1       1.285 -31.398  -4.793  1.00  0.00    -0.000 C 
BRANCH   7   8
ATOM      8  C   UNL     1      -0.224 -31.215  -4.543  1.00  0.00    -0.000 C 
BRANCH   8   9
ATOM      9  C   UNL     1      -0.623 -31.095  -3.060  1.00  0.00    -0.000 C 
BRANCH   9  10
ATOM     10  C   UNL     1       0.513 -30.663  -2.116  1.00  0.00    -0.000 C 
BRANCH  10  11
ATOM     11  C   UNL     1       0.883 -31.747  -1.090  1.00  0.00    -0.003 C 
ATOM     12  C   UNL     1      -0.187 -31.867  -0.009  1.00  0.00     0.004 C 
ENDBRANCH  10  11
ENDBRANCH   9  10
ENDBRANCH   8   9
ENDBRANCH   7   8
ENDBRANCH   6   7
ENDBRANCH   5   6
ENDBRANCH   4   5
ENDBRANCH   3   4
ENDBRANCH   2   3
ENDBRANCH   1   2
BRANCH   1  13
ATOM     13  C   UNL     1       3.210 -26.429  -5.439  1.00  0.00     0.000 C 
BRANCH  13  14
ATOM     14  C   UNL     1       3.923 -25.078  -5.632  1.00  0.00     0.000 C 
BRANCH  14  15
ATOM     15  C   UNL     1       3.286 -23.957  -4.783  1.00  0.00     0.000 C 
BRANCH  15  16
ATOM     16  C   UNL     1       2.288 -23.085  -5.563  1.00  0.00     0.000 C 
BRANCH  16  17
ATOM     17  C   UNL     1       0.825 -23.482  -5.305  1.00  0.00     0.000 C 
BRANCH  17  18
ATOM     18  C   UNL     1      -0.005 -23.598  -6.597  1.00  0.00     0.000 C 
BRANCH  18  19
ATOM     19  C   UNL     1      -0.812 -22.342  -6.975  1.00  0.00     0.000 C 
BRANCH  19  20
ATOM     20  C   UNL     1      -2.294 -22.441  -6.586  1.00  0.00     0.006 C 
BRANCH  20  21
ATOM     21  C   UNL     1      -2.767 -21.159  -5.893  1.00  0.00     0.053 C 
BRANCH  21  22
ATOM     22  C   UNL     1      -4.145 -20.796  -6.346  1.00  0.00     0.041 C 
ATOM     23  O   UNL     1      -4.882 -21.661  -6.889  1.00  0.00    -0.550 OA
ATOM     24  O   UNL     1      -4.599 -19.489  -6.214  1.00  0.00    -0.550 OA
ENDBRANCH  21  22
ENDBRANCH  20  21
ENDBRANCH  19  20
ENDBRANCH  18  19
ENDBRANCH  17  18
ENDBRANCH  16  17
ENDBRANCH  15  16
ENDBRANCH  14  15
ENDBRANCH  13  14
ENDBRANCH   1  13
TORSDOF 20
ENDMDL
