MODEL 1
REMARK VINA RESULT:    -3.222      0.000      0.000
REMARK INTER + INTRA:         -11.854
REMARK INTER:                  -7.367
REMARK INTRA:                  -4.487
REMARK UNBOUND:                -4.487
REMARK SMILES CCCCCCCCCCCCCCCCCCCCCCCC(=O)[O-]
REMARK SMILES IDX 13 1 14 2 15 3 16 4 17 5 18 6 19 7 20 8 21 9 22 10 23 11
REMARK SMILES IDX 24 12 25 13 26 14 12 15 11 16 10 17 9 18 8 19 7 20 6 21 5 22
REMARK SMILES IDX 4 23 3 24 2 25 1 26
REMARK H PARENT
REMARK Flexibility Score: inf
ROOT
ATOM      1  C   UNL     1     168.715 157.306 177.894  1.00  0.00     0.000 C 
ENDROOT
BRANCH   1   2
ATOM      2  C   UNL     1     167.577 158.044 178.612  1.00  0.00     0.000 C 
BRANCH   2   3
ATOM      3  C   UNL     1     166.183 157.649 178.090  1.00  0.00     0.000 C 
BRANCH   3   4
ATOM      4  C   UNL     1     165.194 157.182 179.174  1.00  0.00     0.000 C 
BRANCH   4   5
ATOM      5  C   UNL     1     164.112 156.199 178.688  1.00  0.00     0.000 C 
BRANCH   5   6
ATOM      6  C   UNL     1     162.673 156.643 179.027  1.00  0.00     0.000 C 
BRANCH   6   7
ATOM      7  C   UNL     1     162.204 157.826 178.162  1.00  0.00     0.000 C 
BRANCH   7   8
ATOM      8  C   UNL     1     161.505 157.372 176.870  1.00  0.00     0.000 C 
BRANCH   8   9
ATOM      9  C   UNL     1     162.012 158.131 175.630  1.00  0.00     0.000 C 
BRANCH   9  10
ATOM     10  C   UNL     1     163.531 158.361 175.659  1.00  0.00     0.006 C 
BRANCH  10  11
ATOM     11  C   UNL     1     164.314 157.254 174.939  1.00  0.00     0.053 C 
BRANCH  11  12
ATOM     12  C   UNL     1     165.502 157.830 174.236  1.00  0.00     0.041 C 
ATOM     13  O   UNL     1     166.666 157.488 174.574  1.00  0.00    -0.550 OA
ATOM     14  O   UNL     1     165.324 158.703 173.171  1.00  0.00    -0.550 OA
ENDBRANCH  11  12
ENDBRANCH  10  11
ENDBRANCH   9  10
ENDBRANCH   8   9
ENDBRANCH   7   8
ENDBRANCH   6   7
ENDBRANCH   5   6
ENDBRANCH   4   5
ENDBRANCH   3   4
ENDBRANCH   2   3
ENDBRANCH   1   2
BRANCH   1  15
ATOM     15  C   UNL     1     168.372 155.822 177.695  1.00  0.00     0.000 C 
BRANCH  15  16
ATOM     16  C   UNL     1     168.733 155.303 176.289  1.00  0.00     0.000 C 
BRANCH  16  17
ATOM     17  C   UNL     1     167.783 154.232 175.722  1.00  0.00     0.000 C 
BRANCH  17  18
ATOM     18  C   UNL     1     166.348 154.356 176.262  1.00  0.00    -0.000 C 
BRANCH  18  19
ATOM     19  C   UNL     1     165.936 153.158 177.133  1.00  0.00    -0.000 C 
BRANCH  19  20
ATOM     20  C   UNL     1     166.770 151.897 176.845  1.00  0.00    -0.000 C 
BRANCH  20  21
ATOM     21  C   UNL     1     167.402 151.310 178.118  1.00  0.00    -0.000 C 
BRANCH  21  22
ATOM     22  C   UNL     1     168.751 151.964 178.464  1.00  0.00    -0.000 C 
BRANCH  22  23
ATOM     23  C   UNL     1     168.657 152.898 179.682  1.00  0.00    -0.000 C 
BRANCH  23  24
ATOM     24  C   UNL     1     167.325 152.752 180.434  1.00  0.00    -0.000 C 
BRANCH  24  25
ATOM     25  C   UNL     1     166.619 154.106 180.568  1.00  0.00    -0.003 C 
ATOM     26  C   UNL     1     167.505 155.123 181.284  1.00  0.00     0.004 C 
ENDBRANCH  24  25
ENDBRANCH  23  24
ENDBRANCH  22  23
ENDBRANCH  21  22
ENDBRANCH  20  21
ENDBRANCH  19  20
ENDBRANCH  18  19
ENDBRANCH  17  18
ENDBRANCH  16  17
ENDBRANCH  15  16
ENDBRANCH   1  15
TORSDOF 22
ENDMDL
MODEL 2
REMARK VINA RESULT:    -3.190      1.617      6.545
REMARK INTER + INTRA:         -11.780
REMARK INTER:                  -7.600
REMARK INTRA:                  -4.180
REMARK UNBOUND:                -4.487
REMARK SMILES CCCCCCCCCCCCCCCCCCCCCCCC(=O)[O-]
REMARK SMILES IDX 13 1 14 2 15 3 16 4 17 5 18 6 19 7 20 8 21 9 22 10 23 11
REMARK SMILES IDX 24 12 25 13 26 14 12 15 11 16 10 17 9 18 8 19 7 20 6 21 5 22
REMARK SMILES IDX 4 23 3 24 2 25 1 26
REMARK H PARENT
REMARK Flexibility Score: inf
ROOT
ATOM      1  C   UNL     1     166.640 155.898 179.766  1.00  0.00     0.000 C 
ENDROOT
BRANCH   1   2
ATOM      2  C   UNL     1     166.088 154.586 180.342  1.00  0.00     0.000 C 
BRANCH   2   3
ATOM      3  C   UNL     1     167.175 153.513 180.538  1.00  0.00     0.000 C 
BRANCH   3   4
ATOM      4  C   UNL     1     168.501 153.794 179.807  1.00  0.00     0.000 C 
BRANCH   4   5
ATOM      5  C   UNL     1     169.107 152.584 179.069  1.00  0.00     0.000 C 
BRANCH   5   6
ATOM      6  C   UNL     1     168.077 151.486 178.730  1.00  0.00     0.000 C 
BRANCH   6   7
ATOM      7  C   UNL     1     167.566 151.586 177.282  1.00  0.00     0.000 C 
BRANCH   7   8
ATOM      8  C   UNL     1     166.153 152.185 177.195  1.00  0.00     0.000 C 
BRANCH   8   9
ATOM      9  C   UNL     1     166.162 153.641 176.694  1.00  0.00     0.000 C 
BRANCH   9  10
ATOM     10  C   UNL     1     167.508 154.042 176.071  1.00  0.00     0.006 C 
BRANCH  10  11
ATOM     11  C   UNL     1     167.952 155.455 176.474  1.00  0.00     0.053 C 
BRANCH  11  12
ATOM     12  C   UNL     1     169.351 155.713 176.012  1.00  0.00     0.041 C 
ATOM     13  O   UNL     1     169.560 156.277 174.905  1.00  0.00    -0.550 OA
ATOM     14  O   UNL     1     170.426 155.380 176.827  1.00  0.00    -0.550 OA
ENDBRANCH  11  12
ENDBRANCH  10  11
ENDBRANCH   9  10
ENDBRANCH   8   9
ENDBRANCH   7   8
ENDBRANCH   6   7
ENDBRANCH   5   6
ENDBRANCH   4   5
ENDBRANCH   3   4
ENDBRANCH   2   3
ENDBRANCH   1   2
BRANCH   1  15
ATOM     15  C   UNL     1     165.515 156.755 179.166  1.00  0.00     0.000 C 
BRANCH  15  16
ATOM     16  C   UNL     1     164.300 155.923 178.713  1.00  0.00     0.000 C 
BRANCH  16  17
ATOM     17  C   UNL     1     162.972 156.697 178.622  1.00  0.00     0.000 C 
BRANCH  17  18
ATOM     18  C   UNL     1     162.200 156.414 177.321  1.00  0.00    -0.000 C 
BRANCH  18  19
ATOM     19  C   UNL     1     161.330 157.601 176.878  1.00  0.00    -0.000 C 
BRANCH  19  20
ATOM     20  C   UNL     1     161.899 158.334 175.650  1.00  0.00    -0.000 C 
BRANCH  20  21
ATOM     21  C   UNL     1     162.122 159.833 175.914  1.00  0.00    -0.000 C 
BRANCH  21  22
ATOM     22  C   UNL     1     163.575 160.155 176.301  1.00  0.00    -0.000 C 
BRANCH  22  23
ATOM     23  C   UNL     1     164.515 158.952 176.114  1.00  0.00    -0.000 C 
BRANCH  23  24
ATOM     24  C   UNL     1     165.292 159.013 174.790  1.00  0.00    -0.000 C 
BRANCH  24  25
ATOM     25  C   UNL     1     165.860 157.638 174.423  1.00  0.00    -0.003 C 
ATOM     26  C   UNL     1     164.845 156.530 174.695  1.00  0.00     0.004 C 
ENDBRANCH  24  25
ENDBRANCH  23  24
ENDBRANCH  22  23
ENDBRANCH  21  22
ENDBRANCH  20  21
ENDBRANCH  19  20
ENDBRANCH  18  19
ENDBRANCH  17  18
ENDBRANCH  16  17
ENDBRANCH  15  16
ENDBRANCH   1  15
TORSDOF 22
ENDMDL
MODEL 3
REMARK VINA RESULT:    -3.189      2.210      4.560
REMARK INTER + INTRA:         -11.777
REMARK INTER:                  -7.241
REMARK INTRA:                  -4.536
REMARK UNBOUND:                -4.487
REMARK SMILES CCCCCCCCCCCCCCCCCCCCCCCC(=O)[O-]
REMARK SMILES IDX 13 1 14 2 15 3 16 4 17 5 18 6 19 7 20 8 21 9 22 10 23 11
REMARK SMILES IDX 24 12 25 13 26 14 12 15 11 16 10 17 9 18 8 19 7 20 6 21 5 22
REMARK SMILES IDX 4 23 3 24 2 25 1 26
REMARK H PARENT
REMARK Flexibility Score: inf
ROOT
ATOM      1  C   UNL     1     166.350 153.732 176.739  1.00  0.00     0.000 C 
ENDROOT
BRANCH   1   2
ATOM      2  C   UNL     1     167.671 153.739 175.956  1.00  0.00     0.000 C 
BRANCH   2   3
ATOM      3  C   UNL     1     168.393 155.099 176.012  1.00  0.00     0.000 C 
BRANCH   3   4
ATOM      4  C   UNL     1     167.758 156.131 176.962  1.00  0.00     0.000 C 
BRANCH   4   5
ATOM      5  C   UNL     1     167.100 157.338 176.266  1.00  0.00     0.000 C 
BRANCH   5   6
ATOM      6  C   UNL     1     166.622 157.041 174.829  1.00  0.00     0.000 C 
BRANCH   6   7
ATOM      7  C   UNL     1     165.105 157.232 174.663  1.00  0.00     0.000 C 
BRANCH   7   8
ATOM      8  C   UNL     1     164.396 157.517 175.997  1.00  0.00     0.000 C 
BRANCH   8   9
ATOM      9  C   UNL     1     163.670 156.278 176.552  1.00  0.00     0.000 C 
BRANCH   9  10
ATOM     10  C   UNL     1     162.287 156.613 177.130  1.00  0.00     0.006 C 
BRANCH  10  11
ATOM     11  C   UNL     1     161.650 157.844 176.472  1.00  0.00     0.053 C 
BRANCH  11  12
ATOM     12  C   UNL     1     160.912 158.655 177.490  1.00  0.00     0.041 C 
ATOM     13  O   UNL     1     159.708 158.395 177.757  1.00  0.00    -0.550 OA
ATOM     14  O   UNL     1     161.567 159.664 178.184  1.00  0.00    -0.550 OA
ENDBRANCH  11  12
ENDBRANCH  10  11
ENDBRANCH   9  10
ENDBRANCH   8   9
ENDBRANCH   7   8
ENDBRANCH   6   7
ENDBRANCH   5   6
ENDBRANCH   4   5
ENDBRANCH   3   4
ENDBRANCH   2   3
ENDBRANCH   1   2
BRANCH   1  15
ATOM     15  C   UNL     1     165.998 152.314 177.215  1.00  0.00     0.000 C 
BRANCH  15  16
ATOM     16  C   UNL     1     167.235 151.414 177.394  1.00  0.00     0.000 C 
BRANCH  16  17
ATOM     17  C   UNL     1     167.807 151.362 178.823  1.00  0.00     0.000 C 
BRANCH  17  18
ATOM     18  C   UNL     1     169.207 151.991 178.932  1.00  0.00    -0.000 C 
BRANCH  18  19
ATOM     19  C   UNL     1     169.161 153.470 179.349  1.00  0.00    -0.000 C 
BRANCH  19  20
ATOM     20  C   UNL     1     168.462 153.686 180.704  1.00  0.00    -0.000 C 
BRANCH  20  21
ATOM     21  C   UNL     1     167.485 154.874 180.675  1.00  0.00    -0.000 C 
BRANCH  21  22
ATOM     22  C   UNL     1     166.057 154.454 180.285  1.00  0.00    -0.000 C 
BRANCH  22  23
ATOM     23  C   UNL     1     165.246 155.616 179.687  1.00  0.00    -0.000 C 
BRANCH  23  24
ATOM     24  C   UNL     1     165.853 156.988 180.015  1.00  0.00    -0.000 C 
BRANCH  24  25
ATOM     25  C   UNL     1     164.933 158.122 179.546  1.00  0.00    -0.003 C 
ATOM     26  C   UNL     1     163.725 158.270 180.468  1.00  0.00     0.004 C 
ENDBRANCH  24  25
ENDBRANCH  23  24
ENDBRANCH  22  23
ENDBRANCH  21  22
ENDBRANCH  20  21
ENDBRANCH  19  20
ENDBRANCH  18  19
ENDBRANCH  17  18
ENDBRANCH  16  17
ENDBRANCH  15  16
ENDBRANCH   1  15
TORSDOF 22
ENDMDL
MODEL 4
REMARK VINA RESULT:    -3.105      2.547      4.385
REMARK INTER + INTRA:         -11.585
REMARK INTER:                  -7.334
REMARK INTRA:                  -4.251
REMARK UNBOUND:                -4.487
REMARK SMILES CCCCCCCCCCCCCCCCCCCCCCCC(=O)[O-]
REMARK SMILES IDX 13 1 14 2 15 3 16 4 17 5 18 6 19 7 20 8 21 9 22 10 23 11
REMARK SMILES IDX 24 12 25 13 26 14 12 15 11 16 10 17 9 18 8 19 7 20 6 21 5 22
REMARK SMILES IDX 4 23 3 24 2 25 1 26
REMARK H PARENT
REMARK Flexibility Score: inf
ROOT
ATOM      1  C   UNL     1     166.426 155.814 180.475  1.00  0.00     0.000 C 
ENDROOT
BRANCH   1   2
ATOM      2  C   UNL     1     165.309 156.329 179.557  1.00  0.00     0.000 C 
BRANCH   2   3
ATOM      3  C   UNL     1     165.540 157.778 179.087  1.00  0.00     0.000 C 
BRANCH   3   4
ATOM      4  C   UNL     1     166.563 157.934 177.948  1.00  0.00     0.000 C 
BRANCH   4   5
ATOM      5  C   UNL     1     166.006 158.559 176.654  1.00  0.00     0.000 C 
BRANCH   5   6
ATOM      6  C   UNL     1     165.937 157.573 175.469  1.00  0.00     0.000 C 
BRANCH   6   7
ATOM      7  C   UNL     1     164.496 157.335 174.986  1.00  0.00     0.000 C 
BRANCH   7   8
ATOM      8  C   UNL     1     163.567 156.853 176.112  1.00  0.00     0.000 C 
BRANCH   8   9
ATOM      9  C   UNL     1     162.348 157.773 176.301  1.00  0.00     0.000 C 
BRANCH   9  10
ATOM     10  C   UNL     1     161.343 157.221 177.324  1.00  0.00     0.006 C 
BRANCH  10  11
ATOM     11  C   UNL     1     161.864 157.291 178.766  1.00  0.00     0.053 C 
BRANCH  11  12
ATOM     12  C   UNL     1     160.757 157.661 179.702  1.00  0.00     0.041 C 
ATOM     13  O   UNL     1     160.387 156.856 180.597  1.00  0.00    -0.550 OA
ATOM     14  O   UNL     1     160.169 158.917 179.621  1.00  0.00    -0.550 OA
ENDBRANCH  11  12
ENDBRANCH  10  11
ENDBRANCH   9  10
ENDBRANCH   8   9
ENDBRANCH   7   8
ENDBRANCH   6   7
ENDBRANCH   5   6
ENDBRANCH   4   5
ENDBRANCH   3   4
ENDBRANCH   2   3
ENDBRANCH   1   2
BRANCH   1  15
ATOM     15  C   UNL     1     166.358 154.286 180.624  1.00  0.00     0.000 C 
BRANCH  15  16
ATOM     16  C   UNL     1     167.747 153.622 180.665  1.00  0.00     0.000 C 
BRANCH  16  17
ATOM     17  C   UNL     1     167.750 152.095 180.459  1.00  0.00     0.000 C 
BRANCH  17  18
ATOM     18  C   UNL     1     168.426 151.669 179.144  1.00  0.00    -0.000 C 
BRANCH  18  19
ATOM     19  C   UNL     1     167.484 150.878 178.223  1.00  0.00    -0.000 C 
BRANCH  19  20
ATOM     20  C   UNL     1     167.101 151.655 176.951  1.00  0.00    -0.000 C 
BRANCH  20  21
ATOM     21  C   UNL     1     165.970 152.667 177.201  1.00  0.00    -0.000 C 
BRANCH  21  22
ATOM     22  C   UNL     1     166.414 154.121 176.961  1.00  0.00    -0.000 C 
BRANCH  22  23
ATOM     23  C   UNL     1     167.386 154.251 175.776  1.00  0.00    -0.000 C 
BRANCH  23  24
ATOM     24  C   UNL     1     168.597 155.137 176.103  1.00  0.00    -0.000 C 
BRANCH  24  25
ATOM     25  C   UNL     1     169.232 154.729 177.438  1.00  0.00    -0.003 C 
ATOM     26  C   UNL     1     169.525 155.949 178.307  1.00  0.00     0.004 C 
ENDBRANCH  24  25
ENDBRANCH  23  24
ENDBRANCH  22  23
ENDBRANCH  21  22
ENDBRANCH  20  21
ENDBRANCH  19  20
ENDBRANCH  18  19
ENDBRANCH  17  18
ENDBRANCH  16  17
ENDBRANCH  15  16
ENDBRANCH   1  15
TORSDOF 22
ENDMDL
MODEL 5
REMARK VINA RESULT:    -3.103      1.238      3.235
REMARK INTER + INTRA:         -11.582
REMARK INTER:                  -7.227
REMARK INTRA:                  -4.355
REMARK UNBOUND:                -4.487
REMARK SMILES CCCCCCCCCCCCCCCCCCCCCCCC(=O)[O-]
REMARK SMILES IDX 13 1 14 2 15 3 16 4 17 5 18 6 19 7 20 8 21 9 22 10 23 11
REMARK SMILES IDX 24 12 25 13 26 14 12 15 11 16 10 17 9 18 8 19 7 20 6 21 5 22
REMARK SMILES IDX 4 23 3 24 2 25 1 26
REMARK H PARENT
REMARK Flexibility Score: inf
ROOT
ATOM      1  C   UNL     1     166.004 154.601 180.268  1.00  0.00     0.000 C 
ENDROOT
BRANCH   1   2
ATOM      2  C   UNL     1     166.684 155.782 179.560  1.00  0.00     0.000 C 
BRANCH   2   3
ATOM      3  C   UNL     1     165.760 156.487 178.548  1.00  0.00     0.000 C 
BRANCH   3   4
ATOM      4  C   UNL     1     164.282 156.063 178.617  1.00  0.00     0.000 C 
BRANCH   4   5
ATOM      5  C   UNL     1     163.584 155.910 177.251  1.00  0.00     0.000 C 
BRANCH   5   6
ATOM      6  C   UNL     1     162.163 156.509 177.211  1.00  0.00     0.000 C 
BRANCH   6   7
ATOM      7  C   UNL     1     162.152 157.964 176.711  1.00  0.00     0.000 C 
BRANCH   7   8
ATOM      8  C   UNL     1     163.231 158.231 175.648  1.00  0.00     0.000 C 
BRANCH   8   9
ATOM      9  C   UNL     1     164.202 159.349 176.067  1.00  0.00     0.000 C 
BRANCH   9  10
ATOM     10  C   UNL     1     165.672 158.984 175.806  1.00  0.00     0.006 C 
BRANCH  10  11
ATOM     11  C   UNL     1     165.847 158.042 174.609  1.00  0.00     0.053 C 
BRANCH  11  12
ATOM     12  C   UNL     1     166.298 158.807 173.405  1.00  0.00     0.041 C 
ATOM     13  O   UNL     1     167.507 158.779 173.051  1.00  0.00    -0.550 OA
ATOM     14  O   UNL     1     165.375 159.509 172.641  1.00  0.00    -0.550 OA
ENDBRANCH  11  12
ENDBRANCH  10  11
ENDBRANCH   9  10
ENDBRANCH   8   9
ENDBRANCH   7   8
ENDBRANCH   6   7
ENDBRANCH   5   6
ENDBRANCH   4   5
ENDBRANCH   3   4
ENDBRANCH   2   3
ENDBRANCH   1   2
BRANCH   1  15
ATOM     15  C   UNL     1     167.021 153.502 180.610  1.00  0.00     0.000 C 
BRANCH  15  16
ATOM     16  C   UNL     1     168.354 153.658 179.853  1.00  0.00     0.000 C 
BRANCH  16  17
ATOM     17  C   UNL     1     168.925 152.358 179.257  1.00  0.00     0.000 C 
BRANCH  17  18
ATOM     18  C   UNL     1     167.832 151.350 178.860  1.00  0.00    -0.000 C 
BRANCH  18  19
ATOM     19  C   UNL     1     167.400 151.491 177.392  1.00  0.00    -0.000 C 
BRANCH  19  20
ATOM     20  C   UNL     1     166.122 152.331 177.224  1.00  0.00    -0.000 C 
BRANCH  20  21
ATOM     21  C   UNL     1     166.379 153.643 176.463  1.00  0.00    -0.000 C 
BRANCH  21  22
ATOM     22  C   UNL     1     167.867 153.856 176.138  1.00  0.00    -0.000 C 
BRANCH  22  23
ATOM     23  C   UNL     1     168.115 155.140 175.329  1.00  0.00    -0.000 C 
BRANCH  23  24
ATOM     24  C   UNL     1     168.641 156.291 176.200  1.00  0.00    -0.000 C 
BRANCH  24  25
ATOM     25  C   UNL     1     169.642 155.779 177.242  1.00  0.00    -0.003 C 
ATOM     26  C   UNL     1     171.058 155.741 176.676  1.00  0.00     0.004 C 
ENDBRANCH  24  25
ENDBRANCH  23  24
ENDBRANCH  22  23
ENDBRANCH  21  22
ENDBRANCH  20  21
ENDBRANCH  19  20
ENDBRANCH  18  19
ENDBRANCH  17  18
ENDBRANCH  16  17
ENDBRANCH  15  16
ENDBRANCH   1  15
TORSDOF 22
ENDMDL
MODEL 6
REMARK VINA RESULT:    -3.100      2.531      4.750
REMARK INTER + INTRA:         -11.573
REMARK INTER:                  -7.394
REMARK INTRA:                  -4.179
REMARK UNBOUND:                -4.487
REMARK SMILES CCCCCCCCCCCCCCCCCCCCCCCC(=O)[O-]
REMARK SMILES IDX 13 1 14 2 15 3 16 4 17 5 18 6 19 7 20 8 21 9 22 10 23 11
REMARK SMILES IDX 24 12 25 13 26 14 12 15 11 16 10 17 9 18 8 19 7 20 6 21 5 22
REMARK SMILES IDX 4 23 3 24 2 25 1 26
REMARK H PARENT
REMARK Flexibility Score: inf
ROOT
ATOM      1  C   UNL     1     168.609 153.038 180.044  1.00  0.00     0.000 C 
ENDROOT
BRANCH   1   2
ATOM      2  C   UNL     1     168.072 154.223 180.860  1.00  0.00     0.000 C 
BRANCH   2   3
ATOM      3  C   UNL     1     167.467 155.332 179.978  1.00  0.00     0.000 C 
BRANCH   3   4
ATOM      4  C   UNL     1     165.987 155.649 180.261  1.00  0.00     0.000 C 
BRANCH   4   5
ATOM      5  C   UNL     1     165.547 157.080 179.896  1.00  0.00     0.000 C 
BRANCH   5   6
ATOM      6  C   UNL     1     164.147 157.151 179.250  1.00  0.00     0.000 C 
BRANCH   6   7
ATOM      7  C   UNL     1     163.701 155.801 178.663  1.00  0.00     0.000 C 
BRANCH   7   8
ATOM      8  C   UNL     1     162.934 155.958 177.340  1.00  0.00     0.000 C 
BRANCH   8   9
ATOM      9  C   UNL     1     162.689 157.433 176.975  1.00  0.00     0.000 C 
BRANCH   9  10
ATOM     10  C   UNL     1     161.197 157.766 176.827  1.00  0.00     0.006 C 
BRANCH  10  11
ATOM     11  C   UNL     1     160.534 158.133 178.161  1.00  0.00     0.053 C 
BRANCH  11  12
ATOM     12  C   UNL     1     159.442 159.132 177.943  1.00  0.00     0.041 C 
ATOM     13  O   UNL     1     159.009 159.354 176.781  1.00  0.00    -0.550 OA
ATOM     14  O   UNL     1     158.864 159.779 179.027  1.00  0.00    -0.550 OA
ENDBRANCH  11  12
ENDBRANCH  10  11
ENDBRANCH   9  10
ENDBRANCH   8   9
ENDBRANCH   7   8
ENDBRANCH   6   7
ENDBRANCH   5   6
ENDBRANCH   4   5
ENDBRANCH   3   4
ENDBRANCH   2   3
ENDBRANCH   1   2
BRANCH   1  15
ATOM     15  C   UNL     1     167.486 152.045 179.707  1.00  0.00     0.000 C 
BRANCH  15  16
ATOM     16  C   UNL     1     167.790 151.190 178.463  1.00  0.00     0.000 C 
BRANCH  16  17
ATOM     17  C   UNL     1     167.024 151.590 177.188  1.00  0.00     0.000 C 
BRANCH  17  18
ATOM     18  C   UNL     1     165.981 152.693 177.437  1.00  0.00    -0.000 C 
BRANCH  18  19
ATOM     19  C   UNL     1     166.255 153.965 176.618  1.00  0.00    -0.000 C 
BRANCH  19  20
ATOM     20  C   UNL     1     167.658 153.975 175.985  1.00  0.00    -0.000 C 
BRANCH  20  21
ATOM     21  C   UNL     1     168.593 155.000 176.649  1.00  0.00    -0.000 C 
BRANCH  21  22
ATOM     22  C   UNL     1     168.467 156.403 176.030  1.00  0.00    -0.000 C 
BRANCH  22  23
ATOM     23  C   UNL     1     167.664 157.368 176.918  1.00  0.00    -0.000 C 
BRANCH  23  24
ATOM     24  C   UNL     1     166.385 157.871 176.233  1.00  0.00    -0.000 C 
BRANCH  24  25
ATOM     25  C   UNL     1     166.333 157.422 174.768  1.00  0.00    -0.003 C 
ATOM     26  C   UNL     1     164.972 156.823 174.422  1.00  0.00     0.004 C 
ENDBRANCH  24  25
ENDBRANCH  23  24
ENDBRANCH  22  23
ENDBRANCH  21  22
ENDBRANCH  20  21
ENDBRANCH  19  20
ENDBRANCH  18  19
ENDBRANCH  17  18
ENDBRANCH  16  17
ENDBRANCH  15  16
ENDBRANCH   1  15
TORSDOF 22
ENDMDL
MODEL 7
REMARK VINA RESULT:    -3.088      1.092      3.464
REMARK INTER + INTRA:         -11.546
REMARK INTER:                  -6.962
REMARK INTRA:                  -4.584
REMARK UNBOUND:                -4.487
REMARK SMILES CCCCCCCCCCCCCCCCCCCCCCCC(=O)[O-]
REMARK SMILES IDX 13 1 14 2 15 3 16 4 17 5 18 6 19 7 20 8 21 9 22 10 23 11
REMARK SMILES IDX 24 12 25 13 26 14 12 15 11 16 10 17 9 18 8 19 7 20 6 21 5 22
REMARK SMILES IDX 4 23 3 24 2 25 1 26
REMARK H PARENT
REMARK Flexibility Score: inf
ROOT
ATOM      1  C   UNL     1     165.640 152.737 177.230  1.00  0.00     0.000 C 
ENDROOT
BRANCH   1   2
ATOM      2  C   UNL     1     166.226 154.029 176.644  1.00  0.00     0.000 C 
BRANCH   2   3
ATOM      3  C   UNL     1     165.365 155.269 176.946  1.00  0.00     0.000 C 
BRANCH   3   4
ATOM      4  C   UNL     1     163.934 154.963 177.426  1.00  0.00     0.000 C 
BRANCH   4   5
ATOM      5  C   UNL     1     163.265 156.088 178.238  1.00  0.00     0.000 C 
BRANCH   5   6
ATOM      6  C   UNL     1     164.207 157.269 178.555  1.00  0.00     0.000 C 
BRANCH   6   7
ATOM      7  C   UNL     1     163.831 158.545 177.781  1.00  0.00     0.000 C 
BRANCH   7   8
ATOM      8  C   UNL     1     162.533 158.384 176.973  1.00  0.00     0.000 C 
BRANCH   8   9
ATOM      9  C   UNL     1     162.757 158.568 175.461  1.00  0.00     0.000 C 
BRANCH   9  10
ATOM     10  C   UNL     1     164.222 158.872 175.114  1.00  0.00     0.006 C 
BRANCH  10  11
ATOM     11  C   UNL     1     164.895 157.738 174.330  1.00  0.00     0.053 C 
BRANCH  11  12
ATOM     12  C   UNL     1     166.352 158.024 174.148  1.00  0.00     0.041 C 
ATOM     13  O   UNL     1     167.214 157.348 174.771  1.00  0.00    -0.550 OA
ATOM     14  O   UNL     1     166.762 159.000 173.249  1.00  0.00    -0.550 OA
ENDBRANCH  11  12
ENDBRANCH  10  11
ENDBRANCH   9  10
ENDBRANCH   8   9
ENDBRANCH   7   8
ENDBRANCH   6   7
ENDBRANCH   5   6
ENDBRANCH   4   5
ENDBRANCH   3   4
ENDBRANCH   2   3
ENDBRANCH   1   2
BRANCH   1  15
ATOM     15  C   UNL     1     166.685 151.611 177.242  1.00  0.00     0.000 C 
BRANCH  15  16
ATOM     16  C   UNL     1     168.115 152.113 176.967  1.00  0.00     0.000 C 
BRANCH  16  17
ATOM     17  C   UNL     1     169.042 152.158 178.196  1.00  0.00     0.000 C 
BRANCH  17  18
ATOM     18  C   UNL     1     168.328 151.764 179.500  1.00  0.00    -0.000 C 
BRANCH  18  19
ATOM     19  C   UNL     1     168.135 152.954 180.454  1.00  0.00    -0.000 C 
BRANCH  19  20
ATOM     20  C   UNL     1     166.679 153.451 180.499  1.00  0.00    -0.000 C 
BRANCH  20  21
ATOM     21  C   UNL     1     166.579 154.981 180.372  1.00  0.00    -0.000 C 
BRANCH  21  22
ATOM     22  C   UNL     1     167.909 155.627 179.947  1.00  0.00    -0.000 C 
BRANCH  22  23
ATOM     23  C   UNL     1     167.705 156.952 179.194  1.00  0.00    -0.000 C 
BRANCH  23  24
ATOM     24  C   UNL     1     168.678 157.116 178.017  1.00  0.00    -0.000 C 
BRANCH  24  25
ATOM     25  C   UNL     1     169.307 155.772 177.632  1.00  0.00    -0.003 C 
ATOM     26  C   UNL     1     170.098 155.883 176.332  1.00  0.00     0.004 C 
ENDBRANCH  24  25
ENDBRANCH  23  24
ENDBRANCH  22  23
ENDBRANCH  21  22
ENDBRANCH  20  21
ENDBRANCH  19  20
ENDBRANCH  18  19
ENDBRANCH  17  18
ENDBRANCH  16  17
ENDBRANCH  15  16
ENDBRANCH   1  15
TORSDOF 22
ENDMDL
MODEL 8
REMARK VINA RESULT:    -3.069      2.424      4.256
REMARK INTER + INTRA:         -11.504
REMARK INTER:                  -6.665
REMARK INTRA:                  -4.839
REMARK UNBOUND:                -4.487
REMARK SMILES CCCCCCCCCCCCCCCCCCCCCCCC(=O)[O-]
REMARK SMILES IDX 13 1 14 2 15 3 16 4 17 5 18 6 19 7 20 8 21 9 22 10 23 11
REMARK SMILES IDX 24 12 25 13 26 14 12 15 11 16 10 17 9 18 8 19 7 20 6 21 5 22
REMARK SMILES IDX 4 23 3 24 2 25 1 26
REMARK H PARENT
REMARK Flexibility Score: inf
ROOT
ATOM      1  C   UNL     1     169.731 154.549 179.202  1.00  0.00     0.000 C 
ENDROOT
BRANCH   1   2
ATOM      2  C   UNL     1     170.435 154.616 177.839  1.00  0.00     0.000 C 
BRANCH   2   3
ATOM      3  C   UNL     1     169.658 155.451 176.804  1.00  0.00     0.000 C 
BRANCH   3   4
ATOM      4  C   UNL     1     169.160 156.815 177.315  1.00  0.00     0.000 C 
BRANCH   4   5
ATOM      5  C   UNL     1     167.901 157.355 176.609  1.00  0.00     0.000 C 
BRANCH   5   6
ATOM      6  C   UNL     1     167.467 156.516 175.389  1.00  0.00     0.000 C 
BRANCH   6   7
ATOM      7  C   UNL     1     165.997 156.755 175.004  1.00  0.00     0.000 C 
BRANCH   7   8
ATOM      8  C   UNL     1     165.102 157.015 176.227  1.00  0.00     0.000 C 
BRANCH   8   9
ATOM      9  C   UNL     1     163.809 156.179 176.196  1.00  0.00     0.000 C 
BRANCH   9  10
ATOM     10  C   UNL     1     163.209 155.968 177.595  1.00  0.00     0.006 C 
BRANCH  10  11
ATOM     11  C   UNL     1     162.229 157.078 177.996  1.00  0.00     0.053 C 
BRANCH  11  12
ATOM     12  C   UNL     1     162.316 157.343 179.466  1.00  0.00     0.041 C 
ATOM     13  O   UNL     1     163.399 157.732 179.977  1.00  0.00    -0.550 OA
ATOM     14  O   UNL     1     161.186 157.213 180.263  1.00  0.00    -0.550 OA
ENDBRANCH  11  12
ENDBRANCH  10  11
ENDBRANCH   9  10
ENDBRANCH   8   9
ENDBRANCH   7   8
ENDBRANCH   6   7
ENDBRANCH   5   6
ENDBRANCH   4   5
ENDBRANCH   3   4
ENDBRANCH   2   3
ENDBRANCH   1   2
BRANCH   1  15
ATOM     15  C   UNL     1     170.063 153.239 179.932  1.00  0.00     0.000 C 
BRANCH  15  16
ATOM     16  C   UNL     1     169.667 151.985 179.130  1.00  0.00     0.000 C 
BRANCH  16  17
ATOM     17  C   UNL     1     168.257 151.438 179.422  1.00  0.00     0.000 C 
BRANCH  17  18
ATOM     18  C   UNL     1     167.445 151.159 178.146  1.00  0.00    -0.000 C 
BRANCH  18  19
ATOM     19  C   UNL     1     167.846 152.072 176.976  1.00  0.00    -0.000 C 
BRANCH  19  20
ATOM     20  C   UNL     1     166.759 153.105 176.627  1.00  0.00    -0.000 C 
BRANCH  20  21
ATOM     21  C   UNL     1     165.822 153.393 177.812  1.00  0.00    -0.000 C 
BRANCH  21  22
ATOM     22  C   UNL     1     166.290 154.592 178.657  1.00  0.00    -0.000 C 
BRANCH  22  23
ATOM     23  C   UNL     1     166.096 154.360 180.164  1.00  0.00    -0.000 C 
BRANCH  23  24
ATOM     24  C   UNL     1     166.667 155.505 181.014  1.00  0.00    -0.000 C 
BRANCH  24  25
ATOM     25  C   UNL     1     166.823 156.782 180.181  1.00  0.00    -0.003 C 
ATOM     26  C   UNL     1     167.933 157.671 180.735  1.00  0.00     0.004 C 
ENDBRANCH  24  25
ENDBRANCH  23  24
ENDBRANCH  22  23
ENDBRANCH  21  22
ENDBRANCH  20  21
ENDBRANCH  19  20
ENDBRANCH  18  19
ENDBRANCH  17  18
ENDBRANCH  16  17
ENDBRANCH  15  16
ENDBRANCH   1  15
TORSDOF 22
ENDMDL
MODEL 9
REMARK VINA RESULT:    -3.022      1.675      4.757
REMARK INTER + INTRA:         -11.396
REMARK INTER:                  -6.735
REMARK INTRA:                  -4.661
REMARK UNBOUND:                -4.487
REMARK SMILES CCCCCCCCCCCCCCCCCCCCCCCC(=O)[O-]
REMARK SMILES IDX 13 1 14 2 15 3 16 4 17 5 18 6 19 7 20 8 21 9 22 10 23 11
REMARK SMILES IDX 24 12 25 13 26 14 12 15 11 16 10 17 9 18 8 19 7 20 6 21 5 22
REMARK SMILES IDX 4 23 3 24 2 25 1 26
REMARK H PARENT
REMARK Flexibility Score: inf
ROOT
ATOM      1  C   UNL     1     167.505 152.326 179.686  1.00  0.00     0.000 C 
ENDROOT
BRANCH   1   2
ATOM      2  C   UNL     1     168.772 152.698 180.469  1.00  0.00     0.000 C 
BRANCH   2   3
ATOM      3  C   UNL     1     169.637 153.748 179.745  1.00  0.00     0.000 C 
BRANCH   3   4
ATOM      4  C   UNL     1     168.848 154.897 179.091  1.00  0.00     0.000 C 
BRANCH   4   5
ATOM      5  C   UNL     1     168.695 156.159 179.962  1.00  0.00     0.000 C 
BRANCH   5   6
ATOM      6  C   UNL     1     167.356 156.898 179.751  1.00  0.00     0.000 C 
BRANCH   6   7
ATOM      7  C   UNL     1     166.207 155.941 179.389  1.00  0.00     0.000 C 
BRANCH   7   8
ATOM      8  C   UNL     1     165.006 156.671 178.766  1.00  0.00     0.000 C 
BRANCH   8   9
ATOM      9  C   UNL     1     163.879 155.705 178.359  1.00  0.00     0.000 C 
BRANCH   9  10
ATOM     10  C   UNL     1     162.991 156.270 177.240  1.00  0.00     0.006 C 
BRANCH  10  11
ATOM     11  C   UNL     1     163.801 156.867 176.082  1.00  0.00     0.053 C 
BRANCH  11  12
ATOM     12  C   UNL     1     163.098 158.060 175.515  1.00  0.00     0.041 C 
ATOM     13  O   UNL     1     161.839 158.095 175.478  1.00  0.00    -0.550 OA
ATOM     14  O   UNL     1     163.830 159.156 175.076  1.00  0.00    -0.550 OA
ENDBRANCH  11  12
ENDBRANCH  10  11
ENDBRANCH   9  10
ENDBRANCH   8   9
ENDBRANCH   7   8
ENDBRANCH   6   7
ENDBRANCH   5   6
ENDBRANCH   4   5
ENDBRANCH   3   4
ENDBRANCH   2   3
ENDBRANCH   1   2
BRANCH   1  15
ATOM     15  C   UNL     1     167.810 151.277 178.606  1.00  0.00     0.000 C 
BRANCH  15  16
ATOM     16  C   UNL     1     167.140 151.591 177.255  1.00  0.00     0.000 C 
BRANCH  16  17
ATOM     17  C   UNL     1     166.037 152.665 177.303  1.00  0.00     0.000 C 
BRANCH  17  18
ATOM     18  C   UNL     1     166.340 153.877 176.406  1.00  0.00    -0.000 C 
BRANCH  18  19
ATOM     19  C   UNL     1     167.774 153.860 175.851  1.00  0.00    -0.000 C 
BRANCH  19  20
ATOM     20  C   UNL     1     168.261 155.253 175.413  1.00  0.00    -0.000 C 
BRANCH  20  21
ATOM     21  C   UNL     1     167.225 156.353 175.701  1.00  0.00    -0.000 C 
BRANCH  21  22
ATOM     22  C   UNL     1     167.221 157.457 174.630  1.00  0.00    -0.000 C 
BRANCH  22  23
ATOM     23  C   UNL     1     167.433 158.858 175.228  1.00  0.00    -0.000 C 
BRANCH  23  24
ATOM     24  C   UNL     1     167.352 158.861 176.762  1.00  0.00    -0.000 C 
BRANCH  24  25
ATOM     25  C   UNL     1     168.633 159.434 177.379  1.00  0.00    -0.003 C 
ATOM     26  C   UNL     1     169.816 158.491 177.171  1.00  0.00     0.004 C 
ENDBRANCH  24  25
ENDBRANCH  23  24
ENDBRANCH  22  23
ENDBRANCH  21  22
ENDBRANCH  20  21
ENDBRANCH  19  20
ENDBRANCH  18  19
ENDBRANCH  17  18
ENDBRANCH  16  17
ENDBRANCH  15  16
ENDBRANCH   1  15
TORSDOF 22
ENDMDL
