MODEL 1
REMARK VINA RESULT:     6.336      0.000      0.000
REMARK INTER + INTRA:           7.444
REMARK INTER:                   6.891
REMARK INTRA:                   0.553
REMARK UNBOUND:                 0.553
REMARK SMILES C[C@H]1[C@@H](C)CC[C@]2(C(=O)[O-])CC[C@]3(C)C(=CC[C@H]4[C@]5(C)CC[C@@H](O)C(C)(C)[C@@H]5CC[C@@]43C)[C@@H]12
REMARK SMILES IDX 7 1 6 2 11 3 33 4 5 5 12 6 15 7 2 8 3 9 13 10 16 11 1 12
REMARK SMILES IDX 4 13 14 14 31 15 17 16 18 17 30 18 32 19 19 20 29 21 28 22
REMARK SMILES IDX 21 23 20 24 25 25 22 26 23 27 26 28 27 29 8 30 9 31 10 32
REMARK SMILES IDX 24 33
REMARK H PARENT 24 34
REMARK Flexibility Score: inf
ROOT
ATOM      1  C   UNL     1      61.405  -6.317  -0.777  1.00  0.00     0.017 C 
ATOM      2  C   UNL     1      60.880  -5.928   0.643  1.00  0.00     0.014 C 
ATOM      3  C   UNL     1      60.306  -5.935  -1.803  1.00  0.00     0.014 C 
ATOM      4  C   UNL     1      61.650  -7.866  -0.793  1.00  0.00     0.030 C 
ATOM      5  C   UNL     1      61.788  -6.400   1.792  1.00  0.00     0.004 C 
ATOM      6  C   UNL     1      60.518  -6.535  -3.210  1.00  0.00     0.013 C 
ATOM      7  C   UNL     1      61.822  -8.413  -2.226  1.00  0.00    -0.063 C 
ATOM      8  C   UNL     1      62.659  -8.320   0.325  1.00  0.00    -0.003 C 
ATOM      9  C   UNL     1      62.075  -7.916   1.711  1.00  0.00    -0.011 C 
ATOM     10  C   UNL     1      60.709  -8.093  -3.252  1.00  0.00    -0.006 C 
ATOM     11  C   UNL     1      62.931  -9.093  -2.578  1.00  0.00    -0.027 C 
ATOM     12  C   UNL     1      64.125  -7.828   0.165  1.00  0.00     0.008 C 
ATOM     13  C   UNL     1      62.955  -8.370   2.885  1.00  0.00     0.008 C 
ATOM     14  C   UNL     1      59.372  -8.740  -2.762  1.00  0.00     0.017 C 
ATOM     15  C   UNL     1      61.048  -8.640  -4.754  1.00  0.00    -0.020 C 
ATOM     16  C   UNL     1      63.353  -9.352  -3.986  1.00  0.00     0.032 C 
ATOM     17  C   UNL     1      62.571  -8.524  -5.039  1.00  0.00     0.006 C 
ATOM     18  C   UNL     1      60.343  -7.764  -5.809  1.00  0.00     0.008 C 
ATOM     19  C   UNL     1      60.594 -10.125  -4.935  1.00  0.00     0.012 C 
ATOM     20  C   UNL     1      63.070  -8.758  -6.562  1.00  0.00    -0.025 C 
ATOM     21  C   UNL     1      60.522  -8.203  -7.251  1.00  0.00     0.005 C 
ATOM     22  C   UNL     1      61.916  -8.768  -7.685  1.00  0.00     0.003 C 
ATOM     23  C   UNL     1      64.121  -7.637  -6.885  1.00  0.00     0.010 C 
ATOM     24  C   UNL     1      63.829 -10.125  -6.665  1.00  0.00     0.012 C 
ATOM     25  C   UNL     1      62.359  -8.169  -9.099  1.00  0.00    -0.006 C 
ATOM     26  C   UNL     1      63.485  -6.403  -7.528  1.00  0.00     0.033 C 
ATOM     27  C   UNL     1      62.860  -6.692  -8.918  1.00  0.00     0.120 C 
ATOM     28  C   UNL     1      63.449  -9.056  -9.779  1.00  0.00     0.014 C 
ATOM     29  C   UNL     1      61.178  -8.191 -10.123  1.00  0.00     0.014 C 
ENDROOT
BRANCH   1  30
ATOM     30  C   UNL     1      62.657  -5.520  -1.136  1.00  0.00     0.048 C 
ATOM     31  O   UNL     1      62.873  -4.392  -0.619  1.00  0.00    -0.550 OA
ATOM     32  O   UNL     1      63.533  -5.981  -2.112  1.00  0.00    -0.550 OA
ENDBRANCH   1  30
BRANCH  27  33
ATOM     33  O   UNL     1      63.768  -6.348  -9.935  1.00  0.00    -0.393 OA
ATOM     34  H   UNL     1      63.792  -7.105 -10.577  1.00  0.00     0.210 HD
ENDBRANCH  27  33
TORSDOF 2
ENDMDL
MODEL 2
REMARK VINA RESULT:     8.079      3.460      6.745
REMARK INTER + INTRA:           9.340
REMARK INTER:                   7.518
REMARK INTRA:                   1.822
REMARK UNBOUND:                 0.553
REMARK SMILES C[C@H]1[C@@H](C)CC[C@]2(C(=O)[O-])CC[C@]3(C)C(=CC[C@H]4[C@]5(C)CC[C@@H](O)C(C)(C)[C@@H]5CC[C@@]43C)[C@@H]12
REMARK SMILES IDX 7 1 6 2 11 3 33 4 5 5 12 6 15 7 2 8 3 9 13 10 16 11 1 12
REMARK SMILES IDX 4 13 14 14 31 15 17 16 18 17 30 18 32 19 19 20 29 21 28 22
REMARK SMILES IDX 21 23 20 24 25 25 22 26 23 27 26 28 27 29 8 30 9 31 10 32
REMARK SMILES IDX 24 33
REMARK H PARENT 24 34
REMARK Flexibility Score: inf
ROOT
ATOM      1  C   UNL     1      60.326  -9.011   5.010  1.00  0.00     0.017 C 
ATOM      2  C   UNL     1      60.199  -9.408   6.517  1.00  0.00     0.014 C 
ATOM      3  C   UNL     1      61.139 -10.125   4.300  1.00  0.00     0.014 C 
ATOM      4  C   UNL     1      61.091  -7.645   4.934  1.00  0.00     0.030 C 
ATOM      5  C   UNL     1      59.561  -8.318   7.395  1.00  0.00     0.004 C 
ATOM      6  C   UNL     1      61.631  -9.745   2.886  1.00  0.00     0.013 C 
ATOM      7  C   UNL     1      61.587  -7.334   3.505  1.00  0.00    -0.063 C 
ATOM      8  C   UNL     1      60.372  -6.514   5.756  1.00  0.00    -0.003 C 
ATOM      9  C   UNL     1      60.288  -6.963   7.246  1.00  0.00    -0.011 C 
ATOM     10  C   UNL     1      62.449  -8.407   2.798  1.00  0.00    -0.006 C 
ATOM     11  C   UNL     1      61.228  -6.194   2.882  1.00  0.00    -0.027 C 
ATOM     12  C   UNL     1      58.983  -6.058   5.226  1.00  0.00     0.008 C 
ATOM     13  C   UNL     1      59.655  -5.899   8.155  1.00  0.00     0.008 C 
ATOM     14  C   UNL     1      63.766  -8.611   3.615  1.00  0.00     0.017 C 
ATOM     15  C   UNL     1      62.830  -8.008   1.261  1.00  0.00    -0.020 C 
ATOM     16  C   UNL     1      61.351  -5.959   1.413  1.00  0.00     0.032 C 
ATOM     17  C   UNL     1      61.655  -7.241   0.595  1.00  0.00     0.006 C 
ATOM     18  C   UNL     1      63.047  -9.282   0.420  1.00  0.00     0.008 C 
ATOM     19  C   UNL     1      64.124  -7.132   1.204  1.00  0.00     0.012 C 
ATOM     20  C   UNL     1      61.727  -6.998  -1.005  1.00  0.00    -0.025 C 
ATOM     21  C   UNL     1      63.472  -9.054  -1.019  1.00  0.00     0.005 C 
ATOM     22  C   UNL     1      62.843  -7.849  -1.795  1.00  0.00     0.003 C 
ATOM     23  C   UNL     1      60.303  -7.311  -1.589  1.00  0.00     0.010 C 
ATOM     24  C   UNL     1      62.006  -5.485  -1.297  1.00  0.00     0.012 C 
ATOM     25  C   UNL     1      62.425  -8.280  -3.276  1.00  0.00    -0.006 C 
ATOM     26  C   UNL     1      60.163  -8.764  -2.049  1.00  0.00     0.033 C 
ATOM     27  C   UNL     1      61.100  -9.124  -3.231  1.00  0.00     0.120 C 
ATOM     28  C   UNL     1      62.274  -7.040  -4.212  1.00  0.00     0.014 C 
ATOM     29  C   UNL     1      63.549  -9.123  -3.963  1.00  0.00     0.014 C 
ENDROOT
BRANCH   1  30
ATOM     30  C   UNL     1      58.954  -8.955   4.340  1.00  0.00     0.048 C 
ATOM     31  O   UNL     1      58.392  -7.850   4.114  1.00  0.00    -0.550 OA
ATOM     32  O   UNL     1      58.258 -10.124   4.056  1.00  0.00    -0.550 OA
ENDBRANCH   1  30
BRANCH  27  33
ATOM     33  O   UNL     1      60.403  -9.015  -4.448  1.00  0.00    -0.393 OA
ATOM     34  H   UNL     1      60.433  -9.906  -4.885  1.00  0.00     0.210 HD
ENDBRANCH  27  33
TORSDOF 2
ENDMDL
