MODEL 1
REMARK VINA RESULT:    -1.413      0.000      0.000
REMARK INTER + INTRA:          -1.212
REMARK INTER:                  -1.537
REMARK INTRA:                   0.326
REMARK UNBOUND:                 0.326
REMARK SMILES C[C@@H]1[C@H](C)CC[C@@]2(C(=O)[O-])CC[C@@]3(C)C(=CC[C@@H]4[C@@]5(C)CC[C@H](O)C(C)(C)[C@H]5CC[C@@]43C)[C@H]12
REMARK SMILES IDX 7 1 6 2 11 3 33 4 5 5 12 6 15 7 2 8 3 9 13 10 16 11 1 12
REMARK SMILES IDX 4 13 14 14 31 15 17 16 18 17 30 18 32 19 19 20 29 21 28 22
REMARK SMILES IDX 21 23 20 24 25 25 22 26 23 27 26 28 27 29 8 30 9 31 10 32
REMARK SMILES IDX 24 33
REMARK H PARENT 24 34
REMARK Flexibility Score: inf
ROOT
ATOM      1  C   UNL     1       4.773 -21.916  -5.850  1.00  0.00     0.017 C 
ATOM      2  C   UNL     1       4.041 -22.938  -4.925  1.00  0.00     0.014 C 
ATOM      3  C   UNL     1       6.315 -21.885  -5.550  1.00  0.00     0.014 C 
ATOM      4  C   UNL     1       4.540 -22.396  -7.317  1.00  0.00     0.030 C 
ATOM      5  C   UNL     1       2.546 -23.097  -5.293  1.00  0.00     0.004 C 
ATOM      6  C   UNL     1       7.174 -22.846  -6.415  1.00  0.00     0.013 C 
ATOM      7  C   UNL     1       5.688 -21.947  -8.230  1.00  0.00    -0.063 C 
ATOM      8  C   UNL     1       3.043 -22.506  -7.769  1.00  0.00    -0.003 C 
ATOM      9  C   UNL     1       2.329 -23.494  -6.778  1.00  0.00    -0.011 C 
ATOM     10  C   UNL     1       7.024 -22.687  -8.005  1.00  0.00    -0.006 C 
ATOM     11  C   UNL     1       5.650 -20.725  -8.762  1.00  0.00    -0.027 C 
ATOM     12  C   UNL     1       2.249 -21.186  -7.918  1.00  0.00     0.008 C 
ATOM     13  C   UNL     1       0.836 -23.697  -7.073  1.00  0.00     0.008 C 
ATOM     14  C   UNL     1       6.849 -24.125  -8.615  1.00  0.00     0.017 C 
ATOM     15  C   UNL     1       8.307 -21.982  -8.726  1.00  0.00    -0.020 C 
ATOM     16  C   UNL     1       6.842 -19.914  -9.119  1.00  0.00     0.032 C 
ATOM     17  C   UNL     1       8.234 -20.411  -8.594  1.00  0.00     0.006 C 
ATOM     18  C   UNL     1       8.358 -22.268 -10.261  1.00  0.00     0.008 C 
ATOM     19  C   UNL     1       9.598 -22.594  -8.080  1.00  0.00     0.012 C 
ATOM     20  C   UNL     1       9.394 -19.557  -9.325  1.00  0.00    -0.025 C 
ATOM     21  C   UNL     1       9.477 -21.524 -11.020  1.00  0.00     0.005 C 
ATOM     22  C   UNL     1       9.514 -19.973 -10.853  1.00  0.00     0.003 C 
ATOM     23  C   UNL     1      10.787 -19.704  -8.630  1.00  0.00     0.010 C 
ATOM     24  C   UNL     1       8.996 -18.048  -9.173  1.00  0.00     0.012 C 
ATOM     25  C   UNL     1      10.750 -19.323 -11.632  1.00  0.00    -0.006 C 
ATOM     26  C   UNL     1      11.943 -19.004  -9.362  1.00  0.00     0.033 C 
ATOM     27  C   UNL     1      12.071 -19.485 -10.814  1.00  0.00     0.120 C 
ATOM     28  C   UNL     1      10.485 -17.823 -11.961  1.00  0.00     0.014 C 
ATOM     29  C   UNL     1      10.951 -20.012 -13.014  1.00  0.00     0.014 C 
ENDROOT
BRANCH   1  30
ATOM     30  C   UNL     1       4.252 -20.506  -5.578  1.00  0.00     0.048 C 
ATOM     31  O   UNL     1       3.221 -20.322  -4.876  1.00  0.00    -0.550 OA
ATOM     32  O   UNL     1       4.970 -19.392  -5.991  1.00  0.00    -0.550 OA
ENDBRANCH   1  30
BRANCH  27  33
ATOM     33  O   UNL     1      13.125 -18.777 -11.422  1.00  0.00    -0.393 OA
ATOM     34  H   UNL     1      13.497 -19.356 -12.137  1.00  0.00     0.210 HD
ENDBRANCH  27  33
TORSDOF 2
ENDMDL
