MODEL 1
REMARK VINA RESULT:    -4.254      0.000      0.000
REMARK INTER + INTRA:         -13.166
REMARK INTER:                  -9.229
REMARK INTRA:                  -3.937
REMARK UNBOUND:                -3.937
REMARK SMILES CCCCCCCCCCCCCCCCCCCCCC(=O)[O-]
REMARK SMILES IDX 12 1 11 2 10 3 9 4 8 5 7 6 6 7 5 8 4 9 3 10 2 11 1 12 13 13
REMARK SMILES IDX 14 14 15 15 16 16 17 17 18 18 19 19 20 20 21 21 22 22 23 23
REMARK SMILES IDX 24 24
REMARK H PARENT
REMARK Flexibility Score: inf
ROOT
ATOM      1  C   UNL     1      55.865  38.666  51.380  1.00  0.00     0.000 C 
ENDROOT
BRANCH   1   2
ATOM      2  C   UNL     1      57.197  38.730  50.612  1.00  0.00     0.000 C 
BRANCH   2   3
ATOM      3  C   UNL     1      57.193  39.643  49.369  1.00  0.00     0.000 C 
BRANCH   3   4
ATOM      4  C   UNL     1      56.427  40.970  49.536  1.00  0.00    -0.000 C 
BRANCH   4   5
ATOM      5  C   UNL     1      55.362  41.245  48.455  1.00  0.00    -0.000 C 
BRANCH   5   6
ATOM      6  C   UNL     1      54.897  40.006  47.665  1.00  0.00    -0.000 C 
BRANCH   6   7
ATOM      7  C   UNL     1      53.563  40.177  46.918  1.00  0.00    -0.000 C 
BRANCH   7   8
ATOM      8  C   UNL     1      52.385  40.470  47.863  1.00  0.00    -0.000 C 
BRANCH   8   9
ATOM      9  C   UNL     1      51.869  41.915  47.740  1.00  0.00    -0.000 C 
BRANCH   9  10
ATOM     10  C   UNL     1      52.428  42.707  46.541  1.00  0.00    -0.000 C 
BRANCH  10  11
ATOM     11  C   UNL     1      52.290  44.236  46.652  1.00  0.00    -0.003 C 
ATOM     12  C   UNL     1      53.060  44.818  47.836  1.00  0.00     0.004 C 
ENDBRANCH  10  11
ENDBRANCH   9  10
ENDBRANCH   8   9
ENDBRANCH   7   8
ENDBRANCH   6   7
ENDBRANCH   5   6
ENDBRANCH   4   5
ENDBRANCH   3   4
ENDBRANCH   2   3
ENDBRANCH   1   2
BRANCH   1  13
ATOM     13  C   UNL     1      54.754  37.955  50.588  1.00  0.00     0.000 C 
BRANCH  13  14
ATOM     14  C   UNL     1      53.368  38.580  50.822  1.00  0.00     0.000 C 
BRANCH  14  15
ATOM     15  C   UNL     1      53.446  39.938  51.544  1.00  0.00     0.000 C 
BRANCH  15  16
ATOM     16  C   UNL     1      52.079  40.646  51.615  1.00  0.00     0.000 C 
BRANCH  16  17
ATOM     17  C   UNL     1      52.153  42.118  52.067  1.00  0.00     0.000 C 
BRANCH  17  18
ATOM     18  C   UNL     1      52.792  43.030  51.005  1.00  0.00     0.000 C 
BRANCH  18  19
ATOM     19  C   UNL     1      54.251  43.401  51.355  1.00  0.00     0.000 C 
BRANCH  19  20
ATOM     20  C   UNL     1      54.596  43.212  52.844  1.00  0.00     0.006 C 
BRANCH  20  21
ATOM     21  C   UNL     1      55.771  42.257  53.100  1.00  0.00     0.053 C 
BRANCH  21  22
ATOM     22  C   UNL     1      55.653  41.566  54.426  1.00  0.00     0.041 C 
ATOM     23  O   UNL     1      55.066  40.455  54.510  1.00  0.00    -0.550 OA
ATOM     24  O   UNL     1      56.198  42.143  55.566  1.00  0.00    -0.550 OA
ENDBRANCH  21  22
ENDBRANCH  20  21
ENDBRANCH  19  20
ENDBRANCH  18  19
ENDBRANCH  17  18
ENDBRANCH  16  17
ENDBRANCH  15  16
ENDBRANCH  14  15
ENDBRANCH  13  14
ENDBRANCH   1  13
TORSDOF 20
ENDMDL
MODEL 2
REMARK VINA RESULT:    -4.160      2.638      3.211
REMARK INTER + INTRA:         -12.960
REMARK INTER:                  -9.430
REMARK INTRA:                  -3.530
REMARK UNBOUND:                -3.937
REMARK SMILES CCCCCCCCCCCCCCCCCCCCCC(=O)[O-]
REMARK SMILES IDX 12 1 11 2 10 3 9 4 8 5 7 6 6 7 5 8 4 9 3 10 2 11 1 12 13 13
REMARK SMILES IDX 14 14 15 15 16 16 17 17 18 18 19 19 20 20 21 21 22 22 23 23
REMARK SMILES IDX 24 24
REMARK H PARENT
REMARK Flexibility Score: inf
ROOT
ATOM      1  C   UNL     1      56.062  38.578  51.561  1.00  0.00     0.000 C 
ENDROOT
BRANCH   1   2
ATOM      2  C   UNL     1      56.683  38.467  50.156  1.00  0.00     0.000 C 
BRANCH   2   3
ATOM      3  C   UNL     1      56.067  39.398  49.093  1.00  0.00     0.000 C 
BRANCH   3   4
ATOM      4  C   UNL     1      54.891  38.795  48.300  1.00  0.00    -0.000 C 
BRANCH   4   5
ATOM      5  C   UNL     1      54.646  39.430  46.916  1.00  0.00    -0.000 C 
BRANCH   5   6
ATOM      6  C   UNL     1      53.223  39.977  46.691  1.00  0.00    -0.000 C 
BRANCH   6   7
ATOM      7  C   UNL     1      52.475  40.383  47.973  1.00  0.00    -0.000 C 
BRANCH   7   8
ATOM      8  C   UNL     1      51.787  41.753  47.854  1.00  0.00    -0.000 C 
BRANCH   8   9
ATOM      9  C   UNL     1      52.560  42.730  46.949  1.00  0.00    -0.000 C 
BRANCH   9  10
ATOM     10  C   UNL     1      51.679  43.619  46.049  1.00  0.00    -0.000 C 
BRANCH  10  11
ATOM     11  C   UNL     1      51.786  45.130  46.326  1.00  0.00    -0.003 C 
ATOM     12  C   UNL     1      52.721  45.457  47.489  1.00  0.00     0.004 C 
ENDBRANCH  10  11
ENDBRANCH   9  10
ENDBRANCH   8   9
ENDBRANCH   7   8
ENDBRANCH   6   7
ENDBRANCH   5   6
ENDBRANCH   4   5
ENDBRANCH   3   4
ENDBRANCH   2   3
ENDBRANCH   1   2
BRANCH   1  13
ATOM     13  C   UNL     1      55.606  40.007  51.899  1.00  0.00     0.000 C 
BRANCH  13  14
ATOM     14  C   UNL     1      54.190  40.050  52.497  1.00  0.00     0.000 C 
BRANCH  14  15
ATOM     15  C   UNL     1      53.100  39.709  51.464  1.00  0.00     0.000 C 
BRANCH  15  16
ATOM     16  C   UNL     1      51.902  40.676  51.531  1.00  0.00     0.000 C 
BRANCH  16  17
ATOM     17  C   UNL     1      52.235  42.053  52.138  1.00  0.00     0.000 C 
BRANCH  17  18
ATOM     18  C   UNL     1      52.689  43.072  51.078  1.00  0.00     0.000 C 
BRANCH  18  19
ATOM     19  C   UNL     1      54.176  43.458  51.237  1.00  0.00     0.000 C 
BRANCH  19  20
ATOM     20  C   UNL     1      54.832  43.942  49.929  1.00  0.00     0.006 C 
BRANCH  20  21
ATOM     21  C   UNL     1      55.630  42.858  49.189  1.00  0.00     0.053 C 
BRANCH  21  22
ATOM     22  C   UNL     1      56.078  43.319  47.834  1.00  0.00     0.041 C 
ATOM     23  O   UNL     1      56.244  42.484  46.905  1.00  0.00    -0.550 OA
ATOM     24  O   UNL     1      56.303  44.668  47.594  1.00  0.00    -0.550 OA
ENDBRANCH  21  22
ENDBRANCH  20  21
ENDBRANCH  19  20
ENDBRANCH  18  19
ENDBRANCH  17  18
ENDBRANCH  16  17
ENDBRANCH  15  16
ENDBRANCH  14  15
ENDBRANCH  13  14
ENDBRANCH   1  13
TORSDOF 20
ENDMDL
MODEL 3
REMARK VINA RESULT:    -4.148      2.111      5.128
REMARK INTER + INTRA:         -12.934
REMARK INTER:                  -9.422
REMARK INTRA:                  -3.512
REMARK UNBOUND:                -3.937
REMARK SMILES CCCCCCCCCCCCCCCCCCCCCC(=O)[O-]
REMARK SMILES IDX 12 1 11 2 10 3 9 4 8 5 7 6 6 7 5 8 4 9 3 10 2 11 1 12 13 13
REMARK SMILES IDX 14 14 15 15 16 16 17 17 18 18 19 19 20 20 21 21 22 22 23 23
REMARK SMILES IDX 24 24
REMARK H PARENT
REMARK Flexibility Score: inf
ROOT
ATOM      1  C   UNL     1      53.716  38.838  50.915  1.00  0.00     0.000 C 
ENDROOT
BRANCH   1   2
ATOM      2  C   UNL     1      54.871  37.997  50.343  1.00  0.00     0.000 C 
BRANCH   2   3
ATOM      3  C   UNL     1      56.014  38.807  49.698  1.00  0.00     0.000 C 
BRANCH   3   4
ATOM      4  C   UNL     1      57.403  38.596  50.333  1.00  0.00    -0.000 C 
BRANCH   4   5
ATOM      5  C   UNL     1      57.400  37.801  51.654  1.00  0.00    -0.000 C 
BRANCH   5   6
ATOM      6  C   UNL     1      57.649  38.642  52.923  1.00  0.00    -0.000 C 
BRANCH   6   7
ATOM      7  C   UNL     1      56.453  39.497  53.377  1.00  0.00    -0.000 C 
BRANCH   7   8
ATOM      8  C   UNL     1      56.564  40.963  52.928  1.00  0.00    -0.000 C 
BRANCH   8   9
ATOM      9  C   UNL     1      55.195  41.659  52.822  1.00  0.00    -0.000 C 
BRANCH   9  10
ATOM     10  C   UNL     1      54.136  41.167  53.829  1.00  0.00    -0.000 C 
BRANCH  10  11
ATOM     11  C   UNL     1      52.676  41.372  53.386  1.00  0.00    -0.003 C 
ATOM     12  C   UNL     1      52.503  42.554  52.434  1.00  0.00     0.004 C 
ENDBRANCH  10  11
ENDBRANCH   9  10
ENDBRANCH   8   9
ENDBRANCH   7   8
ENDBRANCH   6   7
ENDBRANCH   5   6
ENDBRANCH   4   5
ENDBRANCH   3   4
ENDBRANCH   2   3
ENDBRANCH   1   2
BRANCH   1  13
ATOM     13  C   UNL     1      53.347  40.032  50.019  1.00  0.00     0.000 C 
BRANCH  13  14
ATOM     14  C   UNL     1      51.862  40.035  49.618  1.00  0.00     0.000 C 
BRANCH  14  15
ATOM     15  C   UNL     1      51.655  40.335  48.122  1.00  0.00     0.000 C 
BRANCH  15  16
ATOM     16  C   UNL     1      52.986  40.446  47.354  1.00  0.00     0.000 C 
BRANCH  16  17
ATOM     17  C   UNL     1      53.161  41.770  46.583  1.00  0.00     0.000 C 
BRANCH  17  18
ATOM     18  C   UNL     1      52.133  42.837  47.000  1.00  0.00     0.000 C 
BRANCH  18  19
ATOM     19  C   UNL     1      52.640  44.271  46.733  1.00  0.00     0.000 C 
BRANCH  19  20
ATOM     20  C   UNL     1      53.098  45.011  48.005  1.00  0.00     0.006 C 
BRANCH  20  21
ATOM     21  C   UNL     1      53.182  44.119  49.253  1.00  0.00     0.053 C 
BRANCH  21  22
ATOM     22  C   UNL     1      54.601  43.865  49.664  1.00  0.00     0.041 C 
ATOM     23  O   UNL     1      55.134  44.565  50.566  1.00  0.00    -0.550 OA
ATOM     24  O   UNL     1      55.333  42.851  49.060  1.00  0.00    -0.550 OA
ENDBRANCH  21  22
ENDBRANCH  20  21
ENDBRANCH  19  20
ENDBRANCH  18  19
ENDBRANCH  17  18
ENDBRANCH  16  17
ENDBRANCH  15  16
ENDBRANCH  14  15
ENDBRANCH  13  14
ENDBRANCH   1  13
TORSDOF 20
ENDMDL
MODEL 4
REMARK VINA RESULT:    -4.146      1.271      4.375
REMARK INTER + INTRA:         -12.930
REMARK INTER:                  -9.269
REMARK INTRA:                  -3.662
REMARK UNBOUND:                -3.937
REMARK SMILES CCCCCCCCCCCCCCCCCCCCCC(=O)[O-]
REMARK SMILES IDX 12 1 11 2 10 3 9 4 8 5 7 6 6 7 5 8 4 9 3 10 2 11 1 12 13 13
REMARK SMILES IDX 14 14 15 15 16 16 17 17 18 18 19 19 20 20 21 21 22 22 23 23
REMARK SMILES IDX 24 24
REMARK H PARENT
REMARK Flexibility Score: inf
ROOT
ATOM      1  C   UNL     1      54.450  39.729  46.785  1.00  0.00     0.000 C 
ENDROOT
BRANCH   1   2
ATOM      2  C   UNL     1      52.976  40.148  46.645  1.00  0.00     0.000 C 
BRANCH   2   3
ATOM      3  C   UNL     1      52.464  41.115  47.731  1.00  0.00     0.000 C 
BRANCH   3   4
ATOM      4  C   UNL     1      51.850  42.426  47.202  1.00  0.00    -0.000 C 
BRANCH   4   5
ATOM      5  C   UNL     1      52.856  43.573  46.983  1.00  0.00    -0.000 C 
BRANCH   5   6
ATOM      6  C   UNL     1      53.210  44.381  48.248  1.00  0.00    -0.000 C 
BRANCH   6   7
ATOM      7  C   UNL     1      54.613  44.107  48.818  1.00  0.00    -0.000 C 
BRANCH   7   8
ATOM      8  C   UNL     1      54.605  43.883  50.339  1.00  0.00    -0.000 C 
BRANCH   8   9
ATOM      9  C   UNL     1      53.910  42.569  50.743  1.00  0.00    -0.000 C 
BRANCH   9  10
ATOM     10  C   UNL     1      52.519  42.740  51.385  1.00  0.00    -0.000 C 
BRANCH  10  11
ATOM     11  C   UNL     1      51.897  41.445  51.939  1.00  0.00    -0.003 C 
ATOM     12  C   UNL     1      51.920  40.296  50.932  1.00  0.00     0.004 C 
ENDBRANCH  10  11
ENDBRANCH   9  10
ENDBRANCH   8   9
ENDBRANCH   7   8
ENDBRANCH   6   7
ENDBRANCH   5   6
ENDBRANCH   4   5
ENDBRANCH   3   4
ENDBRANCH   2   3
ENDBRANCH   1   2
BRANCH   1  13
ATOM     13  C   UNL     1      55.226  40.604  47.784  1.00  0.00     0.000 C 
BRANCH  13  14
ATOM     14  C   UNL     1      55.747  39.805  48.991  1.00  0.00     0.000 C 
BRANCH  14  15
ATOM     15  C   UNL     1      54.943  38.516  49.238  1.00  0.00     0.000 C 
BRANCH  15  16
ATOM     16  C   UNL     1      55.002  38.058  50.708  1.00  0.00     0.000 C 
BRANCH  16  17
ATOM     17  C   UNL     1      56.385  38.229  51.368  1.00  0.00     0.000 C 
BRANCH  17  18
ATOM     18  C   UNL     1      56.455  39.466  52.281  1.00  0.00     0.000 C 
BRANCH  18  19
ATOM     19  C   UNL     1      55.073  39.850  52.852  1.00  0.00     0.000 C 
BRANCH  19  20
ATOM     20  C   UNL     1      55.125  40.356  54.307  1.00  0.00     0.006 C 
BRANCH  20  21
ATOM     21  C   UNL     1      54.432  41.709  54.526  1.00  0.00     0.053 C 
BRANCH  21  22
ATOM     22  C   UNL     1      55.338  42.861  54.210  1.00  0.00     0.041 C 
ATOM     23  O   UNL     1      56.588  42.699  54.203  1.00  0.00    -0.550 OA
ATOM     24  O   UNL     1      54.806  44.109  53.914  1.00  0.00    -0.550 OA
ENDBRANCH  21  22
ENDBRANCH  20  21
ENDBRANCH  19  20
ENDBRANCH  18  19
ENDBRANCH  17  18
ENDBRANCH  16  17
ENDBRANCH  15  16
ENDBRANCH  14  15
ENDBRANCH  13  14
ENDBRANCH   1  13
TORSDOF 20
ENDMDL
MODEL 5
REMARK VINA RESULT:    -4.146      1.147      2.320
REMARK INTER + INTRA:         -12.930
REMARK INTER:                  -9.064
REMARK INTRA:                  -3.866
REMARK UNBOUND:                -3.937
REMARK SMILES CCCCCCCCCCCCCCCCCCCCCC(=O)[O-]
REMARK SMILES IDX 12 1 11 2 10 3 9 4 8 5 7 6 6 7 5 8 4 9 3 10 2 11 1 12 13 13
REMARK SMILES IDX 14 14 15 15 16 16 17 17 18 18 19 19 20 20 21 21 22 22 23 23
REMARK SMILES IDX 24 24
REMARK H PARENT
REMARK Flexibility Score: inf
ROOT
ATOM      1  C   UNL     1      52.417  39.284  50.548  1.00  0.00     0.000 C 
ENDROOT
BRANCH   1   2
ATOM      2  C   UNL     1      53.845  39.202  51.117  1.00  0.00     0.000 C 
BRANCH   2   3
ATOM      3  C   UNL     1      54.848  38.408  50.256  1.00  0.00     0.000 C 
BRANCH   3   4
ATOM      4  C   UNL     1      55.897  39.263  49.519  1.00  0.00    -0.000 C 
BRANCH   4   5
ATOM      5  C   UNL     1      55.347  40.098  48.346  1.00  0.00    -0.000 C 
BRANCH   5   6
ATOM      6  C   UNL     1      54.468  39.320  47.346  1.00  0.00    -0.000 C 
BRANCH   6   7
ATOM      7  C   UNL     1      53.335  40.141  46.706  1.00  0.00    -0.000 C 
BRANCH   7   8
ATOM      8  C   UNL     1      52.507  40.922  47.741  1.00  0.00    -0.000 C 
BRANCH   8   9
ATOM      9  C   UNL     1      51.945  42.241  47.180  1.00  0.00    -0.000 C 
BRANCH   9  10
ATOM     10  C   UNL     1      53.004  43.310  46.846  1.00  0.00    -0.000 C 
BRANCH  10  11
ATOM     11  C   UNL     1      52.703  44.716  47.398  1.00  0.00    -0.003 C 
ATOM     12  C   UNL     1      53.967  45.502  47.743  1.00  0.00     0.004 C 
ENDBRANCH  10  11
ENDBRANCH   9  10
ENDBRANCH   8   9
ENDBRANCH   7   8
ENDBRANCH   6   7
ENDBRANCH   5   6
ENDBRANCH   4   5
ENDBRANCH   3   4
ENDBRANCH   2   3
ENDBRANCH   1   2
BRANCH   1  13
ATOM     13  C   UNL     1      51.573  40.384  51.212  1.00  0.00     0.000 C 
BRANCH  13  14
ATOM     14  C   UNL     1      52.291  41.043  52.403  1.00  0.00     0.000 C 
BRANCH  14  15
ATOM     15  C   UNL     1      52.389  42.573  52.261  1.00  0.00     0.000 C 
BRANCH  15  16
ATOM     16  C   UNL     1      52.698  43.011  50.816  1.00  0.00     0.000 C 
BRANCH  16  17
ATOM     17  C   UNL     1      54.186  42.904  50.428  1.00  0.00     0.000 C 
BRANCH  17  18
ATOM     18  C   UNL     1      55.127  43.174  51.615  1.00  0.00     0.000 C 
BRANCH  18  19
ATOM     19  C   UNL     1      56.348  42.228  51.621  1.00  0.00     0.000 C 
BRANCH  19  20
ATOM     20  C   UNL     1      56.717  41.705  53.022  1.00  0.00     0.006 C 
BRANCH  20  21
ATOM     21  C   UNL     1      56.668  40.175  53.154  1.00  0.00     0.053 C 
BRANCH  21  22
ATOM     22  C   UNL     1      55.920  39.742  54.379  1.00  0.00     0.041 C 
ATOM     23  O   UNL     1      54.807  40.263  54.658  1.00  0.00    -0.550 OA
ATOM     24  O   UNL     1      56.446  38.760  55.208  1.00  0.00    -0.550 OA
ENDBRANCH  21  22
ENDBRANCH  20  21
ENDBRANCH  19  20
ENDBRANCH  18  19
ENDBRANCH  17  18
ENDBRANCH  16  17
ENDBRANCH  15  16
ENDBRANCH  14  15
ENDBRANCH  13  14
ENDBRANCH   1  13
TORSDOF 20
ENDMDL
MODEL 6
REMARK VINA RESULT:    -4.117      1.247      4.738
REMARK INTER + INTRA:         -12.868
REMARK INTER:                  -8.987
REMARK INTRA:                  -3.882
REMARK UNBOUND:                -3.937
REMARK SMILES CCCCCCCCCCCCCCCCCCCCCC(=O)[O-]
REMARK SMILES IDX 12 1 11 2 10 3 9 4 8 5 7 6 6 7 5 8 4 9 3 10 2 11 1 12 13 13
REMARK SMILES IDX 14 14 15 15 16 16 17 17 18 18 19 19 20 20 21 21 22 22 23 23
REMARK SMILES IDX 24 24
REMARK H PARENT
REMARK Flexibility Score: inf
ROOT
ATOM      1  C   UNL     1      52.188  41.856  48.128  1.00  0.00     0.000 C 
ENDROOT
BRANCH   1   2
ATOM      2  C   UNL     1      52.071  42.606  46.789  1.00  0.00     0.000 C 
BRANCH   2   3
ATOM      3  C   UNL     1      52.273  44.132  46.873  1.00  0.00     0.000 C 
BRANCH   3   4
ATOM      4  C   UNL     1      52.965  44.629  48.158  1.00  0.00    -0.000 C 
BRANCH   4   5
ATOM      5  C   UNL     1      54.288  45.388  47.931  1.00  0.00    -0.000 C 
BRANCH   5   6
ATOM      6  C   UNL     1      55.530  44.745  48.581  1.00  0.00    -0.000 C 
BRANCH   6   7
ATOM      7  C   UNL     1      55.474  43.213  48.705  1.00  0.00    -0.000 C 
BRANCH   7   8
ATOM      8  C   UNL     1      55.781  42.719  50.129  1.00  0.00    -0.000 C 
BRANCH   8   9
ATOM      9  C   UNL     1      54.556  42.093  50.819  1.00  0.00    -0.000 C 
BRANCH   9  10
ATOM     10  C   UNL     1      53.604  43.100  51.496  1.00  0.00    -0.000 C 
BRANCH  10  11
ATOM     11  C   UNL     1      52.175  42.581  51.737  1.00  0.00    -0.003 C 
ATOM     12  C   UNL     1      52.119  41.069  51.950  1.00  0.00     0.004 C 
ENDBRANCH  10  11
ENDBRANCH   9  10
ENDBRANCH   8   9
ENDBRANCH   7   8
ENDBRANCH   6   7
ENDBRANCH   5   6
ENDBRANCH   4   5
ENDBRANCH   3   4
ENDBRANCH   2   3
ENDBRANCH   1   2
BRANCH   1  13
ATOM     13  C   UNL     1      52.226  40.328  47.955  1.00  0.00     0.000 C 
BRANCH  13  14
ATOM     14  C   UNL     1      53.222  39.881  46.871  1.00  0.00     0.000 C 
BRANCH  14  15
ATOM     15  C   UNL     1      54.658  39.743  47.408  1.00  0.00     0.000 C 
BRANCH  15  16
ATOM     16  C   UNL     1      54.771  38.682  48.520  1.00  0.00     0.000 C 
BRANCH  16  17
ATOM     17  C   UNL     1      55.851  38.988  49.576  1.00  0.00     0.000 C 
BRANCH  17  18
ATOM     18  C   UNL     1      55.463  38.490  50.980  1.00  0.00     0.000 C 
BRANCH  18  19
ATOM     19  C   UNL     1      56.402  39.042  52.076  1.00  0.00     0.000 C 
BRANCH  19  20
ATOM     20  C   UNL     1      55.656  39.613  53.297  1.00  0.00     0.006 C 
BRANCH  20  21
ATOM     21  C   UNL     1      56.321  40.852  53.915  1.00  0.00     0.053 C 
BRANCH  21  22
ATOM     22  C   UNL     1      55.310  41.846  54.404  1.00  0.00     0.041 C 
ATOM     23  O   UNL     1      55.584  43.075  54.413  1.00  0.00    -0.550 OA
ATOM     24  O   UNL     1      54.064  41.417  54.843  1.00  0.00    -0.550 OA
ENDBRANCH  21  22
ENDBRANCH  20  21
ENDBRANCH  19  20
ENDBRANCH  18  19
ENDBRANCH  17  18
ENDBRANCH  16  17
ENDBRANCH  15  16
ENDBRANCH  14  15
ENDBRANCH  13  14
ENDBRANCH   1  13
TORSDOF 20
ENDMDL
MODEL 7
REMARK VINA RESULT:    -4.115      1.329      3.280
REMARK INTER + INTRA:         -12.862
REMARK INTER:                  -9.012
REMARK INTRA:                  -3.850
REMARK UNBOUND:                -3.937
REMARK SMILES CCCCCCCCCCCCCCCCCCCCCC(=O)[O-]
REMARK SMILES IDX 12 1 11 2 10 3 9 4 8 5 7 6 6 7 5 8 4 9 3 10 2 11 1 12 13 13
REMARK SMILES IDX 14 14 15 15 16 16 17 17 18 18 19 19 20 20 21 21 22 22 23 23
REMARK SMILES IDX 24 24
REMARK H PARENT
REMARK Flexibility Score: inf
ROOT
ATOM      1  C   UNL     1      56.916  41.298  48.896  1.00  0.00     0.000 C 
ENDROOT
BRANCH   1   2
ATOM      2  C   UNL     1      55.461  41.156  48.413  1.00  0.00     0.000 C 
BRANCH   2   3
ATOM      3  C   UNL     1      55.283  41.089  46.883  1.00  0.00     0.000 C 
BRANCH   3   4
ATOM      4  C   UNL     1      53.925  40.537  46.407  1.00  0.00    -0.000 C 
BRANCH   4   5
ATOM      5  C   UNL     1      53.023  39.978  47.525  1.00  0.00    -0.000 C 
BRANCH   5   6
ATOM      6  C   UNL     1      51.916  40.934  48.011  1.00  0.00    -0.000 C 
BRANCH   6   7
ATOM      7  C   UNL     1      51.891  42.304  47.311  1.00  0.00    -0.000 C 
BRANCH   7   8
ATOM      8  C   UNL     1      52.611  43.398  48.117  1.00  0.00    -0.000 C 
BRANCH   8   9
ATOM      9  C   UNL     1      52.675  44.743  47.371  1.00  0.00    -0.000 C 
BRANCH   9  10
ATOM     10  C   UNL     1      53.928  45.592  47.666  1.00  0.00    -0.000 C 
BRANCH  10  11
ATOM     11  C   UNL     1      55.197  44.784  47.988  1.00  0.00    -0.003 C 
ATOM     12  C   UNL     1      55.722  45.038  49.400  1.00  0.00     0.004 C 
ENDBRANCH  10  11
ENDBRANCH   9  10
ENDBRANCH   8   9
ENDBRANCH   7   8
ENDBRANCH   6   7
ENDBRANCH   5   6
ENDBRANCH   4   5
ENDBRANCH   3   4
ENDBRANCH   2   3
ENDBRANCH   1   2
BRANCH   1  13
ATOM     13  C   UNL     1      57.174  40.578  50.230  1.00  0.00     0.000 C 
BRANCH  13  14
ATOM     14  C   UNL     1      57.030  39.051  50.116  1.00  0.00     0.000 C 
BRANCH  14  15
ATOM     15  C   UNL     1      55.958  38.486  51.066  1.00  0.00     0.000 C 
BRANCH  15  16
ATOM     16  C   UNL     1      54.661  38.101  50.327  1.00  0.00     0.000 C 
BRANCH  16  17
ATOM     17  C   UNL     1      53.383  38.705  50.940  1.00  0.00     0.000 C 
BRANCH  17  18
ATOM     18  C   UNL     1      53.592  40.143  51.447  1.00  0.00     0.000 C 
BRANCH  18  19
ATOM     19  C   UNL     1      52.255  40.886  51.663  1.00  0.00     0.000 C 
BRANCH  19  20
ATOM     20  C   UNL     1      52.410  42.415  51.776  1.00  0.00     0.006 C 
BRANCH  20  21
ATOM     21  C   UNL     1      53.861  42.908  51.661  1.00  0.00     0.053 C 
BRANCH  21  22
ATOM     22  C   UNL     1      54.420  43.318  52.990  1.00  0.00     0.041 C 
ATOM     23  O   UNL     1      55.104  44.371  53.091  1.00  0.00    -0.550 OA
ATOM     24  O   UNL     1      54.182  42.543  54.118  1.00  0.00    -0.550 OA
ENDBRANCH  21  22
ENDBRANCH  20  21
ENDBRANCH  19  20
ENDBRANCH  18  19
ENDBRANCH  17  18
ENDBRANCH  16  17
ENDBRANCH  15  16
ENDBRANCH  14  15
ENDBRANCH  13  14
ENDBRANCH   1  13
TORSDOF 20
ENDMDL
MODEL 8
REMARK VINA RESULT:    -4.102      1.325      3.031
REMARK INTER + INTRA:         -12.834
REMARK INTER:                  -8.776
REMARK INTRA:                  -4.058
REMARK UNBOUND:                -3.937
REMARK SMILES CCCCCCCCCCCCCCCCCCCCCC(=O)[O-]
REMARK SMILES IDX 12 1 11 2 10 3 9 4 8 5 7 6 6 7 5 8 4 9 3 10 2 11 1 12 13 13
REMARK SMILES IDX 14 14 15 15 16 16 17 17 18 18 19 19 20 20 21 21 22 22 23 23
REMARK SMILES IDX 24 24
REMARK H PARENT
REMARK Flexibility Score: inf
ROOT
ATOM      1  C   UNL     1      55.373  40.087  48.863  1.00  0.00     0.000 C 
ENDROOT
BRANCH   1   2
ATOM      2  C   UNL     1      54.719  40.464  47.522  1.00  0.00     0.000 C 
BRANCH   2   3
ATOM      3  C   UNL     1      53.405  39.723  47.204  1.00  0.00     0.000 C 
BRANCH   3   4
ATOM      4  C   UNL     1      52.130  40.384  47.764  1.00  0.00    -0.000 C 
BRANCH   4   5
ATOM      5  C   UNL     1      52.257  41.890  48.066  1.00  0.00    -0.000 C 
BRANCH   5   6
ATOM      6  C   UNL     1      51.857  42.825  46.907  1.00  0.00    -0.000 C 
BRANCH   6   7
ATOM      7  C   UNL     1      52.495  44.225  46.955  1.00  0.00    -0.000 C 
BRANCH   7   8
ATOM      8  C   UNL     1      53.056  44.576  48.343  1.00  0.00    -0.000 C 
BRANCH   8   9
ATOM      9  C   UNL     1      54.485  45.145  48.280  1.00  0.00    -0.000 C 
BRANCH   9  10
ATOM     10  C   UNL     1      55.534  44.201  47.659  1.00  0.00    -0.000 C 
BRANCH  10  11
ATOM     11  C   UNL     1      56.514  43.569  48.665  1.00  0.00    -0.003 C 
ATOM     12  C   UNL     1      57.215  44.605  49.543  1.00  0.00     0.004 C 
ENDBRANCH  10  11
ENDBRANCH   9  10
ENDBRANCH   8   9
ENDBRANCH   7   8
ENDBRANCH   6   7
ENDBRANCH   5   6
ENDBRANCH   4   5
ENDBRANCH   3   4
ENDBRANCH   2   3
ENDBRANCH   1   2
BRANCH   1  13
ATOM     13  C   UNL     1      55.193  38.601  49.217  1.00  0.00     0.000 C 
BRANCH  13  14
ATOM     14  C   UNL     1      54.707  38.391  50.662  1.00  0.00     0.000 C 
BRANCH  14  15
ATOM     15  C   UNL     1      53.266  38.889  50.879  1.00  0.00     0.000 C 
BRANCH  15  16
ATOM     16  C   UNL     1      53.188  40.037  51.904  1.00  0.00     0.000 C 
BRANCH  16  17
ATOM     17  C   UNL     1      51.996  40.990  51.694  1.00  0.00     0.000 C 
BRANCH  17  18
ATOM     18  C   UNL     1      52.426  42.465  51.606  1.00  0.00     0.000 C 
BRANCH  18  19
ATOM     19  C   UNL     1      53.915  42.618  51.226  1.00  0.00     0.000 C 
BRANCH  19  20
ATOM     20  C   UNL     1      54.704  43.539  52.176  1.00  0.00     0.006 C 
BRANCH  20  21
ATOM     21  C   UNL     1      55.916  42.868  52.839  1.00  0.00     0.053 C 
BRANCH  21  22
ATOM     22  C   UNL     1      55.668  42.571  54.288  1.00  0.00     0.041 C 
ATOM     23  O   UNL     1      54.657  41.904  54.633  1.00  0.00    -0.550 OA
ATOM     24  O   UNL     1      56.556  43.022  55.256  1.00  0.00    -0.550 OA
ENDBRANCH  21  22
ENDBRANCH  20  21
ENDBRANCH  19  20
ENDBRANCH  18  19
ENDBRANCH  17  18
ENDBRANCH  16  17
ENDBRANCH  15  16
ENDBRANCH  14  15
ENDBRANCH  13  14
ENDBRANCH   1  13
TORSDOF 20
ENDMDL
MODEL 9
REMARK VINA RESULT:    -4.062      2.385      5.330
REMARK INTER + INTRA:         -12.749
REMARK INTER:                  -9.286
REMARK INTRA:                  -3.464
REMARK UNBOUND:                -3.937
REMARK SMILES CCCCCCCCCCCCCCCCCCCCCC(=O)[O-]
REMARK SMILES IDX 12 1 11 2 10 3 9 4 8 5 7 6 6 7 5 8 4 9 3 10 2 11 1 12 13 13
REMARK SMILES IDX 14 14 15 15 16 16 17 17 18 18 19 19 20 20 21 21 22 22 23 23
REMARK SMILES IDX 24 24
REMARK H PARENT
REMARK Flexibility Score: inf
ROOT
ATOM      1  C   UNL     1      52.246  41.872  48.168  1.00  0.00     0.000 C 
ENDROOT
BRANCH   1   2
ATOM      2  C   UNL     1      51.887  42.769  46.970  1.00  0.00     0.000 C 
BRANCH   2   3
ATOM      3  C   UNL     1      52.788  44.007  46.786  1.00  0.00     0.000 C 
BRANCH   3   4
ATOM      4  C   UNL     1      53.077  44.801  48.075  1.00  0.00    -0.000 C 
BRANCH   4   5
ATOM      5  C   UNL     1      54.570  44.937  48.435  1.00  0.00    -0.000 C 
BRANCH   5   6
ATOM      6  C   UNL     1      55.473  43.802  47.912  1.00  0.00    -0.000 C 
BRANCH   6   7
ATOM      7  C   UNL     1      55.698  42.646  48.902  1.00  0.00    -0.000 C 
BRANCH   7   8
ATOM      8  C   UNL     1      55.516  43.073  50.368  1.00  0.00    -0.000 C 
BRANCH   8   9
ATOM      9  C   UNL     1      54.487  42.207  51.117  1.00  0.00    -0.000 C 
BRANCH   9  10
ATOM     10  C   UNL     1      53.213  42.951  51.565  1.00  0.00    -0.000 C 
BRANCH  10  11
ATOM     11  C   UNL     1      52.018  42.043  51.910  1.00  0.00    -0.003 C 
ATOM     12  C   UNL     1      52.293  40.566  51.627  1.00  0.00     0.004 C 
ENDBRANCH  10  11
ENDBRANCH   9  10
ENDBRANCH   8   9
ENDBRANCH   7   8
ENDBRANCH   6   7
ENDBRANCH   5   6
ENDBRANCH   4   5
ENDBRANCH   3   4
ENDBRANCH   2   3
ENDBRANCH   1   2
BRANCH   1  13
ATOM     13  C   UNL     1      52.258  40.376  47.810  1.00  0.00     0.000 C 
BRANCH  13  14
ATOM     14  C   UNL     1      53.321  40.029  46.754  1.00  0.00     0.000 C 
BRANCH  14  15
ATOM     15  C   UNL     1      54.494  39.222  47.339  1.00  0.00     0.000 C 
BRANCH  15  16
ATOM     16  C   UNL     1      54.490  39.211  48.880  1.00  0.00     0.000 C 
BRANCH  16  17
ATOM     17  C   UNL     1      55.873  38.963  49.513  1.00  0.00     0.000 C 
BRANCH  17  18
ATOM     18  C   UNL     1      55.777  38.340  50.918  1.00  0.00     0.000 C 
BRANCH  18  19
ATOM     19  C   UNL     1      56.560  39.153  51.972  1.00  0.00     0.000 C 
BRANCH  19  20
ATOM     20  C   UNL     1      57.034  38.311  53.173  1.00  0.00     0.006 C 
BRANCH  20  21
ATOM     21  C   UNL     1      58.556  38.124  53.246  1.00  0.00     0.053 C 
BRANCH  21  22
ATOM     22  C   UNL     1      58.964  36.717  52.924  1.00  0.00     0.041 C 
ATOM     23  O   UNL     1      58.536  36.158  51.879  1.00  0.00    -0.550 OA
ATOM     24  O   UNL     1      59.820  36.026  53.771  1.00  0.00    -0.550 OA
ENDBRANCH  21  22
ENDBRANCH  20  21
ENDBRANCH  19  20
ENDBRANCH  18  19
ENDBRANCH  17  18
ENDBRANCH  16  17
ENDBRANCH  15  16
ENDBRANCH  14  15
ENDBRANCH  13  14
ENDBRANCH   1  13
TORSDOF 20
ENDMDL
