MODEL 1
REMARK VINA RESULT:    -3.029      0.000      0.000
REMARK INTER + INTRA:          -8.843
REMARK INTER:                  -6.925
REMARK INTRA:                  -1.918
REMARK UNBOUND:                -1.918
REMARK SMILES CCCCCCCCCCCCCCCCCCCCCCCC(=O)[O-]
REMARK SMILES IDX 13 1 14 2 15 3 16 4 17 5 18 6 19 7 20 8 21 9 22 10 23 11
REMARK SMILES IDX 24 12 25 13 26 14 12 15 11 16 10 17 9 18 8 19 7 20 6 21 5 22
REMARK SMILES IDX 4 23 3 24 2 25 1 26
REMARK H PARENT
REMARK Flexibility Score: inf
ROOT
ATOM      1  C   UNL     1      15.041  -8.011   6.425  1.00  0.00     0.000 C 
ENDROOT
BRANCH   1   2
ATOM      2  C   UNL     1      15.713  -8.641   5.196  1.00  0.00     0.000 C 
BRANCH   2   3
ATOM      3  C   UNL     1      15.904  -7.602   4.084  1.00  0.00     0.000 C 
BRANCH   3   4
ATOM      4  C   UNL     1      16.996  -6.587   4.459  1.00  0.00     0.000 C 
BRANCH   4   5
ATOM      5  C   UNL     1      18.369  -6.957   3.875  1.00  0.00     0.000 C 
BRANCH   5   6
ATOM      6  C   UNL     1      19.536  -6.432   4.729  1.00  0.00     0.000 C 
BRANCH   6   7
ATOM      7  C   UNL     1      20.487  -7.552   5.179  1.00  0.00     0.000 C 
BRANCH   7   8
ATOM      8  C   UNL     1      19.878  -8.950   5.004  1.00  0.00     0.000 C 
BRANCH   8   9
ATOM      9  C   UNL     1      19.591  -9.599   6.362  1.00  0.00     0.000 C 
BRANCH   9  10
ATOM     10  C   UNL     1      20.130  -8.734   7.511  1.00  0.00     0.006 C 
BRANCH  10  11
ATOM     11  C   UNL     1      19.037  -8.371   8.526  1.00  0.00     0.053 C 
BRANCH  11  12
ATOM     12  C   UNL     1      18.565  -6.961   8.352  1.00  0.00     0.041 C 
ATOM     13  O   UNL     1      17.361  -6.725   8.068  1.00  0.00    -0.550 OA
ATOM     14  O   UNL     1      19.462  -5.907   8.472  1.00  0.00    -0.550 OA
ENDBRANCH  11  12
ENDBRANCH  10  11
ENDBRANCH   9  10
ENDBRANCH   8   9
ENDBRANCH   7   8
ENDBRANCH   6   7
ENDBRANCH   5   6
ENDBRANCH   4   5
ENDBRANCH   3   4
ENDBRANCH   2   3
ENDBRANCH   1   2
BRANCH   1  15
ATOM     15  C   UNL     1      13.536  -8.309   6.499  1.00  0.00     0.000 C 
BRANCH  15  16
ATOM     16  C   UNL     1      12.953  -8.749   5.144  1.00  0.00     0.000 C 
BRANCH  16  17
ATOM     17  C   UNL     1      11.586  -8.108   4.853  1.00  0.00     0.000 C 
BRANCH  17  18
ATOM     18  C   UNL     1      10.801  -7.781   6.136  1.00  0.00    -0.000 C 
BRANCH  18  19
ATOM     19  C   UNL     1       9.560  -8.670   6.312  1.00  0.00    -0.000 C 
BRANCH  19  20
ATOM     20  C   UNL     1       9.151  -9.376   5.007  1.00  0.00    -0.000 C 
BRANCH  20  21
ATOM     21  C   UNL     1       7.735  -8.992   4.546  1.00  0.00    -0.000 C 
BRANCH  21  22
ATOM     22  C   UNL     1       7.548  -7.470   4.418  1.00  0.00    -0.000 C 
BRANCH  22  23
ATOM     23  C   UNL     1       6.520  -6.918   5.419  1.00  0.00    -0.000 C 
BRANCH  23  24
ATOM     24  C   UNL     1       5.068  -7.202   5.000  1.00  0.00    -0.000 C 
BRANCH  24  25
ATOM     25  C   UNL     1       4.321  -5.932   4.564  1.00  0.00    -0.003 C 
ATOM     26  C   UNL     1       2.891  -6.217   4.105  1.00  0.00     0.004 C 
ENDBRANCH  24  25
ENDBRANCH  23  24
ENDBRANCH  22  23
ENDBRANCH  21  22
ENDBRANCH  20  21
ENDBRANCH  19  20
ENDBRANCH  18  19
ENDBRANCH  17  18
ENDBRANCH  16  17
ENDBRANCH  15  16
ENDBRANCH   1  15
TORSDOF 22
ENDMDL
MODEL 2
REMARK VINA RESULT:    -2.708      1.859      2.718
REMARK INTER + INTRA:          -8.110
REMARK INTER:                  -5.943
REMARK INTRA:                  -2.167
REMARK UNBOUND:                -1.918
REMARK SMILES CCCCCCCCCCCCCCCCCCCCCCCC(=O)[O-]
REMARK SMILES IDX 13 1 14 2 15 3 16 4 17 5 18 6 19 7 20 8 21 9 22 10 23 11
REMARK SMILES IDX 24 12 25 13 26 14 12 15 11 16 10 17 9 18 8 19 7 20 6 21 5 22
REMARK SMILES IDX 4 23 3 24 2 25 1 26
REMARK H PARENT
REMARK Flexibility Score: inf
ROOT
ATOM      1  C   UNL     1      15.162  -7.482   6.391  1.00  0.00     0.000 C 
ENDROOT
BRANCH   1   2
ATOM      2  C   UNL     1      15.655  -6.661   5.190  1.00  0.00     0.000 C 
BRANCH   2   3
ATOM      3  C   UNL     1      16.944  -7.259   4.611  1.00  0.00     0.000 C 
BRANCH   3   4
ATOM      4  C   UNL     1      16.865  -8.793   4.560  1.00  0.00     0.000 C 
BRANCH   4   5
ATOM      5  C   UNL     1      18.108  -9.425   3.915  1.00  0.00     0.000 C 
BRANCH   5   6
ATOM      6  C   UNL     1      19.017 -10.124   4.942  1.00  0.00     0.000 C 
BRANCH   6   7
ATOM      7  C   UNL     1      18.459 -10.048   6.371  1.00  0.00     0.000 C 
BRANCH   7   8
ATOM      8  C   UNL     1      19.559 -10.125   7.440  1.00  0.00     0.000 C 
BRANCH   8   9
ATOM      9  C   UNL     1      19.862  -8.738   8.018  1.00  0.00     0.000 C 
BRANCH   9  10
ATOM     10  C   UNL     1      19.062  -7.649   7.288  1.00  0.00     0.006 C 
BRANCH  10  11
ATOM     11  C   UNL     1      19.956  -6.501   6.800  1.00  0.00     0.053 C 
BRANCH  11  12
ATOM     12  C   UNL     1      20.306  -6.647   5.351  1.00  0.00     0.041 C 
ATOM     13  O   UNL     1      21.208  -7.449   4.994  1.00  0.00    -0.550 OA
ATOM     14  O   UNL     1      19.657  -5.873   4.398  1.00  0.00    -0.550 OA
ENDBRANCH  11  12
ENDBRANCH  10  11
ENDBRANCH   9  10
ENDBRANCH   8   9
ENDBRANCH   7   8
ENDBRANCH   6   7
ENDBRANCH   5   6
ENDBRANCH   4   5
ENDBRANCH   3   4
ENDBRANCH   2   3
ENDBRANCH   1   2
BRANCH   1  15
ATOM     15  C   UNL     1      13.747  -8.045   6.186  1.00  0.00     0.000 C 
BRANCH  15  16
ATOM     16  C   UNL     1      13.742  -9.569   5.971  1.00  0.00     0.000 C 
BRANCH  16  17
ATOM     17  C   UNL     1      13.477  -9.958   4.508  1.00  0.00     0.000 C 
BRANCH  17  18
ATOM     18  C   UNL     1      12.337  -9.139   3.875  1.00  0.00    -0.000 C 
BRANCH  18  19
ATOM     19  C   UNL     1      10.966  -9.813   4.037  1.00  0.00    -0.000 C 
BRANCH  19  20
ATOM     20  C   UNL     1      10.010  -8.997   4.925  1.00  0.00    -0.000 C 
BRANCH  20  21
ATOM     21  C   UNL     1       8.873  -9.853   5.510  1.00  0.00    -0.000 C 
BRANCH  21  22
ATOM     22  C   UNL     1       8.586  -9.525   6.985  1.00  0.00    -0.000 C 
BRANCH  22  23
ATOM     23  C   UNL     1       7.318  -8.674   7.164  1.00  0.00    -0.000 C 
BRANCH  23  24
ATOM     24  C   UNL     1       6.193  -9.070   6.193  1.00  0.00    -0.000 C 
BRANCH  24  25
ATOM     25  C   UNL     1       5.579  -7.858   5.477  1.00  0.00    -0.003 C 
ATOM     26  C   UNL     1       5.918  -6.535   6.162  1.00  0.00     0.004 C 
ENDBRANCH  24  25
ENDBRANCH  23  24
ENDBRANCH  22  23
ENDBRANCH  21  22
ENDBRANCH  20  21
ENDBRANCH  19  20
ENDBRANCH  18  19
ENDBRANCH  17  18
ENDBRANCH  16  17
ENDBRANCH  15  16
ENDBRANCH   1  15
TORSDOF 22
ENDMDL
MODEL 3
REMARK VINA RESULT:    -2.625      4.055     11.718
REMARK INTER + INTRA:          -7.920
REMARK INTER:                  -6.368
REMARK INTRA:                  -1.552
REMARK UNBOUND:                -1.918
REMARK SMILES CCCCCCCCCCCCCCCCCCCCCCCC(=O)[O-]
REMARK SMILES IDX 13 1 14 2 15 3 16 4 17 5 18 6 19 7 20 8 21 9 22 10 23 11
REMARK SMILES IDX 24 12 25 13 26 14 12 15 11 16 10 17 9 18 8 19 7 20 6 21 5 22
REMARK SMILES IDX 4 23 3 24 2 25 1 26
REMARK H PARENT
REMARK Flexibility Score: inf
ROOT
ATOM      1  C   UNL     1      14.502  -7.674   6.577  1.00  0.00     0.000 C 
ENDROOT
BRANCH   1   2
ATOM      2  C   UNL     1      13.247  -8.554   6.684  1.00  0.00     0.000 C 
BRANCH   2   3
ATOM      3  C   UNL     1      12.344  -8.370   5.458  1.00  0.00     0.000 C 
BRANCH   3   4
ATOM      4  C   UNL     1      11.020  -7.692   5.845  1.00  0.00     0.000 C 
BRANCH   4   5
ATOM      5  C   UNL     1       9.802  -8.359   5.187  1.00  0.00     0.000 C 
BRANCH   5   6
ATOM      6  C   UNL     1       9.090  -9.349   6.125  1.00  0.00     0.000 C 
BRANCH   6   7
ATOM      7  C   UNL     1       8.006  -8.674   6.980  1.00  0.00     0.000 C 
BRANCH   7   8
ATOM      8  C   UNL     1       6.670  -9.429   6.943  1.00  0.00     0.000 C 
BRANCH   8   9
ATOM      9  C   UNL     1       6.359  -9.928   5.527  1.00  0.00     0.000 C 
BRANCH   9  10
ATOM     10  C   UNL     1       6.271  -8.757   4.537  1.00  0.00     0.006 C 
BRANCH  10  11
ATOM     11  C   UNL     1       4.831  -8.258   4.356  1.00  0.00     0.053 C 
BRANCH  11  12
ATOM     12  C   UNL     1       4.679  -6.832   4.786  1.00  0.00     0.041 C 
ATOM     13  O   UNL     1       5.565  -6.285   5.494  1.00  0.00    -0.550 OA
ATOM     14  O   UNL     1       3.542  -6.116   4.432  1.00  0.00    -0.550 OA
ENDBRANCH  11  12
ENDBRANCH  10  11
ENDBRANCH   9  10
ENDBRANCH   8   9
ENDBRANCH   7   8
ENDBRANCH   6   7
ENDBRANCH   5   6
ENDBRANCH   4   5
ENDBRANCH   3   4
ENDBRANCH   2   3
ENDBRANCH   1   2
BRANCH   1  15
ATOM     15  C   UNL     1      15.804  -8.490   6.582  1.00  0.00     0.000 C 
BRANCH  15  16
ATOM     16  C   UNL     1      15.598  -9.936   6.095  1.00  0.00     0.000 C 
BRANCH  16  17
ATOM     17  C   UNL     1      15.553 -10.042   4.563  1.00  0.00     0.000 C 
BRANCH  17  18
ATOM     18  C   UNL     1      16.668  -9.227   3.881  1.00  0.00    -0.000 C 
BRANCH  18  19
ATOM     19  C   UNL     1      18.073  -9.730   4.245  1.00  0.00    -0.000 C 
BRANCH  19  20
ATOM     20  C   UNL     1      19.139  -8.624   4.143  1.00  0.00    -0.000 C 
BRANCH  20  21
ATOM     21  C   UNL     1      18.659  -7.285   4.726  1.00  0.00    -0.000 C 
BRANCH  21  22
ATOM     22  C   UNL     1      19.375  -6.076   4.099  1.00  0.00    -0.000 C 
BRANCH  22  23
ATOM     23  C   UNL     1      20.629  -5.661   4.885  1.00  0.00    -0.000 C 
BRANCH  23  24
ATOM     24  C   UNL     1      21.861  -5.467   3.984  1.00  0.00    -0.000 C 
BRANCH  24  25
ATOM     25  C   UNL     1      23.020  -6.403   4.360  1.00  0.00    -0.003 C 
ATOM     26  C   UNL     1      22.796  -7.838   3.886  1.00  0.00     0.004 C 
ENDBRANCH  24  25
ENDBRANCH  23  24
ENDBRANCH  22  23
ENDBRANCH  21  22
ENDBRANCH  20  21
ENDBRANCH  19  20
ENDBRANCH  18  19
ENDBRANCH  17  18
ENDBRANCH  16  17
ENDBRANCH  15  16
ENDBRANCH   1  15
TORSDOF 22
ENDMDL
MODEL 4
REMARK VINA RESULT:    -2.452      1.813      2.913
REMARK INTER + INTRA:          -7.524
REMARK INTER:                  -6.029
REMARK INTRA:                  -1.495
REMARK UNBOUND:                -1.918
REMARK SMILES CCCCCCCCCCCCCCCCCCCCCCCC(=O)[O-]
REMARK SMILES IDX 13 1 14 2 15 3 16 4 17 5 18 6 19 7 20 8 21 9 22 10 23 11
REMARK SMILES IDX 24 12 25 13 26 14 12 15 11 16 10 17 9 18 8 19 7 20 6 21 5 22
REMARK SMILES IDX 4 23 3 24 2 25 1 26
REMARK H PARENT
REMARK Flexibility Score: inf
ROOT
ATOM      1  C   UNL     1      15.158  -7.165   6.551  1.00  0.00     0.000 C 
ENDROOT
BRANCH   1   2
ATOM      2  C   UNL     1      15.640  -6.964   5.107  1.00  0.00     0.000 C 
BRANCH   2   3
ATOM      3  C   UNL     1      17.168  -7.070   5.021  1.00  0.00     0.000 C 
BRANCH   3   4
ATOM      4  C   UNL     1      17.590  -8.197   4.066  1.00  0.00     0.000 C 
BRANCH   4   5
ATOM      5  C   UNL     1      17.012  -9.562   4.473  1.00  0.00     0.000 C 
BRANCH   5   6
ATOM      6  C   UNL     1      17.541 -10.047   5.834  1.00  0.00     0.000 C 
BRANCH   6   7
ATOM      7  C   UNL     1      19.075 -10.006   5.918  1.00  0.00     0.000 C 
BRANCH   7   8
ATOM      8  C   UNL     1      19.591  -8.794   6.707  1.00  0.00     0.000 C 
BRANCH   8   9
ATOM      9  C   UNL     1      20.881  -8.243   6.088  1.00  0.00     0.000 C 
BRANCH   9  10
ATOM     10  C   UNL     1      20.849  -8.356   4.556  1.00  0.00     0.006 C 
BRANCH  10  11
ATOM     11  C   UNL     1      20.759  -6.983   3.876  1.00  0.00     0.053 C 
BRANCH  11  12
ATOM     12  C   UNL     1      21.537  -5.943   4.621  1.00  0.00     0.041 C 
ATOM     13  O   UNL     1      22.791  -6.025   4.703  1.00  0.00    -0.550 OA
ATOM     14  O   UNL     1      20.874  -4.899   5.253  1.00  0.00    -0.550 OA
ENDBRANCH  11  12
ENDBRANCH  10  11
ENDBRANCH   9  10
ENDBRANCH   8   9
ENDBRANCH   7   8
ENDBRANCH   6   7
ENDBRANCH   5   6
ENDBRANCH   4   5
ENDBRANCH   3   4
ENDBRANCH   2   3
ENDBRANCH   1   2
BRANCH   1  15
ATOM     15  C   UNL     1      14.443  -8.509   6.759  1.00  0.00     0.000 C 
BRANCH  15  16
ATOM     16  C   UNL     1      13.699  -8.984   5.497  1.00  0.00     0.000 C 
BRANCH  16  17
ATOM     17  C   UNL     1      12.709  -7.936   4.966  1.00  0.00     0.000 C 
BRANCH  17  18
ATOM     18  C   UNL     1      11.751  -8.511   3.905  1.00  0.00    -0.000 C 
BRANCH  18  19
ATOM     19  C   UNL     1      10.282  -8.164   4.188  1.00  0.00    -0.000 C 
BRANCH  19  20
ATOM     20  C   UNL     1      10.049  -7.724   5.644  1.00  0.00    -0.000 C 
BRANCH  20  21
ATOM     21  C   UNL     1       9.277  -8.773   6.462  1.00  0.00    -0.000 C 
BRANCH  21  22
ATOM     22  C   UNL     1       8.365  -9.651   5.588  1.00  0.00    -0.000 C 
BRANCH  22  23
ATOM     23  C   UNL     1       6.877  -9.481   5.933  1.00  0.00    -0.000 C 
BRANCH  23  24
ATOM     24  C   UNL     1       6.549  -8.081   6.480  1.00  0.00    -0.000 C 
BRANCH  24  25
ATOM     25  C   UNL     1       5.745  -7.233   5.483  1.00  0.00    -0.003 C 
ATOM     26  C   UNL     1       4.488  -7.944   4.982  1.00  0.00     0.004 C 
ENDBRANCH  24  25
ENDBRANCH  23  24
ENDBRANCH  22  23
ENDBRANCH  21  22
ENDBRANCH  20  21
ENDBRANCH  19  20
ENDBRANCH  18  19
ENDBRANCH  17  18
ENDBRANCH  16  17
ENDBRANCH  15  16
ENDBRANCH   1  15
TORSDOF 22
ENDMDL
MODEL 5
REMARK VINA RESULT:    -2.370      1.437      2.233
REMARK INTER + INTRA:          -7.335
REMARK INTER:                  -5.722
REMARK INTRA:                  -1.614
REMARK UNBOUND:                -1.918
REMARK SMILES CCCCCCCCCCCCCCCCCCCCCCCC(=O)[O-]
REMARK SMILES IDX 13 1 14 2 15 3 16 4 17 5 18 6 19 7 20 8 21 9 22 10 23 11
REMARK SMILES IDX 24 12 25 13 26 14 12 15 11 16 10 17 9 18 8 19 7 20 6 21 5 22
REMARK SMILES IDX 4 23 3 24 2 25 1 26
REMARK H PARENT
REMARK Flexibility Score: inf
ROOT
ATOM      1  C   UNL     1      15.385  -7.205   5.704  1.00  0.00     0.000 C 
ENDROOT
BRANCH   1   2
ATOM      2  C   UNL     1      16.589  -7.898   5.049  1.00  0.00     0.000 C 
BRANCH   2   3
ATOM      3  C   UNL     1      16.428  -9.423   5.084  1.00  0.00     0.000 C 
BRANCH   3   4
ATOM      4  C   UNL     1      17.744 -10.125   4.717  1.00  0.00     0.000 C 
BRANCH   4   5
ATOM      5  C   UNL     1      18.690  -9.220   3.912  1.00  0.00     0.000 C 
BRANCH   5   6
ATOM      6  C   UNL     1      20.172  -9.575   4.122  1.00  0.00     0.000 C 
BRANCH   6   7
ATOM      7  C   UNL     1      21.083  -8.338   4.102  1.00  0.00     0.000 C 
BRANCH   7   8
ATOM      8  C   UNL     1      20.292  -7.022   4.090  1.00  0.00     0.000 C 
BRANCH   8   9
ATOM      9  C   UNL     1      20.962  -5.968   4.978  1.00  0.00     0.000 C 
BRANCH   9  10
ATOM     10  C   UNL     1      20.223  -5.824   6.317  1.00  0.00     0.006 C 
BRANCH  10  11
ATOM     11  C   UNL     1      19.001  -6.749   6.406  1.00  0.00     0.053 C 
BRANCH  11  12
ATOM     12  C   UNL     1      18.711  -7.149   7.820  1.00  0.00     0.041 C 
ATOM     13  O   UNL     1      17.736  -6.643   8.436  1.00  0.00    -0.550 OA
ATOM     14  O   UNL     1      19.538  -8.058   8.469  1.00  0.00    -0.550 OA
ENDBRANCH  11  12
ENDBRANCH  10  11
ENDBRANCH   9  10
ENDBRANCH   8   9
ENDBRANCH   7   8
ENDBRANCH   6   7
ENDBRANCH   5   6
ENDBRANCH   4   5
ENDBRANCH   3   4
ENDBRANCH   2   3
ENDBRANCH   1   2
BRANCH   1  15
ATOM     15  C   UNL     1      14.436  -8.192   6.401  1.00  0.00     0.000 C 
BRANCH  15  16
ATOM     16  C   UNL     1      13.046  -8.244   5.740  1.00  0.00     0.000 C 
BRANCH  16  17
ATOM     17  C   UNL     1      13.086  -8.849   4.328  1.00  0.00     0.000 C 
BRANCH  17  18
ATOM     18  C   UNL     1      11.846  -9.707   4.017  1.00  0.00    -0.000 C 
BRANCH  18  19
ATOM     19  C   UNL     1      10.567  -8.868   3.880  1.00  0.00    -0.000 C 
BRANCH  19  20
ATOM     20  C   UNL     1       9.432  -9.369   4.790  1.00  0.00    -0.000 C 
BRANCH  20  21
ATOM     21  C   UNL     1       8.778  -8.236   5.598  1.00  0.00    -0.000 C 
BRANCH  21  22
ATOM     22  C   UNL     1       8.352  -7.050   4.715  1.00  0.00    -0.000 C 
BRANCH  22  23
ATOM     23  C   UNL     1       6.975  -7.264   4.066  1.00  0.00    -0.000 C 
BRANCH  23  24
ATOM     24  C   UNL     1       5.814  -6.835   4.980  1.00  0.00    -0.000 C 
BRANCH  24  25
ATOM     25  C   UNL     1       4.662  -7.851   4.984  1.00  0.00    -0.003 C 
ATOM     26  C   UNL     1       5.114  -9.253   5.392  1.00  0.00     0.004 C 
ENDBRANCH  24  25
ENDBRANCH  23  24
ENDBRANCH  22  23
ENDBRANCH  21  22
ENDBRANCH  20  21
ENDBRANCH  19  20
ENDBRANCH  18  19
ENDBRANCH  17  18
ENDBRANCH  16  17
ENDBRANCH  15  16
ENDBRANCH   1  15
TORSDOF 22
ENDMDL
MODEL 6
REMARK VINA RESULT:    -2.076      3.617     10.509
REMARK INTER + INTRA:          -6.663
REMARK INTER:                  -5.757
REMARK INTRA:                  -0.906
REMARK UNBOUND:                -1.918
REMARK SMILES CCCCCCCCCCCCCCCCCCCCCCCC(=O)[O-]
REMARK SMILES IDX 13 1 14 2 15 3 16 4 17 5 18 6 19 7 20 8 21 9 22 10 23 11
REMARK SMILES IDX 24 12 25 13 26 14 12 15 11 16 10 17 9 18 8 19 7 20 6 21 5 22
REMARK SMILES IDX 4 23 3 24 2 25 1 26
REMARK H PARENT
REMARK Flexibility Score: inf
ROOT
ATOM      1  C   UNL     1      15.619  -6.998   7.159  1.00  0.00     0.000 C 
ENDROOT
BRANCH   1   2
ATOM      2  C   UNL     1      14.968  -8.387   7.232  1.00  0.00     0.000 C 
BRANCH   2   3
ATOM      3  C   UNL     1      13.982  -8.589   6.075  1.00  0.00     0.000 C 
BRANCH   3   4
ATOM      4  C   UNL     1      14.143  -9.984   5.451  1.00  0.00     0.000 C 
BRANCH   4   5
ATOM      5  C   UNL     1      13.499 -10.084   4.058  1.00  0.00     0.000 C 
BRANCH   5   6
ATOM      6  C   UNL     1      12.322  -9.111   3.878  1.00  0.00     0.000 C 
BRANCH   6   7
ATOM      7  C   UNL     1      10.970  -9.747   4.239  1.00  0.00     0.000 C 
BRANCH   7   8
ATOM      8  C   UNL     1      10.043  -8.779   4.987  1.00  0.00     0.000 C 
BRANCH   8   9
ATOM      9  C   UNL     1       8.579  -9.002   4.590  1.00  0.00     0.000 C 
BRANCH   9  10
ATOM     10  C   UNL     1       7.657  -7.997   5.296  1.00  0.00     0.006 C 
BRANCH  10  11
ATOM     11  C   UNL     1       6.757  -8.671   6.341  1.00  0.00     0.053 C 
BRANCH  11  12
ATOM     12  C   UNL     1       7.430  -8.765   7.675  1.00  0.00     0.041 C 
ATOM     13  O   UNL     1       7.346  -7.814   8.497  1.00  0.00    -0.550 OA
ATOM     14  O   UNL     1       8.179  -9.889   7.999  1.00  0.00    -0.550 OA
ENDBRANCH  11  12
ENDBRANCH  10  11
ENDBRANCH   9  10
ENDBRANCH   8   9
ENDBRANCH   7   8
ENDBRANCH   6   7
ENDBRANCH   5   6
ENDBRANCH   4   5
ENDBRANCH   3   4
ENDBRANCH   2   3
ENDBRANCH   1   2
BRANCH   1  15
ATOM     15  C   UNL     1      16.766  -6.930   6.140  1.00  0.00     0.000 C 
BRANCH  15  16
ATOM     16  C   UNL     1      16.302  -7.240   4.705  1.00  0.00     0.000 C 
BRANCH  16  17
ATOM     17  C   UNL     1      17.359  -8.005   3.894  1.00  0.00     0.000 C 
BRANCH  17  18
ATOM     18  C   UNL     1      17.381  -9.510   4.221  1.00  0.00    -0.000 C 
BRANCH  18  19
ATOM     19  C   UNL     1      18.081  -9.813   5.555  1.00  0.00    -0.000 C 
BRANCH  19  20
ATOM     20  C   UNL     1      19.614  -9.720   5.450  1.00  0.00    -0.000 C 
BRANCH  20  21
ATOM     21  C   UNL     1      20.074  -8.665   4.430  1.00  0.00    -0.000 C 
BRANCH  21  22
ATOM     22  C   UNL     1      21.494  -8.147   4.714  1.00  0.00    -0.000 C 
BRANCH  22  23
ATOM     23  C   UNL     1      21.838  -6.892   3.897  1.00  0.00    -0.000 C 
BRANCH  23  24
ATOM     24  C   UNL     1      21.500  -5.587   4.638  1.00  0.00    -0.000 C 
BRANCH  24  25
ATOM     25  C   UNL     1      20.363  -4.805   3.964  1.00  0.00    -0.003 C 
ATOM     26  C   UNL     1      20.650  -3.306   3.876  1.00  0.00     0.004 C 
ENDBRANCH  24  25
ENDBRANCH  23  24
ENDBRANCH  22  23
ENDBRANCH  21  22
ENDBRANCH  20  21
ENDBRANCH  19  20
ENDBRANCH  18  19
ENDBRANCH  17  18
ENDBRANCH  16  17
ENDBRANCH  15  16
ENDBRANCH   1  15
TORSDOF 22
ENDMDL
MODEL 7
REMARK VINA RESULT:    -2.064      4.251     11.247
REMARK INTER + INTRA:          -6.638
REMARK INTER:                  -5.578
REMARK INTRA:                  -1.060
REMARK UNBOUND:                -1.918
REMARK SMILES CCCCCCCCCCCCCCCCCCCCCCCC(=O)[O-]
REMARK SMILES IDX 13 1 14 2 15 3 16 4 17 5 18 6 19 7 20 8 21 9 22 10 23 11
REMARK SMILES IDX 24 12 25 13 26 14 12 15 11 16 10 17 9 18 8 19 7 20 6 21 5 22
REMARK SMILES IDX 4 23 3 24 2 25 1 26
REMARK H PARENT
REMARK Flexibility Score: inf
ROOT
ATOM      1  C   UNL     1      14.783  -7.838   6.662  1.00  0.00     0.000 C 
ENDROOT
BRANCH   1   2
ATOM      2  C   UNL     1      13.401  -8.439   6.958  1.00  0.00     0.000 C 
BRANCH   2   3
ATOM      3  C   UNL     1      12.664  -8.782   5.657  1.00  0.00     0.000 C 
BRANCH   3   4
ATOM      4  C   UNL     1      11.737  -7.633   5.229  1.00  0.00     0.000 C 
BRANCH   4   5
ATOM      5  C   UNL     1      11.031  -7.913   3.893  1.00  0.00     0.000 C 
BRANCH   5   6
ATOM      6  C   UNL     1       9.755  -8.756   4.062  1.00  0.00     0.000 C 
BRANCH   6   7
ATOM      7  C   UNL     1       9.249  -8.774   5.513  1.00  0.00     0.000 C 
BRANCH   7   8
ATOM      8  C   UNL     1       7.737  -9.023   5.608  1.00  0.00     0.000 C 
BRANCH   8   9
ATOM      9  C   UNL     1       7.088  -9.005   4.219  1.00  0.00     0.000 C 
BRANCH   9  10
ATOM     10  C   UNL     1       6.143  -7.804   4.067  1.00  0.00     0.006 C 
BRANCH  10  11
ATOM     11  C   UNL     1       4.983  -7.849   5.070  1.00  0.00     0.053 C 
BRANCH  11  12
ATOM     12  C   UNL     1       4.334  -9.198   5.109  1.00  0.00     0.041 C 
ATOM     13  O   UNL     1       3.424  -9.488   4.290  1.00  0.00    -0.550 OA
ATOM     14  O   UNL     1       4.714 -10.125   6.072  1.00  0.00    -0.550 OA
ENDBRANCH  11  12
ENDBRANCH  10  11
ENDBRANCH   9  10
ENDBRANCH   8   9
ENDBRANCH   7   8
ENDBRANCH   6   7
ENDBRANCH   5   6
ENDBRANCH   4   5
ENDBRANCH   3   4
ENDBRANCH   2   3
ENDBRANCH   1   2
BRANCH   1  15
ATOM     15  C   UNL     1      15.869  -8.907   6.467  1.00  0.00     0.000 C 
BRANCH  15  16
ATOM     16  C   UNL     1      15.467  -9.975   5.433  1.00  0.00     0.000 C 
BRANCH  16  17
ATOM     17  C   UNL     1      15.838  -9.575   3.997  1.00  0.00     0.000 C 
BRANCH  17  18
ATOM     18  C   UNL     1      17.278  -9.041   3.884  1.00  0.00    -0.000 C 
BRANCH  18  19
ATOM     19  C   UNL     1      18.333 -10.124   4.156  1.00  0.00    -0.000 C 
BRANCH  19  20
ATOM     20  C   UNL     1      18.952 -10.005   5.560  1.00  0.00    -0.000 C 
BRANCH  20  21
ATOM     21  C   UNL     1      20.002  -8.885   5.650  1.00  0.00    -0.000 C 
BRANCH  21  22
ATOM     22  C   UNL     1      19.577  -7.750   6.596  1.00  0.00    -0.000 C 
BRANCH  22  23
ATOM     23  C   UNL     1      19.032  -6.527   5.841  1.00  0.00    -0.000 C 
BRANCH  23  24
ATOM     24  C   UNL     1      19.918  -6.119   4.650  1.00  0.00    -0.000 C 
BRANCH  24  25
ATOM     25  C   UNL     1      20.975  -5.073   5.034  1.00  0.00    -0.003 C 
ATOM     26  C   UNL     1      20.839  -3.777   4.236  1.00  0.00     0.004 C 
ENDBRANCH  24  25
ENDBRANCH  23  24
ENDBRANCH  22  23
ENDBRANCH  21  22
ENDBRANCH  20  21
ENDBRANCH  19  20
ENDBRANCH  18  19
ENDBRANCH  17  18
ENDBRANCH  16  17
ENDBRANCH  15  16
ENDBRANCH   1  15
TORSDOF 22
ENDMDL
MODEL 8
REMARK VINA RESULT:    -1.831      4.232     11.661
REMARK INTER + INTRA:          -6.104
REMARK INTER:                  -5.034
REMARK INTRA:                  -1.070
REMARK UNBOUND:                -1.918
REMARK SMILES CCCCCCCCCCCCCCCCCCCCCCCC(=O)[O-]
REMARK SMILES IDX 13 1 14 2 15 3 16 4 17 5 18 6 19 7 20 8 21 9 22 10 23 11
REMARK SMILES IDX 24 12 25 13 26 14 12 15 11 16 10 17 9 18 8 19 7 20 6 21 5 22
REMARK SMILES IDX 4 23 3 24 2 25 1 26
REMARK H PARENT
REMARK Flexibility Score: inf
ROOT
ATOM      1  C   UNL     1      15.169  -8.183   6.381  1.00  0.00     0.000 C 
ENDROOT
BRANCH   1   2
ATOM      2  C   UNL     1      14.086  -7.695   7.354  1.00  0.00     0.000 C 
BRANCH   2   3
ATOM      3  C   UNL     1      12.776  -8.466   7.146  1.00  0.00     0.000 C 
BRANCH   3   4
ATOM      4  C   UNL     1      11.966  -7.873   5.982  1.00  0.00     0.000 C 
BRANCH   4   5
ATOM      5  C   UNL     1      11.688  -8.901   4.874  1.00  0.00     0.000 C 
BRANCH   5   6
ATOM      6  C   UNL     1      10.412  -8.581   4.077  1.00  0.00     0.000 C 
BRANCH   6   7
ATOM      7  C   UNL     1       9.375  -9.714   4.145  1.00  0.00     0.000 C 
BRANCH   7   8
ATOM      8  C   UNL     1       7.963  -9.203   4.466  1.00  0.00     0.000 C 
BRANCH   8   9
ATOM      9  C   UNL     1       8.011  -8.052   5.477  1.00  0.00     0.000 C 
BRANCH   9  10
ATOM     10  C   UNL     1       6.672  -7.300   5.520  1.00  0.00     0.006 C 
BRANCH  10  11
ATOM     11  C   UNL     1       5.510  -8.156   4.999  1.00  0.00     0.053 C 
BRANCH  11  12
ATOM     12  C   UNL     1       4.284  -7.333   4.746  1.00  0.00     0.041 C 
ATOM     13  O   UNL     1       3.173  -7.892   4.554  1.00  0.00    -0.550 OA
ATOM     14  O   UNL     1       4.376  -5.948   4.691  1.00  0.00    -0.550 OA
ENDBRANCH  11  12
ENDBRANCH  10  11
ENDBRANCH   9  10
ENDBRANCH   8   9
ENDBRANCH   7   8
ENDBRANCH   6   7
ENDBRANCH   5   6
ENDBRANCH   4   5
ENDBRANCH   3   4
ENDBRANCH   2   3
ENDBRANCH   1   2
BRANCH   1  15
ATOM     15  C   UNL     1      15.863  -7.032   5.637  1.00  0.00     0.000 C 
BRANCH  15  16
ATOM     16  C   UNL     1      17.009  -6.406   6.453  1.00  0.00     0.000 C 
BRANCH  16  17
ATOM     17  C   UNL     1      17.483  -7.315   7.598  1.00  0.00     0.000 C 
BRANCH  17  18
ATOM     18  C   UNL     1      18.940  -7.780   7.421  1.00  0.00    -0.000 C 
BRANCH  18  19
ATOM     19  C   UNL     1      19.585  -7.223   6.142  1.00  0.00    -0.000 C 
BRANCH  19  20
ATOM     20  C   UNL     1      19.706  -8.282   5.033  1.00  0.00    -0.000 C 
BRANCH  20  21
ATOM     21  C   UNL     1      20.610  -7.825   3.875  1.00  0.00    -0.000 C 
BRANCH  21  22
ATOM     22  C   UNL     1      22.075  -7.639   4.307  1.00  0.00    -0.000 C 
BRANCH  22  23
ATOM     23  C   UNL     1      22.509  -6.164   4.293  1.00  0.00    -0.000 C 
BRANCH  23  24
ATOM     24  C   UNL     1      21.355  -5.200   4.616  1.00  0.00    -0.000 C 
BRANCH  24  25
ATOM     25  C   UNL     1      21.481  -3.860   3.875  1.00  0.00    -0.003 C 
ATOM     26  C   UNL     1      20.264  -2.959   4.075  1.00  0.00     0.004 C 
ENDBRANCH  24  25
ENDBRANCH  23  24
ENDBRANCH  22  23
ENDBRANCH  21  22
ENDBRANCH  20  21
ENDBRANCH  19  20
ENDBRANCH  18  19
ENDBRANCH  17  18
ENDBRANCH  16  17
ENDBRANCH  15  16
ENDBRANCH   1  15
TORSDOF 22
ENDMDL
MODEL 9
REMARK VINA RESULT:    -1.804      1.616      3.566
REMARK INTER + INTRA:          -6.042
REMARK INTER:                  -5.416
REMARK INTRA:                  -0.625
REMARK UNBOUND:                -1.918
REMARK SMILES CCCCCCCCCCCCCCCCCCCCCCCC(=O)[O-]
REMARK SMILES IDX 13 1 14 2 15 3 16 4 17 5 18 6 19 7 20 8 21 9 22 10 23 11
REMARK SMILES IDX 24 12 25 13 26 14 12 15 11 16 10 17 9 18 8 19 7 20 6 21 5 22
REMARK SMILES IDX 4 23 3 24 2 25 1 26
REMARK H PARENT
REMARK Flexibility Score: inf
ROOT
ATOM      1  C   UNL     1      10.612  -7.926   5.150  1.00  0.00     0.000 C 
ENDROOT
BRANCH   1   2
ATOM      2  C   UNL     1      11.634  -7.499   6.215  1.00  0.00     0.000 C 
BRANCH   2   3
ATOM      3  C   UNL     1      12.818  -8.472   6.257  1.00  0.00     0.000 C 
BRANCH   3   4
ATOM      4  C   UNL     1      13.334  -8.775   4.842  1.00  0.00     0.000 C 
BRANCH   4   5
ATOM      5  C   UNL     1      14.090 -10.111   4.763  1.00  0.00     0.000 C 
BRANCH   5   6
ATOM      6  C   UNL     1      15.390 -10.009   3.947  1.00  0.00     0.000 C 
BRANCH   6   7
ATOM      7  C   UNL     1      16.647 -10.125   4.823  1.00  0.00     0.000 C 
BRANCH   7   8
ATOM      8  C   UNL     1      17.586  -8.920   4.670  1.00  0.00     0.000 C 
BRANCH   8   9
ATOM      9  C   UNL     1      16.830  -7.603   4.884  1.00  0.00     0.000 C 
BRANCH   9  10
ATOM     10  C   UNL     1      17.564  -6.703   5.890  1.00  0.00     0.006 C 
BRANCH  10  11
ATOM     11  C   UNL     1      18.939  -7.266   6.275  1.00  0.00     0.053 C 
BRANCH  11  12
ATOM     12  C   UNL     1      19.011  -7.604   7.733  1.00  0.00     0.041 C 
ATOM     13  O   UNL     1      19.683  -8.595   8.121  1.00  0.00    -0.550 OA
ATOM     14  O   UNL     1      18.310  -6.842   8.659  1.00  0.00    -0.550 OA
ENDBRANCH  11  12
ENDBRANCH  10  11
ENDBRANCH   9  10
ENDBRANCH   8   9
ENDBRANCH   7   8
ENDBRANCH   6   7
ENDBRANCH   5   6
ENDBRANCH   4   5
ENDBRANCH   3   4
ENDBRANCH   2   3
ENDBRANCH   1   2
BRANCH   1  15
ATOM     15  C   UNL     1       9.976  -9.292   5.449  1.00  0.00     0.000 C 
BRANCH  15  16
ATOM     16  C   UNL     1       9.257  -9.890   4.227  1.00  0.00     0.000 C 
BRANCH  16  17
ATOM     17  C   UNL     1       7.964  -9.136   3.875  1.00  0.00     0.000 C 
BRANCH  17  18
ATOM     18  C   UNL     1       7.684  -7.963   4.832  1.00  0.00    -0.000 C 
BRANCH  18  19
ATOM     19  C   UNL     1       6.500  -8.238   5.771  1.00  0.00    -0.000 C 
BRANCH  19  20
ATOM     20  C   UNL     1       6.150  -9.734   5.857  1.00  0.00    -0.000 C 
BRANCH  20  21
ATOM     21  C   UNL     1       4.649  -9.977   6.085  1.00  0.00    -0.000 C 
BRANCH  21  22
ATOM     22  C   UNL     1       3.827  -9.854   4.790  1.00  0.00    -0.000 C 
BRANCH  22  23
ATOM     23  C   UNL     1       4.145  -8.568   4.011  1.00  0.00    -0.000 C 
BRANCH  23  24
ATOM     24  C   UNL     1       3.407  -7.338   4.566  1.00  0.00    -0.000 C 
BRANCH  24  25
ATOM     25  C   UNL     1       4.261  -6.062   4.506  1.00  0.00    -0.003 C 
ATOM     26  C   UNL     1       3.422  -4.799   4.323  1.00  0.00     0.004 C 
ENDBRANCH  24  25
ENDBRANCH  23  24
ENDBRANCH  22  23
ENDBRANCH  21  22
ENDBRANCH  20  21
ENDBRANCH  19  20
ENDBRANCH  18  19
ENDBRANCH  17  18
ENDBRANCH  16  17
ENDBRANCH  15  16
ENDBRANCH   1  15
TORSDOF 22
ENDMDL
