MODEL 1
REMARK VINA RESULT:    -2.423      0.000      0.000
REMARK INTER + INTRA:          -7.208
REMARK INTER:                  -6.106
REMARK INTRA:                  -1.102
REMARK UNBOUND:                -1.102
REMARK SMILES CCCCCCCCCCCCCCCCCCCCCCCCCCCC(=O)[O-]
REMARK SMILES IDX 15 1 16 2 17 3 18 4 19 5 20 6 21 7 22 8 23 9 24 10 25 11
REMARK SMILES IDX 26 12 27 13 28 14 29 15 30 16 14 17 13 18 12 19 11 20 10 21
REMARK SMILES IDX 9 22 8 23 7 24 6 25 5 26 4 27 3 28 2 29 1 30
REMARK H PARENT
REMARK Flexibility Score: inf
ROOT
ATOM      1  C   UNL     1      13.375  -8.190   7.815  1.00  0.00     0.000 C 
ENDROOT
BRANCH   1   2
ATOM      2  C   UNL     1      14.412  -7.907   6.712  1.00  0.00     0.000 C 
BRANCH   2   3
ATOM      3  C   UNL     1      15.424  -9.051   6.536  1.00  0.00     0.000 C 
BRANCH   3   4
ATOM      4  C   UNL     1      15.526  -9.532   5.077  1.00  0.00     0.000 C 
BRANCH   4   5
ATOM      5  C   UNL     1      16.402  -8.610   4.212  1.00  0.00     0.000 C 
BRANCH   5   6
ATOM      6  C   UNL     1      16.539  -7.201   4.814  1.00  0.00     0.000 C 
BRANCH   6   7
ATOM      7  C   UNL     1      17.695  -6.393   4.196  1.00  0.00     0.000 C 
BRANCH   7   8
ATOM      8  C   UNL     1      18.962  -7.208   3.876  1.00  0.00     0.000 C 
BRANCH   8   9
ATOM      9  C   UNL     1      20.077  -7.016   4.915  1.00  0.00     0.000 C 
BRANCH   9  10
ATOM     10  C   UNL     1      20.584  -8.368   5.439  1.00  0.00     0.000 C 
BRANCH  10  11
ATOM     11  C   UNL     1      19.527  -9.479   5.336  1.00  0.00     0.000 C 
BRANCH  11  12
ATOM     12  C   UNL     1      19.184 -10.106   6.699  1.00  0.00     0.006 C 
BRANCH  12  13
ATOM     13  C   UNL     1      20.244  -9.796   7.764  1.00  0.00     0.053 C 
BRANCH  13  14
ATOM     14  C   UNL     1      19.649  -9.111   8.956  1.00  0.00     0.041 C 
ATOM     15  O   UNL     1      19.299  -7.903   8.884  1.00  0.00    -0.550 OA
ATOM     16  O   UNL     1      19.540  -9.788  10.163  1.00  0.00    -0.550 OA
ENDBRANCH  13  14
ENDBRANCH  12  13
ENDBRANCH  11  12
ENDBRANCH  10  11
ENDBRANCH   9  10
ENDBRANCH   8   9
ENDBRANCH   7   8
ENDBRANCH   6   7
ENDBRANCH   5   6
ENDBRANCH   4   5
ENDBRANCH   3   4
ENDBRANCH   2   3
ENDBRANCH   1   2
BRANCH   1  17
ATOM     17  C   UNL     1      12.037  -8.695   7.249  1.00  0.00     0.000 C 
BRANCH  17  18
ATOM     18  C   UNL     1      11.560  -7.887   6.030  1.00  0.00     0.000 C 
BRANCH  18  19
ATOM     19  C   UNL     1      12.215  -8.375   4.720  1.00  0.00     0.000 C 
BRANCH  19  20
ATOM     20  C   UNL     1      11.643  -9.704   4.199  1.00  0.00     0.000 C 
BRANCH  20  21
ATOM     21  C   UNL     1      10.143  -9.621   3.875  1.00  0.00     0.000 C 
BRANCH  21  22
ATOM     22  C   UNL     1       9.252 -10.090   5.041  1.00  0.00    -0.000 C 
BRANCH  22  23
ATOM     23  C   UNL     1       7.741 -10.121   4.740  1.00  0.00    -0.000 C 
BRANCH  23  24
ATOM     24  C   UNL     1       6.822 -10.088   5.977  1.00  0.00    -0.000 C 
BRANCH  24  25
ATOM     25  C   UNL     1       7.253  -9.062   7.048  1.00  0.00    -0.000 C 
BRANCH  25  26
ATOM     26  C   UNL     1       6.960  -7.610   6.629  1.00  0.00    -0.000 C 
BRANCH  26  27
ATOM     27  C   UNL     1       6.412  -7.496   5.195  1.00  0.00    -0.000 C 
BRANCH  27  28
ATOM     28  C   UNL     1       4.901  -7.220   5.096  1.00  0.00    -0.000 C 
BRANCH  28  29
ATOM     29  C   UNL     1       4.548  -6.196   4.006  1.00  0.00    -0.003 C 
ATOM     30  C   UNL     1       3.869  -4.968   4.605  1.00  0.00     0.004 C 
ENDBRANCH  28  29
ENDBRANCH  27  28
ENDBRANCH  26  27
ENDBRANCH  25  26
ENDBRANCH  24  25
ENDBRANCH  23  24
ENDBRANCH  22  23
ENDBRANCH  21  22
ENDBRANCH  20  21
ENDBRANCH  19  20
ENDBRANCH  18  19
ENDBRANCH  17  18
ENDBRANCH   1  17
TORSDOF 26
ENDMDL
MODEL 2
REMARK VINA RESULT:    -1.595      1.782      3.127
REMARK INTER + INTRA:          -5.121
REMARK INTER:                  -3.619
REMARK INTRA:                  -1.502
REMARK UNBOUND:                -1.102
REMARK SMILES CCCCCCCCCCCCCCCCCCCCCCCCCCCC(=O)[O-]
REMARK SMILES IDX 15 1 16 2 17 3 18 4 19 5 20 6 21 7 22 8 23 9 24 10 25 11
REMARK SMILES IDX 26 12 27 13 28 14 29 15 30 16 14 17 13 18 12 19 11 20 10 21
REMARK SMILES IDX 9 22 8 23 7 24 6 25 5 26 4 27 3 28 2 29 1 30
REMARK H PARENT
REMARK Flexibility Score: inf
ROOT
ATOM      1  C   UNL     1      16.767  -6.733   8.048  1.00  0.00     0.000 C 
ENDROOT
BRANCH   1   2
ATOM      2  C   UNL     1      18.266  -6.824   7.711  1.00  0.00     0.000 C 
BRANCH   2   3
ATOM      3  C   UNL     1      19.168  -6.385   8.877  1.00  0.00     0.000 C 
BRANCH   3   4
ATOM      4  C   UNL     1      19.927  -5.079   8.579  1.00  0.00     0.000 C 
BRANCH   4   5
ATOM      5  C   UNL     1      20.119  -4.839   7.072  1.00  0.00     0.000 C 
BRANCH   5   6
ATOM      6  C   UNL     1      20.716  -6.063   6.356  1.00  0.00     0.000 C 
BRANCH   6   7
ATOM      7  C   UNL     1      21.047  -5.792   4.878  1.00  0.00     0.000 C 
BRANCH   7   8
ATOM      8  C   UNL     1      19.962  -6.226   3.875  1.00  0.00     0.000 C 
BRANCH   8   9
ATOM      9  C   UNL     1      18.646  -6.637   4.555  1.00  0.00     0.000 C 
BRANCH   9  10
ATOM     10  C   UNL     1      18.276  -8.088   4.214  1.00  0.00     0.000 C 
BRANCH  10  11
ATOM     11  C   UNL     1      19.503  -8.950   3.875  1.00  0.00     0.000 C 
BRANCH  11  12
ATOM     12  C   UNL     1      19.702 -10.119   4.855  1.00  0.00     0.006 C 
BRANCH  12  13
ATOM     13  C   UNL     1      18.839  -9.974   6.115  1.00  0.00     0.053 C 
BRANCH  13  14
ATOM     14  C   UNL     1      19.676  -9.753   7.338  1.00  0.00     0.041 C 
ATOM     15  O   UNL     1      20.853  -9.317   7.230  1.00  0.00    -0.550 OA
ATOM     16  O   UNL     1      19.180 -10.090   8.590  1.00  0.00    -0.550 OA
ENDBRANCH  13  14
ENDBRANCH  12  13
ENDBRANCH  11  12
ENDBRANCH  10  11
ENDBRANCH   9  10
ENDBRANCH   8   9
ENDBRANCH   7   8
ENDBRANCH   6   7
ENDBRANCH   5   6
ENDBRANCH   4   5
ENDBRANCH   3   4
ENDBRANCH   2   3
ENDBRANCH   1   2
BRANCH   1  17
ATOM     17  C   UNL     1      15.876  -6.836   6.798  1.00  0.00     0.000 C 
BRANCH  17  18
ATOM     18  C   UNL     1      15.125  -8.176   6.707  1.00  0.00     0.000 C 
BRANCH  18  19
ATOM     19  C   UNL     1      14.368  -8.324   5.370  1.00  0.00     0.000 C 
BRANCH  19  20
ATOM     20  C   UNL     1      12.973  -8.954   5.514  1.00  0.00     0.000 C 
BRANCH  20  21
ATOM     21  C   UNL     1      12.523  -9.700   4.247  1.00  0.00     0.000 C 
BRANCH  21  22
ATOM     22  C   UNL     1      11.037  -9.470   3.914  1.00  0.00    -0.000 C 
BRANCH  22  23
ATOM     23  C   UNL     1      10.421  -8.191   4.515  1.00  0.00    -0.000 C 
BRANCH  23  24
ATOM     24  C   UNL     1       8.883  -8.110   4.457  1.00  0.00    -0.000 C 
BRANCH  24  25
ATOM     25  C   UNL     1       8.169  -9.141   5.358  1.00  0.00    -0.000 C 
BRANCH  25  26
ATOM     26  C   UNL     1       6.946  -8.549   6.082  1.00  0.00    -0.000 C 
BRANCH  26  27
ATOM     27  C   UNL     1       6.568  -7.146   5.574  1.00  0.00    -0.000 C 
BRANCH  27  28
ATOM     28  C   UNL     1       5.713  -7.127   4.294  1.00  0.00    -0.000 C 
BRANCH  28  29
ATOM     29  C   UNL     1       4.236  -6.803   4.562  1.00  0.00    -0.003 C 
ATOM     30  C   UNL     1       3.991  -5.297   4.548  1.00  0.00     0.004 C 
ENDBRANCH  28  29
ENDBRANCH  27  28
ENDBRANCH  26  27
ENDBRANCH  25  26
ENDBRANCH  24  25
ENDBRANCH  23  24
ENDBRANCH  22  23
ENDBRANCH  21  22
ENDBRANCH  20  21
ENDBRANCH  19  20
ENDBRANCH  18  19
ENDBRANCH  17  18
ENDBRANCH   1  17
TORSDOF 26
ENDMDL
MODEL 3
REMARK VINA RESULT:    -1.583      4.602     11.682
REMARK INTER + INTRA:          -5.091
REMARK INTER:                  -3.968
REMARK INTRA:                  -1.124
REMARK UNBOUND:                -1.102
REMARK SMILES CCCCCCCCCCCCCCCCCCCCCCCCCCCC(=O)[O-]
REMARK SMILES IDX 15 1 16 2 17 3 18 4 19 5 20 6 21 7 22 8 23 9 24 10 25 11
REMARK SMILES IDX 26 12 27 13 28 14 29 15 30 16 14 17 13 18 12 19 11 20 10 21
REMARK SMILES IDX 9 22 8 23 7 24 6 25 5 26 4 27 3 28 2 29 1 30
REMARK H PARENT
REMARK Flexibility Score: inf
ROOT
ATOM      1  C   UNL     1      17.274  -6.793   7.510  1.00  0.00     0.000 C 
ENDROOT
BRANCH   1   2
ATOM      2  C   UNL     1      16.832  -7.510   6.222  1.00  0.00     0.000 C 
BRANCH   2   3
ATOM      3  C   UNL     1      15.538  -6.928   5.628  1.00  0.00     0.000 C 
BRANCH   3   4
ATOM      4  C   UNL     1      14.351  -7.904   5.724  1.00  0.00     0.000 C 
BRANCH   4   5
ATOM      5  C   UNL     1      13.798  -8.297   4.344  1.00  0.00     0.000 C 
BRANCH   5   6
ATOM      6  C   UNL     1      13.459  -9.795   4.255  1.00  0.00     0.000 C 
BRANCH   6   7
ATOM      7  C   UNL     1      11.973 -10.058   3.952  1.00  0.00     0.000 C 
BRANCH   7   8
ATOM      8  C   UNL     1      10.980  -9.334   4.881  1.00  0.00     0.000 C 
BRANCH   8   9
ATOM      9  C   UNL     1       9.824  -8.666   4.120  1.00  0.00     0.000 C 
BRANCH   9  10
ATOM     10  C   UNL     1       8.469  -9.015   4.753  1.00  0.00     0.000 C 
BRANCH  10  11
ATOM     11  C   UNL     1       7.648  -7.769   5.125  1.00  0.00     0.000 C 
BRANCH  11  12
ATOM     12  C   UNL     1       6.239  -8.113   5.637  1.00  0.00     0.006 C 
BRANCH  12  13
ATOM     13  C   UNL     1       5.151  -7.284   4.943  1.00  0.00     0.053 C 
BRANCH  13  14
ATOM     14  C   UNL     1       3.888  -8.070   4.756  1.00  0.00     0.041 C 
ATOM     15  O   UNL     1       2.898  -7.549   4.176  1.00  0.00    -0.550 OA
ATOM     16  O   UNL     1       3.784  -9.351   5.279  1.00  0.00    -0.550 OA
ENDBRANCH  13  14
ENDBRANCH  12  13
ENDBRANCH  11  12
ENDBRANCH  10  11
ENDBRANCH   9  10
ENDBRANCH   8   9
ENDBRANCH   7   8
ENDBRANCH   6   7
ENDBRANCH   5   6
ENDBRANCH   4   5
ENDBRANCH   3   4
ENDBRANCH   2   3
ENDBRANCH   1   2
BRANCH   1  17
ATOM     17  C   UNL     1      18.803  -6.764   7.671  1.00  0.00     0.000 C 
BRANCH  17  18
ATOM     18  C   UNL     1      19.271  -5.813   8.786  1.00  0.00     0.000 C 
BRANCH  18  19
ATOM     19  C   UNL     1      20.134  -4.657   8.236  1.00  0.00     0.000 C 
BRANCH  19  20
ATOM     20  C   UNL     1      20.324  -4.698   6.710  1.00  0.00     0.000 C 
BRANCH  20  21
ATOM     21  C   UNL     1      21.355  -5.749   6.268  1.00  0.00     0.000 C 
BRANCH  21  22
ATOM     22  C   UNL     1      21.615  -5.729   4.750  1.00  0.00    -0.000 C 
BRANCH  22  23
ATOM     23  C   UNL     1      20.496  -6.343   3.885  1.00  0.00    -0.000 C 
BRANCH  23  24
ATOM     24  C   UNL     1      19.535  -7.293   4.627  1.00  0.00    -0.000 C 
BRANCH  24  25
ATOM     25  C   UNL     1      19.261  -8.614   3.876  1.00  0.00    -0.000 C 
BRANCH  25  26
ATOM     26  C   UNL     1      18.773  -9.736   4.810  1.00  0.00    -0.000 C 
BRANCH  26  27
ATOM     27  C   UNL     1      19.814 -10.125   5.876  1.00  0.00    -0.000 C 
BRANCH  27  28
ATOM     28  C   UNL     1      19.298 -10.103   7.327  1.00  0.00    -0.000 C 
BRANCH  28  29
ATOM     29  C   UNL     1      20.316  -9.516   8.317  1.00  0.00    -0.003 C 
ATOM     30  C   UNL     1      19.852  -9.707   9.759  1.00  0.00     0.004 C 
ENDBRANCH  28  29
ENDBRANCH  27  28
ENDBRANCH  26  27
ENDBRANCH  25  26
ENDBRANCH  24  25
ENDBRANCH  23  24
ENDBRANCH  22  23
ENDBRANCH  21  22
ENDBRANCH  20  21
ENDBRANCH  19  20
ENDBRANCH  18  19
ENDBRANCH  17  18
ENDBRANCH   1  17
TORSDOF 26
ENDMDL
MODEL 4
REMARK VINA RESULT:    -1.424      4.536     11.798
REMARK INTER + INTRA:          -4.691
REMARK INTER:                  -3.134
REMARK INTRA:                  -1.557
REMARK UNBOUND:                -1.102
REMARK SMILES CCCCCCCCCCCCCCCCCCCCCCCCCCCC(=O)[O-]
REMARK SMILES IDX 15 1 16 2 17 3 18 4 19 5 20 6 21 7 22 8 23 9 24 10 25 11
REMARK SMILES IDX 26 12 27 13 28 14 29 15 30 16 14 17 13 18 12 19 11 20 10 21
REMARK SMILES IDX 9 22 8 23 7 24 6 25 5 26 4 27 3 28 2 29 1 30
REMARK H PARENT
REMARK Flexibility Score: inf
ROOT
ATOM      1  C   UNL     1      15.664  -7.154   6.801  1.00  0.00     0.000 C 
ENDROOT
BRANCH   1   2
ATOM      2  C   UNL     1      14.395  -8.025   6.825  1.00  0.00     0.000 C 
BRANCH   2   3
ATOM      3  C   UNL     1      13.314  -7.532   5.849  1.00  0.00     0.000 C 
BRANCH   3   4
ATOM      4  C   UNL     1      12.062  -8.429   5.849  1.00  0.00     0.000 C 
BRANCH   4   5
ATOM      5  C   UNL     1      11.359  -8.459   4.481  1.00  0.00     0.000 C 
BRANCH   5   6
ATOM      6  C   UNL     1      10.530  -9.740   4.278  1.00  0.00     0.000 C 
BRANCH   6   7
ATOM      7  C   UNL     1       9.064  -9.454   3.907  1.00  0.00     0.000 C 
BRANCH   7   8
ATOM      8  C   UNL     1       8.018 -10.125   4.815  1.00  0.00     0.000 C 
BRANCH   8   9
ATOM      9  C   UNL     1       6.762  -9.264   5.023  1.00  0.00     0.000 C 
BRANCH   9  10
ATOM     10  C   UNL     1       6.769  -8.041   4.094  1.00  0.00     0.000 C 
BRANCH  10  11
ATOM     11  C   UNL     1       6.693  -6.711   4.862  1.00  0.00     0.000 C 
BRANCH  11  12
ATOM     12  C   UNL     1       5.565  -6.688   5.907  1.00  0.00     0.006 C 
BRANCH  12  13
ATOM     13  C   UNL     1       4.697  -5.428   5.797  1.00  0.00     0.053 C 
BRANCH  13  14
ATOM     14  C   UNL     1       3.849  -5.444   4.561  1.00  0.00     0.041 C 
ATOM     15  O   UNL     1       3.646  -6.525   3.946  1.00  0.00    -0.550 OA
ATOM     16  O   UNL     1       3.337  -4.257   4.055  1.00  0.00    -0.550 OA
ENDBRANCH  13  14
ENDBRANCH  12  13
ENDBRANCH  11  12
ENDBRANCH  10  11
ENDBRANCH   9  10
ENDBRANCH   8   9
ENDBRANCH   7   8
ENDBRANCH   6   7
ENDBRANCH   5   6
ENDBRANCH   4   5
ENDBRANCH   3   4
ENDBRANCH   2   3
ENDBRANCH   1   2
BRANCH   1  17
ATOM     17  C   UNL     1      16.103  -6.793   5.372  1.00  0.00     0.000 C 
BRANCH  17  18
ATOM     18  C   UNL     1      16.291  -8.028   4.473  1.00  0.00     0.000 C 
BRANCH  18  19
ATOM     19  C   UNL     1      16.525  -9.312   5.297  1.00  0.00     0.000 C 
BRANCH  19  20
ATOM     20  C   UNL     1      17.783 -10.093   4.884  1.00  0.00     0.000 C 
BRANCH  20  21
ATOM     21  C   UNL     1      18.964  -9.869   5.842  1.00  0.00     0.000 C 
BRANCH  21  22
ATOM     22  C   UNL     1      20.332 -10.005   5.146  1.00  0.00    -0.000 C 
BRANCH  22  23
ATOM     23  C   UNL     1      21.102  -8.684   4.952  1.00  0.00    -0.000 C 
BRANCH  23  24
ATOM     24  C   UNL     1      20.498  -7.714   3.918  1.00  0.00    -0.000 C 
BRANCH  24  25
ATOM     25  C   UNL     1      20.940  -6.246   4.106  1.00  0.00    -0.000 C 
BRANCH  25  26
ATOM     26  C   UNL     1      20.959  -5.817   5.585  1.00  0.00    -0.000 C 
BRANCH  26  27
ATOM     27  C   UNL     1      19.622  -6.074   6.302  1.00  0.00    -0.000 C 
BRANCH  27  28
ATOM     28  C   UNL     1      19.641  -5.832   7.822  1.00  0.00    -0.000 C 
BRANCH  28  29
ATOM     29  C   UNL     1      18.511  -6.564   8.562  1.00  0.00    -0.003 C 
ATOM     30  C   UNL     1      19.011  -7.869   9.175  1.00  0.00     0.004 C 
ENDBRANCH  28  29
ENDBRANCH  27  28
ENDBRANCH  26  27
ENDBRANCH  25  26
ENDBRANCH  24  25
ENDBRANCH  23  24
ENDBRANCH  22  23
ENDBRANCH  21  22
ENDBRANCH  20  21
ENDBRANCH  19  20
ENDBRANCH  18  19
ENDBRANCH  17  18
ENDBRANCH   1  17
TORSDOF 26
ENDMDL
MODEL 5
REMARK VINA RESULT:    -1.384      4.083     11.614
REMARK INTER + INTRA:          -4.590
REMARK INTER:                  -4.262
REMARK INTRA:                  -0.328
REMARK UNBOUND:                -1.102
REMARK SMILES CCCCCCCCCCCCCCCCCCCCCCCCCCCC(=O)[O-]
REMARK SMILES IDX 15 1 16 2 17 3 18 4 19 5 20 6 21 7 22 8 23 9 24 10 25 11
REMARK SMILES IDX 26 12 27 13 28 14 29 15 30 16 14 17 13 18 12 19 11 20 10 21
REMARK SMILES IDX 9 22 8 23 7 24 6 25 5 26 4 27 3 28 2 29 1 30
REMARK H PARENT
REMARK Flexibility Score: inf
ROOT
ATOM      1  C   UNL     1      15.747  -7.028   6.264  1.00  0.00     0.000 C 
ENDROOT
BRANCH   1   2
ATOM      2  C   UNL     1      14.412  -7.517   5.674  1.00  0.00     0.000 C 
BRANCH   2   3
ATOM      3  C   UNL     1      14.599  -8.505   4.512  1.00  0.00     0.000 C 
BRANCH   3   4
ATOM      4  C   UNL     1      13.689  -9.742   4.632  1.00  0.00     0.000 C 
BRANCH   4   5
ATOM      5  C   UNL     1      12.266  -9.479   4.110  1.00  0.00     0.000 C 
BRANCH   5   6
ATOM      6  C   UNL     1      11.289  -9.105   5.238  1.00  0.00     0.000 C 
BRANCH   6   7
ATOM      7  C   UNL     1      10.039  -8.366   4.729  1.00  0.00     0.000 C 
BRANCH   7   8
ATOM      8  C   UNL     1       8.790  -8.505   5.620  1.00  0.00     0.000 C 
BRANCH   8   9
ATOM      9  C   UNL     1       8.374  -9.966   5.847  1.00  0.00     0.000 C 
BRANCH   9  10
ATOM     10  C   UNL     1       7.159 -10.058   6.782  1.00  0.00     0.000 C 
BRANCH  10  11
ATOM     11  C   UNL     1       5.822  -9.951   6.031  1.00  0.00     0.000 C 
BRANCH  11  12
ATOM     12  C   UNL     1       5.942  -9.188   4.701  1.00  0.00     0.006 C 
BRANCH  12  13
ATOM     13  C   UNL     1       4.827  -8.150   4.525  1.00  0.00     0.053 C 
BRANCH  13  14
ATOM     14  C   UNL     1       5.094  -6.907   5.318  1.00  0.00     0.041 C 
ATOM     15  O   UNL     1       5.763  -6.968   6.385  1.00  0.00    -0.550 OA
ATOM     16  O   UNL     1       4.552  -5.695   4.915  1.00  0.00    -0.550 OA
ENDBRANCH  13  14
ENDBRANCH  12  13
ENDBRANCH  11  12
ENDBRANCH  10  11
ENDBRANCH   9  10
ENDBRANCH   8   9
ENDBRANCH   7   8
ENDBRANCH   6   7
ENDBRANCH   5   6
ENDBRANCH   4   5
ENDBRANCH   3   4
ENDBRANCH   2   3
ENDBRANCH   1   2
BRANCH   1  17
ATOM     17  C   UNL     1      16.869  -8.069   6.123  1.00  0.00     0.000 C 
BRANCH  17  18
ATOM     18  C   UNL     1      17.474  -8.111   4.709  1.00  0.00     0.000 C 
BRANCH  18  19
ATOM     19  C   UNL     1      17.807  -9.551   4.264  1.00  0.00     0.000 C 
BRANCH  19  20
ATOM     20  C   UNL     1      19.297  -9.776   3.955  1.00  0.00     0.000 C 
BRANCH  20  21
ATOM     21  C   UNL     1      20.093  -8.463   3.881  1.00  0.00     0.000 C 
BRANCH  21  22
ATOM     22  C   UNL     1      21.308  -8.447   4.829  1.00  0.00    -0.000 C 
BRANCH  22  23
ATOM     23  C   UNL     1      22.258  -7.246   4.655  1.00  0.00    -0.000 C 
BRANCH  23  24
ATOM     24  C   UNL     1      21.923  -6.010   5.512  1.00  0.00    -0.000 C 
BRANCH  24  25
ATOM     25  C   UNL     1      20.415  -5.836   5.793  1.00  0.00    -0.000 C 
BRANCH  25  26
ATOM     26  C   UNL     1      20.129  -5.400   7.242  1.00  0.00    -0.000 C 
BRANCH  26  27
ATOM     27  C   UNL     1      19.059  -6.267   7.930  1.00  0.00    -0.000 C 
BRANCH  27  28
ATOM     28  C   UNL     1      19.222  -7.785   7.727  1.00  0.00    -0.000 C 
BRANCH  28  29
ATOM     29  C   UNL     1      19.645  -8.521   9.007  1.00  0.00    -0.003 C 
ATOM     30  C   UNL     1      19.837 -10.012   8.747  1.00  0.00     0.004 C 
ENDBRANCH  28  29
ENDBRANCH  27  28
ENDBRANCH  26  27
ENDBRANCH  25  26
ENDBRANCH  24  25
ENDBRANCH  23  24
ENDBRANCH  22  23
ENDBRANCH  21  22
ENDBRANCH  20  21
ENDBRANCH  19  20
ENDBRANCH  18  19
ENDBRANCH  17  18
ENDBRANCH   1  17
TORSDOF 26
ENDMDL
MODEL 6
REMARK VINA RESULT:    -1.249      1.689      2.602
REMARK INTER + INTRA:          -4.249
REMARK INTER:                  -3.101
REMARK INTRA:                  -1.148
REMARK UNBOUND:                -1.102
REMARK SMILES CCCCCCCCCCCCCCCCCCCCCCCCCCCC(=O)[O-]
REMARK SMILES IDX 15 1 16 2 17 3 18 4 19 5 20 6 21 7 22 8 23 9 24 10 25 11
REMARK SMILES IDX 26 12 27 13 28 14 29 15 30 16 14 17 13 18 12 19 11 20 10 21
REMARK SMILES IDX 9 22 8 23 7 24 6 25 5 26 4 27 3 28 2 29 1 30
REMARK H PARENT
REMARK Flexibility Score: inf
ROOT
ATOM      1  C   UNL     1      10.592  -8.932   4.304  1.00  0.00     0.000 C 
ENDROOT
BRANCH   1   2
ATOM      2  C   UNL     1      11.972  -9.295   4.881  1.00  0.00     0.000 C 
BRANCH   2   3
ATOM      3  C   UNL     1      12.861 -10.044   3.876  1.00  0.00     0.000 C 
BRANCH   3   4
ATOM      4  C   UNL     1      14.332  -9.591   3.932  1.00  0.00     0.000 C 
BRANCH   4   5
ATOM      5  C   UNL     1      14.476  -8.060   3.956  1.00  0.00     0.000 C 
BRANCH   5   6
ATOM      6  C   UNL     1      15.131  -7.555   5.253  1.00  0.00     0.000 C 
BRANCH   6   7
ATOM      7  C   UNL     1      16.167  -6.443   5.009  1.00  0.00     0.000 C 
BRANCH   7   8
ATOM      8  C   UNL     1      17.266  -6.787   3.986  1.00  0.00     0.000 C 
BRANCH   8   9
ATOM      9  C   UNL     1      17.586  -8.289   3.932  1.00  0.00     0.000 C 
BRANCH   9  10
ATOM     10  C   UNL     1      18.901  -8.603   4.661  1.00  0.00     0.000 C 
BRANCH  10  11
ATOM     11  C   UNL     1      19.809  -7.371   4.805  1.00  0.00     0.000 C 
BRANCH  11  12
ATOM     12  C   UNL     1      20.467  -7.273   6.191  1.00  0.00     0.006 C 
BRANCH  12  13
ATOM     13  C   UNL     1      19.673  -8.025   7.267  1.00  0.00     0.053 C 
BRANCH  13  14
ATOM     14  C   UNL     1      18.728  -7.118   7.995  1.00  0.00     0.041 C 
ATOM     15  O   UNL     1      17.483  -7.266   7.867  1.00  0.00    -0.550 OA
ATOM     16  O   UNL     1      19.221  -6.071   8.761  1.00  0.00    -0.550 OA
ENDBRANCH  13  14
ENDBRANCH  12  13
ENDBRANCH  11  12
ENDBRANCH  10  11
ENDBRANCH   9  10
ENDBRANCH   8   9
ENDBRANCH   7   8
ENDBRANCH   6   7
ENDBRANCH   5   6
ENDBRANCH   4   5
ENDBRANCH   3   4
ENDBRANCH   2   3
ENDBRANCH   1   2
BRANCH   1  17
ATOM     17  C   UNL     1      10.477  -7.441   3.946  1.00  0.00     0.000 C 
BRANCH  17  18
ATOM     18  C   UNL     1      11.031  -6.517   5.044  1.00  0.00     0.000 C 
BRANCH  18  19
ATOM     19  C   UNL     1      10.695  -7.035   6.459  1.00  0.00     0.000 C 
BRANCH  19  20
ATOM     20  C   UNL     1       9.293  -7.655   6.575  1.00  0.00     0.000 C 
BRANCH  20  21
ATOM     21  C   UNL     1       9.307  -9.037   7.249  1.00  0.00     0.000 C 
BRANCH  21  22
ATOM     22  C   UNL     1       8.346 -10.037   6.580  1.00  0.00    -0.000 C 
BRANCH  22  23
ATOM     23  C   UNL     1       6.944 -10.123   7.215  1.00  0.00    -0.000 C 
BRANCH  23  24
ATOM     24  C   UNL     1       5.798  -9.540   6.364  1.00  0.00    -0.000 C 
BRANCH  24  25
ATOM     25  C   UNL     1       5.863  -9.938   4.873  1.00  0.00    -0.000 C 
BRANCH  25  26
ATOM     26  C   UNL     1       5.679  -8.734   3.931  1.00  0.00    -0.000 C 
BRANCH  26  27
ATOM     27  C   UNL     1       6.478  -7.496   4.374  1.00  0.00    -0.000 C 
BRANCH  27  28
ATOM     28  C   UNL     1       5.651  -6.405   5.079  1.00  0.00    -0.000 C 
BRANCH  28  29
ATOM     29  C   UNL     1       4.256  -6.217   4.463  1.00  0.00    -0.003 C 
ATOM     30  C   UNL     1       3.759  -4.787   4.655  1.00  0.00     0.004 C 
ENDBRANCH  28  29
ENDBRANCH  27  28
ENDBRANCH  26  27
ENDBRANCH  25  26
ENDBRANCH  24  25
ENDBRANCH  23  24
ENDBRANCH  22  23
ENDBRANCH  21  22
ENDBRANCH  20  21
ENDBRANCH  19  20
ENDBRANCH  18  19
ENDBRANCH  17  18
ENDBRANCH   1  17
TORSDOF 26
ENDMDL
