MODEL 1
REMARK VINA RESULT:    -5.631      0.000      0.000
REMARK INTER + INTRA:         -10.026
REMARK INTER:                  -8.100
REMARK INTRA:                  -1.926
REMARK UNBOUND:                -1.926
REMARK SMILES O=c1c(O[C@@H]2O[C@@H](CO)[C@@H](O)[C@H](O)[C@@H]2O)c(-c2ccc(O)cc2)oc2cc(O)cc(O)c12
REMARK SMILES IDX 4 1 3 2 16 3 24 4 2 5 25 6 1 7 32 8 26 9 30 10 27 11 29 12
REMARK SMILES IDX 17 13 18 14 19 15 20 16 23 17 22 18 21 19 31 21 28 23 5 25
REMARK SMILES IDX 14 26 6 27 12 28 7 29 10 30 15 31 13 33 8 35 9 36 11 38
REMARK H PARENT 21 20 31 22 28 24 15 32 13 34 9 37 11 39
REMARK Flexibility Score: inf
ROOT
ATOM      1  O   UNL     1     125.615 134.249 108.555  1.00  0.00    -0.454 OA
ENDROOT
BRANCH   1   2
ATOM      2  C   UNL     1     126.479 134.884 109.468  1.00  0.00     0.214 A 
ATOM      3  C   UNL     1     126.602 134.516 110.829  1.00  0.00     0.180 A 
ATOM      4  O   UNL     1     127.545 135.075 111.581  1.00  0.00    -0.452 OA
ATOM      5  C   UNL     1     127.296 135.913 108.980  1.00  0.00     0.239 A 
ATOM      6  C   UNL     1     128.372 136.016 111.139  1.00  0.00     0.146 A 
ATOM      7  O   UNL     1     127.160 136.286 107.785  1.00  0.00    -0.285 OA
ATOM      8  C   UNL     1     128.273 136.495 109.813  1.00  0.00     0.111 A 
ATOM      9  C   UNL     1     129.337 136.538 112.007  1.00  0.00     0.094 A 
ATOM     10  C   UNL     1     129.160 137.509 109.377  1.00  0.00     0.134 A 
ATOM     11  C   UNL     1     130.216 137.533 111.572  1.00  0.00     0.123 A 
ATOM     12  C   UNL     1     130.124 138.017 110.262  1.00  0.00     0.093 A 
BRANCH   3  13
ATOM     13  C   UNL     1     125.703 133.557 111.488  1.00  0.00     0.021 A 
ATOM     14  C   UNL     1     126.077 132.211 111.581  1.00  0.00     0.016 A 
ATOM     15  C   UNL     1     125.256 131.299 112.246  1.00  0.00     0.047 A 
ATOM     16  C   UNL     1     124.063 131.724 112.838  1.00  0.00     0.115 A 
ATOM     17  C   UNL     1     124.522 133.991 112.112  1.00  0.00     0.016 A 
ATOM     18  C   UNL     1     123.700 133.074 112.774  1.00  0.00     0.047 A 
BRANCH  16  19
ATOM     19  O   UNL     1     123.252 130.800 113.487  1.00  0.00    -0.508 OA
ATOM     20  H   UNL     1     123.213 129.828 113.206  1.00  0.00     0.293 HD
ENDBRANCH  16  19
ENDBRANCH   3  13
BRANCH  10  21
ATOM     21  O   UNL     1     129.094 138.013 108.077  1.00  0.00    -0.507 OA
ATOM     22  H   UNL     1     129.857 137.892 107.419  1.00  0.00     0.293 HD
ENDBRANCH  10  21
BRANCH  11  23
ATOM     23  O   UNL     1     131.178 138.030 112.448  1.00  0.00    -0.508 OA
ATOM     24  H   UNL     1     131.129 137.856 113.444  1.00  0.00     0.293 HD
ENDBRANCH  11  23
ENDBRANCH   1   2
BRANCH   1  25
ATOM     25  C   UNL     1     124.248 134.608 108.308  1.00  0.00     0.339 C 
ATOM     26  C   UNL     1     123.965 134.648 106.793  1.00  0.00     0.214 C 
ATOM     27  O   UNL     1     123.339 133.759 109.000  1.00  0.00    -0.332 OA
ATOM     28  C   UNL     1     123.883 133.229 106.200  1.00  0.00     0.180 C 
ATOM     29  C   UNL     1     123.410 132.421 108.531  1.00  0.00     0.179 C 
ATOM     30  C   UNL     1     122.963 132.341 107.055  1.00  0.00     0.177 C 
BRANCH  26  31
ATOM     31  O   UNL     1     124.962 135.400 106.147  1.00  0.00    -0.384 OA
ATOM     32  H   UNL     1     125.370 135.993 106.835  1.00  0.00     0.211 HD
ENDBRANCH  26  31
BRANCH  28  33
ATOM     33  O   UNL     1     125.169 132.678 106.123  1.00  0.00    -0.387 OA
ATOM     34  H   UNL     1     125.080 131.704 106.311  1.00  0.00     0.211 HD
ENDBRANCH  28  33
BRANCH  29  35
ATOM     35  C   UNL     1     122.538 131.531 109.427  1.00  0.00     0.191 C 
BRANCH  35  36
ATOM     36  O   UNL     1     121.986 130.490 108.673  1.00  0.00    -0.394 OA
ATOM     37  H   UNL     1     121.712 129.782 109.313  1.00  0.00     0.210 HD
ENDBRANCH  35  36
ENDBRANCH  29  35
BRANCH  30  38
ATOM     38  O   UNL     1     121.636 132.791 106.925  1.00  0.00    -0.387 OA
ATOM     39  H   UNL     1     121.441 132.869 105.949  1.00  0.00     0.211 HD
ENDBRANCH  30  38
ENDBRANCH   1  25
TORSDOF 11
ENDMDL
MODEL 2
REMARK VINA RESULT:    -5.431      1.634      2.729
REMARK INTER + INTRA:          -9.739
REMARK INTER:                  -8.387
REMARK INTRA:                  -1.351
REMARK UNBOUND:                -1.926
REMARK SMILES O=c1c(O[C@@H]2O[C@@H](CO)[C@@H](O)[C@H](O)[C@@H]2O)c(-c2ccc(O)cc2)oc2cc(O)cc(O)c12
REMARK SMILES IDX 4 1 3 2 16 3 24 4 2 5 25 6 1 7 32 8 26 9 30 10 27 11 29 12
REMARK SMILES IDX 17 13 18 14 19 15 20 16 23 17 22 18 21 19 31 21 28 23 5 25
REMARK SMILES IDX 14 26 6 27 12 28 7 29 10 30 15 31 13 33 8 35 9 36 11 38
REMARK H PARENT 21 20 31 22 28 24 15 32 13 34 9 37 11 39
REMARK Flexibility Score: inf
ROOT
ATOM      1  O   UNL     1     123.856 133.103 108.951  1.00  0.00    -0.454 OA
ENDROOT
BRANCH   1   2
ATOM      2  C   UNL     1     124.946 133.944 109.248  1.00  0.00     0.214 A 
ATOM      3  C   UNL     1     125.791 133.778 110.370  1.00  0.00     0.180 A 
ATOM      4  O   UNL     1     126.880 134.530 110.494  1.00  0.00    -0.452 OA
ATOM      5  C   UNL     1     125.232 134.978 108.347  1.00  0.00     0.239 A 
ATOM      6  C   UNL     1     127.212 135.485 109.633  1.00  0.00     0.146 A 
ATOM      7  O   UNL     1     124.458 135.170 107.371  1.00  0.00    -0.285 OA
ATOM      8  C   UNL     1     126.387 135.768 108.520  1.00  0.00     0.111 A 
ATOM      9  C   UNL     1     128.383 136.219 109.846  1.00  0.00     0.094 A 
ATOM     10  C   UNL     1     126.761 136.802 107.628  1.00  0.00     0.134 A 
ATOM     11  C   UNL     1     128.755 137.234 108.960  1.00  0.00     0.123 A 
ATOM     12  C   UNL     1     127.943 137.524 107.857  1.00  0.00     0.093 A 
BRANCH   3  13
ATOM     13  C   UNL     1     125.509 132.827 111.456  1.00  0.00     0.021 A 
ATOM     14  C   UNL     1     124.439 133.069 112.326  1.00  0.00     0.016 A 
ATOM     15  C   UNL     1     124.130 132.151 113.332  1.00  0.00     0.047 A 
ATOM     16  C   UNL     1     124.876 130.976 113.468  1.00  0.00     0.115 A 
ATOM     17  C   UNL     1     126.236 131.632 111.572  1.00  0.00     0.016 A 
ATOM     18  C   UNL     1     125.928 130.716 112.582  1.00  0.00     0.047 A 
BRANCH  16  19
ATOM     19  O   UNL     1     124.562 130.078 114.482  1.00  0.00    -0.508 OA
ATOM     20  H   UNL     1     124.227 130.385 115.387  1.00  0.00     0.293 HD
ENDBRANCH  16  19
ENDBRANCH   3  13
BRANCH  10  21
ATOM     21  O   UNL     1     125.974 137.116 106.519  1.00  0.00    -0.507 OA
ATOM     22  H   UNL     1     126.236 137.851 105.870  1.00  0.00     0.293 HD
ENDBRANCH  10  21
BRANCH  11  23
ATOM     23  O   UNL     1     129.932 137.943 109.184  1.00  0.00    -0.508 OA
ATOM     24  H   UNL     1     130.199 138.727 108.602  1.00  0.00     0.293 HD
ENDBRANCH  11  23
ENDBRANCH   1   2
BRANCH   1  25
ATOM     25  C   UNL     1     122.504 133.532 108.733  1.00  0.00     0.339 C 
ATOM     26  C   UNL     1     121.875 132.760 107.556  1.00  0.00     0.214 C 
ATOM     27  O   UNL     1     121.717 133.438 109.916  1.00  0.00    -0.332 OA
ATOM     28  C   UNL     1     121.538 131.310 107.952  1.00  0.00     0.180 C 
ATOM     29  C   UNL     1     121.564 132.092 110.338  1.00  0.00     0.179 C 
ATOM     30  C   UNL     1     120.776 131.280 109.286  1.00  0.00     0.177 C 
BRANCH  26  31
ATOM     31  O   UNL     1     122.750 132.784 106.455  1.00  0.00    -0.384 OA
ATOM     32  H   UNL     1     123.511 132.180 106.676  1.00  0.00     0.211 HD
ENDBRANCH  26  31
BRANCH  28  33
ATOM     33  O   UNL     1     122.719 130.562 108.039  1.00  0.00    -0.387 OA
ATOM     34  H   UNL     1     123.231 130.917 108.817  1.00  0.00     0.211 HD
ENDBRANCH  28  33
BRANCH  29  35
ATOM     35  C   UNL     1     120.858 132.074 111.701  1.00  0.00     0.191 C 
BRANCH  35  36
ATOM     36  O   UNL     1     119.849 133.043 111.728  1.00  0.00    -0.394 OA
ATOM     37  H   UNL     1     119.883 133.521 110.858  1.00  0.00     0.210 HD
ENDBRANCH  35  36
ENDBRANCH  29  35
BRANCH  30  38
ATOM     38  O   UNL     1     119.498 131.840 109.102  1.00  0.00    -0.387 OA
ATOM     39  H   UNL     1     119.558 132.808 109.339  1.00  0.00     0.211 HD
ENDBRANCH  30  38
ENDBRANCH   1  25
TORSDOF 11
ENDMDL
MODEL 3
REMARK VINA RESULT:    -5.422      3.611      5.254
REMARK INTER + INTRA:          -9.725
REMARK INTER:                  -8.129
REMARK INTRA:                  -1.596
REMARK UNBOUND:                -1.926
REMARK SMILES O=c1c(O[C@@H]2O[C@@H](CO)[C@@H](O)[C@H](O)[C@@H]2O)c(-c2ccc(O)cc2)oc2cc(O)cc(O)c12
REMARK SMILES IDX 4 1 3 2 16 3 24 4 2 5 25 6 1 7 32 8 26 9 30 10 27 11 29 12
REMARK SMILES IDX 17 13 18 14 19 15 20 16 23 17 22 18 21 19 31 21 28 23 5 25
REMARK SMILES IDX 14 26 6 27 12 28 7 29 10 30 15 31 13 33 8 35 9 36 11 38
REMARK H PARENT 21 20 31 22 28 24 15 32 13 34 9 37 11 39
REMARK Flexibility Score: inf
ROOT
ATOM      1  O   UNL     1     127.308 132.433 111.541  1.00  0.00    -0.454 OA
ENDROOT
BRANCH   1   2
ATOM      2  C   UNL     1     128.541 132.544 110.869  1.00  0.00     0.214 A 
ATOM      3  C   UNL     1     129.357 131.442 110.524  1.00  0.00     0.180 A 
ATOM      4  O   UNL     1     130.432 131.629 109.764  1.00  0.00    -0.452 OA
ATOM      5  C   UNL     1     128.955 133.826 110.482  1.00  0.00     0.239 A 
ATOM      6  C   UNL     1     130.828 132.821 109.336  1.00  0.00     0.146 A 
ATOM      7  O   UNL     1     128.265 134.822 110.829  1.00  0.00    -0.285 OA
ATOM      8  C   UNL     1     130.112 133.987 109.692  1.00  0.00     0.111 A 
ATOM      9  C   UNL     1     131.970 132.914 108.534  1.00  0.00     0.094 A 
ATOM     10  C   UNL     1     130.567 135.245 109.231  1.00  0.00     0.134 A 
ATOM     11  C   UNL     1     132.413 134.156 108.074  1.00  0.00     0.123 A 
ATOM     12  C   UNL     1     131.714 135.317 108.424  1.00  0.00     0.093 A 
BRANCH   3  13
ATOM     13  C   UNL     1     129.104 130.073 110.998  1.00  0.00     0.021 A 
ATOM     14  C   UNL     1     128.664 129.099 110.093  1.00  0.00     0.016 A 
ATOM     15  C   UNL     1     128.466 127.783 110.518  1.00  0.00     0.047 A 
ATOM     16  C   UNL     1     128.718 127.425 111.846  1.00  0.00     0.115 A 
ATOM     17  C   UNL     1     129.390 129.706 112.322  1.00  0.00     0.016 A 
ATOM     18  C   UNL     1     129.187 128.389 112.747  1.00  0.00     0.047 A 
BRANCH  16  19
ATOM     19  O   UNL     1     128.505 126.114 112.255  1.00  0.00    -0.508 OA
ATOM     20  H   UNL     1     128.519 125.339 111.604  1.00  0.00     0.293 HD
ENDBRANCH  16  19
ENDBRANCH   3  13
BRANCH  10  21
ATOM     21  O   UNL     1     129.892 136.421 109.563  1.00  0.00    -0.507 OA
ATOM     22  H   UNL     1     129.525 136.580 110.496  1.00  0.00     0.293 HD
ENDBRANCH  10  21
BRANCH  11  23
ATOM     23  O   UNL     1     133.546 134.225 107.266  1.00  0.00    -0.508 OA
ATOM     24  H   UNL     1     133.491 134.106 106.262  1.00  0.00     0.293 HD
ENDBRANCH  11  23
ENDBRANCH   1   2
BRANCH   1  25
ATOM     25  C   UNL     1     126.050 132.106 110.935  1.00  0.00     0.339 C 
ATOM     26  C   UNL     1     125.178 131.285 111.906  1.00  0.00     0.214 C 
ATOM     27  O   UNL     1     125.372 133.261 110.453  1.00  0.00    -0.332 OA
ATOM     28  C   UNL     1     124.606 132.169 113.030  1.00  0.00     0.180 C 
ATOM     29  C   UNL     1     125.002 134.131 111.512  1.00  0.00     0.179 C 
ATOM     30  C   UNL     1     123.979 133.445 112.444  1.00  0.00     0.177 C 
BRANCH  26  31
ATOM     31  O   UNL     1     125.936 130.229 112.442  1.00  0.00    -0.384 OA
ATOM     32  H   UNL     1     126.463 130.604 113.200  1.00  0.00     0.211 HD
ENDBRANCH  26  31
BRANCH  28  33
ATOM     33  O   UNL     1     125.623 132.490 113.937  1.00  0.00    -0.387 OA
ATOM     34  H   UNL     1     126.477 132.510 113.423  1.00  0.00     0.211 HD
ENDBRANCH  28  33
BRANCH  29  35
ATOM     35  C   UNL     1     124.435 135.427 110.918  1.00  0.00     0.191 C 
BRANCH  35  36
ATOM     36  O   UNL     1     125.463 136.171 110.328  1.00  0.00    -0.394 OA
ATOM     37  H   UNL     1     126.213 135.543 110.156  1.00  0.00     0.210 HD
ENDBRANCH  35  36
ENDBRANCH  29  35
BRANCH  30  38
ATOM     38  O   UNL     1     122.821 133.101 111.721  1.00  0.00    -0.387 OA
ATOM     39  H   UNL     1     122.980 132.204 111.312  1.00  0.00     0.211 HD
ENDBRANCH  30  38
ENDBRANCH   1  25
TORSDOF 11
ENDMDL
MODEL 4
REMARK VINA RESULT:    -5.398      3.438      5.465
REMARK INTER + INTRA:          -9.691
REMARK INTER:                  -7.716
REMARK INTRA:                  -1.975
REMARK UNBOUND:                -1.926
REMARK SMILES O=c1c(O[C@@H]2O[C@@H](CO)[C@@H](O)[C@H](O)[C@@H]2O)c(-c2ccc(O)cc2)oc2cc(O)cc(O)c12
REMARK SMILES IDX 4 1 3 2 16 3 24 4 2 5 25 6 1 7 32 8 26 9 30 10 27 11 29 12
REMARK SMILES IDX 17 13 18 14 19 15 20 16 23 17 22 18 21 19 31 21 28 23 5 25
REMARK SMILES IDX 14 26 6 27 12 28 7 29 10 30 15 31 13 33 8 35 9 36 11 38
REMARK H PARENT 21 20 31 22 28 24 15 32 13 34 9 37 11 39
REMARK Flexibility Score: inf
ROOT
ATOM      1  O   UNL     1     121.583 133.191 108.896  1.00  0.00    -0.454 OA
ENDROOT
BRANCH   1   2
ATOM      2  C   UNL     1     122.587 133.950 108.264  1.00  0.00     0.214 A 
ATOM      3  C   UNL     1     123.952 133.921 108.632  1.00  0.00     0.180 A 
ATOM      4  O   UNL     1     124.850 134.560 107.888  1.00  0.00    -0.452 OA
ATOM      5  C   UNL     1     122.208 134.747 107.175  1.00  0.00     0.239 A 
ATOM      6  C   UNL     1     124.535 135.282 106.819  1.00  0.00     0.146 A 
ATOM      7  O   UNL     1     120.988 134.824 106.869  1.00  0.00    -0.285 OA
ATOM      8  C   UNL     1     123.187 135.425 106.421  1.00  0.00     0.111 A 
ATOM      9  C   UNL     1     125.554 135.912 106.097  1.00  0.00     0.094 A 
ATOM     10  C   UNL     1     122.883 136.213 105.284  1.00  0.00     0.134 A 
ATOM     11  C   UNL     1     125.253 136.683 104.972  1.00  0.00     0.123 A 
ATOM     12  C   UNL     1     123.920 136.834 104.570  1.00  0.00     0.093 A 
BRANCH   3  13
ATOM     13  C   UNL     1     124.446 133.242 109.839  1.00  0.00     0.021 A 
ATOM     14  C   UNL     1     124.735 131.873 109.792  1.00  0.00     0.016 A 
ATOM     15  C   UNL     1     125.250 131.225 110.917  1.00  0.00     0.047 A 
ATOM     16  C   UNL     1     125.495 131.940 112.093  1.00  0.00     0.115 A 
ATOM     17  C   UNL     1     124.725 133.967 111.009  1.00  0.00     0.016 A 
ATOM     18  C   UNL     1     125.237 133.315 112.135  1.00  0.00     0.047 A 
BRANCH  16  19
ATOM     19  O   UNL     1     125.998 131.277 113.207  1.00  0.00    -0.508 OA
ATOM     20  H   UNL     1     125.433 130.639 113.752  1.00  0.00     0.293 HD
ENDBRANCH  16  19
ENDBRANCH   3  13
BRANCH  10  21
ATOM     21  O   UNL     1     121.564 136.384 104.858  1.00  0.00    -0.507 OA
ATOM     22  H   UNL     1     121.292 137.163 104.267  1.00  0.00     0.293 HD
ENDBRANCH  10  21
BRANCH  11  23
ATOM     23  O   UNL     1     126.284 137.291 104.260  1.00  0.00    -0.508 OA
ATOM     24  H   UNL     1     127.224 137.345 104.629  1.00  0.00     0.293 HD
ENDBRANCH  11  23
ENDBRANCH   1   2
BRANCH   1  25
ATOM     25  C   UNL     1     120.738 133.645 109.963  1.00  0.00     0.339 C 
ATOM     26  C   UNL     1     119.302 133.115 109.779  1.00  0.00     0.214 C 
ATOM     27  O   UNL     1     121.269 133.316 111.243  1.00  0.00    -0.332 OA
ATOM     28  C   UNL     1     119.211 131.613 110.109  1.00  0.00     0.180 C 
ATOM     29  C   UNL     1     121.317 131.912 111.445  1.00  0.00     0.179 C 
ATOM     30  C   UNL     1     119.892 131.317 111.455  1.00  0.00     0.177 C 
BRANCH  26  31
ATOM     31  O   UNL     1     118.875 133.361 108.461  1.00  0.00    -0.384 OA
ATOM     32  H   UNL     1     117.966 133.764 108.521  1.00  0.00     0.211 HD
ENDBRANCH  26  31
BRANCH  28  33
ATOM     33  O   UNL     1     119.805 130.870 109.081  1.00  0.00    -0.387 OA
ATOM     34  H   UNL     1     119.066 130.529 108.505  1.00  0.00     0.211 HD
ENDBRANCH  28  33
BRANCH  29  35
ATOM     35  C   UNL     1     122.053 131.622 112.760  1.00  0.00     0.191 C 
BRANCH  35  36
ATOM     36  O   UNL     1     121.922 132.711 113.629  1.00  0.00    -0.394 OA
ATOM     37  H   UNL     1     121.593 132.352 114.495  1.00  0.00     0.210 HD
ENDBRANCH  35  36
ENDBRANCH  29  35
BRANCH  30  38
ATOM     38  O   UNL     1     119.135 131.894 112.493  1.00  0.00    -0.387 OA
ATOM     39  H   UNL     1     119.104 131.234 113.242  1.00  0.00     0.211 HD
ENDBRANCH  30  38
ENDBRANCH   1  25
TORSDOF 11
ENDMDL
MODEL 5
REMARK VINA RESULT:    -5.382      3.105      5.838
REMARK INTER + INTRA:          -9.668
REMARK INTER:                  -8.003
REMARK INTRA:                  -1.665
REMARK UNBOUND:                -1.926
REMARK SMILES O=c1c(O[C@@H]2O[C@@H](CO)[C@@H](O)[C@H](O)[C@@H]2O)c(-c2ccc(O)cc2)oc2cc(O)cc(O)c12
REMARK SMILES IDX 4 1 3 2 16 3 24 4 2 5 25 6 1 7 32 8 26 9 30 10 27 11 29 12
REMARK SMILES IDX 17 13 18 14 19 15 20 16 23 17 22 18 21 19 31 21 28 23 5 25
REMARK SMILES IDX 14 26 6 27 12 28 7 29 10 30 15 31 13 33 8 35 9 36 11 38
REMARK H PARENT 21 20 31 22 28 24 15 32 13 34 9 37 11 39
REMARK Flexibility Score: inf
ROOT
ATOM      1  O   UNL     1     124.492 133.632 109.811  1.00  0.00    -0.454 OA
ENDROOT
BRANCH   1   2
ATOM      2  C   UNL     1     123.975 134.191 108.626  1.00  0.00     0.214 A 
ATOM      3  C   UNL     1     122.620 134.092 108.229  1.00  0.00     0.180 A 
ATOM      4  O   UNL     1     122.192 134.770 107.169  1.00  0.00    -0.452 OA
ATOM      5  C   UNL     1     124.853 134.925 107.818  1.00  0.00     0.239 A 
ATOM      6  C   UNL     1     122.984 135.518 106.410  1.00  0.00     0.146 A 
ATOM      7  O   UNL     1     126.073 134.977 108.131  1.00  0.00    -0.285 OA
ATOM      8  C   UNL     1     124.365 135.617 106.691  1.00  0.00     0.111 A 
ATOM      9  C   UNL     1     122.436 136.200 105.318  1.00  0.00     0.094 A 
ATOM     10  C   UNL     1     125.185 136.411 105.853  1.00  0.00     0.134 A 
ATOM     11  C   UNL     1     123.246 136.990 104.498  1.00  0.00     0.123 A 
ATOM     12  C   UNL     1     124.616 137.091 104.765  1.00  0.00     0.093 A 
BRANCH   3  13
ATOM     13  C   UNL     1     121.642 133.233 108.913  1.00  0.00     0.021 A 
ATOM     14  C   UNL     1     121.381 131.951 108.414  1.00  0.00     0.016 A 
ATOM     15  C   UNL     1     120.491 131.106 109.080  1.00  0.00     0.047 A 
ATOM     16  C   UNL     1     119.864 131.527 110.257  1.00  0.00     0.115 A 
ATOM     17  C   UNL     1     121.039 133.643 110.113  1.00  0.00     0.016 A 
ATOM     18  C   UNL     1     120.145 132.797 110.775  1.00  0.00     0.047 A 
BRANCH  16  19
ATOM     19  O   UNL     1     118.972 130.677 110.901  1.00  0.00    -0.508 OA
ATOM     20  H   UNL     1     118.725 130.797 111.875  1.00  0.00     0.293 HD
ENDBRANCH  16  19
ENDBRANCH   3  13
BRANCH  10  21
ATOM     21  O   UNL     1     126.555 136.533 106.093  1.00  0.00    -0.507 OA
ATOM     22  H   UNL     1     126.978 136.197 106.953  1.00  0.00     0.293 HD
ENDBRANCH  10  21
BRANCH  11  23
ATOM     23  O   UNL     1     122.678 137.671 103.424  1.00  0.00    -0.508 OA
ATOM     24  H   UNL     1     122.374 138.633 103.506  1.00  0.00     0.293 HD
ENDBRANCH  11  23
ENDBRANCH   1   2
BRANCH   1  25
ATOM     25  C   UNL     1     124.761 132.241 110.032  1.00  0.00     0.339 C 
ATOM     26  C   UNL     1     126.231 132.034 110.450  1.00  0.00     0.214 C 
ATOM     27  O   UNL     1     123.854 131.662 110.965  1.00  0.00    -0.332 OA
ATOM     28  C   UNL     1     126.472 132.492 111.900  1.00  0.00     0.180 C 
ATOM     29  C   UNL     1     124.000 132.228 112.258  1.00  0.00     0.179 C 
ATOM     30  C   UNL     1     125.398 131.910 112.833  1.00  0.00     0.177 C 
BRANCH  26  31
ATOM     31  O   UNL     1     127.074 132.727 109.563  1.00  0.00    -0.384 OA
ATOM     32  H   UNL     1     127.994 132.368 109.696  1.00  0.00     0.211 HD
ENDBRANCH  26  31
BRANCH  28  33
ATOM     33  O   UNL     1     126.470 133.892 111.956  1.00  0.00    -0.387 OA
ATOM     34  H   UNL     1     126.619 134.220 111.027  1.00  0.00     0.211 HD
ENDBRANCH  28  33
BRANCH  29  35
ATOM     35  C   UNL     1     122.887 131.690 113.167  1.00  0.00     0.191 C 
BRANCH  35  36
ATOM     36  O   UNL     1     122.401 132.716 113.985  1.00  0.00    -0.394 OA
ATOM     37  H   UNL     1     123.187 133.245 114.283  1.00  0.00     0.210 HD
ENDBRANCH  35  36
ENDBRANCH  29  35
BRANCH  30  38
ATOM     38  O   UNL     1     125.576 130.517 112.931  1.00  0.00    -0.387 OA
ATOM     39  H   UNL     1     124.917 130.179 113.601  1.00  0.00     0.211 HD
ENDBRANCH  30  38
ENDBRANCH   1  25
TORSDOF 11
ENDMDL
MODEL 6
REMARK VINA RESULT:    -5.361     11.080     13.856
REMARK INTER + INTRA:          -9.637
REMARK INTER:                  -7.658
REMARK INTRA:                  -1.979
REMARK UNBOUND:                -1.926
REMARK SMILES O=c1c(O[C@@H]2O[C@@H](CO)[C@@H](O)[C@H](O)[C@@H]2O)c(-c2ccc(O)cc2)oc2cc(O)cc(O)c12
REMARK SMILES IDX 4 1 3 2 16 3 24 4 2 5 25 6 1 7 32 8 26 9 30 10 27 11 29 12
REMARK SMILES IDX 17 13 18 14 19 15 20 16 23 17 22 18 21 19 31 21 28 23 5 25
REMARK SMILES IDX 14 26 6 27 12 28 7 29 10 30 15 31 13 33 8 35 9 36 11 38
REMARK H PARENT 21 20 31 22 28 24 15 32 13 34 9 37 11 39
REMARK Flexibility Score: inf
ROOT
ATOM      1  O   UNL     1     132.905 124.454 108.986  1.00  0.00    -0.454 OA
ENDROOT
BRANCH   1   2
ATOM      2  C   UNL     1     132.000 123.781 109.830  1.00  0.00     0.214 A 
ATOM      3  C   UNL     1     131.705 124.180 111.154  1.00  0.00     0.180 A 
ATOM      4  O   UNL     1     130.733 123.572 111.827  1.00  0.00    -0.452 OA
ATOM      5  C   UNL     1     131.320 122.676 109.301  1.00  0.00     0.239 A 
ATOM      6  C   UNL     1     130.032 122.555 111.340  1.00  0.00     0.146 A 
ATOM      7  O   UNL     1     131.610 122.276 108.142  1.00  0.00    -0.285 OA
ATOM      8  C   UNL     1     130.307 122.044 110.051  1.00  0.00     0.111 A 
ATOM      9  C   UNL     1     129.023 121.986 112.123  1.00  0.00     0.094 A 
ATOM     10  C   UNL     1     129.551 120.950 109.567  1.00  0.00     0.134 A 
ATOM     11  C   UNL     1     128.272 120.911 111.640  1.00  0.00     0.123 A 
ATOM     12  C   UNL     1     128.539 120.394 110.366  1.00  0.00     0.093 A 
BRANCH   3  13
ATOM     13  C   UNL     1     132.454 125.228 111.865  1.00  0.00     0.021 A 
ATOM     14  C   UNL     1     133.622 124.892 112.560  1.00  0.00     0.016 A 
ATOM     15  C   UNL     1     134.369 125.884 113.198  1.00  0.00     0.047 A 
ATOM     16  C   UNL     1     133.967 127.221 113.136  1.00  0.00     0.115 A 
ATOM     17  C   UNL     1     132.069 126.575 111.773  1.00  0.00     0.016 A 
ATOM     18  C   UNL     1     132.816 127.566 112.416  1.00  0.00     0.047 A 
BRANCH  16  19
ATOM     19  O   UNL     1     134.717 128.195 113.786  1.00  0.00    -0.508 OA
ATOM     20  H   UNL     1     135.008 129.046 113.324  1.00  0.00     0.293 HD
ENDBRANCH  16  19
ENDBRANCH   3  13
BRANCH  10  21
ATOM     21  O   UNL     1     129.792 120.412 108.301  1.00  0.00    -0.507 OA
ATOM     22  H   UNL     1     129.772 120.987 107.465  1.00  0.00     0.293 HD
ENDBRANCH  10  21
BRANCH  11  23
ATOM     23  O   UNL     1     127.263 120.367 112.431  1.00  0.00    -0.508 OA
ATOM     24  H   UNL     1     126.950 120.822 113.279  1.00  0.00     0.293 HD
ENDBRANCH  11  23
ENDBRANCH   1   2
BRANCH   1  25
ATOM     25  C   UNL     1     134.327 124.266 108.966  1.00  0.00     0.339 C 
ATOM     26  C   UNL     1     134.824 124.049 107.523  1.00  0.00     0.214 C 
ATOM     27  O   UNL     1     135.017 125.331 109.614  1.00  0.00    -0.332 OA
ATOM     28  C   UNL     1     134.809 125.363 106.720  1.00  0.00     0.180 C 
ATOM     29  C   UNL     1     134.844 126.561 108.927  1.00  0.00     0.179 C 
ATOM     30  C   UNL     1     135.480 126.490 107.522  1.00  0.00     0.177 C 
BRANCH  26  31
ATOM     31  O   UNL     1     134.030 123.073 106.893  1.00  0.00    -0.384 OA
ATOM     32  H   UNL     1     134.440 122.894 106.004  1.00  0.00     0.211 HD
ENDBRANCH  26  31
BRANCH  28  33
ATOM     33  O   UNL     1     133.488 125.702 106.401  1.00  0.00    -0.387 OA
ATOM     34  H   UNL     1     133.132 126.236 107.164  1.00  0.00     0.211 HD
ENDBRANCH  28  33
BRANCH  29  35
ATOM     35  C   UNL     1     135.462 127.689 109.764  1.00  0.00     0.191 C 
BRANCH  35  36
ATOM     36  O   UNL     1     136.519 127.189 110.533  1.00  0.00    -0.394 OA
ATOM     37  H   UNL     1     137.340 127.667 110.242  1.00  0.00     0.210 HD
ENDBRANCH  35  36
ENDBRANCH  29  35
BRANCH  30  38
ATOM     38  O   UNL     1     136.859 126.225 107.627  1.00  0.00    -0.387 OA
ATOM     39  H   UNL     1     137.181 126.649 108.471  1.00  0.00     0.211 HD
ENDBRANCH  30  38
ENDBRANCH   1  25
TORSDOF 11
ENDMDL
MODEL 7
REMARK VINA RESULT:    -5.269      2.870      7.545
REMARK INTER + INTRA:          -9.505
REMARK INTER:                  -7.542
REMARK INTRA:                  -1.963
REMARK UNBOUND:                -1.926
REMARK SMILES O=c1c(O[C@@H]2O[C@@H](CO)[C@@H](O)[C@H](O)[C@@H]2O)c(-c2ccc(O)cc2)oc2cc(O)cc(O)c12
REMARK SMILES IDX 4 1 3 2 16 3 24 4 2 5 25 6 1 7 32 8 26 9 30 10 27 11 29 12
REMARK SMILES IDX 17 13 18 14 19 15 20 16 23 17 22 18 21 19 31 21 28 23 5 25
REMARK SMILES IDX 14 26 6 27 12 28 7 29 10 30 15 31 13 33 8 35 9 36 11 38
REMARK H PARENT 21 20 31 22 28 24 15 32 13 34 9 37 11 39
REMARK Flexibility Score: inf
ROOT
ATOM      1  O   UNL     1     127.211 132.266 110.261  1.00  0.00    -0.454 OA
ENDROOT
BRANCH   1   2
ATOM      2  C   UNL     1     125.857 132.615 110.425  1.00  0.00     0.214 A 
ATOM      3  C   UNL     1     125.154 133.489 109.562  1.00  0.00     0.180 A 
ATOM      4  O   UNL     1     123.843 133.649 109.710  1.00  0.00    -0.452 OA
ATOM      5  C   UNL     1     125.158 132.023 111.486  1.00  0.00     0.239 A 
ATOM      6  C   UNL     1     123.138 133.064 110.671  1.00  0.00     0.146 A 
ATOM      7  O   UNL     1     125.784 131.285 112.293  1.00  0.00    -0.285 OA
ATOM      8  C   UNL     1     123.771 132.231 111.622  1.00  0.00     0.111 A 
ATOM      9  C   UNL     1     121.759 133.290 110.740  1.00  0.00     0.094 A 
ATOM     10  C   UNL     1     122.993 131.633 112.642  1.00  0.00     0.134 A 
ATOM     11  C   UNL     1     120.992 132.692 111.743  1.00  0.00     0.123 A 
ATOM     12  C   UNL     1     121.610 131.869 112.692  1.00  0.00     0.093 A 
BRANCH   3  13
ATOM     13  C   UNL     1     125.809 134.279 108.509  1.00  0.00     0.021 A 
ATOM     14  C   UNL     1     125.951 133.737 107.226  1.00  0.00     0.016 A 
ATOM     15  C   UNL     1     126.527 134.493 106.203  1.00  0.00     0.047 A 
ATOM     16  C   UNL     1     126.953 135.802 106.448  1.00  0.00     0.115 A 
ATOM     17  C   UNL     1     126.205 135.605 108.745  1.00  0.00     0.016 A 
ATOM     18  C   UNL     1     126.785 136.359 107.722  1.00  0.00     0.047 A 
BRANCH  16  19
ATOM     19  O   UNL     1     127.534 136.538 105.421  1.00  0.00    -0.508 OA
ATOM     20  H   UNL     1     126.982 137.084 104.773  1.00  0.00     0.293 HD
ENDBRANCH  16  19
ENDBRANCH   3  13
BRANCH  10  21
ATOM     21  O   UNL     1     123.579 130.807 113.604  1.00  0.00    -0.507 OA
ATOM     22  H   UNL     1     124.486 131.019 114.007  1.00  0.00     0.293 HD
ENDBRANCH  10  21
BRANCH  11  23
ATOM     23  O   UNL     1     119.619 132.921 111.786  1.00  0.00    -0.508 OA
ATOM     24  H   UNL     1     118.956 132.238 111.443  1.00  0.00     0.293 HD
ENDBRANCH  11  23
ENDBRANCH   1   2
BRANCH   1  25
ATOM     25  C   UNL     1     128.319 132.858 110.954  1.00  0.00     0.339 C 
ATOM     26  C   UNL     1     129.351 131.781 111.345  1.00  0.00     0.214 C 
ATOM     27  O   UNL     1     128.909 133.919 110.211  1.00  0.00    -0.332 OA
ATOM     28  C   UNL     1     130.149 131.297 110.120  1.00  0.00     0.180 C 
ATOM     29  C   UNL     1     129.497 133.452 109.006  1.00  0.00     0.179 C 
ATOM     30  C   UNL     1     130.671 132.496 109.311  1.00  0.00     0.177 C 
BRANCH  26  31
ATOM     31  O   UNL     1     128.694 130.704 111.967  1.00  0.00    -0.384 OA
ATOM     32  H   UNL     1     129.006 129.873 111.514  1.00  0.00     0.211 HD
ENDBRANCH  26  31
BRANCH  28  33
ATOM     33  O   UNL     1     129.337 130.480 109.324  1.00  0.00    -0.387 OA
ATOM     34  H   UNL     1     129.838 129.632 109.170  1.00  0.00     0.211 HD
ENDBRANCH  28  33
BRANCH  29  35
ATOM     35  C   UNL     1     129.958 134.657 108.176  1.00  0.00     0.191 C 
BRANCH  35  36
ATOM     36  O   UNL     1     130.469 135.650 109.020  1.00  0.00    -0.394 OA
ATOM     37  H   UNL     1     131.150 135.216 109.598  1.00  0.00     0.210 HD
ENDBRANCH  35  36
ENDBRANCH  29  35
BRANCH  30  38
ATOM     38  O   UNL     1     131.657 133.165 110.060  1.00  0.00    -0.387 OA
ATOM     39  H   UNL     1     132.215 133.689 109.419  1.00  0.00     0.211 HD
ENDBRANCH  30  38
ENDBRANCH   1  25
TORSDOF 11
ENDMDL
MODEL 8
REMARK VINA RESULT:    -5.214      3.968      6.584
REMARK INTER + INTRA:          -9.426
REMARK INTER:                  -7.755
REMARK INTRA:                  -1.671
REMARK UNBOUND:                -1.926
REMARK SMILES O=c1c(O[C@@H]2O[C@@H](CO)[C@@H](O)[C@H](O)[C@@H]2O)c(-c2ccc(O)cc2)oc2cc(O)cc(O)c12
REMARK SMILES IDX 4 1 3 2 16 3 24 4 2 5 25 6 1 7 32 8 26 9 30 10 27 11 29 12
REMARK SMILES IDX 17 13 18 14 19 15 20 16 23 17 22 18 21 19 31 21 28 23 5 25
REMARK SMILES IDX 14 26 6 27 12 28 7 29 10 30 15 31 13 33 8 35 9 36 11 38
REMARK H PARENT 21 20 31 22 28 24 15 32 13 34 9 37 11 39
REMARK Flexibility Score: inf
ROOT
ATOM      1  O   UNL     1     128.165 132.368 110.228  1.00  0.00    -0.454 OA
ENDROOT
BRANCH   1   2
ATOM      2  C   UNL     1     128.320 131.048 110.692  1.00  0.00     0.214 A 
ATOM      3  C   UNL     1     127.294 130.304 111.321  1.00  0.00     0.180 A 
ATOM      4  O   UNL     1     127.486 129.018 111.597  1.00  0.00    -0.452 OA
ATOM      5  C   UNL     1     129.556 130.425 110.475  1.00  0.00     0.239 A 
ATOM      6  C   UNL     1     128.625 128.379 111.358  1.00  0.00     0.146 A 
ATOM      7  O   UNL     1     130.495 131.092 109.964  1.00  0.00    -0.285 OA
ATOM      8  C   UNL     1     129.728 129.063 110.798  1.00  0.00     0.111 A 
ATOM      9  C   UNL     1     128.727 127.022 111.678  1.00  0.00     0.094 A 
ATOM     10  C   UNL     1     130.934 128.358 110.568  1.00  0.00     0.134 A 
ATOM     11  C   UNL     1     129.915 126.326 111.443  1.00  0.00     0.123 A 
ATOM     12  C   UNL     1     131.015 126.994 110.892  1.00  0.00     0.093 A 
BRANCH   3  13
ATOM     13  C   UNL     1     126.010 130.891 111.732  1.00  0.00     0.021 A 
ATOM     14  C   UNL     1     125.073 131.256 110.758  1.00  0.00     0.016 A 
ATOM     15  C   UNL     1     123.831 131.770 111.136  1.00  0.00     0.047 A 
ATOM     16  C   UNL     1     123.507 131.910 112.488  1.00  0.00     0.115 A 
ATOM     17  C   UNL     1     125.672 131.000 113.091  1.00  0.00     0.016 A 
ATOM     18  C   UNL     1     124.429 131.519 113.466  1.00  0.00     0.047 A 
BRANCH  16  19
ATOM     19  O   UNL     1     122.270 132.434 112.846  1.00  0.00    -0.508 OA
ATOM     20  H   UNL     1     121.646 132.850 112.167  1.00  0.00     0.293 HD
ENDBRANCH  16  19
ENDBRANCH   3  13
BRANCH  10  21
ATOM     21  O   UNL     1     132.048 128.996 110.019  1.00  0.00    -0.507 OA
ATOM     22  H   UNL     1     132.142 130.007 110.029  1.00  0.00     0.293 HD
ENDBRANCH  10  21
BRANCH  11  23
ATOM     23  O   UNL     1     129.991 124.971 111.758  1.00  0.00    -0.508 OA
ATOM     24  H   UNL     1     130.761 124.395 111.443  1.00  0.00     0.293 HD
ENDBRANCH  11  23
ENDBRANCH   1   2
BRANCH   1  25
ATOM     25  C   UNL     1     128.140 133.546 111.047  1.00  0.00     0.339 C 
ATOM     26  C   UNL     1     129.259 134.520 110.627  1.00  0.00     0.214 C 
ATOM     27  O   UNL     1     126.860 134.170 111.047  1.00  0.00    -0.332 OA
ATOM     28  C   UNL     1     128.923 135.223 109.299  1.00  0.00     0.180 C 
ATOM     29  C   UNL     1     126.518 134.665 109.762  1.00  0.00     0.179 C 
ATOM     30  C   UNL     1     127.492 135.785 109.336  1.00  0.00     0.177 C 
BRANCH  26  31
ATOM     31  O   UNL     1     130.477 133.823 110.526  1.00  0.00    -0.384 OA
ATOM     32  H   UNL     1     130.918 134.129 109.687  1.00  0.00     0.211 HD
ENDBRANCH  26  31
BRANCH  28  33
ATOM     33  O   UNL     1     129.072 134.319 108.239  1.00  0.00    -0.387 OA
ATOM     34  H   UNL     1     130.049 134.240 108.061  1.00  0.00     0.211 HD
ENDBRANCH  28  33
BRANCH  29  35
ATOM     35  C   UNL     1     125.068 135.166 109.790  1.00  0.00     0.191 C 
BRANCH  35  36
ATOM     36  O   UNL     1     124.905 136.095 110.824  1.00  0.00    -0.394 OA
ATOM     37  H   UNL     1     125.156 135.636 111.668  1.00  0.00     0.210 HD
ENDBRANCH  35  36
ENDBRANCH  29  35
BRANCH  30  38
ATOM     38  O   UNL     1     127.437 136.850 110.255  1.00  0.00    -0.387 OA
ATOM     39  H   UNL     1     127.861 136.535 111.102  1.00  0.00     0.211 HD
ENDBRANCH  30  38
ENDBRANCH   1  25
TORSDOF 11
ENDMDL
MODEL 9
REMARK VINA RESULT:    -5.203      1.920      7.512
REMARK INTER + INTRA:          -9.410
REMARK INTER:                  -7.609
REMARK INTRA:                  -1.801
REMARK UNBOUND:                -1.926
REMARK SMILES O=c1c(O[C@@H]2O[C@@H](CO)[C@@H](O)[C@H](O)[C@@H]2O)c(-c2ccc(O)cc2)oc2cc(O)cc(O)c12
REMARK SMILES IDX 4 1 3 2 16 3 24 4 2 5 25 6 1 7 32 8 26 9 30 10 27 11 29 12
REMARK SMILES IDX 17 13 18 14 19 15 20 16 23 17 22 18 21 19 31 21 28 23 5 25
REMARK SMILES IDX 14 26 6 27 12 28 7 29 10 30 15 31 13 33 8 35 9 36 11 38
REMARK H PARENT 21 20 31 22 28 24 15 32 13 34 9 37 11 39
REMARK Flexibility Score: inf
ROOT
ATOM      1  O   UNL     1     126.215 134.408 109.944  1.00  0.00    -0.454 OA
ENDROOT
BRANCH   1   2
ATOM      2  C   UNL     1     124.892 133.927 109.923  1.00  0.00     0.214 A 
ATOM      3  C   UNL     1     124.131 133.755 108.743  1.00  0.00     0.180 A 
ATOM      4  O   UNL     1     122.943 133.161 108.804  1.00  0.00    -0.452 OA
ATOM      5  C   UNL     1     124.317 133.555 111.145  1.00  0.00     0.239 A 
ATOM      6  C   UNL     1     122.388 132.748 109.937  1.00  0.00     0.146 A 
ATOM      7  O   UNL     1     124.962 133.751 112.209  1.00  0.00    -0.285 OA
ATOM      8  C   UNL     1     123.047 132.944 111.172  1.00  0.00     0.111 A 
ATOM      9  C   UNL     1     121.136 132.126 109.896  1.00  0.00     0.094 A 
ATOM     10  C   UNL     1     122.422 132.505 112.365  1.00  0.00     0.134 A 
ATOM     11  C   UNL     1     120.525 131.687 111.074  1.00  0.00     0.123 A 
ATOM     12  C   UNL     1     121.167 131.879 112.303  1.00  0.00     0.093 A 
BRANCH   3  13
ATOM     13  C   UNL     1     124.568 134.241 107.425  1.00  0.00     0.021 A 
ATOM     14  C   UNL     1     125.514 133.509 106.698  1.00  0.00     0.016 A 
ATOM     15  C   UNL     1     125.903 133.933 105.425  1.00  0.00     0.047 A 
ATOM     16  C   UNL     1     125.339 135.081 104.861  1.00  0.00     0.115 A 
ATOM     17  C   UNL     1     123.977 135.375 106.845  1.00  0.00     0.016 A 
ATOM     18  C   UNL     1     124.370 135.799 105.572  1.00  0.00     0.047 A 
BRANCH  16  19
ATOM     19  O   UNL     1     125.746 135.495 103.597  1.00  0.00    -0.508 OA
ATOM     20  H   UNL     1     125.763 134.864 102.806  1.00  0.00     0.293 HD
ENDBRANCH  16  19
ENDBRANCH   3  13
BRANCH  10  21
ATOM     21  O   UNL     1     123.036 132.682 113.606  1.00  0.00    -0.507 OA
ATOM     22  H   UNL     1     122.888 132.030 114.371  1.00  0.00     0.293 HD
ENDBRANCH  10  21
BRANCH  11  23
ATOM     23  O   UNL     1     119.284 131.058 111.009  1.00  0.00    -0.508 OA
ATOM     24  H   UNL     1     118.918 130.692 110.140  1.00  0.00     0.293 HD
ENDBRANCH  11  23
ENDBRANCH   1   2
BRANCH   1  25
ATOM     25  C   UNL     1     126.622 135.718 110.365  1.00  0.00     0.339 C 
ATOM     26  C   UNL     1     127.995 135.660 111.064  1.00  0.00     0.214 C 
ATOM     27  O   UNL     1     126.609 136.653 109.291  1.00  0.00    -0.332 OA
ATOM     28  C   UNL     1     129.132 135.440 110.050  1.00  0.00     0.180 C 
ATOM     29  C   UNL     1     127.566 136.322 108.297  1.00  0.00     0.179 C 
ATOM     30  C   UNL     1     128.997 136.416 108.870  1.00  0.00     0.177 C 
BRANCH  26  31
ATOM     31  O   UNL     1     127.987 134.639 112.032  1.00  0.00    -0.384 OA
ATOM     32  H   UNL     1     128.923 134.541 112.359  1.00  0.00     0.211 HD
ENDBRANCH  26  31
BRANCH  28  33
ATOM     33  O   UNL     1     129.109 134.114 109.600  1.00  0.00    -0.387 OA
ATOM     34  H   UNL     1     129.143 133.531 110.408  1.00  0.00     0.211 HD
ENDBRANCH  28  33
BRANCH  29  35
ATOM     35  C   UNL     1     127.383 137.261 107.096  1.00  0.00     0.191 C 
BRANCH  35  36
ATOM     36  O   UNL     1     127.034 138.541 107.541  1.00  0.00    -0.394 OA
ATOM     37  H   UNL     1     127.196 138.561 108.521  1.00  0.00     0.210 HD
ENDBRANCH  35  36
ENDBRANCH  29  35
BRANCH  30  38
ATOM     38  O   UNL     1     129.253 137.725 109.321  1.00  0.00    -0.387 OA
ATOM     39  H   UNL     1     129.455 137.670 110.297  1.00  0.00     0.211 HD
ENDBRANCH  30  38
ENDBRANCH   1  25
TORSDOF 11
ENDMDL
