MODEL 1
REMARK VINA RESULT:    -2.503      0.000      0.000
REMARK INTER + INTRA:          -3.028
REMARK INTER:                  -3.088
REMARK INTRA:                   0.060
REMARK UNBOUND:                 0.060
REMARK SMILES COc1cc(-c2[o+]c3cc(O)cc(O)c3cc2O)ccc1O
REMARK SMILES IDX 6 1 7 2 8 3 9 4 10 5 12 6 13 7 15 8 16 9 17 10 5 11 3 12
REMARK SMILES IDX 21 13 4 14 20 15 19 16 2 17 1 18 22 19 18 21 11 23 14 25
REMARK H PARENT 22 20 18 22 11 24 14 26
REMARK Flexibility Score: inf
ROOT
ATOM      1  C   UNL     1      16.489  39.701  11.463  1.00  0.00     0.402 A 
ATOM      2  O   UNL     1      16.108  38.742  10.623  1.00  0.00    -0.202 OA
ATOM      3  C   UNL     1      16.011  37.463  10.970  1.00  0.00     0.368 A 
ATOM      4  C   UNL     1      15.603  36.528  10.014  1.00  0.00     0.162 A 
ATOM      5  C   UNL     1      15.494  35.179  10.349  1.00  0.00     0.128 A 
ATOM      6  C   UNL     1      15.796  34.757  11.650  1.00  0.00     0.093 A 
ATOM      7  C   UNL     1      16.205  35.674  12.625  1.00  0.00     0.136 A 
ATOM      8  C   UNL     1      16.315  37.049  12.289  1.00  0.00     0.125 A 
ATOM      9  C   UNL     1      16.705  38.039  13.204  1.00  0.00     0.078 A 
ATOM     10  C   UNL     1      16.785  39.376  12.799  1.00  0.00     0.223 A 
ENDROOT
BRANCH   1  11
ATOM     11  C   UNL     1      16.568  41.089  10.954  1.00  0.00     0.087 A 
ATOM     12  C   UNL     1      16.108  43.470  11.267  1.00  0.00     0.161 A 
ATOM     13  C   UNL     1      16.643  43.734   9.999  1.00  0.00     0.157 A 
ATOM     14  C   UNL     1      16.066  42.142  11.736  1.00  0.00     0.068 A 
ATOM     15  C   UNL     1      17.125  42.684   9.207  1.00  0.00     0.051 A 
ATOM     16  C   UNL     1      17.083  41.370   9.677  1.00  0.00     0.022 A 
BRANCH  12  17
ATOM     17  O   UNL     1      15.627  44.548  12.027  1.00  0.00    -0.493 OA
ATOM     18  C   UNL     1      15.967  44.790  13.388  1.00  0.00     0.278 C 
ENDBRANCH  12  17
BRANCH  13  19
ATOM     19  O   UNL     1      16.689  45.045   9.529  1.00  0.00    -0.504 OA
ATOM     20  H   UNL     1      15.866  45.502   9.151  1.00  0.00     0.293 HD
ENDBRANCH  13  19
ENDBRANCH   1  11
BRANCH  10  21
ATOM     21  O   UNL     1      17.125  40.366  13.721  1.00  0.00    -0.500 OA
ATOM     22  H   UNL     1      16.904  41.341  13.561  1.00  0.00     0.294 HD
ENDBRANCH  10  21
BRANCH   5  23
ATOM     23  O   UNL     1      15.087  34.261   9.383  1.00  0.00    -0.507 OA
ATOM     24  H   UNL     1      14.410  34.507   8.670  1.00  0.00     0.293 HD
ENDBRANCH   5  23
BRANCH   7  25
ATOM     25  O   UNL     1      16.491  35.174  13.899  1.00  0.00    -0.507 OA
ATOM     26  H   UNL     1      15.872  35.249  14.693  1.00  0.00     0.293 HD
ENDBRANCH   7  25
TORSDOF 6
ENDMDL
MODEL 2
REMARK VINA RESULT:    -2.483      5.375      8.733
REMARK INTER + INTRA:          -3.003
REMARK INTER:                  -2.994
REMARK INTRA:                  -0.009
REMARK UNBOUND:                 0.060
REMARK SMILES COc1cc(-c2[o+]c3cc(O)cc(O)c3cc2O)ccc1O
REMARK SMILES IDX 6 1 7 2 8 3 9 4 10 5 12 6 13 7 15 8 16 9 17 10 5 11 3 12
REMARK SMILES IDX 21 13 4 14 20 15 19 16 2 17 1 18 22 19 18 21 11 23 14 25
REMARK H PARENT 22 20 18 22 11 24 14 26
REMARK Flexibility Score: inf
ROOT
ATOM      1  C   UNL     1      12.312  35.023  13.653  1.00  0.00     0.402 A 
ATOM      2  O   UNL     1      13.053  36.118  13.504  1.00  0.00    -0.202 OA
ATOM      3  C   UNL     1      14.104  36.184  12.693  1.00  0.00     0.368 A 
ATOM      4  C   UNL     1      14.822  37.381  12.606  1.00  0.00     0.162 A 
ATOM      5  C   UNL     1      15.931  37.478  11.765  1.00  0.00     0.128 A 
ATOM      6  C   UNL     1      16.328  36.371  11.004  1.00  0.00     0.093 A 
ATOM      7  C   UNL     1      15.625  35.162  11.073  1.00  0.00     0.136 A 
ATOM      8  C   UNL     1      14.495  35.060  11.926  1.00  0.00     0.125 A 
ATOM      9  C   UNL     1      13.723  33.894  12.049  1.00  0.00     0.078 A 
ATOM     10  C   UNL     1      12.619  33.871  12.908  1.00  0.00     0.223 A 
ENDROOT
BRANCH   1  11
ATOM     11  C   UNL     1      11.172  35.072  14.596  1.00  0.00     0.087 A 
ATOM     12  C   UNL     1       8.759  34.954  14.981  1.00  0.00     0.161 A 
ATOM     13  C   UNL     1       8.970  35.217  16.341  1.00  0.00     0.157 A 
ATOM     14  C   UNL     1       9.866  34.890  14.110  1.00  0.00     0.068 A 
ATOM     15  C   UNL     1      10.268  35.421  16.825  1.00  0.00     0.051 A 
ATOM     16  C   UNL     1      11.362  35.355  15.959  1.00  0.00     0.022 A 
BRANCH  12  17
ATOM     17  O   UNL     1       7.443  34.764  14.532  1.00  0.00    -0.493 OA
ATOM     18  C   UNL     1       6.641  33.628  14.841  1.00  0.00     0.278 C 
ENDBRANCH  12  17
BRANCH  13  19
ATOM     19  O   UNL     1       7.881  35.280  17.208  1.00  0.00    -0.504 OA
ATOM     20  H   UNL     1       7.788  36.024  17.890  1.00  0.00     0.293 HD
ENDBRANCH  13  19
ENDBRANCH   1  11
BRANCH  10  21
ATOM     21  O   UNL     1      11.824  32.728  12.993  1.00  0.00    -0.500 OA
ATOM     22  H   UNL     1      12.066  31.873  12.507  1.00  0.00     0.294 HD
ENDBRANCH  10  21
BRANCH   5  23
ATOM     23  O   UNL     1      16.634  38.678  11.691  1.00  0.00    -0.507 OA
ATOM     24  H   UNL     1      16.464  39.433  12.345  1.00  0.00     0.293 HD
ENDBRANCH   5  23
BRANCH   7  25
ATOM     25  O   UNL     1      16.086  34.104  10.286  1.00  0.00    -0.507 OA
ATOM     26  H   UNL     1      16.645  33.338  10.630  1.00  0.00     0.293 HD
ENDBRANCH   7  25
TORSDOF 6
ENDMDL
MODEL 3
REMARK VINA RESULT:    -2.295      2.058      4.147
REMARK INTER + INTRA:          -2.772
REMARK INTER:                  -3.427
REMARK INTRA:                   0.655
REMARK UNBOUND:                 0.060
REMARK SMILES COc1cc(-c2[o+]c3cc(O)cc(O)c3cc2O)ccc1O
REMARK SMILES IDX 6 1 7 2 8 3 9 4 10 5 12 6 13 7 15 8 16 9 17 10 5 11 3 12
REMARK SMILES IDX 21 13 4 14 20 15 19 16 2 17 1 18 22 19 18 21 11 23 14 25
REMARK H PARENT 22 20 18 22 11 24 14 26
REMARK Flexibility Score: inf
ROOT
ATOM      1  C   UNL     1      16.177  36.936  11.853  1.00  0.00     0.402 A 
ATOM      2  O   UNL     1      16.369  36.423  13.065  1.00  0.00    -0.202 OA
ATOM      3  C   UNL     1      16.547  35.125  13.290  1.00  0.00     0.368 A 
ATOM      4  C   UNL     1      16.739  34.682  14.601  1.00  0.00     0.162 A 
ATOM      5  C   UNL     1      16.927  33.325  14.866  1.00  0.00     0.128 A 
ATOM      6  C   UNL     1      16.922  32.402  13.813  1.00  0.00     0.093 A 
ATOM      7  C   UNL     1      16.733  32.822  12.491  1.00  0.00     0.136 A 
ATOM      8  C   UNL     1      16.544  34.201  12.217  1.00  0.00     0.125 A 
ATOM      9  C   UNL     1      16.360  34.713  10.923  1.00  0.00     0.078 A 
ATOM     10  C   UNL     1      16.185  36.088  10.731  1.00  0.00     0.223 A 
ENDROOT
BRANCH   1  11
ATOM     11  C   UNL     1      15.980  38.399  11.734  1.00  0.00     0.087 A 
ATOM     12  C   UNL     1      16.488  40.500  10.591  1.00  0.00     0.161 A 
ATOM     13  C   UNL     1      15.680  41.187  11.508  1.00  0.00     0.157 A 
ATOM     14  C   UNL     1      16.640  39.105  10.714  1.00  0.00     0.068 A 
ATOM     15  C   UNL     1      15.039  40.490  12.539  1.00  0.00     0.051 A 
ATOM     16  C   UNL     1      15.191  39.107  12.656  1.00  0.00     0.022 A 
BRANCH  12  17
ATOM     17  O   UNL     1      17.122  41.235   9.577  1.00  0.00    -0.493 OA
ATOM     18  C   UNL     1      16.497  42.262   8.814  1.00  0.00     0.278 C 
ENDBRANCH  12  17
BRANCH  13  19
ATOM     19  O   UNL     1      15.525  42.567  11.392  1.00  0.00    -0.504 OA
ATOM     20  H   UNL     1      16.271  43.208  11.638  1.00  0.00     0.293 HD
ENDBRANCH  13  19
ENDBRANCH   1  11
BRANCH  10  21
ATOM     21  O   UNL     1      16.052  36.602   9.441  1.00  0.00    -0.500 OA
ATOM     22  H   UNL     1      16.324  37.551   9.215  1.00  0.00     0.294 HD
ENDBRANCH  10  21
BRANCH   5  23
ATOM     23  O   UNL     1      17.116  32.902  16.179  1.00  0.00    -0.507 OA
ATOM     24  H   UNL     1      16.712  32.038  16.522  1.00  0.00     0.293 HD
ENDBRANCH   5  23
BRANCH   7  25
ATOM     25  O   UNL     1      16.739  31.839  11.497  1.00  0.00    -0.507 OA
ATOM     26  H   UNL     1      15.951  31.249  11.274  1.00  0.00     0.293 HD
ENDBRANCH   7  25
TORSDOF 6
ENDMDL
MODEL 4
REMARK VINA RESULT:    -1.920      1.471      7.792
REMARK INTER + INTRA:          -2.308
REMARK INTER:                  -2.420
REMARK INTRA:                   0.111
REMARK UNBOUND:                 0.060
REMARK SMILES COc1cc(-c2[o+]c3cc(O)cc(O)c3cc2O)ccc1O
REMARK SMILES IDX 6 1 7 2 8 3 9 4 10 5 12 6 13 7 15 8 16 9 17 10 5 11 3 12
REMARK SMILES IDX 21 13 4 14 20 15 19 16 2 17 1 18 22 19 18 21 11 23 14 25
REMARK H PARENT 22 20 18 22 11 24 14 26
REMARK Flexibility Score: inf
ROOT
ATOM      1  C   UNL     1      16.465  41.501  11.342  1.00  0.00     0.402 A 
ATOM      2  O   UNL     1      16.120  42.428  12.232  1.00  0.00    -0.202 OA
ATOM      3  C   UNL     1      16.115  43.730  11.966  1.00  0.00     0.368 A 
ATOM      4  C   UNL     1      15.739  44.628  12.969  1.00  0.00     0.162 A 
ATOM      5  C   UNL     1      15.726  46.000  12.718  1.00  0.00     0.128 A 
ATOM      6  C   UNL     1      16.092  46.482  11.456  1.00  0.00     0.093 A 
ATOM      7  C   UNL     1      16.471  45.603  10.434  1.00  0.00     0.136 A 
ATOM      8  C   UNL     1      16.483  44.206  10.684  1.00  0.00     0.125 A 
ATOM      9  C   UNL     1      16.836  43.251   9.717  1.00  0.00     0.078 A 
ATOM     10  C   UNL     1      16.820  41.890  10.037  1.00  0.00     0.223 A 
ENDROOT
BRANCH   1  11
ATOM     11  C   UNL     1      16.440  40.082  11.763  1.00  0.00     0.087 A 
ATOM     12  C   UNL     1      15.614  37.805  11.426  1.00  0.00     0.161 A 
ATOM     13  C   UNL     1      16.318  37.388  12.563  1.00  0.00     0.157 A 
ATOM     14  C   UNL     1      15.673  39.158  11.035  1.00  0.00     0.068 A 
ATOM     15  C   UNL     1      17.067  38.311  13.304  1.00  0.00     0.051 A 
ATOM     16  C   UNL     1      17.124  39.650  12.912  1.00  0.00     0.022 A 
BRANCH  12  17
ATOM     17  O   UNL     1      14.867  36.853  10.714  1.00  0.00    -0.493 OA
ATOM     18  C   UNL     1      15.430  35.769   9.983  1.00  0.00     0.278 C 
ENDBRANCH  12  17
BRANCH  13  19
ATOM     19  O   UNL     1      16.265  36.052  12.955  1.00  0.00    -0.504 OA
ATOM     20  H   UNL     1      16.044  35.787  13.908  1.00  0.00     0.293 HD
ENDBRANCH  13  19
ENDBRANCH   1  11
BRANCH  10  21
ATOM     21  O   UNL     1      17.124  40.939   9.063  1.00  0.00    -0.500 OA
ATOM     22  H   UNL     1      17.178  41.181   8.081  1.00  0.00     0.294 HD
ENDBRANCH  10  21
BRANCH   5  23
ATOM     23  O   UNL     1      15.349  46.880  13.731  1.00  0.00    -0.507 OA
ATOM     24  H   UNL     1      15.146  46.554  14.668  1.00  0.00     0.293 HD
ENDBRANCH   5  23
BRANCH   7  25
ATOM     25  O   UNL     1      16.825  46.162   9.203  1.00  0.00    -0.507 OA
ATOM     26  H   UNL     1      17.637  45.894   8.667  1.00  0.00     0.293 HD
ENDBRANCH   7  25
TORSDOF 6
ENDMDL
MODEL 5
REMARK VINA RESULT:    -0.952      1.590      3.231
REMARK INTER + INTRA:          -1.115
REMARK INTER:                  -1.375
REMARK INTRA:                   0.260
REMARK UNBOUND:                 0.060
REMARK SMILES COc1cc(-c2[o+]c3cc(O)cc(O)c3cc2O)ccc1O
REMARK SMILES IDX 6 1 7 2 8 3 9 4 10 5 12 6 13 7 15 8 16 9 17 10 5 11 3 12
REMARK SMILES IDX 21 13 4 14 20 15 19 16 2 17 1 18 22 19 18 21 11 23 14 25
REMARK H PARENT 22 20 18 22 11 24 14 26
REMARK Flexibility Score: inf
ROOT
ATOM      1  C   UNL     1      16.627  38.458  11.442  1.00  0.00     0.402 A 
ATOM      2  O   UNL     1      16.406  37.803  12.578  1.00  0.00    -0.202 OA
ATOM      3  C   UNL     1      16.330  36.478  12.655  1.00  0.00     0.368 A 
ATOM      4  C   UNL     1      16.092  35.881  13.896  1.00  0.00     0.162 A 
ATOM      5  C   UNL     1      16.006  34.493  14.005  1.00  0.00     0.128 A 
ATOM      6  C   UNL     1      16.158  33.693  12.867  1.00  0.00     0.093 A 
ATOM      7  C   UNL     1      16.398  34.267  11.612  1.00  0.00     0.136 A 
ATOM      8  C   UNL     1      16.489  35.679  11.497  1.00  0.00     0.125 A 
ATOM      9  C   UNL     1      16.740  36.340  10.284  1.00  0.00     0.078 A 
ATOM     10  C   UNL     1      16.821  37.736  10.250  1.00  0.00     0.223 A 
ENDROOT
BRANCH   1  11
ATOM     11  C   UNL     1      16.679  39.937  11.485  1.00  0.00     0.087 A 
ATOM     12  C   UNL     1      16.468  42.081  10.326  1.00  0.00     0.161 A 
ATOM     13  C   UNL     1      16.825  42.746  11.506  1.00  0.00     0.157 A 
ATOM     14  C   UNL     1      16.404  40.673  10.320  1.00  0.00     0.068 A 
ATOM     15  C   UNL     1      17.121  42.016  12.664  1.00  0.00     0.051 A 
ATOM     16  C   UNL     1      17.055  40.621  12.653  1.00  0.00     0.022 A 
BRANCH  12  17
ATOM     17  O   UNL     1      16.187  42.847   9.184  1.00  0.00    -0.493 OA
ATOM     18  C   UNL     1      16.765  42.627   7.902  1.00  0.00     0.278 C 
ENDBRANCH  12  17
BRANCH  13  19
ATOM     19  O   UNL     1      16.889  44.139  11.520  1.00  0.00    -0.504 OA
ATOM     20  H   UNL     1      17.758  44.628  11.702  1.00  0.00     0.293 HD
ENDBRANCH  13  19
ENDBRANCH   1  11
BRANCH  10  21
ATOM     21  O   UNL     1      17.119  38.390   9.055  1.00  0.00    -0.500 OA
ATOM     22  H   UNL     1      17.872  39.064   8.989  1.00  0.00     0.294 HD
ENDBRANCH  10  21
BRANCH   5  23
ATOM     23  O   UNL     1      15.767  33.916  15.251  1.00  0.00    -0.507 OA
ATOM     24  H   UNL     1      15.342  34.440  16.006  1.00  0.00     0.293 HD
ENDBRANCH   5  23
BRANCH   7  25
ATOM     25  O   UNL     1      16.536  33.402  10.524  1.00  0.00    -0.507 OA
ATOM     26  H   UNL     1      16.243  33.618   9.583  1.00  0.00     0.293 HD
ENDBRANCH   7  25
TORSDOF 6
ENDMDL
MODEL 6
REMARK VINA RESULT:    -0.399      6.201      8.846
REMARK INTER + INTRA:          -0.432
REMARK INTER:                  -0.317
REMARK INTRA:                  -0.115
REMARK UNBOUND:                 0.060
REMARK SMILES COc1cc(-c2[o+]c3cc(O)cc(O)c3cc2O)ccc1O
REMARK SMILES IDX 6 1 7 2 8 3 9 4 10 5 12 6 13 7 15 8 16 9 17 10 5 11 3 12
REMARK SMILES IDX 21 13 4 14 20 15 19 16 2 17 1 18 22 19 18 21 11 23 14 25
REMARK H PARENT 22 20 18 22 11 24 14 26
REMARK Flexibility Score: inf
ROOT
ATOM      1  C   UNL     1      11.470  34.926  13.953  1.00  0.00     0.402 A 
ATOM      2  O   UNL     1      10.544  34.022  13.642  1.00  0.00    -0.202 OA
ATOM      3  C   UNL     1       9.321  34.020  14.163  1.00  0.00     0.368 A 
ATOM      4  C   UNL     1       8.418  33.026  13.775  1.00  0.00     0.162 A 
ATOM      5  C   UNL     1       7.129  32.998  14.308  1.00  0.00     0.128 A 
ATOM      6  C   UNL     1       6.738  33.969  15.237  1.00  0.00     0.093 A 
ATOM      7  C   UNL     1       7.624  34.975  15.642  1.00  0.00     0.136 A 
ATOM      8  C   UNL     1       8.935  35.009  15.100  1.00  0.00     0.125 A 
ATOM      9  C   UNL     1       9.885  35.986  15.437  1.00  0.00     0.078 A 
ATOM     10  C   UNL     1      11.157  35.957  14.857  1.00  0.00     0.223 A 
ENDROOT
BRANCH   1  11
ATOM     11  C   UNL     1      12.799  34.816  13.311  1.00  0.00     0.087 A 
ATOM     12  C   UNL     1      15.233  34.714  13.526  1.00  0.00     0.161 A 
ATOM     13  C   UNL     1      15.348  34.668  12.130  1.00  0.00     0.157 A 
ATOM     14  C   UNL     1      13.954  34.796  14.111  1.00  0.00     0.068 A 
ATOM     15  C   UNL     1      14.201  34.709  11.328  1.00  0.00     0.051 A 
ATOM     16  C   UNL     1      12.935  34.789  11.912  1.00  0.00     0.022 A 
BRANCH  12  17
ATOM     17  O   UNL     1      16.407  34.679  14.295  1.00  0.00    -0.493 OA
ATOM     18  C   UNL     1      17.018  33.489  14.781  1.00  0.00     0.278 C 
ENDBRANCH  12  17
BRANCH  13  19
ATOM     19  O   UNL     1      16.610  34.586  11.544  1.00  0.00    -0.504 OA
ATOM     20  H   UNL     1      17.200  35.403  11.439  1.00  0.00     0.293 HD
ENDBRANCH  13  19
ENDBRANCH   1  11
BRANCH  10  21
ATOM     21  O   UNL     1      12.084  36.956  15.154  1.00  0.00    -0.500 OA
ATOM     22  H   UNL     1      12.944  36.755  15.650  1.00  0.00     0.294 HD
ENDBRANCH  10  21
BRANCH   5  23
ATOM     23  O   UNL     1       6.243  32.000  13.909  1.00  0.00    -0.507 OA
ATOM     24  H   UNL     1       5.606  31.563  14.565  1.00  0.00     0.293 HD
ENDBRANCH   5  23
BRANCH   7  25
ATOM     25  O   UNL     1       7.159  35.905  16.575  1.00  0.00    -0.507 OA
ATOM     26  H   UNL     1       7.707  36.671  16.940  1.00  0.00     0.293 HD
ENDBRANCH   7  25
TORSDOF 6
ENDMDL
