MODEL 1
REMARK VINA RESULT:    17.439      0.000      0.000
REMARK INTER + INTRA:          44.614
REMARK INTER:                  45.984
REMARK INTRA:                  -1.369
REMARK UNBOUND:                -1.369
REMARK SMILES CCCCCCCCCCCCCCCCCCCCCCCCCCCCCC(=O)[O-]
REMARK SMILES IDX 16 1 17 2 18 3 19 4 20 5 21 6 22 7 23 8 24 9 25 10 26 11
REMARK SMILES IDX 27 12 28 13 29 14 30 15 31 16 32 17 15 18 14 19 13 20 12 21
REMARK SMILES IDX 11 22 10 23 9 24 8 25 7 26 6 27 5 28 4 29 3 30 2 31 1 32
REMARK H PARENT
REMARK Flexibility Score: inf
ROOT
ATOM      1  C   UNL     1       4.399 -23.794 -12.543  1.00  0.00     0.000 C 
ENDROOT
BRANCH   1   2
ATOM      2  C   UNL     1       5.923 -23.831 -12.782  1.00  0.00     0.000 C 
BRANCH   2   3
ATOM      3  C   UNL     1       6.490 -22.566 -13.459  1.00  0.00     0.000 C 
BRANCH   3   4
ATOM      4  C   UNL     1       5.411 -21.599 -13.988  1.00  0.00     0.000 C 
BRANCH   4   5
ATOM      5  C   UNL     1       5.676 -20.140 -13.579  1.00  0.00     0.000 C 
BRANCH   5   6
ATOM      6  C   UNL     1       4.388 -19.308 -13.474  1.00  0.00     0.000 C 
BRANCH   6   7
ATOM      7  C   UNL     1       4.601 -17.833 -13.845  1.00  0.00     0.000 C 
BRANCH   7   8
ATOM      8  C   UNL     1       3.272 -17.062 -13.840  1.00  0.00     0.000 C 
BRANCH   8   9
ATOM      9  C   UNL     1       3.103 -16.161 -15.076  1.00  0.00     0.000 C 
BRANCH   9  10
ATOM     10  C   UNL     1       1.732 -15.466 -15.122  1.00  0.00     0.000 C 
BRANCH  10  11
ATOM     11  C   UNL     1       1.263 -15.166 -16.557  1.00  0.00     0.000 C 
BRANCH  11  12
ATOM     12  C   UNL     1       2.192 -14.244 -17.368  1.00  0.00     0.000 C 
BRANCH  12  13
ATOM     13  C   UNL     1       3.143 -15.016 -18.293  1.00  0.00     0.006 C 
BRANCH  13  14
ATOM     14  C   UNL     1       4.099 -14.065 -19.020  1.00  0.00     0.053 C 
BRANCH  14  15
ATOM     15  C   UNL     1       3.678 -12.640 -18.829  1.00  0.00     0.041 C 
ATOM     16  O   UNL     1       4.281 -11.906 -18.001  1.00  0.00    -0.550 OA
ATOM     17  O   UNL     1       2.623 -12.118 -19.569  1.00  0.00    -0.550 OA
ENDBRANCH  14  15
ENDBRANCH  13  14
ENDBRANCH  12  13
ENDBRANCH  11  12
ENDBRANCH  10  11
ENDBRANCH   9  10
ENDBRANCH   8   9
ENDBRANCH   7   8
ENDBRANCH   6   7
ENDBRANCH   5   6
ENDBRANCH   4   5
ENDBRANCH   3   4
ENDBRANCH   2   3
ENDBRANCH   1   2
BRANCH   1  18
ATOM     18  C   UNL     1       3.606 -24.833 -13.362  1.00  0.00     0.000 C 
BRANCH  18  19
ATOM     19  C   UNL     1       4.456 -25.681 -14.328  1.00  0.00     0.000 C 
BRANCH  19  20
ATOM     20  C   UNL     1       4.273 -25.279 -15.803  1.00  0.00     0.000 C 
BRANCH  20  21
ATOM     21  C   UNL     1       5.492 -24.524 -16.358  1.00  0.00     0.000 C 
BRANCH  21  22
ATOM     22  C   UNL     1       6.821 -25.195 -15.963  1.00  0.00     0.000 C 
BRANCH  22  23
ATOM     23  C   UNL     1       7.562 -25.801 -17.166  1.00  0.00     0.000 C 
BRANCH  23  24
ATOM     24  C   UNL     1       8.403 -24.800 -17.982  1.00  0.00    -0.000 C 
BRANCH  24  25
ATOM     25  C   UNL     1       8.576 -25.192 -19.465  1.00  0.00    -0.000 C 
BRANCH  25  26
ATOM     26  C   UNL     1       8.775 -23.967 -20.377  1.00  0.00    -0.000 C 
BRANCH  26  27
ATOM     27  C   UNL     1      10.009 -24.114 -21.291  1.00  0.00    -0.000 C 
BRANCH  27  28
ATOM     28  C   UNL     1       9.904 -23.319 -22.609  1.00  0.00    -0.000 C 
BRANCH  28  29
ATOM     29  C   UNL     1      11.013 -23.622 -23.631  1.00  0.00    -0.000 C 
BRANCH  29  30
ATOM     30  C   UNL     1      12.225 -22.687 -23.485  1.00  0.00    -0.000 C 
BRANCH  30  31
ATOM     31  C   UNL     1      13.264 -22.895 -24.599  1.00  0.00    -0.003 C 
ATOM     32  C   UNL     1      12.626 -23.272 -25.937  1.00  0.00     0.004 C 
ENDBRANCH  30  31
ENDBRANCH  29  30
ENDBRANCH  28  29
ENDBRANCH  27  28
ENDBRANCH  26  27
ENDBRANCH  25  26
ENDBRANCH  24  25
ENDBRANCH  23  24
ENDBRANCH  22  23
ENDBRANCH  21  22
ENDBRANCH  20  21
ENDBRANCH  19  20
ENDBRANCH  18  19
ENDBRANCH   1  18
TORSDOF 28
ENDMDL
MODEL 2
REMARK VINA RESULT:    17.892      1.043      1.842
REMARK INTER + INTRA:          45.810
REMARK INTER:                  47.474
REMARK INTRA:                  -1.664
REMARK UNBOUND:                -1.369
REMARK SMILES CCCCCCCCCCCCCCCCCCCCCCCCCCCCCC(=O)[O-]
REMARK SMILES IDX 16 1 17 2 18 3 19 4 20 5 21 6 22 7 23 8 24 9 25 10 26 11
REMARK SMILES IDX 27 12 28 13 29 14 30 15 31 16 32 17 15 18 14 19 13 20 12 21
REMARK SMILES IDX 11 22 10 23 9 24 8 25 7 26 6 27 5 28 4 29 3 30 2 31 1 32
REMARK H PARENT
REMARK Flexibility Score: inf
ROOT
ATOM      1  C   UNL     1       3.530 -25.489 -13.611  1.00  0.00     0.000 C 
ENDROOT
BRANCH   1   2
ATOM      2  C   UNL     1       4.220 -24.430 -12.724  1.00  0.00     0.000 C 
BRANCH   2   3
ATOM      3  C   UNL     1       4.763 -23.211 -13.498  1.00  0.00     0.000 C 
BRANCH   3   4
ATOM      4  C   UNL     1       6.292 -23.034 -13.401  1.00  0.00     0.000 C 
BRANCH   4   5
ATOM      5  C   UNL     1       6.722 -21.561 -13.508  1.00  0.00     0.000 C 
BRANCH   5   6
ATOM      6  C   UNL     1       5.629 -20.665 -14.112  1.00  0.00     0.000 C 
BRANCH   6   7
ATOM      7  C   UNL     1       5.141 -19.583 -13.136  1.00  0.00     0.000 C 
BRANCH   7   8
ATOM      8  C   UNL     1       4.861 -18.261 -13.867  1.00  0.00     0.000 C 
BRANCH   8   9
ATOM      9  C   UNL     1       3.405 -17.792 -13.710  1.00  0.00     0.000 C 
BRANCH   9  10
ATOM     10  C   UNL     1       3.202 -16.328 -14.137  1.00  0.00     0.000 C 
BRANCH  10  11
ATOM     11  C   UNL     1       2.522 -16.196 -15.512  1.00  0.00     0.000 C 
BRANCH  11  12
ATOM     12  C   UNL     1       1.655 -14.937 -15.692  1.00  0.00     0.000 C 
BRANCH  12  13
ATOM     13  C   UNL     1       1.750 -14.342 -17.104  1.00  0.00     0.006 C 
BRANCH  13  14
ATOM     14  C   UNL     1       3.109 -14.648 -17.742  1.00  0.00     0.053 C 
BRANCH  14  15
ATOM     15  C   UNL     1       3.238 -13.968 -19.070  1.00  0.00     0.041 C 
ATOM     16  O   UNL     1       3.418 -14.648 -20.115  1.00  0.00    -0.550 OA
ATOM     17  O   UNL     1       3.154 -12.583 -19.158  1.00  0.00    -0.550 OA
ENDBRANCH  14  15
ENDBRANCH  13  14
ENDBRANCH  12  13
ENDBRANCH  11  12
ENDBRANCH  10  11
ENDBRANCH   9  10
ENDBRANCH   8   9
ENDBRANCH   7   8
ENDBRANCH   6   7
ENDBRANCH   5   6
ENDBRANCH   4   5
ENDBRANCH   3   4
ENDBRANCH   2   3
ENDBRANCH   1   2
BRANCH   1  18
ATOM     18  C   UNL     1       3.925 -25.420 -15.100  1.00  0.00     0.000 C 
BRANCH  18  19
ATOM     19  C   UNL     1       5.359 -25.889 -15.412  1.00  0.00     0.000 C 
BRANCH  19  20
ATOM     20  C   UNL     1       6.050 -25.041 -16.495  1.00  0.00     0.000 C 
BRANCH  20  21
ATOM     21  C   UNL     1       7.556 -24.877 -16.235  1.00  0.00     0.000 C 
BRANCH  21  22
ATOM     22  C   UNL     1       8.408 -25.359 -17.424  1.00  0.00     0.000 C 
BRANCH  22  23
ATOM     23  C   UNL     1       7.605 -25.452 -18.732  1.00  0.00     0.000 C 
BRANCH  23  24
ATOM     24  C   UNL     1       8.028 -24.452 -19.826  1.00  0.00    -0.000 C 
BRANCH  24  25
ATOM     25  C   UNL     1       9.556 -24.280 -19.958  1.00  0.00    -0.000 C 
BRANCH  25  26
ATOM     26  C   UNL     1      10.207 -25.416 -20.768  1.00  0.00    -0.000 C 
BRANCH  26  27
ATOM     27  C   UNL     1      11.071 -24.883 -21.930  1.00  0.00    -0.000 C 
BRANCH  27  28
ATOM     28  C   UNL     1      10.479 -23.641 -22.627  1.00  0.00    -0.000 C 
BRANCH  28  29
ATOM     29  C   UNL     1      11.451 -22.907 -23.565  1.00  0.00    -0.000 C 
BRANCH  29  30
ATOM     30  C   UNL     1      11.744 -23.697 -24.852  1.00  0.00    -0.000 C 
BRANCH  30  31
ATOM     31  C   UNL     1      12.875 -23.069 -25.682  1.00  0.00    -0.003 C 
ATOM     32  C   UNL     1      14.069 -24.007 -25.857  1.00  0.00     0.004 C 
ENDBRANCH  30  31
ENDBRANCH  29  30
ENDBRANCH  28  29
ENDBRANCH  27  28
ENDBRANCH  26  27
ENDBRANCH  25  26
ENDBRANCH  24  25
ENDBRANCH  23  24
ENDBRANCH  22  23
ENDBRANCH  21  22
ENDBRANCH  20  21
ENDBRANCH  19  20
ENDBRANCH  18  19
ENDBRANCH   1  18
TORSDOF 28
ENDMDL
MODEL 3
REMARK VINA RESULT:    17.954      4.007     10.914
REMARK INTER + INTRA:          45.973
REMARK INTER:                  47.147
REMARK INTRA:                  -1.174
REMARK UNBOUND:                -1.369
REMARK SMILES CCCCCCCCCCCCCCCCCCCCCCCCCCCCCC(=O)[O-]
REMARK SMILES IDX 16 1 17 2 18 3 19 4 20 5 21 6 22 7 23 8 24 9 25 10 26 11
REMARK SMILES IDX 27 12 28 13 29 14 30 15 31 16 32 17 15 18 14 19 13 20 12 21
REMARK SMILES IDX 11 22 10 23 9 24 8 25 7 26 6 27 5 28 4 29 3 30 2 31 1 32
REMARK H PARENT
REMARK Flexibility Score: inf
ROOT
ATOM      1  C   UNL     1       4.653 -23.493 -12.995  1.00  0.00     0.000 C 
ENDROOT
BRANCH   1   2
ATOM      2  C   UNL     1       4.580 -25.010 -12.718  1.00  0.00     0.000 C 
BRANCH   2   3
ATOM      3  C   UNL     1       3.605 -25.777 -13.635  1.00  0.00     0.000 C 
BRANCH   3   4
ATOM      4  C   UNL     1       4.182 -26.112 -15.026  1.00  0.00     0.000 C 
BRANCH   4   5
ATOM      5  C   UNL     1       4.685 -24.864 -15.771  1.00  0.00     0.000 C 
BRANCH   5   6
ATOM      6  C   UNL     1       6.214 -24.840 -15.927  1.00  0.00     0.000 C 
BRANCH   6   7
ATOM      7  C   UNL     1       6.716 -25.801 -17.015  1.00  0.00     0.000 C 
BRANCH   7   8
ATOM      8  C   UNL     1       8.053 -25.325 -17.604  1.00  0.00     0.000 C 
BRANCH   8   9
ATOM      9  C   UNL     1       8.076 -25.374 -19.142  1.00  0.00     0.000 C 
BRANCH   9  10
ATOM     10  C   UNL     1       8.740 -24.135 -19.766  1.00  0.00     0.000 C 
BRANCH  10  11
ATOM     11  C   UNL     1       9.728 -24.492 -20.892  1.00  0.00     0.000 C 
BRANCH  11  12
ATOM     12  C   UNL     1       9.509 -23.735 -22.215  1.00  0.00     0.000 C 
BRANCH  12  13
ATOM     13  C   UNL     1      10.809 -23.173 -22.806  1.00  0.00     0.006 C 
BRANCH  13  14
ATOM     14  C   UNL     1      11.171 -23.879 -24.117  1.00  0.00     0.053 C 
BRANCH  14  15
ATOM     15  C   UNL     1      12.346 -23.219 -24.769  1.00  0.00     0.041 C 
ATOM     16  O   UNL     1      12.597 -23.429 -25.985  1.00  0.00    -0.550 OA
ATOM     17  O   UNL     1      13.164 -22.365 -24.036  1.00  0.00    -0.550 OA
ENDBRANCH  14  15
ENDBRANCH  13  14
ENDBRANCH  12  13
ENDBRANCH  11  12
ENDBRANCH  10  11
ENDBRANCH   9  10
ENDBRANCH   8   9
ENDBRANCH   7   8
ENDBRANCH   6   7
ENDBRANCH   5   6
ENDBRANCH   4   5
ENDBRANCH   3   4
ENDBRANCH   2   3
ENDBRANCH   1   2
BRANCH   1  18
ATOM     18  C   UNL     1       6.074 -22.902 -12.904  1.00  0.00     0.000 C 
BRANCH  18  19
ATOM     19  C   UNL     1       6.318 -21.665 -13.789  1.00  0.00     0.000 C 
BRANCH  19  20
ATOM     20  C   UNL     1       5.050 -20.820 -14.008  1.00  0.00     0.000 C 
BRANCH  20  21
ATOM     21  C   UNL     1       5.310 -19.317 -13.820  1.00  0.00     0.000 C 
BRANCH  21  22
ATOM     22  C   UNL     1       4.036 -18.550 -13.422  1.00  0.00     0.000 C 
BRANCH  22  23
ATOM     23  C   UNL     1       3.844 -17.255 -14.228  1.00  0.00     0.000 C 
BRANCH  23  24
ATOM     24  C   UNL     1       2.932 -16.205 -13.563  1.00  0.00    -0.000 C 
BRANCH  24  25
ATOM     25  C   UNL     1       2.428 -15.113 -14.531  1.00  0.00    -0.000 C 
BRANCH  25  26
ATOM     26  C   UNL     1       1.916 -15.697 -15.860  1.00  0.00    -0.000 C 
BRANCH  26  27
ATOM     27  C   UNL     1       2.012 -14.683 -17.019  1.00  0.00    -0.000 C 
BRANCH  27  28
ATOM     28  C   UNL     1       3.215 -14.920 -17.955  1.00  0.00    -0.000 C 
BRANCH  28  29
ATOM     29  C   UNL     1       3.203 -14.077 -19.241  1.00  0.00    -0.000 C 
BRANCH  29  30
ATOM     30  C   UNL     1       2.979 -12.580 -18.968  1.00  0.00    -0.000 C 
BRANCH  30  31
ATOM     31  C   UNL     1       4.300 -11.804 -18.837  1.00  0.00    -0.003 C 
ATOM     32  C   UNL     1       4.785 -11.706 -17.390  1.00  0.00     0.004 C 
ENDBRANCH  30  31
ENDBRANCH  29  30
ENDBRANCH  28  29
ENDBRANCH  27  28
ENDBRANCH  26  27
ENDBRANCH  25  26
ENDBRANCH  24  25
ENDBRANCH  23  24
ENDBRANCH  22  23
ENDBRANCH  21  22
ENDBRANCH  20  21
ENDBRANCH  19  20
ENDBRANCH  18  19
ENDBRANCH   1  18
TORSDOF 28
ENDMDL
MODEL 4
REMARK VINA RESULT:    18.702      4.589     11.293
REMARK INTER + INTRA:          47.945
REMARK INTER:                  49.054
REMARK INTRA:                  -1.109
REMARK UNBOUND:                -1.369
REMARK SMILES CCCCCCCCCCCCCCCCCCCCCCCCCCCCCC(=O)[O-]
REMARK SMILES IDX 16 1 17 2 18 3 19 4 20 5 21 6 22 7 23 8 24 9 25 10 26 11
REMARK SMILES IDX 27 12 28 13 29 14 30 15 31 16 32 17 15 18 14 19 13 20 12 21
REMARK SMILES IDX 11 22 10 23 9 24 8 25 7 26 6 27 5 28 4 29 3 30 2 31 1 32
REMARK H PARENT
REMARK Flexibility Score: inf
ROOT
ATOM      1  C   UNL     1       4.122 -24.118 -13.562  1.00  0.00     0.000 C 
ENDROOT
BRANCH   1   2
ATOM      2  C   UNL     1       4.095 -25.564 -14.101  1.00  0.00     0.000 C 
BRANCH   2   3
ATOM      3  C   UNL     1       4.621 -25.714 -15.544  1.00  0.00     0.000 C 
BRANCH   3   4
ATOM      4  C   UNL     1       5.918 -24.928 -15.824  1.00  0.00     0.000 C 
BRANCH   4   5
ATOM      5  C   UNL     1       6.797 -25.604 -16.891  1.00  0.00     0.000 C 
BRANCH   5   6
ATOM      6  C   UNL     1       7.320 -24.614 -17.944  1.00  0.00     0.000 C 
BRANCH   6   7
ATOM      7  C   UNL     1       7.932 -25.315 -19.166  1.00  0.00     0.000 C 
BRANCH   7   8
ATOM      8  C   UNL     1       8.759 -24.335 -20.013  1.00  0.00     0.000 C 
BRANCH   8   9
ATOM      9  C   UNL     1      10.170 -24.862 -20.324  1.00  0.00     0.000 C 
BRANCH   9  10
ATOM     10  C   UNL     1      10.495 -24.840 -21.827  1.00  0.00     0.000 C 
BRANCH  10  11
ATOM     11  C   UNL     1      10.775 -23.422 -22.356  1.00  0.00     0.000 C 
BRANCH  11  12
ATOM     12  C   UNL     1      11.011 -23.328 -23.874  1.00  0.00     0.000 C 
BRANCH  12  13
ATOM     13  C   UNL     1      12.458 -22.960 -24.234  1.00  0.00     0.006 C 
BRANCH  13  14
ATOM     14  C   UNL     1      12.677 -22.999 -25.750  1.00  0.00     0.053 C 
BRANCH  14  15
ATOM     15  C   UNL     1      13.711 -24.021 -26.111  1.00  0.00     0.041 C 
ATOM     16  O   UNL     1      14.901 -23.885 -25.720  1.00  0.00    -0.550 OA
ATOM     17  O   UNL     1      13.361 -25.128 -26.875  1.00  0.00    -0.550 OA
ENDBRANCH  14  15
ENDBRANCH  13  14
ENDBRANCH  12  13
ENDBRANCH  11  12
ENDBRANCH  10  11
ENDBRANCH   9  10
ENDBRANCH   8   9
ENDBRANCH   7   8
ENDBRANCH   6   7
ENDBRANCH   5   6
ENDBRANCH   4   5
ENDBRANCH   3   4
ENDBRANCH   2   3
ENDBRANCH   1   2
BRANCH   1  18
ATOM     18  C   UNL     1       5.388 -23.770 -12.753  1.00  0.00     0.000 C 
BRANCH  18  19
ATOM     19  C   UNL     1       6.311 -22.728 -13.413  1.00  0.00     0.000 C 
BRANCH  19  20
ATOM     20  C   UNL     1       5.539 -21.598 -14.117  1.00  0.00     0.000 C 
BRANCH  20  21
ATOM     21  C   UNL     1       5.647 -20.261 -13.366  1.00  0.00     0.000 C 
BRANCH  21  22
ATOM     22  C   UNL     1       5.197 -19.069 -14.230  1.00  0.00     0.000 C 
BRANCH  22  23
ATOM     23  C   UNL     1       4.609 -17.918 -13.397  1.00  0.00     0.000 C 
BRANCH  23  24
ATOM     24  C   UNL     1       3.219 -17.432 -13.851  1.00  0.00    -0.000 C 
BRANCH  24  25
ATOM     25  C   UNL     1       3.261 -16.409 -15.007  1.00  0.00    -0.000 C 
BRANCH  25  26
ATOM     26  C   UNL     1       1.931 -15.651 -15.168  1.00  0.00    -0.000 C 
BRANCH  26  27
ATOM     27  C   UNL     1       1.658 -15.257 -16.635  1.00  0.00    -0.000 C 
BRANCH  27  28
ATOM     28  C   UNL     1       1.821 -13.749 -16.915  1.00  0.00    -0.000 C 
BRANCH  28  29
ATOM     29  C   UNL     1       3.051 -13.384 -17.763  1.00  0.00    -0.000 C 
BRANCH  29  30
ATOM     30  C   UNL     1       3.318 -14.398 -18.888  1.00  0.00    -0.000 C 
BRANCH  30  31
ATOM     31  C   UNL     1       4.499 -15.329 -18.571  1.00  0.00    -0.003 C 
ATOM     32  C   UNL     1       5.714 -14.576 -18.028  1.00  0.00     0.004 C 
ENDBRANCH  30  31
ENDBRANCH  29  30
ENDBRANCH  28  29
ENDBRANCH  27  28
ENDBRANCH  26  27
ENDBRANCH  25  26
ENDBRANCH  24  25
ENDBRANCH  23  24
ENDBRANCH  22  23
ENDBRANCH  21  22
ENDBRANCH  20  21
ENDBRANCH  19  20
ENDBRANCH  18  19
ENDBRANCH   1  18
TORSDOF 28
ENDMDL
MODEL 5
REMARK VINA RESULT:    18.777      3.823     11.732
REMARK INTER + INTRA:          48.143
REMARK INTER:                  49.711
REMARK INTRA:                  -1.568
REMARK UNBOUND:                -1.369
REMARK SMILES CCCCCCCCCCCCCCCCCCCCCCCCCCCCCC(=O)[O-]
REMARK SMILES IDX 16 1 17 2 18 3 19 4 20 5 21 6 22 7 23 8 24 9 25 10 26 11
REMARK SMILES IDX 27 12 28 13 29 14 30 15 31 16 32 17 15 18 14 19 13 20 12 21
REMARK SMILES IDX 11 22 10 23 9 24 8 25 7 26 6 27 5 28 4 29 3 30 2 31 1 32
REMARK H PARENT
REMARK Flexibility Score: inf
ROOT
ATOM      1  C   UNL     1       9.379 -19.075 -21.756  1.00  0.00     0.000 C 
ENDROOT
BRANCH   1   2
ATOM      2  C   UNL     1       8.725 -20.290 -22.447  1.00  0.00     0.000 C 
BRANCH   2   3
ATOM      3  C   UNL     1       7.849 -21.154 -21.516  1.00  0.00     0.000 C 
BRANCH   3   4
ATOM      4  C   UNL     1       7.879 -22.661 -21.844  1.00  0.00     0.000 C 
BRANCH   4   5
ATOM      5  C   UNL     1       9.304 -23.239 -21.822  1.00  0.00     0.000 C 
BRANCH   5   6
ATOM      6  C   UNL     1       9.471 -24.368 -20.792  1.00  0.00     0.000 C 
BRANCH   6   7
ATOM      7  C   UNL     1       8.429 -24.305 -19.666  1.00  0.00     0.000 C 
BRANCH   7   8
ATOM      8  C   UNL     1       8.220 -25.685 -19.024  1.00  0.00     0.000 C 
BRANCH   8   9
ATOM      9  C   UNL     1       7.069 -25.698 -18.004  1.00  0.00     0.000 C 
BRANCH   9  10
ATOM     10  C   UNL     1       7.476 -25.118 -16.639  1.00  0.00     0.000 C 
BRANCH  10  11
ATOM     11  C   UNL     1       6.443 -25.407 -15.535  1.00  0.00     0.000 C 
BRANCH  11  12
ATOM     12  C   UNL     1       5.025 -24.878 -15.813  1.00  0.00     0.000 C 
BRANCH  12  13
ATOM     13  C   UNL     1       4.339 -24.315 -14.560  1.00  0.00     0.006 C 
BRANCH  13  14
ATOM     14  C   UNL     1       5.364 -23.993 -13.468  1.00  0.00     0.053 C 
BRANCH  14  15
ATOM     15  C   UNL     1       5.978 -22.646 -13.695  1.00  0.00     0.041 C 
ATOM     16  O   UNL     1       5.328 -21.745 -14.290  1.00  0.00    -0.550 OA
ATOM     17  O   UNL     1       7.266 -22.380 -13.245  1.00  0.00    -0.550 OA
ENDBRANCH  14  15
ENDBRANCH  13  14
ENDBRANCH  12  13
ENDBRANCH  11  12
ENDBRANCH  10  11
ENDBRANCH   9  10
ENDBRANCH   8   9
ENDBRANCH   7   8
ENDBRANCH   6   7
ENDBRANCH   5   6
ENDBRANCH   4   5
ENDBRANCH   3   4
ENDBRANCH   2   3
ENDBRANCH   1   2
BRANCH   1  18
ATOM     18  C   UNL     1       9.038 -17.719 -22.406  1.00  0.00     0.000 C 
BRANCH  18  19
ATOM     19  C   UNL     1       8.563 -16.631 -21.423  1.00  0.00     0.000 C 
BRANCH  19  20
ATOM     20  C   UNL     1       8.422 -17.144 -19.979  1.00  0.00     0.000 C 
BRANCH  20  21
ATOM     21  C   UNL     1       7.639 -16.167 -19.086  1.00  0.00     0.000 C 
BRANCH  21  22
ATOM     22  C   UNL     1       6.571 -16.882 -18.239  1.00  0.00     0.000 C 
BRANCH  22  23
ATOM     23  C   UNL     1       5.627 -15.903 -17.521  1.00  0.00     0.000 C 
BRANCH  23  24
ATOM     24  C   UNL     1       5.262 -14.642 -18.329  1.00  0.00    -0.000 C 
BRANCH  24  25
ATOM     25  C   UNL     1       3.872 -14.709 -18.997  1.00  0.00    -0.000 C 
BRANCH  25  26
ATOM     26  C   UNL     1       3.072 -13.406 -18.818  1.00  0.00    -0.000 C 
BRANCH  26  27
ATOM     27  C   UNL     1       2.174 -13.440 -17.563  1.00  0.00    -0.000 C 
BRANCH  27  28
ATOM     28  C   UNL     1       2.038 -14.842 -16.934  1.00  0.00    -0.000 C 
BRANCH  28  29
ATOM     29  C   UNL     1       0.591 -15.282 -16.654  1.00  0.00    -0.000 C 
BRANCH  29  30
ATOM     30  C   UNL     1       0.501 -16.722 -16.121  1.00  0.00    -0.000 C 
BRANCH  30  31
ATOM     31  C   UNL     1      -0.750 -17.458 -16.626  1.00  0.00    -0.003 C 
ATOM     32  C   UNL     1      -1.413 -16.750 -17.808  1.00  0.00     0.004 C 
ENDBRANCH  30  31
ENDBRANCH  29  30
ENDBRANCH  28  29
ENDBRANCH  27  28
ENDBRANCH  26  27
ENDBRANCH  25  26
ENDBRANCH  24  25
ENDBRANCH  23  24
ENDBRANCH  22  23
ENDBRANCH  21  22
ENDBRANCH  20  21
ENDBRANCH  19  20
ENDBRANCH  18  19
ENDBRANCH   1  18
TORSDOF 28
ENDMDL
MODEL 6
REMARK VINA RESULT:    19.146      3.785     11.187
REMARK INTER + INTRA:          49.115
REMARK INTER:                  49.542
REMARK INTRA:                  -0.427
REMARK UNBOUND:                -1.369
REMARK SMILES CCCCCCCCCCCCCCCCCCCCCCCCCCCCCC(=O)[O-]
REMARK SMILES IDX 16 1 17 2 18 3 19 4 20 5 21 6 22 7 23 8 24 9 25 10 26 11
REMARK SMILES IDX 27 12 28 13 29 14 30 15 31 16 32 17 15 18 14 19 13 20 12 21
REMARK SMILES IDX 11 22 10 23 9 24 8 25 7 26 6 27 5 28 4 29 3 30 2 31 1 32
REMARK H PARENT
REMARK Flexibility Score: inf
ROOT
ATOM      1  C   UNL     1       7.647 -21.482 -21.699  1.00  0.00     0.000 C 
ENDROOT
BRANCH   1   2
ATOM      2  C   UNL     1       7.998 -22.932 -21.302  1.00  0.00     0.000 C 
BRANCH   2   3
ATOM      3  C   UNL     1       9.304 -23.463 -21.928  1.00  0.00     0.000 C 
BRANCH   3   4
ATOM      4  C   UNL     1      10.026 -24.524 -21.071  1.00  0.00     0.000 C 
BRANCH   4   5
ATOM      5  C   UNL     1       9.464 -24.609 -19.642  1.00  0.00     0.000 C 
BRANCH   5   6
ATOM      6  C   UNL     1       7.963 -24.942 -19.613  1.00  0.00     0.000 C 
BRANCH   6   7
ATOM      7  C   UNL     1       7.580 -25.854 -18.438  1.00  0.00     0.000 C 
BRANCH   7   8
ATOM      8  C   UNL     1       7.852 -25.168 -17.090  1.00  0.00     0.000 C 
BRANCH   8   9
ATOM      9  C   UNL     1       6.814 -25.536 -16.016  1.00  0.00     0.000 C 
BRANCH   9  10
ATOM     10  C   UNL     1       5.469 -24.818 -16.217  1.00  0.00     0.000 C 
BRANCH  10  11
ATOM     11  C   UNL     1       4.276 -25.621 -15.667  1.00  0.00     0.000 C 
BRANCH  11  12
ATOM     12  C   UNL     1       4.255 -25.793 -14.138  1.00  0.00     0.000 C 
BRANCH  12  13
ATOM     13  C   UNL     1       3.987 -24.479 -13.391  1.00  0.00     0.006 C 
BRANCH  13  14
ATOM     14  C   UNL     1       5.269 -23.939 -12.746  1.00  0.00     0.053 C 
BRANCH  14  15
ATOM     15  C   UNL     1       5.886 -22.875 -13.600  1.00  0.00     0.041 C 
ATOM     16  O   UNL     1       5.238 -22.375 -14.558  1.00  0.00    -0.550 OA
ATOM     17  O   UNL     1       7.176 -22.429 -13.337  1.00  0.00    -0.550 OA
ENDBRANCH  14  15
ENDBRANCH  13  14
ENDBRANCH  12  13
ENDBRANCH  11  12
ENDBRANCH  10  11
ENDBRANCH   9  10
ENDBRANCH   8   9
ENDBRANCH   7   8
ENDBRANCH   6   7
ENDBRANCH   5   6
ENDBRANCH   4   5
ENDBRANCH   3   4
ENDBRANCH   2   3
ENDBRANCH   1   2
BRANCH   1  18
ATOM     18  C   UNL     1       8.790 -20.728 -22.408  1.00  0.00     0.000 C 
BRANCH  18  19
ATOM     19  C   UNL     1       9.246 -19.435 -21.704  1.00  0.00     0.000 C 
BRANCH  19  20
ATOM     20  C   UNL     1       9.166 -18.194 -22.612  1.00  0.00     0.000 C 
BRANCH  20  21
ATOM     21  C   UNL     1       8.934 -16.901 -21.813  1.00  0.00     0.000 C 
BRANCH  21  22
ATOM     22  C   UNL     1       8.740 -17.173 -20.310  1.00  0.00     0.000 C 
BRANCH  22  23
ATOM     23  C   UNL     1       7.831 -16.135 -19.630  1.00  0.00     0.000 C 
BRANCH  23  24
ATOM     24  C   UNL     1       7.284 -16.555 -18.252  1.00  0.00    -0.000 C 
BRANCH  24  25
ATOM     25  C   UNL     1       5.743 -16.545 -18.161  1.00  0.00    -0.000 C 
BRANCH  25  26
ATOM     26  C   UNL     1       5.197 -15.221 -17.598  1.00  0.00    -0.000 C 
BRANCH  26  27
ATOM     27  C   UNL     1       4.726 -14.262 -18.712  1.00  0.00    -0.000 C 
BRANCH  27  28
ATOM     28  C   UNL     1       3.448 -13.474 -18.355  1.00  0.00    -0.000 C 
BRANCH  28  29
ATOM     29  C   UNL     1       2.141 -14.270 -18.505  1.00  0.00    -0.000 C 
BRANCH  29  30
ATOM     30  C   UNL     1       1.327 -14.327 -17.202  1.00  0.00    -0.000 C 
BRANCH  30  31
ATOM     31  C   UNL     1       1.832 -15.417 -16.242  1.00  0.00    -0.003 C 
ATOM     32  C   UNL     1       1.986 -14.913 -14.807  1.00  0.00     0.004 C 
ENDBRANCH  30  31
ENDBRANCH  29  30
ENDBRANCH  28  29
ENDBRANCH  27  28
ENDBRANCH  26  27
ENDBRANCH  25  26
ENDBRANCH  24  25
ENDBRANCH  23  24
ENDBRANCH  22  23
ENDBRANCH  21  22
ENDBRANCH  20  21
ENDBRANCH  19  20
ENDBRANCH  18  19
ENDBRANCH   1  18
TORSDOF 28
ENDMDL
MODEL 7
REMARK VINA RESULT:    19.325      1.628      2.350
REMARK INTER + INTRA:          49.590
REMARK INTER:                  50.380
REMARK INTRA:                  -0.790
REMARK UNBOUND:                -1.369
REMARK SMILES CCCCCCCCCCCCCCCCCCCCCCCCCCCCCC(=O)[O-]
REMARK SMILES IDX 16 1 17 2 18 3 19 4 20 5 21 6 22 7 23 8 24 9 25 10 26 11
REMARK SMILES IDX 27 12 28 13 29 14 30 15 31 16 32 17 15 18 14 19 13 20 12 21
REMARK SMILES IDX 11 22 10 23 9 24 8 25 7 26 6 27 5 28 4 29 3 30 2 31 1 32
REMARK H PARENT
REMARK Flexibility Score: inf
ROOT
ATOM      1  C   UNL     1       4.592 -25.221 -13.271  1.00  0.00     0.000 C 
ENDROOT
BRANCH   1   2
ATOM      2  C   UNL     1       4.753 -23.694 -13.113  1.00  0.00     0.000 C 
BRANCH   2   3
ATOM      3  C   UNL     1       6.063 -23.130 -13.701  1.00  0.00     0.000 C 
BRANCH   3   4
ATOM      4  C   UNL     1       6.336 -21.658 -13.329  1.00  0.00     0.000 C 
BRANCH   4   5
ATOM      5  C   UNL     1       5.386 -20.684 -14.045  1.00  0.00     0.000 C 
BRANCH   5   6
ATOM      6  C   UNL     1       5.350 -19.296 -13.385  1.00  0.00     0.000 C 
BRANCH   6   7
ATOM      7  C   UNL     1       4.694 -18.231 -14.277  1.00  0.00     0.000 C 
BRANCH   7   8
ATOM      8  C   UNL     1       5.673 -17.722 -15.346  1.00  0.00     0.000 C 
BRANCH   8   9
ATOM      9  C   UNL     1       4.959 -17.105 -16.561  1.00  0.00     0.000 C 
BRANCH   9  10
ATOM     10  C   UNL     1       5.901 -16.883 -17.755  1.00  0.00     0.000 C 
BRANCH  10  11
ATOM     11  C   UNL     1       6.120 -15.392 -18.074  1.00  0.00     0.000 C 
BRANCH  11  12
ATOM     12  C   UNL     1       4.970 -14.714 -18.842  1.00  0.00     0.000 C 
BRANCH  12  13
ATOM     13  C   UNL     1       3.875 -14.165 -17.917  1.00  0.00     0.006 C 
BRANCH  13  14
ATOM     14  C   UNL     1       2.550 -14.903 -18.133  1.00  0.00     0.053 C 
BRANCH  14  15
ATOM     15  C   UNL     1       1.569 -14.562 -17.053  1.00  0.00     0.041 C 
ATOM     16  O   UNL     1       1.027 -15.476 -16.377  1.00  0.00    -0.550 OA
ATOM     17  O   UNL     1       1.257 -13.233 -16.788  1.00  0.00    -0.550 OA
ENDBRANCH  14  15
ENDBRANCH  13  14
ENDBRANCH  12  13
ENDBRANCH  11  12
ENDBRANCH  10  11
ENDBRANCH   9  10
ENDBRANCH   8   9
ENDBRANCH   7   8
ENDBRANCH   6   7
ENDBRANCH   5   6
ENDBRANCH   4   5
ENDBRANCH   3   4
ENDBRANCH   2   3
ENDBRANCH   1   2
BRANCH   1  18
ATOM     18  C   UNL     1       3.621 -25.641 -14.393  1.00  0.00     0.000 C 
BRANCH  18  19
ATOM     19  C   UNL     1       4.291 -25.965 -15.741  1.00  0.00     0.000 C 
BRANCH  19  20
ATOM     20  C   UNL     1       5.290 -24.884 -16.193  1.00  0.00     0.000 C 
BRANCH  20  21
ATOM     21  C   UNL     1       6.716 -25.437 -16.350  1.00  0.00     0.000 C 
BRANCH  21  22
ATOM     22  C   UNL     1       7.088 -25.677 -17.825  1.00  0.00     0.000 C 
BRANCH  22  23
ATOM     23  C   UNL     1       8.400 -24.985 -18.229  1.00  0.00     0.000 C 
BRANCH  23  24
ATOM     24  C   UNL     1       8.657 -24.914 -19.747  1.00  0.00    -0.000 C 
BRANCH  24  25
ATOM     25  C   UNL     1       8.571 -23.487 -20.330  1.00  0.00    -0.000 C 
BRANCH  25  26
ATOM     26  C   UNL     1       8.806 -23.459 -21.851  1.00  0.00    -0.000 C 
BRANCH  26  27
ATOM     27  C   UNL     1      10.247 -23.863 -22.227  1.00  0.00    -0.000 C 
BRANCH  27  28
ATOM     28  C   UNL     1      10.915 -22.911 -23.240  1.00  0.00    -0.000 C 
BRANCH  28  29
ATOM     29  C   UNL     1      11.459 -23.599 -24.504  1.00  0.00    -0.000 C 
BRANCH  29  30
ATOM     30  C   UNL     1      12.910 -23.198 -24.819  1.00  0.00    -0.000 C 
BRANCH  30  31
ATOM     31  C   UNL     1      13.374 -23.710 -26.192  1.00  0.00    -0.003 C 
ATOM     32  C   UNL     1      14.843 -24.135 -26.197  1.00  0.00     0.004 C 
ENDBRANCH  30  31
ENDBRANCH  29  30
ENDBRANCH  28  29
ENDBRANCH  27  28
ENDBRANCH  26  27
ENDBRANCH  25  26
ENDBRANCH  24  25
ENDBRANCH  23  24
ENDBRANCH  22  23
ENDBRANCH  21  22
ENDBRANCH  20  21
ENDBRANCH  19  20
ENDBRANCH  18  19
ENDBRANCH   1  18
TORSDOF 28
ENDMDL
MODEL 8
REMARK VINA RESULT:    19.375      3.680     10.852
REMARK INTER + INTRA:          49.719
REMARK INTER:                  50.413
REMARK INTRA:                  -0.694
REMARK UNBOUND:                -1.369
REMARK SMILES CCCCCCCCCCCCCCCCCCCCCCCCCCCCCC(=O)[O-]
REMARK SMILES IDX 16 1 17 2 18 3 19 4 20 5 21 6 22 7 23 8 24 9 25 10 26 11
REMARK SMILES IDX 27 12 28 13 29 14 30 15 31 16 32 17 15 18 14 19 13 20 12 21
REMARK SMILES IDX 11 22 10 23 9 24 8 25 7 26 6 27 5 28 4 29 3 30 2 31 1 32
REMARK H PARENT
REMARK Flexibility Score: inf
ROOT
ATOM      1  C   UNL     1       5.402 -20.906 -13.743  1.00  0.00     0.000 C 
ENDROOT
BRANCH   1   2
ATOM      2  C   UNL     1       6.543 -21.907 -13.462  1.00  0.00     0.000 C 
BRANCH   2   3
ATOM      3  C   UNL     1       6.065 -23.314 -13.047  1.00  0.00     0.000 C 
BRANCH   3   4
ATOM      4  C   UNL     1       4.531 -23.474 -13.019  1.00  0.00     0.000 C 
BRANCH   4   5
ATOM      5  C   UNL     1       4.095 -24.910 -12.686  1.00  0.00     0.000 C 
BRANCH   5   6
ATOM      6  C   UNL     1       3.328 -25.581 -13.838  1.00  0.00     0.000 C 
BRANCH   6   7
ATOM      7  C   UNL     1       4.250 -26.046 -14.975  1.00  0.00     0.000 C 
BRANCH   7   8
ATOM      8  C   UNL     1       4.912 -24.851 -15.676  1.00  0.00     0.000 C 
BRANCH   8   9
ATOM      9  C   UNL     1       6.400 -25.093 -15.986  1.00  0.00     0.000 C 
BRANCH   9  10
ATOM     10  C   UNL     1       6.708 -25.058 -17.492  1.00  0.00     0.000 C 
BRANCH  10  11
ATOM     11  C   UNL     1       8.148 -25.493 -17.817  1.00  0.00     0.000 C 
BRANCH  11  12
ATOM     12  C   UNL     1       8.905 -24.569 -18.788  1.00  0.00     0.000 C 
BRANCH  12  13
ATOM     13  C   UNL     1       8.915 -25.095 -20.230  1.00  0.00     0.006 C 
BRANCH  13  14
ATOM     14  C   UNL     1      10.149 -24.598 -20.990  1.00  0.00     0.053 C 
BRANCH  14  15
ATOM     15  C   UNL     1       9.757 -23.640 -22.073  1.00  0.00     0.041 C 
ATOM     16  O   UNL     1       8.582 -23.187 -22.124  1.00  0.00    -0.550 OA
ATOM     17  O   UNL     1      10.689 -23.241 -23.024  1.00  0.00    -0.550 OA
ENDBRANCH  14  15
ENDBRANCH  13  14
ENDBRANCH  12  13
ENDBRANCH  11  12
ENDBRANCH  10  11
ENDBRANCH   9  10
ENDBRANCH   8   9
ENDBRANCH   7   8
ENDBRANCH   6   7
ENDBRANCH   5   6
ENDBRANCH   4   5
ENDBRANCH   3   4
ENDBRANCH   2   3
ENDBRANCH   1   2
BRANCH   1  18
ATOM     18  C   UNL     1       5.863 -19.439 -13.861  1.00  0.00     0.000 C 
BRANCH  18  19
ATOM     19  C   UNL     1       4.725 -18.400 -13.851  1.00  0.00     0.000 C 
BRANCH  19  20
ATOM     20  C   UNL     1       4.455 -17.788 -15.238  1.00  0.00     0.000 C 
BRANCH  20  21
ATOM     21  C   UNL     1       5.749 -17.542 -16.029  1.00  0.00     0.000 C 
BRANCH  21  22
ATOM     22  C   UNL     1       5.474 -17.224 -17.510  1.00  0.00     0.000 C 
BRANCH  22  23
ATOM     23  C   UNL     1       5.870 -15.788 -17.894  1.00  0.00     0.000 C 
BRANCH  23  24
ATOM     24  C   UNL     1       4.746 -14.744 -17.750  1.00  0.00    -0.000 C 
BRANCH  24  25
ATOM     25  C   UNL     1       3.887 -14.572 -19.021  1.00  0.00    -0.000 C 
BRANCH  25  26
ATOM     26  C   UNL     1       2.814 -13.479 -18.861  1.00  0.00    -0.000 C 
BRANCH  26  27
ATOM     27  C   UNL     1       2.374 -13.303 -17.392  1.00  0.00    -0.000 C 
BRANCH  27  28
ATOM     28  C   UNL     1       1.813 -14.591 -16.754  1.00  0.00    -0.000 C 
BRANCH  28  29
ATOM     29  C   UNL     1       0.782 -15.338 -17.616  1.00  0.00    -0.000 C 
BRANCH  29  30
ATOM     30  C   UNL     1      -0.067 -16.327 -16.801  1.00  0.00    -0.000 C 
BRANCH  30  31
ATOM     31  C   UNL     1      -1.237 -16.905 -17.614  1.00  0.00    -0.003 C 
ATOM     32  C   UNL     1      -2.125 -17.837 -16.788  1.00  0.00     0.004 C 
ENDBRANCH  30  31
ENDBRANCH  29  30
ENDBRANCH  28  29
ENDBRANCH  27  28
ENDBRANCH  26  27
ENDBRANCH  25  26
ENDBRANCH  24  25
ENDBRANCH  23  24
ENDBRANCH  22  23
ENDBRANCH  21  22
ENDBRANCH  20  21
ENDBRANCH  19  20
ENDBRANCH  18  19
ENDBRANCH   1  18
TORSDOF 28
ENDMDL
MODEL 9
REMARK VINA RESULT:    19.440      4.124     10.602
REMARK INTER + INTRA:          49.892
REMARK INTER:                  51.267
REMARK INTRA:                  -1.375
REMARK UNBOUND:                -1.369
REMARK SMILES CCCCCCCCCCCCCCCCCCCCCCCCCCCCCC(=O)[O-]
REMARK SMILES IDX 16 1 17 2 18 3 19 4 20 5 21 6 22 7 23 8 24 9 25 10 26 11
REMARK SMILES IDX 27 12 28 13 29 14 30 15 31 16 32 17 15 18 14 19 13 20 12 21
REMARK SMILES IDX 11 22 10 23 9 24 8 25 7 26 6 27 5 28 4 29 3 30 2 31 1 32
REMARK H PARENT
REMARK Flexibility Score: inf
ROOT
ATOM      1  C   UNL     1       4.621 -23.423 -13.103  1.00  0.00     0.000 C 
ENDROOT
BRANCH   1   2
ATOM      2  C   UNL     1       4.282 -24.871 -12.691  1.00  0.00     0.000 C 
BRANCH   2   3
ATOM      3  C   UNL     1       3.743 -25.748 -13.840  1.00  0.00     0.000 C 
BRANCH   3   4
ATOM      4  C   UNL     1       4.036 -25.189 -15.248  1.00  0.00     0.000 C 
BRANCH   4   5
ATOM      5  C   UNL     1       5.334 -25.754 -15.848  1.00  0.00     0.000 C 
BRANCH   5   6
ATOM      6  C   UNL     1       6.354 -24.658 -16.197  1.00  0.00     0.000 C 
BRANCH   6   7
ATOM      7  C   UNL     1       7.658 -25.223 -16.779  1.00  0.00     0.000 C 
BRANCH   7   8
ATOM      8  C   UNL     1       7.381 -26.109 -18.004  1.00  0.00     0.000 C 
BRANCH   8   9
ATOM      9  C   UNL     1       7.616 -25.373 -19.335  1.00  0.00     0.000 C 
BRANCH   9  10
ATOM     10  C   UNL     1       8.935 -24.583 -19.353  1.00  0.00     0.000 C 
BRANCH  10  11
ATOM     11  C   UNL     1       9.220 -23.930 -20.718  1.00  0.00     0.000 C 
BRANCH  11  12
ATOM     12  C   UNL     1      10.546 -24.349 -21.378  1.00  0.00     0.000 C 
BRANCH  12  13
ATOM     13  C   UNL     1      10.574 -24.082 -22.889  1.00  0.00     0.006 C 
BRANCH  13  14
ATOM     14  C   UNL     1      11.775 -23.212 -23.274  1.00  0.00     0.053 C 
BRANCH  14  15
ATOM     15  C   UNL     1      12.059 -23.317 -24.741  1.00  0.00     0.041 C 
ATOM     16  O   UNL     1      11.181 -23.762 -25.526  1.00  0.00    -0.550 OA
ATOM     17  O   UNL     1      13.292 -22.918 -25.243  1.00  0.00    -0.550 OA
ENDBRANCH  14  15
ENDBRANCH  13  14
ENDBRANCH  12  13
ENDBRANCH  11  12
ENDBRANCH  10  11
ENDBRANCH   9  10
ENDBRANCH   8   9
ENDBRANCH   7   8
ENDBRANCH   6   7
ENDBRANCH   5   6
ENDBRANCH   4   5
ENDBRANCH   3   4
ENDBRANCH   2   3
ENDBRANCH   1   2
BRANCH   1  18
ATOM     18  C   UNL     1       6.112 -23.188 -13.417  1.00  0.00     0.000 C 
BRANCH  18  19
ATOM     19  C   UNL     1       6.469 -21.744 -13.821  1.00  0.00     0.000 C 
BRANCH  19  20
ATOM     20  C   UNL     1       5.604 -20.688 -13.109  1.00  0.00     0.000 C 
BRANCH  20  21
ATOM     21  C   UNL     1       5.782 -19.285 -13.713  1.00  0.00     0.000 C 
BRANCH  21  22
ATOM     22  C   UNL     1       4.479 -18.465 -13.673  1.00  0.00     0.000 C 
BRANCH  22  23
ATOM     23  C   UNL     1       4.289 -17.591 -14.923  1.00  0.00     0.000 C 
BRANCH  23  24
ATOM     24  C   UNL     1       5.551 -17.410 -15.789  1.00  0.00    -0.000 C 
BRANCH  24  25
ATOM     25  C   UNL     1       5.254 -17.073 -17.265  1.00  0.00    -0.000 C 
BRANCH  25  26
ATOM     26  C   UNL     1       6.139 -15.930 -17.796  1.00  0.00    -0.000 C 
BRANCH  26  27
ATOM     27  C   UNL     1       5.360 -14.606 -17.940  1.00  0.00    -0.000 C 
BRANCH  27  28
ATOM     28  C   UNL     1       4.337 -14.610 -19.094  1.00  0.00    -0.000 C 
BRANCH  28  29
ATOM     29  C   UNL     1       3.295 -13.480 -19.031  1.00  0.00    -0.000 C 
BRANCH  29  30
ATOM     30  C   UNL     1       2.372 -13.592 -17.805  1.00  0.00    -0.000 C 
BRANCH  30  31
ATOM     31  C   UNL     1       2.276 -15.031 -17.273  1.00  0.00    -0.003 C 
ATOM     32  C   UNL     1       1.261 -15.173 -16.138  1.00  0.00     0.004 C 
ENDBRANCH  30  31
ENDBRANCH  29  30
ENDBRANCH  28  29
ENDBRANCH  27  28
ENDBRANCH  26  27
ENDBRANCH  25  26
ENDBRANCH  24  25
ENDBRANCH  23  24
ENDBRANCH  22  23
ENDBRANCH  21  22
ENDBRANCH  20  21
ENDBRANCH  19  20
ENDBRANCH  18  19
ENDBRANCH   1  18
TORSDOF 28
ENDMDL
