MODEL 1
REMARK VINA RESULT:    -6.102      0.000      0.000
REMARK INTER + INTRA:         -12.847
REMARK INTER:                 -11.097
REMARK INTRA:                  -1.750
REMARK UNBOUND:                -1.750
REMARK SMILES CCCCCCCCCCCCCCCC(=O)[O-]
REMARK SMILES IDX 9 1 10 2 11 3 12 4 13 5 14 6 15 7 16 8 17 9 18 10 8 11 7 12
REMARK SMILES IDX 6 13 5 14 4 15 3 16 2 17 1 18
REMARK H PARENT
REMARK Flexibility Score: inf
ROOT
ATOM      1  C   UNL     1      -4.884  36.671 101.556  1.00  0.00     0.000 C 
ENDROOT
BRANCH   1   2
ATOM      2  C   UNL     1      -3.359  36.891 101.605  1.00  0.00     0.000 C 
BRANCH   2   3
ATOM      3  C   UNL     1      -2.889  37.961 102.607  1.00  0.00     0.000 C 
BRANCH   3   4
ATOM      4  C   UNL     1      -2.070  39.078 101.946  1.00  0.00     0.000 C 
BRANCH   4   5
ATOM      5  C   UNL     1      -2.861  40.394 101.916  1.00  0.00     0.000 C 
BRANCH   5   6
ATOM      6  C   UNL     1      -2.802  41.151 103.253  1.00  0.00     0.006 C 
BRANCH   6   7
ATOM      7  C   UNL     1      -1.623  42.130 103.326  1.00  0.00     0.053 C 
BRANCH   7   8
ATOM      8  C   UNL     1      -2.110  43.542 103.256  1.00  0.00     0.041 C 
ATOM      9  O   UNL     1      -1.724  44.388 104.106  1.00  0.00    -0.550 OA
ATOM     10  O   UNL     1      -3.030  43.913 102.286  1.00  0.00    -0.550 OA
ENDBRANCH   7   8
ENDBRANCH   6   7
ENDBRANCH   5   6
ENDBRANCH   4   5
ENDBRANCH   3   4
ENDBRANCH   2   3
ENDBRANCH   1   2
BRANCH   1  11
ATOM     11  C   UNL     1      -5.361  35.597 100.558  1.00  0.00     0.000 C 
BRANCH  11  12
ATOM     12  C   UNL     1      -4.284  34.587 100.125  1.00  0.00    -0.000 C 
BRANCH  12  13
ATOM     13  C   UNL     1      -4.072  34.556  98.604  1.00  0.00    -0.000 C 
BRANCH  13  14
ATOM     14  C   UNL     1      -2.831  35.370  98.205  1.00  0.00    -0.000 C 
BRANCH  14  15
ATOM     15  C   UNL     1      -3.188  36.683  97.491  1.00  0.00    -0.000 C 
BRANCH  15  16
ATOM     16  C   UNL     1      -4.677  36.776  97.126  1.00  0.00    -0.000 C 
BRANCH  16  17
ATOM     17  C   UNL     1      -5.282  38.095  97.622  1.00  0.00    -0.003 C 
ATOM     18  C   UNL     1      -4.332  38.812  98.577  1.00  0.00     0.004 C 
ENDBRANCH  16  17
ENDBRANCH  15  16
ENDBRANCH  14  15
ENDBRANCH  13  14
ENDBRANCH  12  13
ENDBRANCH  11  12
ENDBRANCH   1  11
TORSDOF 14
ENDMDL
MODEL 2
REMARK VINA RESULT:    -5.742      1.149      2.683
REMARK INTER + INTRA:         -12.191
REMARK INTER:                 -10.652
REMARK INTRA:                  -1.539
REMARK UNBOUND:                -1.750
REMARK SMILES CCCCCCCCCCCCCCCC(=O)[O-]
REMARK SMILES IDX 9 1 10 2 11 3 12 4 13 5 14 6 15 7 16 8 17 9 18 10 8 11 7 12
REMARK SMILES IDX 6 13 5 14 4 15 3 16 2 17 1 18
REMARK H PARENT
REMARK Flexibility Score: inf
ROOT
ATOM      1  C   UNL     1      -3.778  37.803 100.941  1.00  0.00     0.000 C 
ENDROOT
BRANCH   1   2
ATOM      2  C   UNL     1      -2.855  38.123 102.134  1.00  0.00     0.000 C 
BRANCH   2   3
ATOM      3  C   UNL     1      -1.631  38.993 101.792  1.00  0.00     0.000 C 
BRANCH   3   4
ATOM      4  C   UNL     1      -1.472  40.194 102.735  1.00  0.00     0.000 C 
BRANCH   4   5
ATOM      5  C   UNL     1      -2.842  40.710 103.201  1.00  0.00     0.000 C 
BRANCH   5   6
ATOM      6  C   UNL     1      -3.251  42.017 102.504  1.00  0.00     0.006 C 
BRANCH   6   7
ATOM      7  C   UNL     1      -3.456  43.174 103.490  1.00  0.00     0.053 C 
BRANCH   7   8
ATOM      8  C   UNL     1      -2.407  44.222 103.293  1.00  0.00     0.041 C 
ATOM      9  O   UNL     1      -1.782  44.687 104.283  1.00  0.00    -0.550 OA
ATOM     10  O   UNL     1      -2.155  44.723 102.023  1.00  0.00    -0.550 OA
ENDBRANCH   7   8
ENDBRANCH   6   7
ENDBRANCH   5   6
ENDBRANCH   4   5
ENDBRANCH   3   4
ENDBRANCH   2   3
ENDBRANCH   1   2
BRANCH   1  11
ATOM     11  C   UNL     1      -3.299  38.342  99.578  1.00  0.00     0.000 C 
BRANCH  11  12
ATOM     12  C   UNL     1      -4.386  39.027  98.731  1.00  0.00    -0.000 C 
BRANCH  12  13
ATOM     13  C   UNL     1      -4.749  38.231  97.469  1.00  0.00    -0.000 C 
BRANCH  13  14
ATOM     14  C   UNL     1      -5.730  37.095  97.800  1.00  0.00    -0.000 C 
BRANCH  14  15
ATOM     15  C   UNL     1      -5.096  35.703  97.654  1.00  0.00    -0.000 C 
BRANCH  15  16
ATOM     16  C   UNL     1      -5.260  34.840  98.913  1.00  0.00    -0.000 C 
BRANCH  16  17
ATOM     17  C   UNL     1      -3.895  34.474  99.509  1.00  0.00    -0.003 C 
ATOM     18  C   UNL     1      -2.757  34.942  98.607  1.00  0.00     0.004 C 
ENDBRANCH  16  17
ENDBRANCH  15  16
ENDBRANCH  14  15
ENDBRANCH  13  14
ENDBRANCH  12  13
ENDBRANCH  11  12
ENDBRANCH   1  11
TORSDOF 14
ENDMDL
MODEL 3
REMARK VINA RESULT:    -5.632      1.270      2.278
REMARK INTER + INTRA:         -11.990
REMARK INTER:                 -10.147
REMARK INTRA:                  -1.844
REMARK UNBOUND:                -1.750
REMARK SMILES CCCCCCCCCCCCCCCC(=O)[O-]
REMARK SMILES IDX 9 1 10 2 11 3 12 4 13 5 14 6 15 7 16 8 17 9 18 10 8 11 7 12
REMARK SMILES IDX 6 13 5 14 4 15 3 16 2 17 1 18
REMARK H PARENT
REMARK Flexibility Score: inf
ROOT
ATOM      1  C   UNL     1      -5.830  35.227  99.467  1.00  0.00     0.000 C 
ENDROOT
BRANCH   1   2
ATOM      2  C   UNL     1      -5.244  35.362 100.887  1.00  0.00     0.000 C 
BRANCH   2   3
ATOM      3  C   UNL     1      -4.968  36.807 101.341  1.00  0.00     0.000 C 
BRANCH   3   4
ATOM      4  C   UNL     1      -3.528  37.014 101.828  1.00  0.00     0.000 C 
BRANCH   4   5
ATOM      5  C   UNL     1      -3.021  38.417 101.464  1.00  0.00     0.000 C 
BRANCH   5   6
ATOM      6  C   UNL     1      -2.240  39.080 102.610  1.00  0.00     0.006 C 
BRANCH   6   7
ATOM      7  C   UNL     1      -2.796  40.461 102.983  1.00  0.00     0.053 C 
BRANCH   7   8
ATOM      8  C   UNL     1      -1.684  41.451 103.123  1.00  0.00     0.041 C 
ATOM      9  O   UNL     1      -0.492  41.100 102.911  1.00  0.00    -0.550 OA
ATOM     10  O   UNL     1      -1.956  42.748 103.536  1.00  0.00    -0.550 OA
ENDBRANCH   7   8
ENDBRANCH   6   7
ENDBRANCH   5   6
ENDBRANCH   4   5
ENDBRANCH   3   4
ENDBRANCH   2   3
ENDBRANCH   1   2
BRANCH   1  11
ATOM     11  C   UNL     1      -4.990  34.381  98.489  1.00  0.00     0.000 C 
BRANCH  11  12
ATOM     12  C   UNL     1      -3.467  34.550  98.624  1.00  0.00    -0.000 C 
BRANCH  12  13
ATOM     13  C   UNL     1      -3.006  35.998  98.403  1.00  0.00    -0.000 C 
BRANCH  13  14
ATOM     14  C   UNL     1      -3.104  36.386  96.920  1.00  0.00    -0.000 C 
BRANCH  14  15
ATOM     15  C   UNL     1      -4.179  37.452  96.656  1.00  0.00    -0.000 C 
BRANCH  15  16
ATOM     16  C   UNL     1      -4.430  38.356  97.872  1.00  0.00    -0.000 C 
BRANCH  16  17
ATOM     17  C   UNL     1      -5.928  38.448  98.187  1.00  0.00    -0.003 C 
ATOM     18  C   UNL     1      -6.770  38.021  96.988  1.00  0.00     0.004 C 
ENDBRANCH  16  17
ENDBRANCH  15  16
ENDBRANCH  14  15
ENDBRANCH  13  14
ENDBRANCH  12  13
ENDBRANCH  11  12
ENDBRANCH   1  11
TORSDOF 14
ENDMDL
MODEL 4
REMARK VINA RESULT:    -5.583      1.151      1.539
REMARK INTER + INTRA:         -11.902
REMARK INTER:                 -10.527
REMARK INTRA:                  -1.375
REMARK UNBOUND:                -1.750
REMARK SMILES CCCCCCCCCCCCCCCC(=O)[O-]
REMARK SMILES IDX 9 1 10 2 11 3 12 4 13 5 14 6 15 7 16 8 17 9 18 10 8 11 7 12
REMARK SMILES IDX 6 13 5 14 4 15 3 16 2 17 1 18
REMARK H PARENT
REMARK Flexibility Score: inf
ROOT
ATOM      1  C   UNL     1      -3.702  36.786 101.733  1.00  0.00     0.000 C 
ENDROOT
BRANCH   1   2
ATOM      2  C   UNL     1      -3.050  37.940 102.519  1.00  0.00     0.000 C 
BRANCH   2   3
ATOM      3  C   UNL     1      -1.920  38.676 101.776  1.00  0.00     0.000 C 
BRANCH   3   4
ATOM      4  C   UNL     1      -1.608  40.053 102.378  1.00  0.00     0.000 C 
BRANCH   4   5
ATOM      5  C   UNL     1      -2.832  40.620 103.112  1.00  0.00     0.000 C 
BRANCH   5   6
ATOM      6  C   UNL     1      -3.227  42.018 102.611  1.00  0.00     0.006 C 
BRANCH   6   7
ATOM      7  C   UNL     1      -3.262  43.061 103.736  1.00  0.00     0.053 C 
BRANCH   7   8
ATOM      8  C   UNL     1      -2.278  44.155 103.465  1.00  0.00     0.041 C 
ATOM      9  O   UNL     1      -1.133  43.880 103.017  1.00  0.00    -0.550 OA
ATOM     10  O   UNL     1      -2.606  45.472 103.754  1.00  0.00    -0.550 OA
ENDBRANCH   7   8
ENDBRANCH   6   7
ENDBRANCH   5   6
ENDBRANCH   4   5
ENDBRANCH   3   4
ENDBRANCH   2   3
ENDBRANCH   1   2
BRANCH   1  11
ATOM     11  C   UNL     1      -2.835  36.186 100.608  1.00  0.00     0.000 C 
BRANCH  11  12
ATOM     12  C   UNL     1      -3.224  34.762 100.175  1.00  0.00    -0.000 C 
BRANCH  12  13
ATOM     13  C   UNL     1      -3.688  34.689  98.713  1.00  0.00    -0.000 C 
BRANCH  13  14
ATOM     14  C   UNL     1      -5.221  34.738  98.620  1.00  0.00    -0.000 C 
BRANCH  14  15
ATOM     15  C   UNL     1      -5.748  36.133  98.250  1.00  0.00    -0.000 C 
BRANCH  15  16
ATOM     16  C   UNL     1      -4.915  36.811  97.152  1.00  0.00    -0.000 C 
BRANCH  16  17
ATOM     17  C   UNL     1      -4.957  38.337  97.295  1.00  0.00    -0.003 C 
ATOM     18  C   UNL     1      -4.290  38.788  98.591  1.00  0.00     0.004 C 
ENDBRANCH  16  17
ENDBRANCH  15  16
ENDBRANCH  14  15
ENDBRANCH  13  14
ENDBRANCH  12  13
ENDBRANCH  11  12
ENDBRANCH   1  11
TORSDOF 14
ENDMDL
MODEL 5
REMARK VINA RESULT:    -5.516      3.690      7.331
REMARK INTER + INTRA:         -11.781
REMARK INTER:                 -10.467
REMARK INTRA:                  -1.314
REMARK UNBOUND:                -1.750
REMARK SMILES CCCCCCCCCCCCCCCC(=O)[O-]
REMARK SMILES IDX 9 1 10 2 11 3 12 4 13 5 14 6 15 7 16 8 17 9 18 10 8 11 7 12
REMARK SMILES IDX 6 13 5 14 4 15 3 16 2 17 1 18
REMARK H PARENT
REMARK Flexibility Score: inf
ROOT
ATOM      1  C   UNL     1      -2.709  37.618 101.266  1.00  0.00     0.000 C 
ENDROOT
BRANCH   1   2
ATOM      2  C   UNL     1      -3.923  37.972 100.386  1.00  0.00     0.000 C 
BRANCH   2   3
ATOM      3  C   UNL     1      -3.577  38.570  99.010  1.00  0.00     0.000 C 
BRANCH   3   4
ATOM      4  C   UNL     1      -4.664  38.312  97.958  1.00  0.00     0.000 C 
BRANCH   4   5
ATOM      5  C   UNL     1      -5.508  37.085  98.331  1.00  0.00     0.000 C 
BRANCH   5   6
ATOM      6  C   UNL     1      -5.161  35.848  97.486  1.00  0.00     0.006 C 
BRANCH   6   7
ATOM      7  C   UNL     1      -5.039  34.572  98.330  1.00  0.00     0.053 C 
BRANCH   7   8
ATOM      8  C   UNL     1      -3.766  34.584  99.114  1.00  0.00     0.041 C 
ATOM      9  O   UNL     1      -3.779  34.322 100.346  1.00  0.00    -0.550 OA
ATOM     10  O   UNL     1      -2.572  34.935  98.498  1.00  0.00    -0.550 OA
ENDBRANCH   7   8
ENDBRANCH   6   7
ENDBRANCH   5   6
ENDBRANCH   4   5
ENDBRANCH   3   4
ENDBRANCH   2   3
ENDBRANCH   1   2
BRANCH   1  11
ATOM     11  C   UNL     1      -2.986  37.575 102.782  1.00  0.00     0.000 C 
BRANCH  11  12
ATOM     12  C   UNL     1      -2.820  38.919 103.513  1.00  0.00    -0.000 C 
BRANCH  12  13
ATOM     13  C   UNL     1      -2.108  39.978 102.658  1.00  0.00    -0.000 C 
BRANCH  13  14
ATOM     14  C   UNL     1      -2.423  41.395 103.164  1.00  0.00    -0.000 C 
BRANCH  14  15
ATOM     15  C   UNL     1      -3.266  42.206 102.168  1.00  0.00    -0.000 C 
BRANCH  15  16
ATOM     16  C   UNL     1      -4.335  43.066 102.858  1.00  0.00    -0.000 C 
BRANCH  16  17
ATOM     17  C   UNL     1      -4.415  42.746 104.356  1.00  0.00    -0.003 C 
ATOM     18  C   UNL     1      -5.572  43.488 105.017  1.00  0.00     0.004 C 
ENDBRANCH  16  17
ENDBRANCH  15  16
ENDBRANCH  14  15
ENDBRANCH  13  14
ENDBRANCH  12  13
ENDBRANCH  11  12
ENDBRANCH   1  11
TORSDOF 14
ENDMDL
MODEL 6
REMARK VINA RESULT:    -5.507      2.327      3.453
REMARK INTER + INTRA:         -11.764
REMARK INTER:                 -10.715
REMARK INTRA:                  -1.050
REMARK UNBOUND:                -1.750
REMARK SMILES CCCCCCCCCCCCCCCC(=O)[O-]
REMARK SMILES IDX 9 1 10 2 11 3 12 4 13 5 14 6 15 7 16 8 17 9 18 10 8 11 7 12
REMARK SMILES IDX 6 13 5 14 4 15 3 16 2 17 1 18
REMARK H PARENT
REMARK Flexibility Score: inf
ROOT
ATOM      1  C   UNL     1      -2.609  39.121 102.518  1.00  0.00     0.000 C 
ENDROOT
BRANCH   1   2
ATOM      2  C   UNL     1      -1.611  40.283 102.699  1.00  0.00     0.000 C 
BRANCH   2   3
ATOM      3  C   UNL     1      -2.240  41.615 103.146  1.00  0.00     0.000 C 
BRANCH   3   4
ATOM      4  C   UNL     1      -3.324  42.116 102.181  1.00  0.00     0.000 C 
BRANCH   4   5
ATOM      5  C   UNL     1      -4.112  43.281 102.797  1.00  0.00     0.000 C 
BRANCH   5   6
ATOM      6  C   UNL     1      -4.114  43.248 104.334  1.00  0.00     0.006 C 
BRANCH   6   7
ATOM      7  C   UNL     1      -5.522  43.085 104.920  1.00  0.00     0.053 C 
BRANCH   7   8
ATOM      8  C   UNL     1      -6.434  44.145 104.390  1.00  0.00     0.041 C 
ATOM      9  O   UNL     1      -6.255  45.352 104.706  1.00  0.00    -0.550 OA
ATOM     10  O   UNL     1      -7.513  43.797 103.588  1.00  0.00    -0.550 OA
ENDBRANCH   7   8
ENDBRANCH   6   7
ENDBRANCH   5   6
ENDBRANCH   4   5
ENDBRANCH   3   4
ENDBRANCH   2   3
ENDBRANCH   1   2
BRANCH   1  11
ATOM     11  C   UNL     1      -2.914  38.741 101.055  1.00  0.00     0.000 C 
BRANCH  11  12
ATOM     12  C   UNL     1      -3.608  37.380 100.867  1.00  0.00    -0.000 C 
BRANCH  12  13
ATOM     13  C   UNL     1      -2.622  36.203 100.879  1.00  0.00    -0.000 C 
BRANCH  13  14
ATOM     14  C   UNL     1      -3.308  34.908 100.414  1.00  0.00    -0.000 C 
BRANCH  14  15
ATOM     15  C   UNL     1      -3.400  34.802  98.884  1.00  0.00    -0.000 C 
BRANCH  15  16
ATOM     16  C   UNL     1      -4.846  34.856  98.370  1.00  0.00    -0.000 C 
BRANCH  16  17
ATOM     17  C   UNL     1      -5.111  36.164  97.614  1.00  0.00    -0.003 C 
ATOM     18  C   UNL     1      -3.810  36.783  97.112  1.00  0.00     0.004 C 
ENDBRANCH  16  17
ENDBRANCH  15  16
ENDBRANCH  14  15
ENDBRANCH  13  14
ENDBRANCH  12  13
ENDBRANCH  11  12
ENDBRANCH   1  11
TORSDOF 14
ENDMDL
MODEL 7
REMARK VINA RESULT:    -5.505      2.965      7.056
REMARK INTER + INTRA:         -11.761
REMARK INTER:                 -10.720
REMARK INTRA:                  -1.041
REMARK UNBOUND:                -1.750
REMARK SMILES CCCCCCCCCCCCCCCC(=O)[O-]
REMARK SMILES IDX 9 1 10 2 11 3 12 4 13 5 14 6 15 7 16 8 17 9 18 10 8 11 7 12
REMARK SMILES IDX 6 13 5 14 4 15 3 16 2 17 1 18
REMARK H PARENT
REMARK Flexibility Score: inf
ROOT
ATOM      1  C   UNL     1      -3.522  37.458 101.710  1.00  0.00     0.000 C 
ENDROOT
BRANCH   1   2
ATOM      2  C   UNL     1      -2.602  36.670 100.756  1.00  0.00     0.000 C 
BRANCH   2   3
ATOM      3  C   UNL     1      -3.029  35.213 100.498  1.00  0.00     0.000 C 
BRANCH   3   4
ATOM      4  C   UNL     1      -3.159  34.886  99.004  1.00  0.00     0.000 C 
BRANCH   4   5
ATOM      5  C   UNL     1      -4.548  34.315  98.686  1.00  0.00     0.000 C 
BRANCH   5   6
ATOM      6  C   UNL     1      -5.570  35.406  98.329  1.00  0.00     0.006 C 
BRANCH   6   7
ATOM      7  C   UNL     1      -5.039  36.393  97.282  1.00  0.00     0.053 C 
BRANCH   7   8
ATOM      8  C   UNL     1      -5.532  37.776  97.570  1.00  0.00     0.041 C 
ATOM      9  O   UNL     1      -4.813  38.583  98.217  1.00  0.00    -0.550 OA
ATOM     10  O   UNL     1      -6.805  38.157  97.170  1.00  0.00    -0.550 OA
ENDBRANCH   7   8
ENDBRANCH   6   7
ENDBRANCH   5   6
ENDBRANCH   4   5
ENDBRANCH   3   4
ENDBRANCH   2   3
ENDBRANCH   1   2
BRANCH   1  11
ATOM     11  C   UNL     1      -2.998  37.609 103.152  1.00  0.00     0.000 C 
BRANCH  11  12
ATOM     12  C   UNL     1      -2.919  39.057 103.667  1.00  0.00    -0.000 C 
BRANCH  12  13
ATOM     13  C   UNL     1      -2.198  39.999 102.692  1.00  0.00    -0.000 C 
BRANCH  13  14
ATOM     14  C   UNL     1      -2.430  41.469 103.076  1.00  0.00    -0.000 C 
BRANCH  14  15
ATOM     15  C   UNL     1      -3.393  42.187 102.117  1.00  0.00    -0.000 C 
BRANCH  15  16
ATOM     16  C   UNL     1      -4.285  43.213 102.829  1.00  0.00    -0.000 C 
BRANCH  16  17
ATOM     17  C   UNL     1      -4.427  42.877 104.319  1.00  0.00    -0.003 C 
ATOM     18  C   UNL     1      -4.386  44.139 105.175  1.00  0.00     0.004 C 
ENDBRANCH  16  17
ENDBRANCH  15  16
ENDBRANCH  14  15
ENDBRANCH  13  14
ENDBRANCH  12  13
ENDBRANCH  11  12
ENDBRANCH   1  11
TORSDOF 14
ENDMDL
MODEL 8
REMARK VINA RESULT:    -5.497      0.955      2.030
REMARK INTER + INTRA:         -11.746
REMARK INTER:                 -10.635
REMARK INTRA:                  -1.111
REMARK UNBOUND:                -1.750
REMARK SMILES CCCCCCCCCCCCCCCC(=O)[O-]
REMARK SMILES IDX 9 1 10 2 11 3 12 4 13 5 14 6 15 7 16 8 17 9 18 10 8 11 7 12
REMARK SMILES IDX 6 13 5 14 4 15 3 16 2 17 1 18
REMARK H PARENT
REMARK Flexibility Score: inf
ROOT
ATOM      1  C   UNL     1      -3.296  37.241 103.068  1.00  0.00     0.000 C 
ENDROOT
BRANCH   1   2
ATOM      2  C   UNL     1      -2.869  38.652 103.516  1.00  0.00     0.000 C 
BRANCH   2   3
ATOM      3  C   UNL     1      -2.403  39.581 102.380  1.00  0.00     0.000 C 
BRANCH   3   4
ATOM      4  C   UNL     1      -1.098  40.319 102.711  1.00  0.00     0.000 C 
BRANCH   4   5
ATOM      5  C   UNL     1      -1.383  41.756 103.175  1.00  0.00     0.000 C 
BRANCH   5   6
ATOM      6  C   UNL     1      -2.815  42.209 102.852  1.00  0.00     0.006 C 
BRANCH   6   7
ATOM      7  C   UNL     1      -3.363  43.211 103.877  1.00  0.00     0.053 C 
BRANCH   7   8
ATOM      8  C   UNL     1      -2.676  44.532 103.735  1.00  0.00     0.041 C 
ATOM      9  O   UNL     1      -2.496  45.033 102.593  1.00  0.00    -0.550 OA
ATOM     10  O   UNL     1      -2.190  45.187 104.858  1.00  0.00    -0.550 OA
ENDBRANCH   7   8
ENDBRANCH   6   7
ENDBRANCH   5   6
ENDBRANCH   4   5
ENDBRANCH   3   4
ENDBRANCH   2   3
ENDBRANCH   1   2
BRANCH   1  11
ATOM     11  C   UNL     1      -3.580  37.089 101.560  1.00  0.00     0.000 C 
BRANCH  11  12
ATOM     12  C   UNL     1      -4.943  36.463 101.214  1.00  0.00    -0.000 C 
BRANCH  12  13
ATOM     13  C   UNL     1      -4.832  35.321 100.193  1.00  0.00    -0.000 C 
BRANCH  13  14
ATOM     14  C   UNL     1      -3.362  35.012  99.871  1.00  0.00    -0.000 C 
BRANCH  14  15
ATOM     15  C   UNL     1      -3.028  35.201  98.383  1.00  0.00    -0.000 C 
BRANCH  15  16
ATOM     16  C   UNL     1      -3.209  36.652  97.913  1.00  0.00    -0.000 C 
BRANCH  16  17
ATOM     17  C   UNL     1      -4.353  36.760  96.898  1.00  0.00    -0.003 C 
ATOM     18  C   UNL     1      -5.298  37.904  97.253  1.00  0.00     0.004 C 
ENDBRANCH  16  17
ENDBRANCH  15  16
ENDBRANCH  14  15
ENDBRANCH  13  14
ENDBRANCH  12  13
ENDBRANCH  11  12
ENDBRANCH   1  11
TORSDOF 14
ENDMDL
MODEL 9
REMARK VINA RESULT:    -5.467      1.698      2.772
REMARK INTER + INTRA:         -11.691
REMARK INTER:                 -10.267
REMARK INTRA:                  -1.423
REMARK UNBOUND:                -1.750
REMARK SMILES CCCCCCCCCCCCCCCC(=O)[O-]
REMARK SMILES IDX 9 1 10 2 11 3 12 4 13 5 14 6 15 7 16 8 17 9 18 10 8 11 7 12
REMARK SMILES IDX 6 13 5 14 4 15 3 16 2 17 1 18
REMARK H PARENT
REMARK Flexibility Score: inf
ROOT
ATOM      1  C   UNL     1      -2.587  38.448 101.293  1.00  0.00     0.000 C 
ENDROOT
BRANCH   1   2
ATOM      2  C   UNL     1      -2.769  39.548 102.357  1.00  0.00     0.000 C 
BRANCH   2   3
ATOM      3  C   UNL     1      -1.506  40.375 102.659  1.00  0.00     0.000 C 
BRANCH   3   4
ATOM      4  C   UNL     1      -1.823  41.745 103.272  1.00  0.00     0.000 C 
BRANCH   4   5
ATOM      5  C   UNL     1      -3.326  41.885 103.557  1.00  0.00     0.000 C 
BRANCH   5   6
ATOM      6  C   UNL     1      -3.954  43.093 102.845  1.00  0.00     0.006 C 
BRANCH   6   7
ATOM      7  C   UNL     1      -3.856  42.996 101.317  1.00  0.00     0.053 C 
BRANCH   7   8
ATOM      8  C   UNL     1      -4.591  44.128 100.673  1.00  0.00     0.041 C 
ATOM      9  O   UNL     1      -4.168  44.627  99.596  1.00  0.00    -0.550 OA
ATOM     10  O   UNL     1      -5.713  44.667 101.286  1.00  0.00    -0.550 OA
ENDBRANCH   7   8
ENDBRANCH   6   7
ENDBRANCH   5   6
ENDBRANCH   4   5
ENDBRANCH   3   4
ENDBRANCH   2   3
ENDBRANCH   1   2
BRANCH   1  11
ATOM     11  C   UNL     1      -3.061  37.042 101.715  1.00  0.00     0.000 C 
BRANCH  11  12
ATOM     12  C   UNL     1      -4.549  36.751 101.450  1.00  0.00    -0.000 C 
BRANCH  12  13
ATOM     13  C   UNL     1      -4.768  35.495 100.594  1.00  0.00    -0.000 C 
BRANCH  13  14
ATOM     14  C   UNL     1      -3.429  34.820 100.257  1.00  0.00    -0.000 C 
BRANCH  14  15
ATOM     15  C   UNL     1      -3.031  34.995  98.784  1.00  0.00    -0.000 C 
BRANCH  15  16
ATOM     16  C   UNL     1      -4.112  35.707  97.957  1.00  0.00    -0.000 C 
BRANCH  16  17
ATOM     17  C   UNL     1      -3.596  37.046  97.418  1.00  0.00    -0.003 C 
ATOM     18  C   UNL     1      -4.345  38.218  98.045  1.00  0.00     0.004 C 
ENDBRANCH  16  17
ENDBRANCH  15  16
ENDBRANCH  14  15
ENDBRANCH  13  14
ENDBRANCH  12  13
ENDBRANCH  11  12
ENDBRANCH   1  11
TORSDOF 14
ENDMDL
