MODEL 1
REMARK VINA RESULT:    -3.708      0.000      0.000
REMARK INTER + INTRA:          -6.515
REMARK INTER:                  -6.310
REMARK INTRA:                  -0.206
REMARK UNBOUND:                -0.206
REMARK SMILES CCCCCCCCCCCCCC(=O)[O-]
REMARK SMILES IDX 8 1 9 2 10 3 11 4 12 5 13 6 14 7 15 8 16 9 7 10 6 11 5 12
REMARK SMILES IDX 4 13 3 14 2 15 1 16
REMARK H PARENT
REMARK Flexibility Score: inf
ROOT
ATOM      1  C   UNL     1      -2.425  -2.350   9.745  1.00  0.00     0.000 C 
ENDROOT
BRANCH   1   2
ATOM      2  C   UNL     1      -3.892  -2.618  10.123  1.00  0.00     0.000 C 
BRANCH   2   3
ATOM      3  C   UNL     1      -4.293  -4.096   9.963  1.00  0.00     0.000 C 
BRANCH   3   4
ATOM      4  C   UNL     1      -5.808  -4.368   9.995  1.00  0.00     0.000 C 
BRANCH   4   5
ATOM      5  C   UNL     1      -6.196  -5.685   9.301  1.00  0.00     0.006 C 
BRANCH   5   6
ATOM      6  C   UNL     1      -7.529  -6.241   9.818  1.00  0.00     0.053 C 
BRANCH   6   7
ATOM      7  C   UNL     1      -8.302  -6.925   8.732  1.00  0.00     0.041 C 
ATOM      8  O   UNL     1      -9.395  -7.494   8.995  1.00  0.00    -0.550 OA
ATOM      9  O   UNL     1      -7.799  -6.966   7.439  1.00  0.00    -0.550 OA
ENDBRANCH   6   7
ENDBRANCH   5   6
ENDBRANCH   4   5
ENDBRANCH   3   4
ENDBRANCH   2   3
ENDBRANCH   1   2
BRANCH   1  10
ATOM     10  C   UNL     1      -1.967  -0.932  10.123  1.00  0.00     0.000 C 
BRANCH  10  11
ATOM     11  C   UNL     1      -0.449  -0.742   9.982  1.00  0.00    -0.000 C 
BRANCH  11  12
ATOM     12  C   UNL     1      -0.070   0.742  10.108  1.00  0.00    -0.000 C 
BRANCH  12  13
ATOM     13  C   UNL     1       1.354   1.036   9.608  1.00  0.00    -0.000 C 
BRANCH  13  14
ATOM     14  C   UNL     1       1.896   2.379  10.124  1.00  0.00    -0.000 C 
BRANCH  14  15
ATOM     15  C   UNL     1       3.429   2.465  10.046  1.00  0.00    -0.003 C 
ATOM     16  C   UNL     1       3.940   3.905   9.988  1.00  0.00     0.004 C 
ENDBRANCH  14  15
ENDBRANCH  13  14
ENDBRANCH  12  13
ENDBRANCH  11  12
ENDBRANCH  10  11
ENDBRANCH   1  10
TORSDOF 12
ENDMDL
MODEL 2
REMARK VINA RESULT:    -3.301     20.480     21.204
REMARK INTER + INTRA:          -5.823
REMARK INTER:                  -5.351
REMARK INTRA:                  -0.472
REMARK UNBOUND:                -0.206
REMARK SMILES CCCCCCCCCCCCCC(=O)[O-]
REMARK SMILES IDX 8 1 9 2 10 3 11 4 12 5 13 6 14 7 15 8 16 9 7 10 6 11 5 12
REMARK SMILES IDX 4 13 3 14 2 15 1 16
REMARK H PARENT
REMARK Flexibility Score: inf
ROOT
ATOM      1  C   UNL     1      -3.840   3.221  -9.078  1.00  0.00     0.000 C 
ENDROOT
BRANCH   1   2
ATOM      2  C   UNL     1      -3.992   4.405 -10.048  1.00  0.00     0.000 C 
BRANCH   2   3
ATOM      3  C   UNL     1      -5.372   5.082  -9.957  1.00  0.00     0.000 C 
BRANCH   3   4
ATOM      4  C   UNL     1      -5.383   6.450  -9.251  1.00  0.00     0.000 C 
BRANCH   4   5
ATOM      5  C   UNL     1      -6.351   6.501  -8.057  1.00  0.00     0.006 C 
BRANCH   5   6
ATOM      6  C   UNL     1      -7.819   6.437  -8.498  1.00  0.00     0.053 C 
BRANCH   6   7
ATOM      7  C   UNL     1      -8.439   7.800  -8.560  1.00  0.00     0.041 C 
ATOM      8  O   UNL     1      -9.683   7.936  -8.416  1.00  0.00    -0.550 OA
ATOM      9  O   UNL     1      -7.649   8.914  -8.811  1.00  0.00    -0.550 OA
ENDBRANCH   6   7
ENDBRANCH   5   6
ENDBRANCH   4   5
ENDBRANCH   3   4
ENDBRANCH   2   3
ENDBRANCH   1   2
BRANCH   1  10
ATOM     10  C   UNL     1      -4.105   1.866  -9.754  1.00  0.00     0.000 C 
BRANCH  10  11
ATOM     11  C   UNL     1      -2.811   1.125 -10.123  1.00  0.00    -0.000 C 
BRANCH  11  12
ATOM     12  C   UNL     1      -1.599   1.756  -9.421  1.00  0.00    -0.000 C 
BRANCH  12  13
ATOM     13  C   UNL     1      -0.262   1.342 -10.056  1.00  0.00    -0.000 C 
BRANCH  13  14
ATOM     14  C   UNL     1      -0.086  -0.184 -10.124  1.00  0.00    -0.000 C 
BRANCH  14  15
ATOM     15  C   UNL     1       1.390  -0.610 -10.085  1.00  0.00    -0.003 C 
ATOM     16  C   UNL     1       1.577  -2.062  -9.647  1.00  0.00     0.004 C 
ENDBRANCH  14  15
ENDBRANCH  13  14
ENDBRANCH  12  13
ENDBRANCH  11  12
ENDBRANCH  10  11
ENDBRANCH   1  10
TORSDOF 12
ENDMDL
MODEL 3
REMARK VINA RESULT:    -3.270     20.704     21.795
REMARK INTER + INTRA:          -5.770
REMARK INTER:                  -5.307
REMARK INTRA:                  -0.464
REMARK UNBOUND:                -0.206
REMARK SMILES CCCCCCCCCCCCCC(=O)[O-]
REMARK SMILES IDX 8 1 9 2 10 3 11 4 12 5 13 6 14 7 15 8 16 9 7 10 6 11 5 12
REMARK SMILES IDX 4 13 3 14 2 15 1 16
REMARK H PARENT
REMARK Flexibility Score: inf
ROOT
ATOM      1  C   UNL     1       3.815  -3.707 -10.075  1.00  0.00     0.000 C 
ENDROOT
BRANCH   1   2
ATOM      2  C   UNL     1       5.304  -3.868  -9.723  1.00  0.00     0.000 C 
BRANCH   2   3
ATOM      3  C   UNL     1       5.867  -5.247 -10.115  1.00  0.00     0.000 C 
BRANCH   3   4
ATOM      4  C   UNL     1       5.025  -6.451  -9.653  1.00  0.00     0.000 C 
BRANCH   4   5
ATOM      5  C   UNL     1       5.866  -7.543  -8.970  1.00  0.00     0.006 C 
BRANCH   5   6
ATOM      6  C   UNL     1       7.209  -7.768  -9.677  1.00  0.00     0.053 C 
BRANCH   6   7
ATOM      7  C   UNL     1       8.215  -8.402  -8.766  1.00  0.00     0.041 C 
ATOM      8  O   UNL     1       8.570  -7.817  -7.709  1.00  0.00    -0.550 OA
ATOM      9  O   UNL     1       8.786  -9.623  -9.102  1.00  0.00    -0.550 OA
ENDBRANCH   6   7
ENDBRANCH   5   6
ENDBRANCH   4   5
ENDBRANCH   3   4
ENDBRANCH   2   3
ENDBRANCH   1   2
BRANCH   1  10
ATOM     10  C   UNL     1       3.129  -2.606  -9.248  1.00  0.00     0.000 C 
BRANCH  10  11
ATOM     11  C   UNL     1       2.212  -1.712 -10.096  1.00  0.00    -0.000 C 
BRANCH  11  12
ATOM     12  C   UNL     1       0.740  -1.911  -9.706  1.00  0.00    -0.000 C 
BRANCH  12  13
ATOM     13  C   UNL     1      -0.151  -0.730 -10.124  1.00  0.00    -0.000 C 
BRANCH  13  14
ATOM     14  C   UNL     1       0.495   0.633  -9.825  1.00  0.00    -0.000 C 
BRANCH  14  15
ATOM     15  C   UNL     1      -0.457   1.809 -10.099  1.00  0.00    -0.003 C 
ATOM     16  C   UNL     1      -1.826   1.627  -9.444  1.00  0.00     0.004 C 
ENDBRANCH  14  15
ENDBRANCH  13  14
ENDBRANCH  12  13
ENDBRANCH  11  12
ENDBRANCH  10  11
ENDBRANCH   1  10
TORSDOF 12
ENDMDL
MODEL 4
REMARK VINA RESULT:    -3.197      8.437     13.438
REMARK INTER + INTRA:          -5.646
REMARK INTER:                  -5.352
REMARK INTRA:                  -0.294
REMARK UNBOUND:                -0.206
REMARK SMILES CCCCCCCCCCCCCC(=O)[O-]
REMARK SMILES IDX 8 1 9 2 10 3 11 4 12 5 13 6 14 7 15 8 16 9 7 10 6 11 5 12
REMARK SMILES IDX 4 13 3 14 2 15 1 16
REMARK H PARENT
REMARK Flexibility Score: inf
ROOT
ATOM      1  C   UNL     1       2.733   2.700  10.038  1.00  0.00     0.000 C 
ENDROOT
BRANCH   1   2
ATOM      2  C   UNL     1       4.254   2.916  10.125  1.00  0.00     0.000 C 
BRANCH   2   3
ATOM      3  C   UNL     1       4.656   4.399  10.019  1.00  0.00     0.000 C 
BRANCH   3   4
ATOM      4  C   UNL     1       5.480   4.764   8.770  1.00  0.00     0.000 C 
BRANCH   4   5
ATOM      5  C   UNL     1       6.828   5.422   9.111  1.00  0.00     0.006 C 
BRANCH   5   6
ATOM      6  C   UNL     1       6.651   6.784   9.795  1.00  0.00     0.053 C 
BRANCH   6   7
ATOM      7  C   UNL     1       7.356   7.875   9.048  1.00  0.00     0.041 C 
ATOM      8  O   UNL     1       8.248   7.590   8.205  1.00  0.00    -0.550 OA
ATOM      9  O   UNL     1       7.055   9.205   9.308  1.00  0.00    -0.550 OA
ENDBRANCH   6   7
ENDBRANCH   5   6
ENDBRANCH   4   5
ENDBRANCH   3   4
ENDBRANCH   2   3
ENDBRANCH   1   2
BRANCH   1  10
ATOM     10  C   UNL     1       2.353   1.214   9.930  1.00  0.00     0.000 C 
BRANCH  10  11
ATOM     11  C   UNL     1       0.837   0.997   9.824  1.00  0.00    -0.000 C 
BRANCH  11  12
ATOM     12  C   UNL     1       0.486  -0.492   9.969  1.00  0.00    -0.000 C 
BRANCH  12  13
ATOM     13  C   UNL     1      -1.025  -0.759   9.877  1.00  0.00    -0.000 C 
BRANCH  13  14
ATOM     14  C   UNL     1      -1.381  -2.235  10.125  1.00  0.00    -0.000 C 
BRANCH  14  15
ATOM     15  C   UNL     1      -2.839  -2.558   9.761  1.00  0.00    -0.003 C 
ATOM     16  C   UNL     1      -3.765  -1.349   9.892  1.00  0.00     0.004 C 
ENDBRANCH  14  15
ENDBRANCH  13  14
ENDBRANCH  12  13
ENDBRANCH  11  12
ENDBRANCH  10  11
ENDBRANCH   1  10
TORSDOF 12
ENDMDL
MODEL 5
REMARK VINA RESULT:    -3.175      9.457     12.856
REMARK INTER + INTRA:          -5.608
REMARK INTER:                  -5.422
REMARK INTRA:                  -0.186
REMARK UNBOUND:                -0.206
REMARK SMILES CCCCCCCCCCCCCC(=O)[O-]
REMARK SMILES IDX 8 1 9 2 10 3 11 4 12 5 13 6 14 7 15 8 16 9 7 10 6 11 5 12
REMARK SMILES IDX 4 13 3 14 2 15 1 16
REMARK H PARENT
REMARK Flexibility Score: inf
ROOT
ATOM      1  C   UNL     1       7.118   6.152   7.712  1.00  0.00     0.000 C 
ENDROOT
BRANCH   1   2
ATOM      2  C   UNL     1       7.833   5.134   8.616  1.00  0.00     0.000 C 
BRANCH   2   3
ATOM      3  C   UNL     1       7.176   4.996  10.002  1.00  0.00     0.000 C 
BRANCH   3   4
ATOM      4  C   UNL     1       6.006   3.997  10.073  1.00  0.00     0.000 C 
BRANCH   4   5
ATOM      5  C   UNL     1       4.734   4.513   9.378  1.00  0.00     0.006 C 
BRANCH   5   6
ATOM      6  C   UNL     1       3.458   4.090  10.118  1.00  0.00     0.053 C 
BRANCH   6   7
ATOM      7  C   UNL     1       3.186   2.625   9.960  1.00  0.00     0.041 C 
ATOM      8  O   UNL     1       4.130   1.795  10.029  1.00  0.00    -0.550 OA
ATOM      9  O   UNL     1       1.896   2.181   9.702  1.00  0.00    -0.550 OA
ENDBRANCH   6   7
ENDBRANCH   5   6
ENDBRANCH   4   5
ENDBRANCH   3   4
ENDBRANCH   2   3
ENDBRANCH   1   2
BRANCH   1  10
ATOM     10  C   UNL     1       7.843   7.507   7.658  1.00  0.00     0.000 C 
BRANCH  10  11
ATOM     11  C   UNL     1       8.688   7.777   8.912  1.00  0.00    -0.000 C 
BRANCH  11  12
ATOM     12  C   UNL     1       8.590   9.251   9.331  1.00  0.00    -0.000 C 
BRANCH  12  13
ATOM     13  C   UNL     1       7.310   9.561  10.125  1.00  0.00    -0.000 C 
BRANCH  13  14
ATOM     14  C   UNL     1       6.075   9.710   9.221  1.00  0.00    -0.000 C 
BRANCH  14  15
ATOM     15  C   UNL     1       4.772   9.319   9.935  1.00  0.00    -0.003 C 
ATOM     16  C   UNL     1       4.292   7.915   9.566  1.00  0.00     0.004 C 
ENDBRANCH  14  15
ENDBRANCH  13  14
ENDBRANCH  12  13
ENDBRANCH  11  12
ENDBRANCH  10  11
ENDBRANCH   1  10
TORSDOF 12
ENDMDL
MODEL 6
REMARK VINA RESULT:    -3.149     20.408     21.393
REMARK INTER + INTRA:          -5.563
REMARK INTER:                  -5.190
REMARK INTRA:                  -0.373
REMARK UNBOUND:                -0.206
REMARK SMILES CCCCCCCCCCCCCC(=O)[O-]
REMARK SMILES IDX 8 1 9 2 10 3 11 4 12 5 13 6 14 7 15 8 16 9 7 10 6 11 5 12
REMARK SMILES IDX 4 13 3 14 2 15 1 16
REMARK H PARENT
REMARK Flexibility Score: inf
ROOT
ATOM      1  C   UNL     1      -2.616   1.852  -9.719  1.00  0.00     0.000 C 
ENDROOT
BRANCH   1   2
ATOM      2  C   UNL     1      -1.080   1.778  -9.780  1.00  0.00     0.000 C 
BRANCH   2   3
ATOM      3  C   UNL     1      -0.514   0.511  -9.112  1.00  0.00     0.000 C 
BRANCH   3   4
ATOM      4  C   UNL     1       0.007  -0.563 -10.086  1.00  0.00     0.000 C 
BRANCH   4   5
ATOM      5  C   UNL     1       1.542  -0.650 -10.118  1.00  0.00     0.006 C 
BRANCH   5   6
ATOM      6  C   UNL     1       2.043  -2.092  -9.959  1.00  0.00     0.053 C 
BRANCH   6   7
ATOM      7  C   UNL     1       3.538  -2.169 -10.027  1.00  0.00     0.041 C 
ATOM      8  O   UNL     1       4.222  -1.116 -10.125  1.00  0.00    -0.550 OA
ATOM      9  O   UNL     1       4.173  -3.404 -10.019  1.00  0.00    -0.550 OA
ENDBRANCH   6   7
ENDBRANCH   5   6
ENDBRANCH   4   5
ENDBRANCH   3   4
ENDBRANCH   2   3
ENDBRANCH   1   2
BRANCH   1  10
ATOM     10  C   UNL     1      -3.138   3.298  -9.724  1.00  0.00     0.000 C 
BRANCH  10  11
ATOM     11  C   UNL     1      -4.617   3.393 -10.125  1.00  0.00    -0.000 C 
BRANCH  11  12
ATOM     12  C   UNL     1      -5.094   4.854 -10.116  1.00  0.00    -0.000 C 
BRANCH  12  13
ATOM     13  C   UNL     1      -4.478   5.674  -8.971  1.00  0.00    -0.000 C 
BRANCH  13  14
ATOM     14  C   UNL     1      -5.099   7.076  -8.847  1.00  0.00    -0.000 C 
BRANCH  14  15
ATOM     15  C   UNL     1      -6.626   7.061  -9.022  1.00  0.00    -0.003 C 
ATOM     16  C   UNL     1      -7.253   8.447  -8.869  1.00  0.00     0.004 C 
ENDBRANCH  14  15
ENDBRANCH  13  14
ENDBRANCH  12  13
ENDBRANCH  11  12
ENDBRANCH  10  11
ENDBRANCH   1  10
TORSDOF 12
ENDMDL
MODEL 7
REMARK VINA RESULT:    -3.086     21.217     22.080
REMARK INTER + INTRA:          -5.457
REMARK INTER:                  -4.424
REMARK INTRA:                  -1.033
REMARK UNBOUND:                -0.206
REMARK SMILES CCCCCCCCCCCCCC(=O)[O-]
REMARK SMILES IDX 8 1 9 2 10 3 11 4 12 5 13 6 14 7 15 8 16 9 7 10 6 11 5 12
REMARK SMILES IDX 4 13 3 14 2 15 1 16
REMARK H PARENT
REMARK Flexibility Score: inf
ROOT
ATOM      1  C   UNL     1      -6.869   5.171  -7.640  1.00  0.00     0.000 C 
ENDROOT
BRANCH   1   2
ATOM      2  C   UNL     1      -7.394   6.527  -7.140  1.00  0.00     0.000 C 
BRANCH   2   3
ATOM      3  C   UNL     1      -8.221   7.278  -8.200  1.00  0.00     0.000 C 
BRANCH   3   4
ATOM      4  C   UNL     1      -8.037   8.807  -8.209  1.00  0.00     0.000 C 
BRANCH   4   5
ATOM      5  C   UNL     1      -7.452   9.334  -9.530  1.00  0.00     0.006 C 
BRANCH   5   6
ATOM      6  C   UNL     1      -6.410   8.377 -10.125  1.00  0.00     0.053 C 
BRANCH   6   7
ATOM      7  C   UNL     1      -5.019   8.743  -9.706  1.00  0.00     0.041 C 
ATOM      8  O   UNL     1      -4.710   9.950  -9.522  1.00  0.00    -0.550 OA
ATOM      9  O   UNL     1      -4.055   7.755  -9.553  1.00  0.00    -0.550 OA
ENDBRANCH   6   7
ENDBRANCH   5   6
ENDBRANCH   4   5
ENDBRANCH   3   4
ENDBRANCH   2   3
ENDBRANCH   1   2
BRANCH   1  10
ATOM     10  C   UNL     1      -7.764   4.556  -8.729  1.00  0.00     0.000 C 
BRANCH  10  11
ATOM     11  C   UNL     1      -7.104   4.570 -10.115  1.00  0.00    -0.000 C 
BRANCH  11  12
ATOM     12  C   UNL     1      -5.573   4.592  -9.994  1.00  0.00    -0.000 C 
BRANCH  12  13
ATOM     13  C   UNL     1      -4.946   3.195 -10.125  1.00  0.00    -0.000 C 
BRANCH  13  14
ATOM     14  C   UNL     1      -3.417   3.214  -9.954  1.00  0.00    -0.000 C 
BRANCH  14  15
ATOM     15  C   UNL     1      -2.820   1.803  -9.834  1.00  0.00    -0.003 C 
ATOM     16  C   UNL     1      -1.298   1.815  -9.689  1.00  0.00     0.004 C 
ENDBRANCH  14  15
ENDBRANCH  13  14
ENDBRANCH  12  13
ENDBRANCH  11  12
ENDBRANCH  10  11
ENDBRANCH   1  10
TORSDOF 12
ENDMDL
MODEL 8
REMARK VINA RESULT:    -2.900     20.517     21.659
REMARK INTER + INTRA:          -5.141
REMARK INTER:                  -4.582
REMARK INTRA:                  -0.558
REMARK UNBOUND:                -0.206
REMARK SMILES CCCCCCCCCCCCCC(=O)[O-]
REMARK SMILES IDX 8 1 9 2 10 3 11 4 12 5 13 6 14 7 15 8 16 9 7 10 6 11 5 12
REMARK SMILES IDX 4 13 3 14 2 15 1 16
REMARK H PARENT
REMARK Flexibility Score: inf
ROOT
ATOM      1  C   UNL     1       5.763  -4.852  -8.855  1.00  0.00     0.000 C 
ENDROOT
BRANCH   1   2
ATOM      2  C   UNL     1       7.181  -4.417  -9.262  1.00  0.00     0.000 C 
BRANCH   2   3
ATOM      3  C   UNL     1       8.202  -5.569  -9.208  1.00  0.00     0.000 C 
BRANCH   3   4
ATOM      4  C   UNL     1       7.844  -6.712  -8.240  1.00  0.00     0.000 C 
BRANCH   4   5
ATOM      5  C   UNL     1       7.664  -8.065  -8.950  1.00  0.00     0.006 C 
BRANCH   5   6
ATOM      6  C   UNL     1       6.576  -8.012 -10.030  1.00  0.00     0.053 C 
BRANCH   6   7
ATOM      7  C   UNL     1       5.350  -8.768  -9.619  1.00  0.00     0.041 C 
ATOM      8  O   UNL     1       5.407 -10.012  -9.432  1.00  0.00    -0.550 OA
ATOM      9  O   UNL     1       4.138  -8.106  -9.478  1.00  0.00    -0.550 OA
ENDBRANCH   6   7
ENDBRANCH   5   6
ENDBRANCH   4   5
ENDBRANCH   3   4
ENDBRANCH   2   3
ENDBRANCH   1   2
BRANCH   1  10
ATOM     10  C   UNL     1       4.678  -4.264  -9.772  1.00  0.00     0.000 C 
BRANCH  10  11
ATOM     11  C   UNL     1       3.918  -3.100  -9.120  1.00  0.00    -0.000 C 
BRANCH  11  12
ATOM     12  C   UNL     1       2.962  -2.439 -10.125  1.00  0.00    -0.000 C 
BRANCH  12  13
ATOM     13  C   UNL     1       1.716  -1.838  -9.455  1.00  0.00    -0.000 C 
BRANCH  13  14
ATOM     14  C   UNL     1       1.315  -0.482 -10.060  1.00  0.00    -0.000 C 
BRANCH  14  15
ATOM     15  C   UNL     1      -0.177  -0.168  -9.863  1.00  0.00    -0.003 C 
ATOM     16  C   UNL     1      -0.450   1.327  -9.694  1.00  0.00     0.004 C 
ENDBRANCH  14  15
ENDBRANCH  13  14
ENDBRANCH  12  13
ENDBRANCH  11  12
ENDBRANCH  10  11
ENDBRANCH   1  10
TORSDOF 12
ENDMDL
MODEL 9
REMARK VINA RESULT:    -2.893     20.954     22.263
REMARK INTER + INTRA:          -5.128
REMARK INTER:                  -4.141
REMARK INTRA:                  -0.987
REMARK UNBOUND:                -0.206
REMARK SMILES CCCCCCCCCCCCCC(=O)[O-]
REMARK SMILES IDX 8 1 9 2 10 3 11 4 12 5 13 6 14 7 15 8 16 9 7 10 6 11 5 12
REMARK SMILES IDX 4 13 3 14 2 15 1 16
REMARK H PARENT
REMARK Flexibility Score: inf
ROOT
ATOM      1  C   UNL     1       6.991  -5.352  -7.972  1.00  0.00     0.000 C 
ENDROOT
BRANCH   1   2
ATOM      2  C   UNL     1       7.171  -5.070  -9.474  1.00  0.00     0.000 C 
BRANCH   2   3
ATOM      3  C   UNL     1       6.015  -4.248 -10.073  1.00  0.00     0.000 C 
BRANCH   3   4
ATOM      4  C   UNL     1       4.699  -4.295  -9.275  1.00  0.00     0.000 C 
BRANCH   4   5
ATOM      5  C   UNL     1       3.497  -3.754 -10.067  1.00  0.00     0.006 C 
BRANCH   5   6
ATOM      6  C   UNL     1       3.484  -2.220 -10.125  1.00  0.00     0.053 C 
BRANCH   6   7
ATOM      7  C   UNL     1       2.092  -1.674 -10.029  1.00  0.00     0.041 C 
ATOM      8  O   UNL     1       1.895  -0.432 -10.080  1.00  0.00    -0.550 OA
ATOM      9  O   UNL     1       1.017  -2.535  -9.847  1.00  0.00    -0.550 OA
ENDBRANCH   6   7
ENDBRANCH   5   6
ENDBRANCH   4   5
ENDBRANCH   3   4
ENDBRANCH   2   3
ENDBRANCH   1   2
BRANCH   1  10
ATOM     10  C   UNL     1       7.466  -6.760  -7.575  1.00  0.00     0.000 C 
BRANCH  10  11
ATOM     11  C   UNL     1       8.418  -7.378  -8.610  1.00  0.00    -0.000 C 
BRANCH  11  12
ATOM     12  C   UNL     1       8.525  -8.898  -8.416  1.00  0.00    -0.000 C 
BRANCH  12  13
ATOM     13  C   UNL     1       8.057  -9.690  -9.647  1.00  0.00    -0.000 C 
BRANCH  13  14
ATOM     14  C   UNL     1       6.542  -9.956  -9.639  1.00  0.00    -0.000 C 
BRANCH  14  15
ATOM     15  C   UNL     1       5.728  -8.746 -10.123  1.00  0.00    -0.003 C 
ATOM     16  C   UNL     1       4.348  -8.660  -9.471  1.00  0.00     0.004 C 
ENDBRANCH  14  15
ENDBRANCH  13  14
ENDBRANCH  12  13
ENDBRANCH  11  12
ENDBRANCH  10  11
ENDBRANCH   1  10
TORSDOF 12
ENDMDL
