MODEL 1
REMARK VINA RESULT:    23.009      0.000      0.000
REMARK INTER + INTRA:          51.412
REMARK INTER:                  52.602
REMARK INTRA:                  -1.189
REMARK UNBOUND:                -1.189
REMARK SMILES CCCCCCCCCCCCCCCCCCCCCCCC(=O)[O-]
REMARK SMILES IDX 13 1 14 2 15 3 16 4 17 5 18 6 19 7 20 8 21 9 22 10 23 11
REMARK SMILES IDX 24 12 25 13 26 14 12 15 11 16 10 17 9 18 8 19 7 20 6 21 5 22
REMARK SMILES IDX 4 23 3 24 2 25 1 26
REMARK H PARENT
REMARK Flexibility Score: inf
ROOT
ATOM      1  C   UNL     1     -16.871 -14.493 -21.375  1.00  0.00     0.000 C 
ENDROOT
BRANCH   1   2
ATOM      2  C   UNL     1     -16.341 -15.047 -20.039  1.00  0.00     0.000 C 
BRANCH   2   3
ATOM      3  C   UNL     1     -17.420 -15.372 -18.990  1.00  0.00     0.000 C 
BRANCH   3   4
ATOM      4  C   UNL     1     -16.842 -16.011 -17.715  1.00  0.00     0.000 C 
BRANCH   4   5
ATOM      5  C   UNL     1     -17.664 -15.688 -16.453  1.00  0.00     0.000 C 
BRANCH   5   6
ATOM      6  C   UNL     1     -18.313 -16.901 -15.760  1.00  0.00     0.000 C 
BRANCH   6   7
ATOM      7  C   UNL     1     -19.570 -17.409 -16.483  1.00  0.00     0.000 C 
BRANCH   7   8
ATOM      8  C   UNL     1     -20.494 -18.166 -15.517  1.00  0.00     0.000 C 
BRANCH   8   9
ATOM      9  C   UNL     1     -21.894 -17.539 -15.420  1.00  0.00     0.000 C 
BRANCH   9  10
ATOM     10  C   UNL     1     -21.873 -16.128 -14.805  1.00  0.00     0.006 C 
BRANCH  10  11
ATOM     11  C   UNL     1     -22.547 -16.087 -13.426  1.00  0.00     0.053 C 
BRANCH  11  12
ATOM     12  C   UNL     1     -23.716 -15.150 -13.403  1.00  0.00     0.041 C 
ATOM     13  O   UNL     1     -24.516 -15.107 -14.376  1.00  0.00    -0.550 OA
ATOM     14  O   UNL     1     -23.936 -14.341 -12.296  1.00  0.00    -0.550 OA
ENDBRANCH  11  12
ENDBRANCH  10  11
ENDBRANCH   9  10
ENDBRANCH   8   9
ENDBRANCH   7   8
ENDBRANCH   6   7
ENDBRANCH   5   6
ENDBRANCH   4   5
ENDBRANCH   3   4
ENDBRANCH   2   3
ENDBRANCH   1   2
BRANCH   1  15
ATOM     15  C   UNL     1     -16.089 -13.265 -21.872  1.00  0.00     0.000 C 
BRANCH  15  16
ATOM     16  C   UNL     1     -15.701 -13.388 -23.362  1.00  0.00     0.000 C 
BRANCH  16  17
ATOM     17  C   UNL     1     -14.591 -12.415 -23.796  1.00  0.00     0.000 C 
BRANCH  17  18
ATOM     18  C   UNL     1     -14.576 -11.117 -22.971  1.00  0.00    -0.000 C 
BRANCH  18  19
ATOM     19  C   UNL     1     -13.969  -9.935 -23.745  1.00  0.00    -0.000 C 
BRANCH  19  20
ATOM     20  C   UNL     1     -14.436  -8.572 -23.203  1.00  0.00    -0.000 C 
BRANCH  20  21
ATOM     21  C   UNL     1     -13.324  -7.820 -22.447  1.00  0.00    -0.000 C 
BRANCH  21  22
ATOM     22  C   UNL     1     -12.140  -8.696 -21.987  1.00  0.00    -0.000 C 
BRANCH  22  23
ATOM     23  C   UNL     1     -11.962  -8.809 -20.462  1.00  0.00    -0.000 C 
BRANCH  23  24
ATOM     24  C   UNL     1     -12.974  -7.956 -19.678  1.00  0.00    -0.000 C 
BRANCH  24  25
ATOM     25  C   UNL     1     -12.828  -8.113 -18.157  1.00  0.00    -0.003 C 
ATOM     26  C   UNL     1     -12.974  -9.563 -17.692  1.00  0.00     0.004 C 
ENDBRANCH  24  25
ENDBRANCH  23  24
ENDBRANCH  22  23
ENDBRANCH  21  22
ENDBRANCH  20  21
ENDBRANCH  19  20
ENDBRANCH  18  19
ENDBRANCH  17  18
ENDBRANCH  16  17
ENDBRANCH  15  16
ENDBRANCH   1  15
TORSDOF 22
ENDMDL
MODEL 2
REMARK VINA RESULT:    23.028      3.721     11.338
REMARK INTER + INTRA:          51.454
REMARK INTER:                  52.590
REMARK INTRA:                  -1.136
REMARK UNBOUND:                -1.189
REMARK SMILES CCCCCCCCCCCCCCCCCCCCCCCC(=O)[O-]
REMARK SMILES IDX 13 1 14 2 15 3 16 4 17 5 18 6 19 7 20 8 21 9 22 10 23 11
REMARK SMILES IDX 24 12 25 13 26 14 12 15 11 16 10 17 9 18 8 19 7 20 6 21 5 22
REMARK SMILES IDX 4 23 3 24 2 25 1 26
REMARK H PARENT
REMARK Flexibility Score: inf
ROOT
ATOM      1  C   UNL     1     -15.771 -14.049 -20.909  1.00  0.00     0.000 C 
ENDROOT
BRANCH   1   2
ATOM      2  C   UNL     1     -16.676 -13.755 -22.121  1.00  0.00     0.000 C 
BRANCH   2   3
ATOM      3  C   UNL     1     -15.967 -13.114 -23.328  1.00  0.00     0.000 C 
BRANCH   3   4
ATOM      4  C   UNL     1     -14.724 -12.299 -22.929  1.00  0.00     0.000 C 
BRANCH   4   5
ATOM      5  C   UNL     1     -14.202 -11.401 -24.066  1.00  0.00     0.000 C 
BRANCH   5   6
ATOM      6  C   UNL     1     -13.653 -10.031 -23.626  1.00  0.00     0.000 C 
BRANCH   6   7
ATOM      7  C   UNL     1     -14.683  -8.898 -23.752  1.00  0.00     0.000 C 
BRANCH   7   8
ATOM      8  C   UNL     1     -14.540  -7.891 -22.601  1.00  0.00     0.000 C 
BRANCH   8   9
ATOM      9  C   UNL     1     -13.141  -7.911 -21.963  1.00  0.00     0.000 C 
BRANCH   9  10
ATOM     10  C   UNL     1     -13.132  -7.350 -20.529  1.00  0.00     0.006 C 
BRANCH  10  11
ATOM     11  C   UNL     1     -12.297  -8.216 -19.575  1.00  0.00     0.053 C 
BRANCH  11  12
ATOM     12  C   UNL     1     -13.080  -8.625 -18.364  1.00  0.00     0.041 C 
ATOM     13  O   UNL     1     -14.049  -7.924 -17.967  1.00  0.00    -0.550 OA
ATOM     14  O   UNL     1     -12.754  -9.794 -17.689  1.00  0.00    -0.550 OA
ENDBRANCH  11  12
ENDBRANCH  10  11
ENDBRANCH   9  10
ENDBRANCH   8   9
ENDBRANCH   7   8
ENDBRANCH   6   7
ENDBRANCH   5   6
ENDBRANCH   4   5
ENDBRANCH   3   4
ENDBRANCH   2   3
ENDBRANCH   1   2
BRANCH   1  15
ATOM     15  C   UNL     1     -16.105 -15.381 -20.215  1.00  0.00     0.000 C 
BRANCH  15  16
ATOM     16  C   UNL     1     -17.317 -15.253 -19.267  1.00  0.00     0.000 C 
BRANCH  16  17
ATOM     17  C   UNL     1     -17.398 -16.370 -18.211  1.00  0.00     0.000 C 
BRANCH  17  18
ATOM     18  C   UNL     1     -17.004 -15.893 -16.803  1.00  0.00    -0.000 C 
BRANCH  18  19
ATOM     19  C   UNL     1     -17.693 -16.703 -15.693  1.00  0.00    -0.000 C 
BRANCH  19  20
ATOM     20  C   UNL     1     -19.226 -16.556 -15.720  1.00  0.00    -0.000 C 
BRANCH  20  21
ATOM     21  C   UNL     1     -19.949 -17.902 -15.911  1.00  0.00    -0.000 C 
BRANCH  21  22
ATOM     22  C   UNL     1     -21.393 -17.949 -15.369  1.00  0.00    -0.000 C 
BRANCH  22  23
ATOM     23  C   UNL     1     -22.098 -16.585 -15.262  1.00  0.00    -0.000 C 
BRANCH  23  24
ATOM     24  C   UNL     1     -22.374 -16.168 -13.807  1.00  0.00    -0.000 C 
BRANCH  24  25
ATOM     25  C   UNL     1     -23.338 -14.976 -13.705  1.00  0.00    -0.003 C 
ATOM     26  C   UNL     1     -24.638 -15.323 -12.978  1.00  0.00     0.004 C 
ENDBRANCH  24  25
ENDBRANCH  23  24
ENDBRANCH  22  23
ENDBRANCH  21  22
ENDBRANCH  20  21
ENDBRANCH  19  20
ENDBRANCH  18  19
ENDBRANCH  17  18
ENDBRANCH  16  17
ENDBRANCH  15  16
ENDBRANCH   1  15
TORSDOF 22
ENDMDL
MODEL 3
REMARK VINA RESULT:    23.301      3.722     11.113
REMARK INTER + INTRA:          52.080
REMARK INTER:                  53.168
REMARK INTRA:                  -1.088
REMARK UNBOUND:                -1.189
REMARK SMILES CCCCCCCCCCCCCCCCCCCCCCCC(=O)[O-]
REMARK SMILES IDX 13 1 14 2 15 3 16 4 17 5 18 6 19 7 20 8 21 9 22 10 23 11
REMARK SMILES IDX 24 12 25 13 26 14 12 15 11 16 10 17 9 18 8 19 7 20 6 21 5 22
REMARK SMILES IDX 4 23 3 24 2 25 1 26
REMARK H PARENT
REMARK Flexibility Score: inf
ROOT
ATOM      1  C   UNL     1     -16.492 -13.239 -22.575  1.00  0.00     0.000 C 
ENDROOT
BRANCH   1   2
ATOM      2  C   UNL     1     -15.351 -12.203 -22.551  1.00  0.00     0.000 C 
BRANCH   2   3
ATOM      3  C   UNL     1     -14.312 -12.348 -23.678  1.00  0.00     0.000 C 
BRANCH   3   4
ATOM      4  C   UNL     1     -13.966 -11.007 -24.349  1.00  0.00     0.000 C 
BRANCH   4   5
ATOM      5  C   UNL     1     -13.931  -9.828 -23.358  1.00  0.00     0.000 C 
BRANCH   5   6
ATOM      6  C   UNL     1     -14.807  -8.620 -23.739  1.00  0.00     0.000 C 
BRANCH   6   7
ATOM      7  C   UNL     1     -14.287  -7.292 -23.169  1.00  0.00     0.000 C 
BRANCH   7   8
ATOM      8  C   UNL     1     -14.825  -7.051 -21.751  1.00  0.00     0.000 C 
BRANCH   8   9
ATOM      9  C   UNL     1     -13.706  -6.819 -20.721  1.00  0.00     0.000 C 
BRANCH   9  10
ATOM     10  C   UNL     1     -12.743  -8.015 -20.610  1.00  0.00     0.006 C 
BRANCH  10  11
ATOM     11  C   UNL     1     -12.104  -8.116 -19.217  1.00  0.00     0.053 C 
BRANCH  11  12
ATOM     12  C   UNL     1     -13.040  -8.725 -18.217  1.00  0.00     0.041 C 
ATOM     13  O   UNL     1     -13.993  -8.049 -17.745  1.00  0.00    -0.550 OA
ATOM     14  O   UNL     1     -12.873 -10.047 -17.825  1.00  0.00    -0.550 OA
ENDBRANCH  11  12
ENDBRANCH  10  11
ENDBRANCH   9  10
ENDBRANCH   8   9
ENDBRANCH   7   8
ENDBRANCH   6   7
ENDBRANCH   5   6
ENDBRANCH   4   5
ENDBRANCH   3   4
ENDBRANCH   2   3
ENDBRANCH   1   2
BRANCH   1  15
ATOM     15  C   UNL     1     -16.135 -14.546 -21.847  1.00  0.00     0.000 C 
BRANCH  15  16
ATOM     16  C   UNL     1     -16.167 -14.384 -20.312  1.00  0.00     0.000 C 
BRANCH  16  17
ATOM     17  C   UNL     1     -16.448 -15.694 -19.555  1.00  0.00     0.000 C 
BRANCH  17  18
ATOM     18  C   UNL     1     -17.304 -15.485 -18.294  1.00  0.00    -0.000 C 
BRANCH  18  19
ATOM     19  C   UNL     1     -16.612 -16.003 -17.022  1.00  0.00    -0.000 C 
BRANCH  19  20
ATOM     20  C   UNL     1     -17.549 -16.005 -15.800  1.00  0.00    -0.000 C 
BRANCH  20  21
ATOM     21  C   UNL     1     -18.430 -17.266 -15.728  1.00  0.00    -0.000 C 
BRANCH  21  22
ATOM     22  C   UNL     1     -19.912 -17.048 -16.096  1.00  0.00    -0.000 C 
BRANCH  22  23
ATOM     23  C   UNL     1     -20.856 -18.209 -15.730  1.00  0.00    -0.000 C 
BRANCH  23  24
ATOM     24  C   UNL     1     -21.971 -17.787 -14.758  1.00  0.00    -0.000 C 
BRANCH  24  25
ATOM     25  C   UNL     1     -22.418 -16.331 -14.966  1.00  0.00    -0.003 C 
ATOM     26  C   UNL     1     -23.046 -15.718 -13.714  1.00  0.00     0.004 C 
ENDBRANCH  24  25
ENDBRANCH  23  24
ENDBRANCH  22  23
ENDBRANCH  21  22
ENDBRANCH  20  21
ENDBRANCH  19  20
ENDBRANCH  18  19
ENDBRANCH  17  18
ENDBRANCH  16  17
ENDBRANCH  15  16
ENDBRANCH   1  15
TORSDOF 22
ENDMDL
MODEL 4
REMARK VINA RESULT:    23.432      4.037     11.538
REMARK INTER + INTRA:          52.379
REMARK INTER:                  53.485
REMARK INTRA:                  -1.106
REMARK UNBOUND:                -1.189
REMARK SMILES CCCCCCCCCCCCCCCCCCCCCCCC(=O)[O-]
REMARK SMILES IDX 13 1 14 2 15 3 16 4 17 5 18 6 19 7 20 8 21 9 22 10 23 11
REMARK SMILES IDX 24 12 25 13 26 14 12 15 11 16 10 17 9 18 8 19 7 20 6 21 5 22
REMARK SMILES IDX 4 23 3 24 2 25 1 26
REMARK H PARENT
REMARK Flexibility Score: inf
ROOT
ATOM      1  C   UNL     1     -15.604 -15.103 -20.785  1.00  0.00     0.000 C 
ENDROOT
BRANCH   1   2
ATOM      2  C   UNL     1     -16.586 -13.962 -21.114  1.00  0.00     0.000 C 
BRANCH   2   3
ATOM      3  C   UNL     1     -16.438 -13.355 -22.521  1.00  0.00     0.000 C 
BRANCH   3   4
ATOM      4  C   UNL     1     -15.182 -12.480 -22.666  1.00  0.00     0.000 C 
BRANCH   4   5
ATOM      5  C   UNL     1     -14.756 -12.275 -24.132  1.00  0.00     0.000 C 
BRANCH   5   6
ATOM      6  C   UNL     1     -13.797 -11.096 -24.383  1.00  0.00     0.000 C 
BRANCH   6   7
ATOM      7  C   UNL     1     -13.768 -10.083 -23.228  1.00  0.00     0.000 C 
BRANCH   7   8
ATOM      8  C   UNL     1     -14.565  -8.819 -23.583  1.00  0.00     0.000 C 
BRANCH   8   9
ATOM      9  C   UNL     1     -14.093  -7.580 -22.803  1.00  0.00     0.000 C 
BRANCH   9  10
ATOM     10  C   UNL     1     -13.035  -7.916 -21.737  1.00  0.00     0.006 C 
BRANCH  10  11
ATOM     11  C   UNL     1     -13.441  -7.419 -20.342  1.00  0.00     0.053 C 
BRANCH  11  12
ATOM     12  C   UNL     1     -12.825  -8.246 -19.254  1.00  0.00     0.041 C 
ATOM     13  O   UNL     1     -12.915  -7.882 -18.051  1.00  0.00    -0.550 OA
ATOM     14  O   UNL     1     -12.174  -9.431 -19.567  1.00  0.00    -0.550 OA
ENDBRANCH  11  12
ENDBRANCH  10  11
ENDBRANCH   9  10
ENDBRANCH   8   9
ENDBRANCH   7   8
ENDBRANCH   6   7
ENDBRANCH   5   6
ENDBRANCH   4   5
ENDBRANCH   3   4
ENDBRANCH   2   3
ENDBRANCH   1   2
BRANCH   1  15
ATOM     15  C   UNL     1     -16.115 -16.039 -19.677  1.00  0.00     0.000 C 
BRANCH  15  16
ATOM     16  C   UNL     1     -16.793 -15.263 -18.528  1.00  0.00     0.000 C 
BRANCH  16  17
ATOM     17  C   UNL     1     -17.833 -16.089 -17.749  1.00  0.00     0.000 C 
BRANCH  17  18
ATOM     18  C   UNL     1     -17.648 -16.001 -16.225  1.00  0.00    -0.000 C 
BRANCH  18  19
ATOM     19  C   UNL     1     -18.560 -16.978 -15.465  1.00  0.00    -0.000 C 
BRANCH  19  20
ATOM     20  C   UNL     1     -19.606 -17.642 -16.379  1.00  0.00    -0.000 C 
BRANCH  20  21
ATOM     21  C   UNL     1     -20.750 -18.305 -15.589  1.00  0.00    -0.000 C 
BRANCH  21  22
ATOM     22  C   UNL     1     -22.015 -17.438 -15.421  1.00  0.00    -0.000 C 
BRANCH  22  23
ATOM     23  C   UNL     1     -21.824 -16.153 -14.594  1.00  0.00    -0.000 C 
BRANCH  23  24
ATOM     24  C   UNL     1     -23.095 -15.288 -14.533  1.00  0.00    -0.000 C 
BRANCH  24  25
ATOM     25  C   UNL     1     -23.884 -15.485 -13.229  1.00  0.00    -0.003 C 
ATOM     26  C   UNL     1     -23.743 -14.306 -12.266  1.00  0.00     0.004 C 
ENDBRANCH  24  25
ENDBRANCH  23  24
ENDBRANCH  22  23
ENDBRANCH  21  22
ENDBRANCH  20  21
ENDBRANCH  19  20
ENDBRANCH  18  19
ENDBRANCH  17  18
ENDBRANCH  16  17
ENDBRANCH  15  16
ENDBRANCH   1  15
TORSDOF 22
ENDMDL
MODEL 5
REMARK VINA RESULT:    24.368      1.635      2.714
REMARK INTER + INTRA:          54.519
REMARK INTER:                  54.024
REMARK INTRA:                   0.495
REMARK UNBOUND:                -1.189
REMARK SMILES CCCCCCCCCCCCCCCCCCCCCCCC(=O)[O-]
REMARK SMILES IDX 13 1 14 2 15 3 16 4 17 5 18 6 19 7 20 8 21 9 22 10 23 11
REMARK SMILES IDX 24 12 25 13 26 14 12 15 11 16 10 17 9 18 8 19 7 20 6 21 5 22
REMARK SMILES IDX 4 23 3 24 2 25 1 26
REMARK H PARENT
REMARK Flexibility Score: inf
ROOT
ATOM      1  C   UNL     1     -16.136 -12.545 -22.511  1.00  0.00     0.000 C 
ENDROOT
BRANCH   1   2
ATOM      2  C   UNL     1     -16.468 -13.995 -22.110  1.00  0.00     0.000 C 
BRANCH   2   3
ATOM      3  C   UNL     1     -16.112 -14.372 -20.660  1.00  0.00     0.000 C 
BRANCH   3   4
ATOM      4  C   UNL     1     -17.246 -15.122 -19.941  1.00  0.00     0.000 C 
BRANCH   4   5
ATOM      5  C   UNL     1     -16.742 -16.028 -18.802  1.00  0.00     0.000 C 
BRANCH   5   6
ATOM      6  C   UNL     1     -17.243 -15.658 -17.393  1.00  0.00     0.000 C 
BRANCH   6   7
ATOM      7  C   UNL     1     -16.387 -16.260 -16.269  1.00  0.00     0.000 C 
BRANCH   7   8
ATOM      8  C   UNL     1     -17.259 -16.684 -15.077  1.00  0.00     0.000 C 
BRANCH   8   9
ATOM      9  C   UNL     1     -18.764 -16.560 -15.368  1.00  0.00     0.000 C 
BRANCH   9  10
ATOM     10  C   UNL     1     -19.222 -17.463 -16.527  1.00  0.00     0.006 C 
BRANCH  10  11
ATOM     11  C   UNL     1     -20.383 -18.382 -16.121  1.00  0.00     0.053 C 
BRANCH  11  12
ATOM     12  C   UNL     1     -21.366 -17.680 -15.234  1.00  0.00     0.041 C 
ATOM     13  O   UNL     1     -21.579 -16.446 -15.373  1.00  0.00    -0.550 OA
ATOM     14  O   UNL     1     -22.065 -18.394 -14.270  1.00  0.00    -0.550 OA
ENDBRANCH  11  12
ENDBRANCH  10  11
ENDBRANCH   9  10
ENDBRANCH   8   9
ENDBRANCH   7   8
ENDBRANCH   6   7
ENDBRANCH   5   6
ENDBRANCH   4   5
ENDBRANCH   3   4
ENDBRANCH   2   3
ENDBRANCH   1   2
BRANCH   1  15
ATOM     15  C   UNL     1     -14.625 -12.290 -22.655  1.00  0.00     0.000 C 
BRANCH  15  16
ATOM     16  C   UNL     1     -14.270 -11.658 -24.018  1.00  0.00     0.000 C 
BRANCH  16  17
ATOM     17  C   UNL     1     -13.852 -10.179 -23.926  1.00  0.00     0.000 C 
BRANCH  17  18
ATOM     18  C   UNL     1     -14.973  -9.272 -23.391  1.00  0.00    -0.000 C 
BRANCH  18  19
ATOM     19  C   UNL     1     -14.552  -7.795 -23.322  1.00  0.00    -0.000 C 
BRANCH  19  20
ATOM     20  C   UNL     1     -13.603  -7.506 -22.144  1.00  0.00    -0.000 C 
BRANCH  20  21
ATOM     21  C   UNL     1     -12.367  -8.425 -22.137  1.00  0.00    -0.000 C 
BRANCH  21  22
ATOM     22  C   UNL     1     -11.998  -9.012 -20.760  1.00  0.00    -0.000 C 
BRANCH  22  23
ATOM     23  C   UNL     1     -12.339  -8.118 -19.553  1.00  0.00    -0.000 C 
BRANCH  23  24
ATOM     24  C   UNL     1     -12.702  -8.926 -18.295  1.00  0.00    -0.000 C 
BRANCH  24  25
ATOM     25  C   UNL     1     -13.673  -8.177 -17.370  1.00  0.00    -0.003 C 
ATOM     26  C   UNL     1     -14.969  -7.770 -18.072  1.00  0.00     0.004 C 
ENDBRANCH  24  25
ENDBRANCH  23  24
ENDBRANCH  22  23
ENDBRANCH  21  22
ENDBRANCH  20  21
ENDBRANCH  19  20
ENDBRANCH  18  19
ENDBRANCH  17  18
ENDBRANCH  16  17
ENDBRANCH  15  16
ENDBRANCH   1  15
TORSDOF 22
ENDMDL
MODEL 6
REMARK VINA RESULT:    24.931      4.546     10.767
REMARK INTER + INTRA:          55.805
REMARK INTER:                  56.633
REMARK INTRA:                  -0.828
REMARK UNBOUND:                -1.189
REMARK SMILES CCCCCCCCCCCCCCCCCCCCCCCC(=O)[O-]
REMARK SMILES IDX 13 1 14 2 15 3 16 4 17 5 18 6 19 7 20 8 21 9 22 10 23 11
REMARK SMILES IDX 24 12 25 13 26 14 12 15 11 16 10 17 9 18 8 19 7 20 6 21 5 22
REMARK SMILES IDX 4 23 3 24 2 25 1 26
REMARK H PARENT
REMARK Flexibility Score: inf
ROOT
ATOM      1  C   UNL     1     -16.100 -14.059 -21.075  1.00  0.00     0.000 C 
ENDROOT
BRANCH   1   2
ATOM      2  C   UNL     1     -16.627 -13.366 -22.345  1.00  0.00     0.000 C 
BRANCH   2   3
ATOM      3  C   UNL     1     -15.593 -13.188 -23.472  1.00  0.00     0.000 C 
BRANCH   3   4
ATOM      4  C   UNL     1     -14.439 -12.248 -23.083  1.00  0.00     0.000 C 
BRANCH   4   5
ATOM      5  C   UNL     1     -14.186 -11.141 -24.123  1.00  0.00     0.000 C 
BRANCH   5   6
ATOM      6  C   UNL     1     -13.614  -9.826 -23.561  1.00  0.00     0.000 C 
BRANCH   6   7
ATOM      7  C   UNL     1     -14.690  -8.764 -23.290  1.00  0.00     0.000 C 
BRANCH   7   8
ATOM      8  C   UNL     1     -14.056  -7.428 -22.873  1.00  0.00     0.000 C 
BRANCH   8   9
ATOM      9  C   UNL     1     -13.845  -7.318 -21.355  1.00  0.00     0.000 C 
BRANCH   9  10
ATOM     10  C   UNL     1     -12.691  -8.203 -20.849  1.00  0.00     0.006 C 
BRANCH  10  11
ATOM     11  C   UNL     1     -12.264  -7.836 -19.420  1.00  0.00     0.053 C 
BRANCH  11  12
ATOM     12  C   UNL     1     -13.064  -8.578 -18.392  1.00  0.00     0.041 C 
ATOM     13  O   UNL     1     -12.715  -9.733 -18.026  1.00  0.00    -0.550 OA
ATOM     14  O   UNL     1     -14.180  -7.983 -17.818  1.00  0.00    -0.550 OA
ENDBRANCH  11  12
ENDBRANCH  10  11
ENDBRANCH   9  10
ENDBRANCH   8   9
ENDBRANCH   7   8
ENDBRANCH   6   7
ENDBRANCH   5   6
ENDBRANCH   4   5
ENDBRANCH   3   4
ENDBRANCH   2   3
ENDBRANCH   1   2
BRANCH   1  15
ATOM     15  C   UNL     1     -17.191 -14.830 -20.311  1.00  0.00     0.000 C 
BRANCH  15  16
ATOM     16  C   UNL     1     -16.601 -15.713 -19.190  1.00  0.00     0.000 C 
BRANCH  16  17
ATOM     17  C   UNL     1     -17.631 -16.134 -18.126  1.00  0.00     0.000 C 
BRANCH  17  18
ATOM     18  C   UNL     1     -17.269 -15.644 -16.715  1.00  0.00    -0.000 C 
BRANCH  18  19
ATOM     19  C   UNL     1     -17.278 -16.779 -15.677  1.00  0.00    -0.000 C 
BRANCH  19  20
ATOM     20  C   UNL     1     -16.893 -16.293 -14.268  1.00  0.00    -0.000 C 
BRANCH  20  21
ATOM     21  C   UNL     1     -16.530 -17.450 -13.319  1.00  0.00    -0.000 C 
BRANCH  21  22
ATOM     22  C   UNL     1     -16.405 -17.060 -11.832  1.00  0.00    -0.000 C 
BRANCH  22  23
ATOM     23  C   UNL     1     -16.177 -15.561 -11.565  1.00  0.00    -0.000 C 
BRANCH  23  24
ATOM     24  C   UNL     1     -14.749 -15.252 -11.080  1.00  0.00    -0.000 C 
BRANCH  24  25
ATOM     25  C   UNL     1     -13.724 -15.245 -12.225  1.00  0.00    -0.003 C 
ATOM     26  C   UNL     1     -12.329 -14.812 -11.772  1.00  0.00     0.004 C 
ENDBRANCH  24  25
ENDBRANCH  23  24
ENDBRANCH  22  23
ENDBRANCH  21  22
ENDBRANCH  20  21
ENDBRANCH  19  20
ENDBRANCH  18  19
ENDBRANCH  17  18
ENDBRANCH  16  17
ENDBRANCH  15  16
ENDBRANCH   1  15
TORSDOF 22
ENDMDL
MODEL 7
REMARK VINA RESULT:    24.957      4.806     11.049
REMARK INTER + INTRA:          55.864
REMARK INTER:                  57.004
REMARK INTRA:                  -1.140
REMARK UNBOUND:                -1.189
REMARK SMILES CCCCCCCCCCCCCCCCCCCCCCCC(=O)[O-]
REMARK SMILES IDX 13 1 14 2 15 3 16 4 17 5 18 6 19 7 20 8 21 9 22 10 23 11
REMARK SMILES IDX 24 12 25 13 26 14 12 15 11 16 10 17 9 18 8 19 7 20 6 21 5 22
REMARK SMILES IDX 4 23 3 24 2 25 1 26
REMARK H PARENT
REMARK Flexibility Score: inf
ROOT
ATOM      1  C   UNL     1     -15.779 -14.579 -20.363  1.00  0.00     0.000 C 
ENDROOT
BRANCH   1   2
ATOM      2  C   UNL     1     -16.800 -14.104 -21.415  1.00  0.00     0.000 C 
BRANCH   2   3
ATOM      3  C   UNL     1     -16.191 -13.553 -22.717  1.00  0.00     0.000 C 
BRANCH   3   4
ATOM      4  C   UNL     1     -15.337 -12.293 -22.492  1.00  0.00     0.000 C 
BRANCH   4   5
ATOM      5  C   UNL     1     -14.205 -12.140 -23.526  1.00  0.00     0.000 C 
BRANCH   5   6
ATOM      6  C   UNL     1     -14.175 -10.795 -24.276  1.00  0.00     0.000 C 
BRANCH   6   7
ATOM      7  C   UNL     1     -13.725  -9.620 -23.395  1.00  0.00     0.000 C 
BRANCH   7   8
ATOM      8  C   UNL     1     -14.658  -8.412 -23.568  1.00  0.00     0.000 C 
BRANCH   8   9
ATOM      9  C   UNL     1     -14.544  -7.402 -22.414  1.00  0.00     0.000 C 
BRANCH   9  10
ATOM     10  C   UNL     1     -13.236  -7.555 -21.615  1.00  0.00     0.006 C 
BRANCH  10  11
ATOM     11  C   UNL     1     -13.418  -7.198 -20.133  1.00  0.00     0.053 C 
BRANCH  11  12
ATOM     12  C   UNL     1     -12.794  -8.221 -19.233  1.00  0.00     0.041 C 
ATOM     13  O   UNL     1     -12.251  -9.249 -19.719  1.00  0.00    -0.550 OA
ATOM     14  O   UNL     1     -12.790  -8.026 -17.858  1.00  0.00    -0.550 OA
ENDBRANCH  11  12
ENDBRANCH  10  11
ENDBRANCH   9  10
ENDBRANCH   8   9
ENDBRANCH   7   8
ENDBRANCH   6   7
ENDBRANCH   5   6
ENDBRANCH   4   5
ENDBRANCH   3   4
ENDBRANCH   2   3
ENDBRANCH   1   2
BRANCH   1  15
ATOM     15  C   UNL     1     -16.192 -15.889 -19.669  1.00  0.00     0.000 C 
BRANCH  15  16
ATOM     16  C   UNL     1     -17.393 -15.689 -18.721  1.00  0.00     0.000 C 
BRANCH  16  17
ATOM     17  C   UNL     1     -16.991 -15.402 -17.262  1.00  0.00     0.000 C 
BRANCH  17  18
ATOM     18  C   UNL     1     -18.012 -15.938 -16.244  1.00  0.00    -0.000 C 
BRANCH  18  19
ATOM     19  C   UNL     1     -17.475 -17.141 -15.452  1.00  0.00    -0.000 C 
BRANCH  19  20
ATOM     20  C   UNL     1     -16.182 -16.812 -14.682  1.00  0.00    -0.000 C 
BRANCH  20  21
ATOM     21  C   UNL     1     -16.446 -16.021 -13.387  1.00  0.00    -0.000 C 
BRANCH  21  22
ATOM     22  C   UNL     1     -15.208 -15.799 -12.495  1.00  0.00    -0.000 C 
BRANCH  22  23
ATOM     23  C   UNL     1     -15.443 -14.913 -11.257  1.00  0.00    -0.000 C 
BRANCH  23  24
ATOM     24  C   UNL     1     -16.321 -15.595 -10.193  1.00  0.00    -0.000 C 
BRANCH  24  25
ATOM     25  C   UNL     1     -15.819 -16.999  -9.823  1.00  0.00    -0.003 C 
ATOM     26  C   UNL     1     -16.700 -18.114 -10.388  1.00  0.00     0.004 C 
ENDBRANCH  24  25
ENDBRANCH  23  24
ENDBRANCH  22  23
ENDBRANCH  21  22
ENDBRANCH  20  21
ENDBRANCH  19  20
ENDBRANCH  18  19
ENDBRANCH  17  18
ENDBRANCH  16  17
ENDBRANCH  15  16
ENDBRANCH   1  15
TORSDOF 22
ENDMDL
MODEL 8
REMARK VINA RESULT:    25.460      4.176     10.110
REMARK INTER + INTRA:          57.015
REMARK INTER:                  57.711
REMARK INTRA:                  -0.696
REMARK UNBOUND:                -1.189
REMARK SMILES CCCCCCCCCCCCCCCCCCCCCCCC(=O)[O-]
REMARK SMILES IDX 13 1 14 2 15 3 16 4 17 5 18 6 19 7 20 8 21 9 22 10 23 11
REMARK SMILES IDX 24 12 25 13 26 14 12 15 11 16 10 17 9 18 8 19 7 20 6 21 5 22
REMARK SMILES IDX 4 23 3 24 2 25 1 26
REMARK H PARENT
REMARK Flexibility Score: inf
ROOT
ATOM      1  C   UNL     1     -17.137 -14.969 -19.644  1.00  0.00     0.000 C 
ENDROOT
BRANCH   1   2
ATOM      2  C   UNL     1     -15.783 -14.694 -20.325  1.00  0.00     0.000 C 
BRANCH   2   3
ATOM      3  C   UNL     1     -15.814 -13.636 -21.443  1.00  0.00     0.000 C 
BRANCH   3   4
ATOM      4  C   UNL     1     -16.414 -14.169 -22.756  1.00  0.00     0.000 C 
BRANCH   4   5
ATOM      5  C   UNL     1     -17.219 -13.106 -23.527  1.00  0.00     0.000 C 
BRANCH   5   6
ATOM      6  C   UNL     1     -18.295 -13.658 -24.481  1.00  0.00     0.000 C 
BRANCH   6   7
ATOM      7  C   UNL     1     -19.154 -12.558 -25.124  1.00  0.00     0.000 C 
BRANCH   7   8
ATOM      8  C   UNL     1     -20.630 -12.708 -24.726  1.00  0.00     0.000 C 
BRANCH   8   9
ATOM      9  C   UNL     1     -21.173 -14.125 -24.973  1.00  0.00     0.000 C 
BRANCH   9  10
ATOM     10  C   UNL     1     -22.573 -14.339 -24.370  1.00  0.00     0.006 C 
BRANCH  10  11
ATOM     11  C   UNL     1     -22.574 -15.421 -23.280  1.00  0.00     0.053 C 
BRANCH  11  12
ATOM     12  C   UNL     1     -22.303 -14.846 -21.923  1.00  0.00     0.041 C 
ATOM     13  O   UNL     1     -22.259 -15.597 -20.911  1.00  0.00    -0.550 OA
ATOM     14  O   UNL     1     -22.072 -13.484 -21.779  1.00  0.00    -0.550 OA
ENDBRANCH  11  12
ENDBRANCH  10  11
ENDBRANCH   9  10
ENDBRANCH   8   9
ENDBRANCH   7   8
ENDBRANCH   6   7
ENDBRANCH   5   6
ENDBRANCH   4   5
ENDBRANCH   3   4
ENDBRANCH   2   3
ENDBRANCH   1   2
BRANCH   1  15
ATOM     15  C   UNL     1     -17.152 -16.280 -18.838  1.00  0.00     0.000 C 
BRANCH  15  16
ATOM     16  C   UNL     1     -16.907 -16.038 -17.333  1.00  0.00     0.000 C 
BRANCH  16  17
ATOM     17  C   UNL     1     -18.059 -15.299 -16.628  1.00  0.00     0.000 C 
BRANCH  17  18
ATOM     18  C   UNL     1     -18.856 -16.205 -15.674  1.00  0.00    -0.000 C 
BRANCH  18  19
ATOM     19  C   UNL     1     -18.963 -17.650 -16.188  1.00  0.00    -0.000 C 
BRANCH  19  20
ATOM     20  C   UNL     1     -20.413 -18.170 -16.191  1.00  0.00    -0.000 C 
BRANCH  20  21
ATOM     21  C   UNL     1     -21.254 -17.592 -15.037  1.00  0.00    -0.000 C 
BRANCH  21  22
ATOM     22  C   UNL     1     -21.769 -16.156 -15.260  1.00  0.00    -0.000 C 
BRANCH  22  23
ATOM     23  C   UNL     1     -22.402 -15.487 -14.026  1.00  0.00    -0.000 C 
BRANCH  23  24
ATOM     24  C   UNL     1     -23.927 -15.328 -14.151  1.00  0.00    -0.000 C 
BRANCH  24  25
ATOM     25  C   UNL     1     -24.593 -14.952 -12.818  1.00  0.00    -0.003 C 
ATOM     26  C   UNL     1     -23.606 -14.381 -11.799  1.00  0.00     0.004 C 
ENDBRANCH  24  25
ENDBRANCH  23  24
ENDBRANCH  22  23
ENDBRANCH  21  22
ENDBRANCH  20  21
ENDBRANCH  19  20
ENDBRANCH  18  19
ENDBRANCH  17  18
ENDBRANCH  16  17
ENDBRANCH  15  16
ENDBRANCH   1  15
TORSDOF 22
ENDMDL
