MODEL 1
REMARK VINA RESULT:    -5.420      0.000      0.000
REMARK INTER + INTRA:         -14.893
REMARK INTER:                 -12.392
REMARK INTRA:                  -2.501
REMARK UNBOUND:                -2.501
REMARK SMILES CCCCCCCCCCCCCCCCCCCCCCCC(=O)[O-]
REMARK SMILES IDX 13 1 14 2 15 3 16 4 17 5 18 6 19 7 20 8 21 9 22 10 23 11
REMARK SMILES IDX 24 12 25 13 26 14 12 15 11 16 10 17 9 18 8 19 7 20 6 21 5 22
REMARK SMILES IDX 4 23 3 24 2 25 1 26
REMARK H PARENT
REMARK Flexibility Score: inf
ROOT
ATOM      1  C   UNL     1      45.794  24.064  19.485  1.00  0.00     0.000 C 
ENDROOT
BRANCH   1   2
ATOM      2  C   UNL     1      47.152  23.621  20.054  1.00  0.00     0.000 C 
BRANCH   2   3
ATOM      3  C   UNL     1      47.084  22.234  20.721  1.00  0.00     0.000 C 
BRANCH   3   4
ATOM      4  C   UNL     1      45.826  22.058  21.588  1.00  0.00     0.000 C 
BRANCH   4   5
ATOM      5  C   UNL     1      45.024  20.799  21.217  1.00  0.00     0.000 C 
BRANCH   5   6
ATOM      6  C   UNL     1      43.505  21.031  21.266  1.00  0.00     0.000 C 
BRANCH   6   7
ATOM      7  C   UNL     1      43.134  22.491  21.565  1.00  0.00     0.000 C 
BRANCH   7   8
ATOM      8  C   UNL     1      42.082  23.006  20.574  1.00  0.00     0.000 C 
BRANCH   8   9
ATOM      9  C   UNL     1      42.581  22.881  19.128  1.00  0.00     0.000 C 
BRANCH   9  10
ATOM     10  C   UNL     1      41.404  22.801  18.145  1.00  0.00     0.006 C 
BRANCH  10  11
ATOM     11  C   UNL     1      40.192  23.614  18.624  1.00  0.00     0.053 C 
BRANCH  11  12
ATOM     12  C   UNL     1      38.914  23.106  18.029  1.00  0.00     0.041 C 
ATOM     13  O   UNL     1      38.058  22.539  18.757  1.00  0.00    -0.550 OA
ATOM     14  O   UNL     1      38.652  23.295  16.678  1.00  0.00    -0.550 OA
ENDBRANCH  11  12
ENDBRANCH  10  11
ENDBRANCH   9  10
ENDBRANCH   8   9
ENDBRANCH   7   8
ENDBRANCH   6   7
ENDBRANCH   5   6
ENDBRANCH   4   5
ENDBRANCH   3   4
ENDBRANCH   2   3
ENDBRANCH   1   2
BRANCH   1  15
ATOM     15  C   UNL     1      45.524  25.581  19.621  1.00  0.00     0.000 C 
BRANCH  15  16
ATOM     16  C   UNL     1      44.291  25.918  20.482  1.00  0.00     0.000 C 
BRANCH  16  17
ATOM     17  C   UNL     1      43.466  27.119  19.985  1.00  0.00     0.000 C 
BRANCH  17  18
ATOM     18  C   UNL     1      43.898  28.490  20.548  1.00  0.00    -0.000 C 
BRANCH  18  19
ATOM     19  C   UNL     1      44.151  29.584  19.495  1.00  0.00    -0.000 C 
BRANCH  19  20
ATOM     20  C   UNL     1      45.431  29.338  18.676  1.00  0.00    -0.000 C 
BRANCH  20  21
ATOM     21  C   UNL     1      45.345  29.925  17.257  1.00  0.00    -0.000 C 
BRANCH  21  22
ATOM     22  C   UNL     1      44.295  31.039  17.135  1.00  0.00    -0.000 C 
BRANCH  22  23
ATOM     23  C   UNL     1      43.816  31.186  15.683  1.00  0.00    -0.000 C 
BRANCH  23  24
ATOM     24  C   UNL     1      44.809  30.596  14.668  1.00  0.00    -0.000 C 
BRANCH  24  25
ATOM     25  C   UNL     1      44.178  29.507  13.788  1.00  0.00    -0.003 C 
ATOM     26  C   UNL     1      42.655  29.533  13.891  1.00  0.00     0.004 C 
ENDBRANCH  24  25
ENDBRANCH  23  24
ENDBRANCH  22  23
ENDBRANCH  21  22
ENDBRANCH  20  21
ENDBRANCH  19  20
ENDBRANCH  18  19
ENDBRANCH  17  18
ENDBRANCH  16  17
ENDBRANCH  15  16
ENDBRANCH   1  15
TORSDOF 22
ENDMDL
MODEL 2
REMARK VINA RESULT:    -5.390      6.417      9.769
REMARK INTER + INTRA:         -14.823
REMARK INTER:                 -10.268
REMARK INTRA:                  -4.555
REMARK UNBOUND:                -2.501
REMARK SMILES CCCCCCCCCCCCCCCCCCCCCCCC(=O)[O-]
REMARK SMILES IDX 13 1 14 2 15 3 16 4 17 5 18 6 19 7 20 8 21 9 22 10 23 11
REMARK SMILES IDX 24 12 25 13 26 14 12 15 11 16 10 17 9 18 8 19 7 20 6 21 5 22
REMARK SMILES IDX 4 23 3 24 2 25 1 26
REMARK H PARENT
REMARK Flexibility Score: inf
ROOT
ATOM      1  C   UNL     1      44.592  33.650  17.884  1.00  0.00     0.000 C 
ENDROOT
BRANCH   1   2
ATOM      2  C   UNL     1      45.900  33.112  18.488  1.00  0.00     0.000 C 
BRANCH   2   3
ATOM      3  C   UNL     1      47.093  34.052  18.233  1.00  0.00     0.000 C 
BRANCH   3   4
ATOM      4  C   UNL     1      46.711  35.272  17.381  1.00  0.00     0.000 C 
BRANCH   4   5
ATOM      5  C   UNL     1      47.383  35.261  15.996  1.00  0.00     0.000 C 
BRANCH   5   6
ATOM      6  C   UNL     1      46.445  34.754  14.889  1.00  0.00     0.000 C 
BRANCH   6   7
ATOM      7  C   UNL     1      46.458  33.224  14.752  1.00  0.00     0.000 C 
BRANCH   7   8
ATOM      8  C   UNL     1      47.872  32.664  14.950  1.00  0.00     0.000 C 
BRANCH   8   9
ATOM      9  C   UNL     1      47.910  31.154  14.685  1.00  0.00     0.000 C 
BRANCH   9  10
ATOM     10  C   UNL     1      47.806  30.362  15.996  1.00  0.00     0.006 C 
BRANCH  10  11
ATOM     11  C   UNL     1      46.368  29.906  16.286  1.00  0.00     0.053 C 
BRANCH  11  12
ATOM     12  C   UNL     1      46.209  29.438  17.701  1.00  0.00     0.041 C 
ATOM     13  O   UNL     1      45.149  28.867  18.063  1.00  0.00    -0.550 OA
ATOM     14  O   UNL     1      47.249  29.600  18.607  1.00  0.00    -0.550 OA
ENDBRANCH  11  12
ENDBRANCH  10  11
ENDBRANCH   9  10
ENDBRANCH   8   9
ENDBRANCH   7   8
ENDBRANCH   6   7
ENDBRANCH   5   6
ENDBRANCH   4   5
ENDBRANCH   3   4
ENDBRANCH   2   3
ENDBRANCH   1   2
BRANCH   1  15
ATOM     15  C   UNL     1      43.731  32.568  17.190  1.00  0.00     0.000 C 
BRANCH  15  16
ATOM     16  C   UNL     1      42.731  33.135  16.163  1.00  0.00     0.000 C 
BRANCH  16  17
ATOM     17  C   UNL     1      42.550  32.276  14.898  1.00  0.00     0.000 C 
BRANCH  17  18
ATOM     18  C   UNL     1      43.367  30.967  14.871  1.00  0.00    -0.000 C 
BRANCH  18  19
ATOM     19  C   UNL     1      43.497  30.300  13.490  1.00  0.00    -0.000 C 
BRANCH  19  20
ATOM     20  C   UNL     1      44.916  30.410  12.904  1.00  0.00    -0.000 C 
BRANCH  20  21
ATOM     21  C   UNL     1      45.046  31.550  11.879  1.00  0.00    -0.000 C 
BRANCH  21  22
ATOM     22  C   UNL     1      46.351  31.479  11.072  1.00  0.00    -0.000 C 
BRANCH  22  23
ATOM     23  C   UNL     1      46.719  32.857  10.502  1.00  0.00    -0.000 C 
BRANCH  23  24
ATOM     24  C   UNL     1      47.775  33.586  11.349  1.00  0.00    -0.000 C 
BRANCH  24  25
ATOM     25  C   UNL     1      47.583  35.111  11.347  1.00  0.00    -0.003 C 
ATOM     26  C   UNL     1      46.104  35.477  11.239  1.00  0.00     0.004 C 
ENDBRANCH  24  25
ENDBRANCH  23  24
ENDBRANCH  22  23
ENDBRANCH  21  22
ENDBRANCH  20  21
ENDBRANCH  19  20
ENDBRANCH  18  19
ENDBRANCH  17  18
ENDBRANCH  16  17
ENDBRANCH  15  16
ENDBRANCH   1  15
TORSDOF 22
ENDMDL
MODEL 3
REMARK VINA RESULT:    -5.274      5.866      9.830
REMARK INTER + INTRA:         -14.560
REMARK INTER:                 -10.014
REMARK INTRA:                  -4.545
REMARK UNBOUND:                -2.501
REMARK SMILES CCCCCCCCCCCCCCCCCCCCCCCC(=O)[O-]
REMARK SMILES IDX 13 1 14 2 15 3 16 4 17 5 18 6 19 7 20 8 21 9 22 10 23 11
REMARK SMILES IDX 24 12 25 13 26 14 12 15 11 16 10 17 9 18 8 19 7 20 6 21 5 22
REMARK SMILES IDX 4 23 3 24 2 25 1 26
REMARK H PARENT
REMARK Flexibility Score: inf
ROOT
ATOM      1  C   UNL     1      48.152  31.416  14.386  1.00  0.00     0.000 C 
ENDROOT
BRANCH   1   2
ATOM      2  C   UNL     1      46.746  31.970  14.103  1.00  0.00     0.000 C 
BRANCH   2   3
ATOM      3  C   UNL     1      45.887  30.994  13.277  1.00  0.00     0.000 C 
BRANCH   3   4
ATOM      4  C   UNL     1      44.463  31.521  13.035  1.00  0.00     0.000 C 
BRANCH   4   5
ATOM      5  C   UNL     1      43.422  30.857  13.953  1.00  0.00     0.000 C 
BRANCH   5   6
ATOM      6  C   UNL     1      42.650  31.876  14.806  1.00  0.00     0.000 C 
BRANCH   6   7
ATOM      7  C   UNL     1      43.559  32.950  15.420  1.00  0.00     0.000 C 
BRANCH   7   8
ATOM      8  C   UNL     1      43.412  32.990  16.947  1.00  0.00     0.000 C 
BRANCH   8   9
ATOM      9  C   UNL     1      43.720  31.620  17.565  1.00  0.00     0.000 C 
BRANCH   9  10
ATOM     10  C   UNL     1      45.196  31.247  17.370  1.00  0.00     0.006 C 
BRANCH  10  11
ATOM     11  C   UNL     1      45.370  29.801  16.885  1.00  0.00     0.053 C 
BRANCH  11  12
ATOM     12  C   UNL     1      45.735  28.879  18.008  1.00  0.00     0.041 C 
ATOM     13  O   UNL     1      44.850  28.182  18.568  1.00  0.00    -0.550 OA
ATOM     14  O   UNL     1      47.060  28.762  18.409  1.00  0.00    -0.550 OA
ENDBRANCH  11  12
ENDBRANCH  10  11
ENDBRANCH   9  10
ENDBRANCH   8   9
ENDBRANCH   7   8
ENDBRANCH   6   7
ENDBRANCH   5   6
ENDBRANCH   4   5
ENDBRANCH   3   4
ENDBRANCH   2   3
ENDBRANCH   1   2
BRANCH   1  15
ATOM     15  C   UNL     1      49.235  31.929  13.408  1.00  0.00     0.000 C 
BRANCH  15  16
ATOM     16  C   UNL     1      49.571  30.937  12.278  1.00  0.00     0.000 C 
BRANCH  16  17
ATOM     17  C   UNL     1      48.927  31.266  10.918  1.00  0.00     0.000 C 
BRANCH  17  18
ATOM     18  C   UNL     1      48.596  32.757  10.692  1.00  0.00    -0.000 C 
BRANCH  18  19
ATOM     19  C   UNL     1      47.113  33.069  10.423  1.00  0.00    -0.000 C 
BRANCH  19  20
ATOM     20  C   UNL     1      46.657  34.394  11.060  1.00  0.00    -0.000 C 
BRANCH  20  21
ATOM     21  C   UNL     1      47.742  35.028  11.947  1.00  0.00    -0.000 C 
BRANCH  21  22
ATOM     22  C   UNL     1      47.180  35.603  13.256  1.00  0.00    -0.000 C 
BRANCH  22  23
ATOM     23  C   UNL     1      48.174  35.409  14.411  1.00  0.00    -0.000 C 
BRANCH  23  24
ATOM     24  C   UNL     1      47.608  35.871  15.764  1.00  0.00    -0.000 C 
BRANCH  24  25
ATOM     25  C   UNL     1      46.539  34.915  16.315  1.00  0.00    -0.003 C 
ATOM     26  C   UNL     1      46.411  35.049  17.830  1.00  0.00     0.004 C 
ENDBRANCH  24  25
ENDBRANCH  23  24
ENDBRANCH  22  23
ENDBRANCH  21  22
ENDBRANCH  20  21
ENDBRANCH  19  20
ENDBRANCH  18  19
ENDBRANCH  17  18
ENDBRANCH  16  17
ENDBRANCH  15  16
ENDBRANCH   1  15
TORSDOF 22
ENDMDL
MODEL 4
REMARK VINA RESULT:    -5.230      1.971      4.094
REMARK INTER + INTRA:         -14.458
REMARK INTER:                 -11.814
REMARK INTRA:                  -2.644
REMARK UNBOUND:                -2.501
REMARK SMILES CCCCCCCCCCCCCCCCCCCCCCCC(=O)[O-]
REMARK SMILES IDX 13 1 14 2 15 3 16 4 17 5 18 6 19 7 20 8 21 9 22 10 23 11
REMARK SMILES IDX 24 12 25 13 26 14 12 15 11 16 10 17 9 18 8 19 7 20 6 21 5 22
REMARK SMILES IDX 4 23 3 24 2 25 1 26
REMARK H PARENT
REMARK Flexibility Score: inf
ROOT
ATOM      1  C   UNL     1      44.647  28.118  19.018  1.00  0.00     0.000 C 
ENDROOT
BRANCH   1   2
ATOM      2  C   UNL     1      44.007  26.837  19.577  1.00  0.00     0.000 C 
BRANCH   2   3
ATOM      3  C   UNL     1      45.036  25.920  20.266  1.00  0.00     0.000 C 
BRANCH   3   4
ATOM      4  C   UNL     1      46.459  26.112  19.715  1.00  0.00     0.000 C 
BRANCH   4   5
ATOM      5  C   UNL     1      47.027  24.828  19.086  1.00  0.00     0.000 C 
BRANCH   5   6
ATOM      6  C   UNL     1      46.186  23.585  19.417  1.00  0.00     0.000 C 
BRANCH   6   7
ATOM      7  C   UNL     1      46.939  22.569  20.290  1.00  0.00     0.000 C 
BRANCH   7   8
ATOM      8  C   UNL     1      46.142  22.232  21.556  1.00  0.00     0.000 C 
BRANCH   8   9
ATOM      9  C   UNL     1      45.377  20.913  21.389  1.00  0.00     0.000 C 
BRANCH   9  10
ATOM     10  C   UNL     1      43.879  21.169  21.168  1.00  0.00     0.006 C 
BRANCH  10  11
ATOM     11  C   UNL     1      43.418  22.492  21.797  1.00  0.00     0.053 C 
BRANCH  11  12
ATOM     12  C   UNL     1      42.471  23.232  20.902  1.00  0.00     0.041 C 
ATOM     13  O   UNL     1      41.822  24.216  21.342  1.00  0.00    -0.550 OA
ATOM     14  O   UNL     1      42.337  22.858  19.571  1.00  0.00    -0.550 OA
ENDBRANCH  11  12
ENDBRANCH  10  11
ENDBRANCH   9  10
ENDBRANCH   8   9
ENDBRANCH   7   8
ENDBRANCH   6   7
ENDBRANCH   5   6
ENDBRANCH   4   5
ENDBRANCH   3   4
ENDBRANCH   2   3
ENDBRANCH   1   2
BRANCH   1  15
ATOM     15  C   UNL     1      44.278  29.397  19.805  1.00  0.00     0.000 C 
BRANCH  15  16
ATOM     16  C   UNL     1      45.250  30.571  19.573  1.00  0.00     0.000 C 
BRANCH  16  17
ATOM     17  C   UNL     1      45.225  31.156  18.148  1.00  0.00     0.000 C 
BRANCH  17  18
ATOM     18  C   UNL     1      43.819  31.461  17.588  1.00  0.00    -0.000 C 
BRANCH  18  19
ATOM     19  C   UNL     1      43.547  32.941  17.264  1.00  0.00    -0.000 C 
BRANCH  19  20
ATOM     20  C   UNL     1      43.568  33.235  15.754  1.00  0.00    -0.000 C 
BRANCH  20  21
ATOM     21  C   UNL     1      44.995  33.402  15.204  1.00  0.00    -0.000 C 
BRANCH  21  22
ATOM     22  C   UNL     1      45.298  32.450  14.037  1.00  0.00    -0.000 C 
BRANCH  22  23
ATOM     23  C   UNL     1      46.020  31.188  14.531  1.00  0.00    -0.000 C 
BRANCH  23  24
ATOM     24  C   UNL     1      45.102  29.955  14.566  1.00  0.00    -0.000 C 
BRANCH  24  25
ATOM     25  C   UNL     1      44.045  29.974  13.451  1.00  0.00    -0.003 C 
ATOM     26  C   UNL     1      42.674  29.568  13.989  1.00  0.00     0.004 C 
ENDBRANCH  24  25
ENDBRANCH  23  24
ENDBRANCH  22  23
ENDBRANCH  21  22
ENDBRANCH  20  21
ENDBRANCH  19  20
ENDBRANCH  18  19
ENDBRANCH  17  18
ENDBRANCH  16  17
ENDBRANCH  15  16
ENDBRANCH   1  15
TORSDOF 22
ENDMDL
MODEL 5
REMARK VINA RESULT:    -5.203      3.477      7.918
REMARK INTER + INTRA:         -14.395
REMARK INTER:                 -12.039
REMARK INTRA:                  -2.356
REMARK UNBOUND:                -2.501
REMARK SMILES CCCCCCCCCCCCCCCCCCCCCCCC(=O)[O-]
REMARK SMILES IDX 13 1 14 2 15 3 16 4 17 5 18 6 19 7 20 8 21 9 22 10 23 11
REMARK SMILES IDX 24 12 25 13 26 14 12 15 11 16 10 17 9 18 8 19 7 20 6 21 5 22
REMARK SMILES IDX 4 23 3 24 2 25 1 26
REMARK H PARENT
REMARK Flexibility Score: inf
ROOT
ATOM      1  C   UNL     1      46.071  23.996  19.235  1.00  0.00     0.000 C 
ENDROOT
BRANCH   1   2
ATOM      2  C   UNL     1      46.702  25.382  19.454  1.00  0.00     0.000 C 
BRANCH   2   3
ATOM      3  C   UNL     1      45.830  26.289  20.342  1.00  0.00     0.000 C 
BRANCH   3   4
ATOM      4  C   UNL     1      44.326  26.049  20.133  1.00  0.00     0.000 C 
BRANCH   4   5
ATOM      5  C   UNL     1      43.500  27.344  20.233  1.00  0.00     0.000 C 
BRANCH   5   6
ATOM      6  C   UNL     1      44.373  28.582  20.492  1.00  0.00     0.000 C 
BRANCH   6   7
ATOM      7  C   UNL     1      44.260  29.635  19.378  1.00  0.00     0.000 C 
BRANCH   7   8
ATOM      8  C   UNL     1      45.295  29.382  18.275  1.00  0.00     0.000 C 
BRANCH   8   9
ATOM      9  C   UNL     1      44.879  30.061  16.964  1.00  0.00     0.000 C 
BRANCH   9  10
ATOM     10  C   UNL     1      44.797  31.585  17.135  1.00  0.00     0.006 C 
BRANCH  10  11
ATOM     11  C   UNL     1      43.353  32.100  17.061  1.00  0.00     0.053 C 
BRANCH  11  12
ATOM     12  C   UNL     1      43.188  33.136  15.991  1.00  0.00     0.041 C 
ATOM     13  O   UNL     1      42.079  33.710  15.831  1.00  0.00    -0.550 OA
ATOM     14  O   UNL     1      44.270  33.496  15.198  1.00  0.00    -0.550 OA
ENDBRANCH  11  12
ENDBRANCH  10  11
ENDBRANCH   9  10
ENDBRANCH   8   9
ENDBRANCH   7   8
ENDBRANCH   6   7
ENDBRANCH   5   6
ENDBRANCH   4   5
ENDBRANCH   3   4
ENDBRANCH   2   3
ENDBRANCH   1   2
BRANCH   1  15
ATOM     15  C   UNL     1      46.803  22.851  19.973  1.00  0.00     0.000 C 
BRANCH  15  16
ATOM     16  C   UNL     1      46.674  22.919  21.507  1.00  0.00     0.000 C 
BRANCH  16  17
ATOM     17  C   UNL     1      45.743  21.858  22.123  1.00  0.00     0.000 C 
BRANCH  17  18
ATOM     18  C   UNL     1      44.944  21.015  21.106  1.00  0.00    -0.000 C 
BRANCH  18  19
ATOM     19  C   UNL     1      43.413  21.114  21.227  1.00  0.00    -0.000 C 
BRANCH  19  20
ATOM     20  C   UNL     1      42.890  22.549  21.030  1.00  0.00    -0.000 C 
BRANCH  20  21
ATOM     21  C   UNL     1      42.569  22.864  19.560  1.00  0.00    -0.000 C 
BRANCH  21  22
ATOM     22  C   UNL     1      41.482  23.939  19.405  1.00  0.00    -0.000 C 
BRANCH  22  23
ATOM     23  C   UNL     1      40.268  23.387  18.643  1.00  0.00    -0.000 C 
BRANCH  23  24
ATOM     24  C   UNL     1      40.660  22.362  17.565  1.00  0.00    -0.000 C 
BRANCH  24  25
ATOM     25  C   UNL     1      39.440  21.688  16.919  1.00  0.00    -0.003 C 
ATOM     26  C   UNL     1      38.255  22.649  16.852  1.00  0.00     0.004 C 
ENDBRANCH  24  25
ENDBRANCH  23  24
ENDBRANCH  22  23
ENDBRANCH  21  22
ENDBRANCH  20  21
ENDBRANCH  19  20
ENDBRANCH  18  19
ENDBRANCH  17  18
ENDBRANCH  16  17
ENDBRANCH  15  16
ENDBRANCH   1  15
TORSDOF 22
ENDMDL
MODEL 6
REMARK VINA RESULT:    -5.166      5.502      9.543
REMARK INTER + INTRA:         -14.313
REMARK INTER:                 -10.464
REMARK INTRA:                  -3.849
REMARK UNBOUND:                -2.501
REMARK SMILES CCCCCCCCCCCCCCCCCCCCCCCC(=O)[O-]
REMARK SMILES IDX 13 1 14 2 15 3 16 4 17 5 18 6 19 7 20 8 21 9 22 10 23 11
REMARK SMILES IDX 24 12 25 13 26 14 12 15 11 16 10 17 9 18 8 19 7 20 6 21 5 22
REMARK SMILES IDX 4 23 3 24 2 25 1 26
REMARK H PARENT
REMARK Flexibility Score: inf
ROOT
ATOM      1  C   UNL     1      42.696  32.230  14.820  1.00  0.00     0.000 C 
ENDROOT
BRANCH   1   2
ATOM      2  C   UNL     1      42.852  33.184  16.015  1.00  0.00     0.000 C 
BRANCH   2   3
ATOM      3  C   UNL     1      43.507  32.499  17.230  1.00  0.00     0.000 C 
BRANCH   3   4
ATOM      4  C   UNL     1      44.839  33.154  17.629  1.00  0.00     0.000 C 
BRANCH   4   5
ATOM      5  C   UNL     1      45.430  34.025  16.506  1.00  0.00     0.000 C 
BRANCH   5   6
ATOM      6  C   UNL     1      46.880  33.647  16.165  1.00  0.00     0.000 C 
BRANCH   6   7
ATOM      7  C   UNL     1      47.379  32.426  16.953  1.00  0.00     0.000 C 
BRANCH   7   8
ATOM      8  C   UNL     1      47.898  31.335  16.008  1.00  0.00     0.000 C 
BRANCH   8   9
ATOM      9  C   UNL     1      47.630  29.938  16.580  1.00  0.00     0.000 C 
BRANCH   9  10
ATOM     10  C   UNL     1      46.666  30.006  17.773  1.00  0.00     0.006 C 
BRANCH  10  11
ATOM     11  C   UNL     1      45.387  29.192  17.532  1.00  0.00     0.053 C 
BRANCH  11  12
ATOM     12  C   UNL     1      44.635  28.951  18.806  1.00  0.00     0.041 C 
ATOM     13  O   UNL     1      44.318  29.917  19.546  1.00  0.00    -0.550 OA
ATOM     14  O   UNL     1      44.251  27.662  19.153  1.00  0.00    -0.550 OA
ENDBRANCH  11  12
ENDBRANCH  10  11
ENDBRANCH   9  10
ENDBRANCH   8   9
ENDBRANCH   7   8
ENDBRANCH   6   7
ENDBRANCH   5   6
ENDBRANCH   4   5
ENDBRANCH   3   4
ENDBRANCH   2   3
ENDBRANCH   1   2
BRANCH   1  15
ATOM     15  C   UNL     1      43.500  30.916  14.958  1.00  0.00     0.000 C 
BRANCH  15  16
ATOM     16  C   UNL     1      44.872  30.951  14.257  1.00  0.00     0.000 C 
BRANCH  16  17
ATOM     17  C   UNL     1      45.070  32.130  13.285  1.00  0.00     0.000 C 
BRANCH  17  18
ATOM     18  C   UNL     1      44.896  31.784  11.790  1.00  0.00    -0.000 C 
BRANCH  18  19
ATOM     19  C   UNL     1      46.191  31.412  11.047  1.00  0.00    -0.000 C 
BRANCH  19  20
ATOM     20  C   UNL     1      46.936  32.641  10.494  1.00  0.00    -0.000 C 
BRANCH  20  21
ATOM     21  C   UNL     1      48.464  32.473  10.534  1.00  0.00    -0.000 C 
BRANCH  21  22
ATOM     22  C   UNL     1      49.203  33.800  10.767  1.00  0.00    -0.000 C 
BRANCH  22  23
ATOM     23  C   UNL     1      48.749  34.458  12.079  1.00  0.00    -0.000 C 
BRANCH  23  24
ATOM     24  C   UNL     1      48.177  35.869  11.867  1.00  0.00    -0.000 C 
BRANCH  24  25
ATOM     25  C   UNL     1      46.696  35.972  12.263  1.00  0.00    -0.003 C 
ATOM     26  C   UNL     1      45.802  36.049  11.028  1.00  0.00     0.004 C 
ENDBRANCH  24  25
ENDBRANCH  23  24
ENDBRANCH  22  23
ENDBRANCH  21  22
ENDBRANCH  20  21
ENDBRANCH  19  20
ENDBRANCH  18  19
ENDBRANCH  17  18
ENDBRANCH  16  17
ENDBRANCH  15  16
ENDBRANCH   1  15
TORSDOF 22
ENDMDL
MODEL 7
REMARK VINA RESULT:    -5.163      6.146     10.225
REMARK INTER + INTRA:         -14.305
REMARK INTER:                 -10.175
REMARK INTRA:                  -4.131
REMARK UNBOUND:                -2.501
REMARK SMILES CCCCCCCCCCCCCCCCCCCCCCCC(=O)[O-]
REMARK SMILES IDX 13 1 14 2 15 3 16 4 17 5 18 6 19 7 20 8 21 9 22 10 23 11
REMARK SMILES IDX 24 12 25 13 26 14 12 15 11 16 10 17 9 18 8 19 7 20 6 21 5 22
REMARK SMILES IDX 4 23 3 24 2 25 1 26
REMARK H PARENT
REMARK Flexibility Score: inf
ROOT
ATOM      1  C   UNL     1      46.253  34.518  13.433  1.00  0.00     0.000 C 
ENDROOT
BRANCH   1   2
ATOM      2  C   UNL     1      45.849  34.882  11.995  1.00  0.00     0.000 C 
BRANCH   2   3
ATOM      3  C   UNL     1      47.002  34.682  10.993  1.00  0.00     0.000 C 
BRANCH   3   4
ATOM      4  C   UNL     1      47.097  33.235  10.484  1.00  0.00     0.000 C 
BRANCH   4   5
ATOM      5  C   UNL     1      48.480  32.609  10.735  1.00  0.00     0.000 C 
BRANCH   5   6
ATOM      6  C   UNL     1      48.462  31.568  11.866  1.00  0.00     0.000 C 
BRANCH   6   7
ATOM      7  C   UNL     1      48.824  32.167  13.233  1.00  0.00     0.000 C 
BRANCH   7   8
ATOM      8  C   UNL     1      48.757  31.102  14.335  1.00  0.00     0.000 C 
BRANCH   8   9
ATOM      9  C   UNL     1      47.635  31.412  15.334  1.00  0.00     0.000 C 
BRANCH   9  10
ATOM     10  C   UNL     1      47.114  30.127  15.993  1.00  0.00     0.006 C 
BRANCH  10  11
ATOM     11  C   UNL     1      47.183  30.193  17.526  1.00  0.00     0.053 C 
BRANCH  11  12
ATOM     12  C   UNL     1      46.429  29.066  18.164  1.00  0.00     0.041 C 
ATOM     13  O   UNL     1      46.988  28.338  19.025  1.00  0.00    -0.550 OA
ATOM     14  O   UNL     1      45.098  28.846  17.836  1.00  0.00    -0.550 OA
ENDBRANCH  11  12
ENDBRANCH  10  11
ENDBRANCH   9  10
ENDBRANCH   8   9
ENDBRANCH   7   8
ENDBRANCH   6   7
ENDBRANCH   5   6
ENDBRANCH   4   5
ENDBRANCH   3   4
ENDBRANCH   2   3
ENDBRANCH   1   2
BRANCH   1  15
ATOM     15  C   UNL     1      47.243  35.517  14.077  1.00  0.00     0.000 C 
BRANCH  15  16
ATOM     16  C   UNL     1      47.837  35.028  15.413  1.00  0.00     0.000 C 
BRANCH  16  17
ATOM     17  C   UNL     1      47.195  35.646  16.669  1.00  0.00     0.000 C 
BRANCH  17  18
ATOM     18  C   UNL     1      46.332  34.680  17.509  1.00  0.00    -0.000 C 
BRANCH  18  19
ATOM     19  C   UNL     1      45.252  33.913  16.727  1.00  0.00    -0.000 C 
BRANCH  19  20
ATOM     20  C   UNL     1      44.526  32.862  17.586  1.00  0.00    -0.000 C 
BRANCH  20  21
ATOM     21  C   UNL     1      43.727  31.856  16.740  1.00  0.00    -0.000 C 
BRANCH  21  22
ATOM     22  C   UNL     1      42.961  32.523  15.588  1.00  0.00    -0.000 C 
BRANCH  22  23
ATOM     23  C   UNL     1      42.839  31.573  14.387  1.00  0.00    -0.000 C 
BRANCH  23  24
ATOM     24  C   UNL     1      43.569  30.239  14.610  1.00  0.00    -0.000 C 
BRANCH  24  25
ATOM     25  C   UNL     1      44.659  29.979  13.559  1.00  0.00    -0.003 C 
ATOM     26  C   UNL     1      44.769  31.147  12.583  1.00  0.00     0.004 C 
ENDBRANCH  24  25
ENDBRANCH  23  24
ENDBRANCH  22  23
ENDBRANCH  21  22
ENDBRANCH  20  21
ENDBRANCH  19  20
ENDBRANCH  18  19
ENDBRANCH  17  18
ENDBRANCH  16  17
ENDBRANCH  15  16
ENDBRANCH   1  15
TORSDOF 22
ENDMDL
MODEL 8
REMARK VINA RESULT:    -5.123      1.660      2.501
REMARK INTER + INTRA:         -14.214
REMARK INTER:                 -10.417
REMARK INTRA:                  -3.797
REMARK UNBOUND:                -2.501
REMARK SMILES CCCCCCCCCCCCCCCCCCCCCCCC(=O)[O-]
REMARK SMILES IDX 13 1 14 2 15 3 16 4 17 5 18 6 19 7 20 8 21 9 22 10 23 11
REMARK SMILES IDX 24 12 25 13 26 14 12 15 11 16 10 17 9 18 8 19 7 20 6 21 5 22
REMARK SMILES IDX 4 23 3 24 2 25 1 26
REMARK H PARENT
REMARK Flexibility Score: inf
ROOT
ATOM      1  C   UNL     1      45.814  24.609  19.411  1.00  0.00     0.000 C 
ENDROOT
BRANCH   1   2
ATOM      2  C   UNL     1      47.030  23.948  20.081  1.00  0.00     0.000 C 
BRANCH   2   3
ATOM      3  C   UNL     1      46.835  22.434  20.287  1.00  0.00     0.000 C 
BRANCH   3   4
ATOM      4  C   UNL     1      46.123  22.106  21.609  1.00  0.00     0.000 C 
BRANCH   4   5
ATOM      5  C   UNL     1      45.452  20.721  21.591  1.00  0.00     0.000 C 
BRANCH   5   6
ATOM      6  C   UNL     1      43.929  20.804  21.403  1.00  0.00     0.000 C 
BRANCH   6   7
ATOM      7  C   UNL     1      43.382  22.228  21.590  1.00  0.00     0.000 C 
BRANCH   7   8
ATOM      8  C   UNL     1      42.488  22.633  20.412  1.00  0.00     0.000 C 
BRANCH   8   9
ATOM      9  C   UNL     1      41.676  23.892  20.744  1.00  0.00     0.000 C 
BRANCH   9  10
ATOM     10  C   UNL     1      40.854  24.352  19.532  1.00  0.00     0.006 C 
BRANCH  10  11
ATOM     11  C   UNL     1      40.846  23.309  18.406  1.00  0.00     0.053 C 
BRANCH  11  12
ATOM     12  C   UNL     1      39.472  23.109  17.844  1.00  0.00     0.041 C 
ATOM     13  O   UNL     1      38.578  23.974  18.033  1.00  0.00    -0.550 OA
ATOM     14  O   UNL     1      39.190  21.985  17.078  1.00  0.00    -0.550 OA
ENDBRANCH  11  12
ENDBRANCH  10  11
ENDBRANCH   9  10
ENDBRANCH   8   9
ENDBRANCH   7   8
ENDBRANCH   6   7
ENDBRANCH   5   6
ENDBRANCH   4   5
ENDBRANCH   3   4
ENDBRANCH   2   3
ENDBRANCH   1   2
BRANCH   1  15
ATOM     15  C   UNL     1      44.944  25.446  20.378  1.00  0.00     0.000 C 
BRANCH  15  16
ATOM     16  C   UNL     1      44.058  26.489  19.670  1.00  0.00     0.000 C 
BRANCH  16  17
ATOM     17  C   UNL     1      43.444  27.552  20.602  1.00  0.00     0.000 C 
BRANCH  17  18
ATOM     18  C   UNL     1      44.400  28.113  21.677  1.00  0.00    -0.000 C 
BRANCH  18  19
ATOM     19  C   UNL     1      44.777  29.596  21.513  1.00  0.00    -0.000 C 
BRANCH  19  20
ATOM     20  C   UNL     1      46.264  29.799  21.170  1.00  0.00    -0.000 C 
BRANCH  20  21
ATOM     21  C   UNL     1      47.046  28.476  21.125  1.00  0.00    -0.000 C 
BRANCH  21  22
ATOM     22  C   UNL     1      47.952  28.361  19.889  1.00  0.00    -0.000 C 
BRANCH  22  23
ATOM     23  C   UNL     1      47.137  27.973  18.646  1.00  0.00    -0.000 C 
BRANCH  23  24
ATOM     24  C   UNL     1      46.687  29.193  17.826  1.00  0.00    -0.000 C 
BRANCH  24  25
ATOM     25  C   UNL     1      45.163  29.250  17.640  1.00  0.00    -0.003 C 
ATOM     26  C   UNL     1      44.646  30.679  17.783  1.00  0.00     0.004 C 
ENDBRANCH  24  25
ENDBRANCH  23  24
ENDBRANCH  22  23
ENDBRANCH  21  22
ENDBRANCH  20  21
ENDBRANCH  19  20
ENDBRANCH  18  19
ENDBRANCH  17  18
ENDBRANCH  16  17
ENDBRANCH  15  16
ENDBRANCH   1  15
TORSDOF 22
ENDMDL
MODEL 9
REMARK VINA RESULT:    -5.109      7.177     11.209
REMARK INTER + INTRA:         -14.180
REMARK INTER:                  -9.741
REMARK INTRA:                  -4.439
REMARK UNBOUND:                -2.501
REMARK SMILES CCCCCCCCCCCCCCCCCCCCCCCC(=O)[O-]
REMARK SMILES IDX 13 1 14 2 15 3 16 4 17 5 18 6 19 7 20 8 21 9 22 10 23 11
REMARK SMILES IDX 24 12 25 13 26 14 12 15 11 16 10 17 9 18 8 19 7 20 6 21 5 22
REMARK SMILES IDX 4 23 3 24 2 25 1 26
REMARK H PARENT
REMARK Flexibility Score: inf
ROOT
ATOM      1  C   UNL     1      45.169  30.800  12.899  1.00  0.00     0.000 C 
ENDROOT
BRANCH   1   2
ATOM      2  C   UNL     1      46.144  31.053  14.061  1.00  0.00     0.000 C 
BRANCH   2   3
ATOM      3  C   UNL     1      46.556  32.534  14.168  1.00  0.00     0.000 C 
BRANCH   3   4
ATOM      4  C   UNL     1      48.081  32.721  14.191  1.00  0.00     0.000 C 
BRANCH   4   5
ATOM      5  C   UNL     1      48.495  34.203  14.194  1.00  0.00     0.000 C 
BRANCH   5   6
ATOM      6  C   UNL     1      47.329  35.144  13.849  1.00  0.00     0.000 C 
BRANCH   6   7
ATOM      7  C   UNL     1      47.638  36.066  12.660  1.00  0.00     0.000 C 
BRANCH   7   8
ATOM      8  C   UNL     1      46.498  36.042  11.634  1.00  0.00     0.000 C 
BRANCH   8   9
ATOM      9  C   UNL     1      46.198  34.610  11.176  1.00  0.00     0.000 C 
BRANCH   9  10
ATOM     10  C   UNL     1      47.452  33.945  10.590  1.00  0.00     0.006 C 
BRANCH  10  11
ATOM     11  C   UNL     1      47.324  32.416  10.530  1.00  0.00     0.053 C 
BRANCH  11  12
ATOM     12  C   UNL     1      48.664  31.746  10.568  1.00  0.00     0.041 C 
ATOM     13  O   UNL     1      49.683  32.387  10.933  1.00  0.00    -0.550 OA
ATOM     14  O   UNL     1      48.778  30.401  10.238  1.00  0.00    -0.550 OA
ENDBRANCH  11  12
ENDBRANCH  10  11
ENDBRANCH   9  10
ENDBRANCH   8   9
ENDBRANCH   7   8
ENDBRANCH   6   7
ENDBRANCH   5   6
ENDBRANCH   4   5
ENDBRANCH   3   4
ENDBRANCH   2   3
ENDBRANCH   1   2
BRANCH   1  15
ATOM     15  C   UNL     1      43.890  30.033  13.310  1.00  0.00     0.000 C 
BRANCH  15  16
ATOM     16  C   UNL     1      43.307  30.480  14.665  1.00  0.00     0.000 C 
BRANCH  16  17
ATOM     17  C   UNL     1      42.498  31.789  14.619  1.00  0.00     0.000 C 
BRANCH  17  18
ATOM     18  C   UNL     1      42.675  32.714  15.842  1.00  0.00    -0.000 C 
BRANCH  18  19
ATOM     19  C   UNL     1      43.997  33.501  15.886  1.00  0.00    -0.000 C 
BRANCH  19  20
ATOM     20  C   UNL     1      44.585  33.602  17.305  1.00  0.00    -0.000 C 
BRANCH  20  21
ATOM     21  C   UNL     1      45.963  34.284  17.327  1.00  0.00    -0.000 C 
BRANCH  21  22
ATOM     22  C   UNL     1      47.086  33.342  17.788  1.00  0.00    -0.000 C 
BRANCH  22  23
ATOM     23  C   UNL     1      46.510  32.034  18.349  1.00  0.00    -0.000 C 
BRANCH  23  24
ATOM     24  C   UNL     1      46.989  30.794  17.575  1.00  0.00    -0.000 C 
BRANCH  24  25
ATOM     25  C   UNL     1      45.878  29.749  17.389  1.00  0.00    -0.003 C 
ATOM     26  C   UNL     1      44.651  30.097  18.228  1.00  0.00     0.004 C 
ENDBRANCH  24  25
ENDBRANCH  23  24
ENDBRANCH  22  23
ENDBRANCH  21  22
ENDBRANCH  20  21
ENDBRANCH  19  20
ENDBRANCH  18  19
ENDBRANCH  17  18
ENDBRANCH  16  17
ENDBRANCH  15  16
ENDBRANCH   1  15
TORSDOF 22
ENDMDL
