MODEL 1
REMARK VINA RESULT:    -7.096      0.000      0.000
REMARK INTER + INTRA:          -8.871
REMARK INTER:                  -8.548
REMARK INTRA:                  -0.323
REMARK UNBOUND:                -0.323
REMARK SMILES O=c1c(O)c(-c2ccc(O)c(O)c2)oc2cc(O)cc(O)c12
REMARK SMILES IDX 5 1 3 2 2 3 1 4 22 5 20 6 19 7 17 8 16 9 15 10 14 11 6 12
REMARK SMILES IDX 7 13 8 14 9 15 13 16 11 17 10 18 12 20 4 22 21 24 18 26
REMARK H PARENT 10 19 12 21 4 23 21 25 18 27
REMARK Flexibility Score: inf
ROOT
ATOM      1  C   UNL     1      24.498 -13.058  13.415  1.00  0.00     0.180 A 
ATOM      2  C   UNL     1      24.364 -13.329  12.040  1.00  0.00     0.208 A 
ATOM      3  C   UNL     1      24.913 -14.514  11.526  1.00  0.00     0.238 A 
ATOM      4  O   UNL     1      24.809 -14.762  10.294  1.00  0.00    -0.285 OA
ATOM      5  C   UNL     1      25.567 -15.412  12.394  1.00  0.00     0.111 A 
ATOM      6  C   UNL     1      26.144 -16.630  11.957  1.00  0.00     0.134 A 
ATOM      7  C   UNL     1      26.770 -17.476  12.884  1.00  0.00     0.093 A 
ATOM      8  C   UNL     1      26.828 -17.128  14.239  1.00  0.00     0.123 A 
ATOM      9  C   UNL     1      26.261 -15.930  14.674  1.00  0.00     0.094 A 
ATOM     10  C   UNL     1      25.635 -15.072  13.765  1.00  0.00     0.146 A 
ATOM     11  O   UNL     1      25.108 -13.935  14.206  1.00  0.00    -0.452 OA
ENDROOT
BRANCH   1  12
ATOM     12  C   UNL     1      23.963 -11.820  14.029  1.00  0.00     0.025 A 
ATOM     13  C   UNL     1      24.679 -10.614  13.987  1.00  0.00     0.016 A 
ATOM     14  C   UNL     1      24.164  -9.466  14.593  1.00  0.00     0.051 A 
ATOM     15  C   UNL     1      22.936  -9.501  15.262  1.00  0.00     0.157 A 
ATOM     16  C   UNL     1      22.741 -11.864  14.718  1.00  0.00     0.062 A 
ATOM     17  C   UNL     1      22.216 -10.718  15.329  1.00  0.00     0.158 A 
BRANCH  15  18
ATOM     18  O   UNL     1      22.475  -8.318  15.843  1.00  0.00    -0.504 OA
ATOM     19  H   UNL     1      21.772  -7.724  15.430  1.00  0.00     0.293 HD
ENDBRANCH  15  18
BRANCH  17  20
ATOM     20  O   UNL     1      20.990 -10.833  15.987  1.00  0.00    -0.504 OA
ATOM     21  H   UNL     1      20.750 -11.594  16.606  1.00  0.00     0.293 HD
ENDBRANCH  17  20
ENDBRANCH   1  12
BRANCH   2  22
ATOM     22  O   UNL     1      23.669 -12.445  11.211  1.00  0.00    -0.502 OA
ATOM     23  H   UNL     1      23.908 -12.316  10.235  1.00  0.00     0.293 HD
ENDBRANCH   2  22
BRANCH   6  24
ATOM     24  O   UNL     1      26.101 -17.003  10.613  1.00  0.00    -0.507 OA
ATOM     25  H   UNL     1      25.923 -17.960  10.331  1.00  0.00     0.293 HD
ENDBRANCH   6  24
BRANCH   8  26
ATOM     26  O   UNL     1      27.449 -17.969  15.161  1.00  0.00    -0.508 OA
ATOM     27  H   UNL     1      28.179 -18.614  14.883  1.00  0.00     0.293 HD
ENDBRANCH   8  26
TORSDOF 6
ENDMDL
MODEL 2
REMARK VINA RESULT:    -6.884      0.697      1.473
REMARK INTER + INTRA:          -8.615
REMARK INTER:                  -8.292
REMARK INTRA:                  -0.323
REMARK UNBOUND:                -0.323
REMARK SMILES O=c1c(O)c(-c2ccc(O)c(O)c2)oc2cc(O)cc(O)c12
REMARK SMILES IDX 5 1 3 2 2 3 1 4 22 5 20 6 19 7 17 8 16 9 15 10 14 11 6 12
REMARK SMILES IDX 7 13 8 14 9 15 13 16 11 17 10 18 12 20 4 22 21 24 18 26
REMARK H PARENT 10 19 12 21 4 23 21 25 18 27
REMARK Flexibility Score: inf
ROOT
ATOM      1  C   UNL     1      24.455 -12.903  13.600  1.00  0.00     0.180 A 
ATOM      2  C   UNL     1      24.478 -13.099  12.205  1.00  0.00     0.208 A 
ATOM      3  C   UNL     1      25.176 -14.201  11.687  1.00  0.00     0.238 A 
ATOM      4  O   UNL     1      25.212 -14.380  10.439  1.00  0.00    -0.285 OA
ATOM      5  C   UNL     1      25.819 -15.095  12.566  1.00  0.00     0.111 A 
ATOM      6  C   UNL     1      26.540 -16.232  12.125  1.00  0.00     0.134 A 
ATOM      7  C   UNL     1      27.145 -17.079  13.064  1.00  0.00     0.093 A 
ATOM      8  C   UNL     1      27.042 -16.814  14.435  1.00  0.00     0.123 A 
ATOM      9  C   UNL     1      26.334 -15.695  14.874  1.00  0.00     0.094 A 
ATOM     10  C   UNL     1      25.725 -14.836  13.953  1.00  0.00     0.146 A 
ATOM     11  O   UNL     1      25.061 -13.776  14.400  1.00  0.00    -0.452 OA
ENDROOT
BRANCH   1  12
ATOM     12  C   UNL     1      23.758 -11.755  14.222  1.00  0.00     0.025 A 
ATOM     13  C   UNL     1      22.418 -11.846  14.629  1.00  0.00     0.016 A 
ATOM     14  C   UNL     1      21.775 -10.741  15.191  1.00  0.00     0.051 A 
ATOM     15  C   UNL     1      22.448  -9.524  15.347  1.00  0.00     0.157 A 
ATOM     16  C   UNL     1      24.429 -10.529  14.356  1.00  0.00     0.062 A 
ATOM     17  C   UNL     1      23.793  -9.416  14.920  1.00  0.00     0.158 A 
BRANCH  15  18
ATOM     18  O   UNL     1      21.750  -8.460  15.920  1.00  0.00    -0.504 OA
ATOM     19  H   UNL     1      22.044  -7.497  15.865  1.00  0.00     0.293 HD
ENDBRANCH  15  18
BRANCH  17  20
ATOM     20  O   UNL     1      24.526  -8.233  15.033  1.00  0.00    -0.504 OA
ATOM     21  H   UNL     1      25.089  -7.992  15.836  1.00  0.00     0.293 HD
ENDBRANCH  17  20
ENDBRANCH   1  12
BRANCH   2  22
ATOM     22  O   UNL     1      23.791 -12.225  11.359  1.00  0.00    -0.502 OA
ATOM     23  H   UNL     1      24.171 -11.328  11.082  1.00  0.00     0.293 HD
ENDBRANCH   2  22
BRANCH   6  24
ATOM     24  O   UNL     1      26.658 -16.523  10.765  1.00  0.00    -0.507 OA
ATOM     25  H   UNL     1      26.914 -17.448  10.438  1.00  0.00     0.293 HD
ENDBRANCH   6  24
BRANCH   8  26
ATOM     26  O   UNL     1      27.643 -17.656  15.368  1.00  0.00    -0.508 OA
ATOM     27  H   UNL     1      27.287 -17.741  16.312  1.00  0.00     0.293 HD
ENDBRANCH   8  26
TORSDOF 6
ENDMDL
MODEL 3
REMARK VINA RESULT:    -6.797      1.517      3.236
REMARK INTER + INTRA:          -8.510
REMARK INTER:                  -8.266
REMARK INTRA:                  -0.244
REMARK UNBOUND:                -0.323
REMARK SMILES O=c1c(O)c(-c2ccc(O)c(O)c2)oc2cc(O)cc(O)c12
REMARK SMILES IDX 5 1 3 2 2 3 1 4 22 5 20 6 19 7 17 8 16 9 15 10 14 11 6 12
REMARK SMILES IDX 7 13 8 14 9 15 13 16 11 17 10 18 12 20 4 22 21 24 18 26
REMARK H PARENT 10 19 12 21 4 23 21 25 18 27
REMARK Flexibility Score: inf
ROOT
ATOM      1  C   UNL     1      24.348 -12.826  13.837  1.00  0.00     0.180 A 
ATOM      2  C   UNL     1      24.608 -13.977  14.605  1.00  0.00     0.208 A 
ATOM      3  C   UNL     1      25.255 -15.065  13.998  1.00  0.00     0.238 A 
ATOM      4  O   UNL     1      25.484 -16.105  14.674  1.00  0.00    -0.285 OA
ATOM      5  C   UNL     1      25.645 -14.978  12.647  1.00  0.00     0.111 A 
ATOM      6  C   UNL     1      26.305 -16.028  11.962  1.00  0.00     0.134 A 
ATOM      7  C   UNL     1      26.670 -15.860  10.618  1.00  0.00     0.093 A 
ATOM      8  C   UNL     1      26.389 -14.664   9.947  1.00  0.00     0.123 A 
ATOM      9  C   UNL     1      25.739 -13.628  10.618  1.00  0.00     0.094 A 
ATOM     10  C   UNL     1      25.366 -13.776  11.957  1.00  0.00     0.146 A 
ATOM     11  O   UNL     1      24.744 -12.774  12.569  1.00  0.00    -0.452 OA
ENDROOT
BRANCH   1  12
ATOM     12  C   UNL     1      23.653 -11.645  14.400  1.00  0.00     0.025 A 
ATOM     13  C   UNL     1      22.286 -11.683  14.717  1.00  0.00     0.016 A 
ATOM     14  C   UNL     1      21.649 -10.549  15.225  1.00  0.00     0.051 A 
ATOM     15  C   UNL     1      22.354  -9.356  15.413  1.00  0.00     0.157 A 
ATOM     16  C   UNL     1      24.359 -10.443  14.567  1.00  0.00     0.062 A 
ATOM     17  C   UNL     1      23.728  -9.301  15.076  1.00  0.00     0.158 A 
BRANCH  15  18
ATOM     18  O   UNL     1      21.659  -8.260  15.928  1.00  0.00    -0.504 OA
ATOM     19  H   UNL     1      21.209  -8.251  16.831  1.00  0.00     0.293 HD
ENDBRANCH  15  18
BRANCH  17  20
ATOM     20  O   UNL     1      24.495  -8.144  15.226  1.00  0.00    -0.504 OA
ATOM     21  H   UNL     1      25.488  -8.098  15.050  1.00  0.00     0.293 HD
ENDBRANCH  17  20
ENDBRANCH   1  12
BRANCH   2  22
ATOM     22  O   UNL     1      24.254 -14.019  15.956  1.00  0.00    -0.502 OA
ATOM     23  H   UNL     1      24.642 -13.377  16.638  1.00  0.00     0.293 HD
ENDBRANCH   2  22
BRANCH   6  24
ATOM     24  O   UNL     1      26.598 -17.231  12.605  1.00  0.00    -0.507 OA
ATOM     25  H   UNL     1      25.907 -17.965  12.704  1.00  0.00     0.293 HD
ENDBRANCH   6  24
BRANCH   8  26
ATOM     26  O   UNL     1      26.753 -14.497   8.612  1.00  0.00    -0.508 OA
ATOM     27  H   UNL     1      26.057 -14.416   7.880  1.00  0.00     0.293 HD
ENDBRANCH   8  26
TORSDOF 6
ENDMDL
MODEL 4
REMARK VINA RESULT:    -6.345      2.451      2.539
REMARK INTER + INTRA:          -7.965
REMARK INTER:                  -7.633
REMARK INTRA:                  -0.332
REMARK UNBOUND:                -0.323
REMARK SMILES O=c1c(O)c(-c2ccc(O)c(O)c2)oc2cc(O)cc(O)c12
REMARK SMILES IDX 5 1 3 2 2 3 1 4 22 5 20 6 19 7 17 8 16 9 15 10 14 11 6 12
REMARK SMILES IDX 7 13 8 14 9 15 13 16 11 17 10 18 12 20 4 22 21 24 18 26
REMARK H PARENT 10 19 12 21 4 23 21 25 18 27
REMARK Flexibility Score: inf
ROOT
ATOM      1  C   UNL     1      25.776 -12.959  12.457  1.00  0.00     0.180 A 
ATOM      2  C   UNL     1      25.549 -13.278  11.104  1.00  0.00     0.208 A 
ATOM      3  C   UNL     1      26.528 -14.003  10.405  1.00  0.00     0.238 A 
ATOM      4  O   UNL     1      26.340 -14.285   9.190  1.00  0.00    -0.285 OA
ATOM      5  C   UNL     1      27.700 -14.411  11.071  1.00  0.00     0.111 A 
ATOM      6  C   UNL     1      28.732 -15.148  10.440  1.00  0.00     0.134 A 
ATOM      7  C   UNL     1      29.866 -15.526  11.175  1.00  0.00     0.093 A 
ATOM      8  C   UNL     1      29.987 -15.183  12.527  1.00  0.00     0.123 A 
ATOM      9  C   UNL     1      28.973 -14.457  13.152  1.00  0.00     0.094 A 
ATOM     10  C   UNL     1      27.836 -14.069  12.437  1.00  0.00     0.146 A 
ATOM     11  O   UNL     1      26.888 -13.374  13.057  1.00  0.00    -0.452 OA
ENDROOT
BRANCH   1  12
ATOM     12  C   UNL     1      24.802 -12.182  13.256  1.00  0.00     0.025 A 
ATOM     13  C   UNL     1      24.862 -10.781  13.322  1.00  0.00     0.016 A 
ATOM     14  C   UNL     1      23.946 -10.072  14.101  1.00  0.00     0.051 A 
ATOM     15  C   UNL     1      22.963 -10.742  14.838  1.00  0.00     0.157 A 
ATOM     16  C   UNL     1      23.831 -12.859  14.011  1.00  0.00     0.062 A 
ATOM     17  C   UNL     1      22.908 -12.156  14.796  1.00  0.00     0.158 A 
BRANCH  15  18
ATOM     18  O   UNL     1      22.075  -9.974  15.593  1.00  0.00    -0.504 OA
ATOM     19  H   UNL     1      22.106  -8.967  15.649  1.00  0.00     0.293 HD
ENDBRANCH  15  18
BRANCH  17  20
ATOM     20  O   UNL     1      21.963 -12.894  15.511  1.00  0.00    -0.504 OA
ATOM     21  H   UNL     1      21.644 -12.655  16.438  1.00  0.00     0.293 HD
ENDBRANCH  17  20
ENDBRANCH   1  12
BRANCH   2  22
ATOM     22  O   UNL     1      24.356 -12.903  10.482  1.00  0.00    -0.502 OA
ATOM     23  H   UNL     1      24.147 -11.940  10.247  1.00  0.00     0.293 HD
ENDBRANCH   2  22
BRANCH   6  24
ATOM     24  O   UNL     1      28.640 -15.505   9.094  1.00  0.00    -0.507 OA
ATOM     25  H   UNL     1      28.084 -16.296   8.789  1.00  0.00     0.293 HD
ENDBRANCH   6  24
BRANCH   8  26
ATOM     26  O   UNL     1      31.113 -15.559  13.256  1.00  0.00    -0.508 OA
ATOM     27  H   UNL     1      31.916 -15.987  12.809  1.00  0.00     0.293 HD
ENDBRANCH   8  26
TORSDOF 6
ENDMDL
MODEL 5
REMARK VINA RESULT:    -6.035     10.820     13.032
REMARK INTER + INTRA:          -7.592
REMARK INTER:                  -7.476
REMARK INTRA:                  -0.116
REMARK UNBOUND:                -0.323
REMARK SMILES O=c1c(O)c(-c2ccc(O)c(O)c2)oc2cc(O)cc(O)c12
REMARK SMILES IDX 5 1 3 2 2 3 1 4 22 5 20 6 19 7 17 8 16 9 15 10 14 11 6 12
REMARK SMILES IDX 7 13 8 14 9 15 13 16 11 17 10 18 12 20 4 22 21 24 18 26
REMARK H PARENT 10 19 12 21 4 23 21 25 18 27
REMARK Flexibility Score: inf
ROOT
ATOM      1  C   UNL     1      26.241  -1.368  11.743  1.00  0.00     0.180 A 
ATOM      2  C   UNL     1      26.133  -0.209  10.950  1.00  0.00     0.208 A 
ATOM      3  C   UNL     1      25.474  -0.294   9.713  1.00  0.00     0.238 A 
ATOM      4  O   UNL     1      25.381   0.735   8.990  1.00  0.00    -0.285 OA
ATOM      5  C   UNL     1      24.921  -1.523   9.301  1.00  0.00     0.111 A 
ATOM      6  C   UNL     1      24.238  -1.690   8.071  1.00  0.00     0.134 A 
ATOM      7  C   UNL     1      23.707  -2.945   7.736  1.00  0.00     0.093 A 
ATOM      8  C   UNL     1      23.844  -4.032   8.607  1.00  0.00     0.123 A 
ATOM      9  C   UNL     1      24.517  -3.872   9.818  1.00  0.00     0.094 A 
ATOM     10  C   UNL     1      25.055  -2.630  10.170  1.00  0.00     0.146 A 
ATOM     11  O   UNL     1      25.694  -2.507  11.328  1.00  0.00    -0.452 OA
ENDROOT
BRANCH   1  12
ATOM     12  C   UNL     1      26.938  -1.365  13.050  1.00  0.00     0.025 A 
ATOM     13  C   UNL     1      26.510  -0.543  14.104  1.00  0.00     0.016 A 
ATOM     14  C   UNL     1      27.198  -0.540  15.320  1.00  0.00     0.051 A 
ATOM     15  C   UNL     1      28.329  -1.344  15.503  1.00  0.00     0.157 A 
ATOM     16  C   UNL     1      28.084  -2.156  13.223  1.00  0.00     0.062 A 
ATOM     17  C   UNL     1      28.780  -2.160  14.439  1.00  0.00     0.158 A 
BRANCH  15  18
ATOM     18  O   UNL     1      28.968  -1.298  16.744  1.00  0.00    -0.504 OA
ATOM     19  H   UNL     1      29.836  -0.812  16.914  1.00  0.00     0.293 HD
ENDBRANCH  15  18
BRANCH  17  20
ATOM     20  O   UNL     1      29.906  -2.980  14.543  1.00  0.00    -0.504 OA
ATOM     21  H   UNL     1      30.755  -2.716  15.021  1.00  0.00     0.293 HD
ENDBRANCH  17  20
ENDBRANCH   1  12
BRANCH   2  22
ATOM     22  O   UNL     1      26.647   1.007  11.405  1.00  0.00    -0.502 OA
ATOM     23  H   UNL     1      27.557   1.351  11.120  1.00  0.00     0.293 HD
ENDBRANCH   2  22
BRANCH   6  24
ATOM     24  O   UNL     1      24.085  -0.624   7.183  1.00  0.00    -0.507 OA
ATOM     25  H   UNL     1      24.444   0.300   7.393  1.00  0.00     0.293 HD
ENDBRANCH   6  24
BRANCH   8  26
ATOM     26  O   UNL     1      23.316  -5.278   8.274  1.00  0.00    -0.508 OA
ATOM     27  H   UNL     1      23.713  -5.841   7.531  1.00  0.00     0.293 HD
ENDBRANCH   8  26
TORSDOF 6
ENDMDL
MODEL 6
REMARK VINA RESULT:    -5.966     10.617     12.970
REMARK INTER + INTRA:          -7.509
REMARK INTER:                  -7.199
REMARK INTRA:                  -0.310
REMARK UNBOUND:                -0.323
REMARK SMILES O=c1c(O)c(-c2ccc(O)c(O)c2)oc2cc(O)cc(O)c12
REMARK SMILES IDX 5 1 3 2 2 3 1 4 22 5 20 6 19 7 17 8 16 9 15 10 14 11 6 12
REMARK SMILES IDX 7 13 8 14 9 15 13 16 11 17 10 18 12 20 4 22 21 24 18 26
REMARK H PARENT 10 19 12 21 4 23 21 25 18 27
REMARK Flexibility Score: inf
ROOT
ATOM      1  C   UNL     1      27.968  -1.821  13.556  1.00  0.00     0.180 A 
ATOM      2  C   UNL     1      28.138  -3.185  13.250  1.00  0.00     0.208 A 
ATOM      3  C   UNL     1      27.473  -3.717  12.134  1.00  0.00     0.238 A 
ATOM      4  O   UNL     1      27.610  -4.940  11.856  1.00  0.00    -0.285 OA
ATOM      5  C   UNL     1      26.669  -2.878  11.337  1.00  0.00     0.111 A 
ATOM      6  C   UNL     1      25.969  -3.335  10.193  1.00  0.00     0.134 A 
ATOM      7  C   UNL     1      25.196  -2.434   9.445  1.00  0.00     0.093 A 
ATOM      8  C   UNL     1      25.111  -1.087   9.817  1.00  0.00     0.123 A 
ATOM      9  C   UNL     1      25.799  -0.634  10.943  1.00  0.00     0.094 A 
ATOM     10  C   UNL     1      26.573  -1.516  11.703  1.00  0.00     0.146 A 
ATOM     11  O   UNL     1      27.214  -1.057  12.773  1.00  0.00    -0.452 OA
ENDROOT
BRANCH   1  12
ATOM     12  C   UNL     1      28.620  -1.191  14.727  1.00  0.00     0.025 A 
ATOM     13  C   UNL     1      29.843  -0.513  14.606  1.00  0.00     0.016 A 
ATOM     14  C   UNL     1      30.449   0.054  15.729  1.00  0.00     0.051 A 
ATOM     15  C   UNL     1      29.859  -0.057  16.993  1.00  0.00     0.157 A 
ATOM     16  C   UNL     1      28.036  -1.322  15.997  1.00  0.00     0.062 A 
ATOM     17  C   UNL     1      28.637  -0.758  17.129  1.00  0.00     0.158 A 
BRANCH  15  18
ATOM     18  O   UNL     1      30.514   0.535  18.074  1.00  0.00    -0.504 OA
ATOM     19  H   UNL     1      31.184   1.285  17.987  1.00  0.00     0.293 HD
ENDBRANCH  15  18
BRANCH  17  20
ATOM     20  O   UNL     1      27.993  -0.917  18.358  1.00  0.00    -0.504 OA
ATOM     21  H   UNL     1      28.194  -1.663  19.008  1.00  0.00     0.293 HD
ENDBRANCH  17  20
ENDBRANCH   1  12
BRANCH   2  22
ATOM     22  O   UNL     1      28.980  -3.984  14.028  1.00  0.00    -0.502 OA
ATOM     23  H   UNL     1      29.889  -4.291  13.703  1.00  0.00     0.293 HD
ENDBRANCH   2  22
BRANCH   6  24
ATOM     24  O   UNL     1      26.035  -4.671   9.797  1.00  0.00    -0.507 OA
ATOM     25  H   UNL     1      25.637  -4.988   8.921  1.00  0.00     0.293 HD
ENDBRANCH   6  24
BRANCH   8  26
ATOM     26  O   UNL     1      24.344  -0.193   9.074  1.00  0.00    -0.508 OA
ATOM     27  H   UNL     1      23.744   0.490   9.521  1.00  0.00     0.293 HD
ENDBRANCH   8  26
TORSDOF 6
ENDMDL
MODEL 7
REMARK VINA RESULT:    -5.954      2.975      7.453
REMARK INTER + INTRA:          -7.494
REMARK INTER:                  -7.171
REMARK INTRA:                  -0.323
REMARK UNBOUND:                -0.323
REMARK SMILES O=c1c(O)c(-c2ccc(O)c(O)c2)oc2cc(O)cc(O)c12
REMARK SMILES IDX 5 1 3 2 2 3 1 4 22 5 20 6 19 7 17 8 16 9 15 10 14 11 6 12
REMARK SMILES IDX 7 13 8 14 9 15 13 16 11 17 10 18 12 20 4 22 21 24 18 26
REMARK H PARENT 10 19 12 21 4 23 21 25 18 27
REMARK Flexibility Score: inf
ROOT
ATOM      1  C   UNL     1      27.534 -15.870  12.486  1.00  0.00     0.180 A 
ATOM      2  C   UNL     1      27.935 -16.611  13.614  1.00  0.00     0.208 A 
ATOM      3  C   UNL     1      27.236 -16.441  14.820  1.00  0.00     0.238 A 
ATOM      4  O   UNL     1      27.594 -17.092  15.839  1.00  0.00    -0.285 OA
ATOM      5  C   UNL     1      26.143 -15.554  14.873  1.00  0.00     0.111 A 
ATOM      6  C   UNL     1      25.384 -15.329  16.047  1.00  0.00     0.134 A 
ATOM      7  C   UNL     1      24.303 -14.436  16.017  1.00  0.00     0.093 A 
ATOM      8  C   UNL     1      23.966 -13.765  14.835  1.00  0.00     0.123 A 
ATOM      9  C   UNL     1      24.711 -13.983  13.676  1.00  0.00     0.094 A 
ATOM     10  C   UNL     1      25.793 -14.868  13.686  1.00  0.00     0.146 A 
ATOM     11  O   UNL     1      26.488 -15.053  12.569  1.00  0.00    -0.452 OA
ENDROOT
BRANCH   1  12
ATOM     12  C   UNL     1      28.232 -15.978  11.184  1.00  0.00     0.025 A 
ATOM     13  C   UNL     1      27.881 -16.962  10.246  1.00  0.00     0.016 A 
ATOM     14  C   UNL     1      28.570 -17.059   9.035  1.00  0.00     0.051 A 
ATOM     15  C   UNL     1      29.627 -16.190   8.742  1.00  0.00     0.157 A 
ATOM     16  C   UNL     1      29.306 -15.119  10.903  1.00  0.00     0.062 A 
ATOM     17  C   UNL     1      30.003 -15.209   9.691  1.00  0.00     0.158 A 
BRANCH  15  18
ATOM     18  O   UNL     1      30.271 -16.337   7.512  1.00  0.00    -0.504 OA
ATOM     19  H   UNL     1      29.798 -16.562   6.650  1.00  0.00     0.293 HD
ENDBRANCH  15  18
BRANCH  17  20
ATOM     20  O   UNL     1      31.052 -14.314   9.474  1.00  0.00    -0.504 OA
ATOM     21  H   UNL     1      31.436 -13.710  10.186  1.00  0.00     0.293 HD
ENDBRANCH  17  20
ENDBRANCH   1  12
BRANCH   2  22
ATOM     22  O   UNL     1      28.992 -17.520  13.522  1.00  0.00    -0.502 OA
ATOM     23  H   UNL     1      29.961 -17.225  13.508  1.00  0.00     0.293 HD
ENDBRANCH   2  22
BRANCH   6  24
ATOM     24  O   UNL     1      25.696 -15.984  17.240  1.00  0.00    -0.507 OA
ATOM     25  H   UNL     1      25.014 -16.549  17.732  1.00  0.00     0.293 HD
ENDBRANCH   6  24
BRANCH   8  26
ATOM     26  O   UNL     1      22.891 -12.879  14.805  1.00  0.00    -0.508 OA
ATOM     27  H   UNL     1      22.887 -12.031  15.360  1.00  0.00     0.293 HD
ENDBRANCH   8  26
TORSDOF 6
ENDMDL
MODEL 8
REMARK VINA RESULT:    -5.926      2.391      4.156
REMARK INTER + INTRA:          -7.461
REMARK INTER:                  -7.141
REMARK INTRA:                  -0.320
REMARK UNBOUND:                -0.323
REMARK SMILES O=c1c(O)c(-c2ccc(O)c(O)c2)oc2cc(O)cc(O)c12
REMARK SMILES IDX 5 1 3 2 2 3 1 4 22 5 20 6 19 7 17 8 16 9 15 10 14 11 6 12
REMARK SMILES IDX 7 13 8 14 9 15 13 16 11 17 10 18 12 20 4 22 21 24 18 26
REMARK H PARENT 10 19 12 21 4 23 21 25 18 27
REMARK Flexibility Score: inf
ROOT
ATOM      1  C   UNL     1      25.918 -14.463  12.079  1.00  0.00     0.180 A 
ATOM      2  C   UNL     1      27.112 -15.067  12.519  1.00  0.00     0.208 A 
ATOM      3  C   UNL     1      27.697 -16.068  11.728  1.00  0.00     0.238 A 
ATOM      4  O   UNL     1      28.760 -16.623  12.119  1.00  0.00    -0.285 OA
ATOM      5  C   UNL     1      27.093 -16.434  10.509  1.00  0.00     0.111 A 
ATOM      6  C   UNL     1      27.621 -17.431   9.652  1.00  0.00     0.134 A 
ATOM      7  C   UNL     1      26.966 -17.732   8.449  1.00  0.00     0.093 A 
ATOM      8  C   UNL     1      25.796 -17.056   8.086  1.00  0.00     0.123 A 
ATOM      9  C   UNL     1      25.272 -16.074   8.927  1.00  0.00     0.094 A 
ATOM     10  C   UNL     1      25.909 -15.760  10.132  1.00  0.00     0.146 A 
ATOM     11  O   UNL     1      25.385 -14.824  10.915  1.00  0.00    -0.452 OA
ENDROOT
BRANCH   1  12
ATOM     12  C   UNL     1      25.230 -13.414  12.866  1.00  0.00     0.025 A 
ATOM     13  C   UNL     1      24.380 -13.740  13.934  1.00  0.00     0.016 A 
ATOM     14  C   UNL     1      23.724 -12.733  14.646  1.00  0.00     0.051 A 
ATOM     15  C   UNL     1      23.891 -11.388  14.300  1.00  0.00     0.157 A 
ATOM     16  C   UNL     1      25.383 -12.067  12.502  1.00  0.00     0.062 A 
ATOM     17  C   UNL     1      24.729 -11.050  13.210  1.00  0.00     0.158 A 
BRANCH  15  18
ATOM     18  O   UNL     1      23.211 -10.430  15.054  1.00  0.00    -0.504 OA
ATOM     19  H   UNL     1      22.956  -9.517  14.709  1.00  0.00     0.293 HD
ENDBRANCH  15  18
BRANCH  17  20
ATOM     20  O   UNL     1      24.937  -9.732  12.800  1.00  0.00    -0.504 OA
ATOM     21  H   UNL     1      24.697  -9.381  11.884  1.00  0.00     0.293 HD
ENDBRANCH  17  20
ENDBRANCH   1  12
BRANCH   2  22
ATOM     22  O   UNL     1      27.716 -14.650  13.708  1.00  0.00    -0.502 OA
ATOM     23  H   UNL     1      28.112 -15.305  14.373  1.00  0.00     0.293 HD
ENDBRANCH   2  22
BRANCH   6  24
ATOM     24  O   UNL     1      28.787 -18.122   9.987  1.00  0.00    -0.507 OA
ATOM     25  H   UNL     1      28.763 -19.079  10.318  1.00  0.00     0.293 HD
ENDBRANCH   6  24
BRANCH   8  26
ATOM     26  O   UNL     1      25.145 -17.355   6.890  1.00  0.00    -0.508 OA
ATOM     27  H   UNL     1      24.225 -16.987   6.681  1.00  0.00     0.293 HD
ENDBRANCH   8  26
TORSDOF 6
ENDMDL
MODEL 9
REMARK VINA RESULT:    -5.837      2.971      6.972
REMARK INTER + INTRA:          -7.354
REMARK INTER:                  -7.022
REMARK INTRA:                  -0.332
REMARK UNBOUND:                -0.323
REMARK SMILES O=c1c(O)c(-c2ccc(O)c(O)c2)oc2cc(O)cc(O)c12
REMARK SMILES IDX 5 1 3 2 2 3 1 4 22 5 20 6 19 7 17 8 16 9 15 10 14 11 6 12
REMARK SMILES IDX 7 13 8 14 9 15 13 16 11 17 10 18 12 20 4 22 21 24 18 26
REMARK H PARENT 10 19 12 21 4 23 21 25 18 27
REMARK Flexibility Score: inf
ROOT
ATOM      1  C   UNL     1      26.944 -15.163  11.700  1.00  0.00     0.180 A 
ATOM      2  C   UNL     1      26.010 -14.172  11.339  1.00  0.00     0.208 A 
ATOM      3  C   UNL     1      25.092 -13.723  12.302  1.00  0.00     0.238 A 
ATOM      4  O   UNL     1      24.245 -12.844  11.987  1.00  0.00    -0.285 OA
ATOM      5  C   UNL     1      25.135 -14.255  13.606  1.00  0.00     0.111 A 
ATOM      6  C   UNL     1      24.248 -13.853  14.635  1.00  0.00     0.134 A 
ATOM      7  C   UNL     1      24.360 -14.423  15.912  1.00  0.00     0.093 A 
ATOM      8  C   UNL     1      25.342 -15.385  16.179  1.00  0.00     0.123 A 
ATOM      9  C   UNL     1      26.216 -15.784  15.169  1.00  0.00     0.094 A 
ATOM     10  C   UNL     1      26.120 -15.229  13.889  1.00  0.00     0.146 A 
ATOM     11  O   UNL     1      26.963 -15.631  12.944  1.00  0.00    -0.452 OA
ENDROOT
BRANCH   1  12
ATOM     12  C   UNL     1      27.931 -15.702  10.737  1.00  0.00     0.025 A 
ATOM     13  C   UNL     1      27.611 -16.768   9.881  1.00  0.00     0.016 A 
ATOM     14  C   UNL     1      28.567 -17.274   8.998  1.00  0.00     0.051 A 
ATOM     15  C   UNL     1      29.859 -16.739   8.959  1.00  0.00     0.157 A 
ATOM     16  C   UNL     1      29.232 -15.177  10.715  1.00  0.00     0.062 A 
ATOM     17  C   UNL     1      30.198 -15.678   9.833  1.00  0.00     0.158 A 
BRANCH  15  18
ATOM     18  O   UNL     1      30.766 -17.287   8.049  1.00  0.00    -0.504 OA
ATOM     19  H   UNL     1      31.685 -17.619   8.300  1.00  0.00     0.293 HD
ENDBRANCH  15  18
BRANCH  17  20
ATOM     20  O   UNL     1      31.468 -15.099   9.858  1.00  0.00    -0.504 OA
ATOM     21  H   UNL     1      32.255 -15.440   9.326  1.00  0.00     0.293 HD
ENDBRANCH  17  20
ENDBRANCH   1  12
BRANCH   2  22
ATOM     22  O   UNL     1      26.022 -13.627  10.053  1.00  0.00    -0.502 OA
ATOM     23  H   UNL     1      25.453 -13.999   9.302  1.00  0.00     0.293 HD
ENDBRANCH   2  22
BRANCH   6  24
ATOM     24  O   UNL     1      23.260 -12.896  14.399  1.00  0.00    -0.507 OA
ATOM     25  H   UNL     1      23.046 -12.172  15.075  1.00  0.00     0.293 HD
ENDBRANCH   6  24
BRANCH   8  26
ATOM     26  O   UNL     1      25.453 -15.951  17.448  1.00  0.00    -0.508 OA
ATOM     27  H   UNL     1      25.269 -15.413  18.286  1.00  0.00     0.293 HD
ENDBRANCH   8  26
TORSDOF 6
ENDMDL
