MODEL 1
REMARK VINA RESULT:    -9.530      0.000      0.000
REMARK INTER + INTRA:         -18.538
REMARK INTER:                 -15.658
REMARK INTRA:                  -2.880
REMARK UNBOUND:                -2.880
REMARK SMILES C[C@@H]1O[C@@H](OC[C@@H]2O[C@H](Oc3c(-c4ccc(O)c(O)c4)oc4cc(O)cc(O)c4c3=O)[C@H](O)[C@H](O)[C@@H]2O)[C@@H](O)[C@H](O)[C@H]1O
REMARK SMILES IDX 7 1 36 2 34 3 32 4 9 5 8 6 6 7 5 8 4 9 1 10 2 11 42 12 3 13
REMARK SMILES IDX 40 14 38 15 43 16 41 18 39 20 37 22 35 24 10 26 11 27 12 28
REMARK SMILES IDX 30 29 21 30 29 31 31 32 22 33 27 34 23 35 26 36 24 37 13 38
REMARK SMILES IDX 20 39 14 40 18 41 15 42 16 43 19 44 17 46 28 48 25 50 33 52
REMARK H PARENT 43 17 41 19 39 21 37 23 35 25 19 45 17 47 28 49 25 51 33 53
REMARK Flexibility Score: inf
ROOT
ATOM      1  C   UNL     1      49.290  59.725   4.040  1.00  0.00     0.180 C 
ATOM      2  C   UNL     1      48.474  60.726   4.896  1.00  0.00     0.177 C 
ATOM      3  C   UNL     1      47.574  61.580   3.987  1.00  0.00     0.180 C 
ATOM      4  C   UNL     1      48.392  62.181   2.823  1.00  0.00     0.214 C 
ATOM      5  C   UNL     1      49.165  61.052   2.120  1.00  0.00     0.339 C 
ATOM      6  O   UNL     1      50.032  60.398   3.032  1.00  0.00    -0.332 OA
ENDROOT
BRANCH   1   7
ATOM      7  C   UNL     1      50.253  58.914   4.912  1.00  0.00     0.198 C 
BRANCH   7   8
ATOM      8  O   UNL     1      51.571  59.423   4.765  1.00  0.00    -0.347 OA
BRANCH   8   9
ATOM      9  C   UNL     1      52.204  59.617   6.018  1.00  0.00     0.281 C 
ATOM     10  C   UNL     1      51.683  61.791   8.284  1.00  0.00     0.041 C 
ATOM     11  C   UNL     1      52.902  61.354   7.462  1.00  0.00     0.150 C 
ATOM     12  C   UNL     1      53.736  60.254   8.191  1.00  0.00     0.174 C 
ATOM     13  O   UNL     1      52.506  60.996   6.139  1.00  0.00    -0.344 OA
ATOM     14  C   UNL     1      54.493  59.407   7.146  1.00  0.00     0.179 C 
ATOM     15  C   UNL     1      53.511  58.784   6.121  1.00  0.00     0.202 C 
BRANCH  12  16
ATOM     16  O   UNL     1      54.619  60.822   9.125  1.00  0.00    -0.388 OA
ATOM     17  H   UNL     1      54.737  61.780   8.887  1.00  0.00     0.211 HD
ENDBRANCH  12  16
BRANCH  14  18
ATOM     18  O   UNL     1      55.274  58.414   7.764  1.00  0.00    -0.387 OA
ATOM     19  H   UNL     1      54.687  57.633   7.943  1.00  0.00     0.211 HD
ENDBRANCH  14  18
BRANCH  15  20
ATOM     20  O   UNL     1      54.150  58.717   4.865  1.00  0.00    -0.385 OA
ATOM     21  H   UNL     1      53.654  59.316   4.246  1.00  0.00     0.211 HD
ENDBRANCH  15  20
ENDBRANCH   8   9
ENDBRANCH   7   8
ENDBRANCH   1   7
BRANCH   2  22
ATOM     22  O   UNL     1      49.337  61.567   5.625  1.00  0.00    -0.387 OA
ATOM     23  H   UNL     1      48.895  61.776   6.493  1.00  0.00     0.211 HD
ENDBRANCH   2  22
BRANCH   3  24
ATOM     24  O   UNL     1      46.951  62.587   4.742  1.00  0.00    -0.387 OA
ATOM     25  H   UNL     1      46.714  63.312   4.108  1.00  0.00     0.211 HD
ENDBRANCH   3  24
BRANCH   5  26
ATOM     26  O   UNL     1      49.963  61.608   1.080  1.00  0.00    -0.454 OA
BRANCH  26  27
ATOM     27  C   UNL     1      51.166  61.031   0.662  1.00  0.00     0.214 A 
ATOM     28  C   UNL     1      52.395  61.643   0.962  1.00  0.00     0.180 A 
ATOM     29  C   UNL     1      51.161  59.821  -0.051  1.00  0.00     0.239 A 
ATOM     30  O   UNL     1      53.530  61.059   0.583  1.00  0.00    -0.452 OA
ATOM     31  C   UNL     1      52.384  59.245  -0.473  1.00  0.00     0.111 A 
ATOM     32  O   UNL     1      50.054  59.271  -0.285  1.00  0.00    -0.285 OA
ATOM     33  C   UNL     1      53.576  59.918  -0.095  1.00  0.00     0.146 A 
ATOM     34  C   UNL     1      52.496  58.029  -1.217  1.00  0.00     0.134 A 
ATOM     35  C   UNL     1      54.826  59.387  -0.425  1.00  0.00     0.094 A 
ATOM     36  C   UNL     1      53.762  57.501  -1.496  1.00  0.00     0.093 A 
ATOM     37  C   UNL     1      54.922  58.178  -1.113  1.00  0.00     0.123 A 
BRANCH  28  38
ATOM     38  C   UNL     1      52.485  62.897   1.747  1.00  0.00     0.025 A 
ATOM     39  C   UNL     1      52.569  62.824   3.146  1.00  0.00     0.062 A 
ATOM     40  C   UNL     1      52.510  64.161   1.131  1.00  0.00     0.016 A 
ATOM     41  C   UNL     1      52.634  63.992   3.923  1.00  0.00     0.158 A 
ATOM     42  C   UNL     1      52.568  65.325   1.902  1.00  0.00     0.051 A 
ATOM     43  C   UNL     1      52.622  65.250   3.296  1.00  0.00     0.157 A 
BRANCH  41  44
ATOM     44  O   UNL     1      52.703  63.908   5.314  1.00  0.00    -0.504 OA
ATOM     45  H   UNL     1      51.926  64.186   5.901  1.00  0.00     0.293 HD
ENDBRANCH  41  44
BRANCH  43  46
ATOM     46  O   UNL     1      52.677  66.431   4.040  1.00  0.00    -0.504 OA
ATOM     47  H   UNL     1      52.092  66.581   4.853  1.00  0.00     0.293 HD
ENDBRANCH  43  46
ENDBRANCH  28  38
BRANCH  34  48
ATOM     48  O   UNL     1      51.404  57.312  -1.715  1.00  0.00    -0.507 OA
ATOM     49  H   UNL     1      50.876  56.626  -1.200  1.00  0.00     0.293 HD
ENDBRANCH  34  48
BRANCH  37  50
ATOM     50  O   UNL     1      56.180  57.659  -1.416  1.00  0.00    -0.508 OA
ATOM     51  H   UNL     1      56.363  57.213  -2.304  1.00  0.00     0.293 HD
ENDBRANCH  37  50
ENDBRANCH  26  27
ENDBRANCH   5  26
BRANCH   4  52
ATOM     52  O   UNL     1      49.305  63.147   3.290  1.00  0.00    -0.384 OA
ATOM     53  H   UNL     1      49.154  63.973   2.756  1.00  0.00     0.211 HD
ENDBRANCH   4  52
TORSDOF 16
ENDMDL
MODEL 2
REMARK VINA RESULT:    -9.501      1.979      7.200
REMARK INTER + INTRA:         -18.490
REMARK INTER:                 -15.809
REMARK INTRA:                  -2.681
REMARK UNBOUND:                -2.880
REMARK SMILES C[C@@H]1O[C@@H](OC[C@@H]2O[C@H](Oc3c(-c4ccc(O)c(O)c4)oc4cc(O)cc(O)c4c3=O)[C@H](O)[C@H](O)[C@@H]2O)[C@@H](O)[C@H](O)[C@H]1O
REMARK SMILES IDX 7 1 36 2 34 3 32 4 9 5 8 6 6 7 5 8 4 9 1 10 2 11 42 12 3 13
REMARK SMILES IDX 40 14 38 15 43 16 41 18 39 20 37 22 35 24 10 26 11 27 12 28
REMARK SMILES IDX 30 29 21 30 29 31 31 32 22 33 27 34 23 35 26 36 24 37 13 38
REMARK SMILES IDX 20 39 14 40 18 41 15 42 16 43 19 44 17 46 28 48 25 50 33 52
REMARK H PARENT 43 17 41 19 39 21 37 23 35 25 19 45 17 47 28 49 25 51 33 53
REMARK Flexibility Score: inf
ROOT
ATOM      1  C   UNL     1      49.965  62.832   3.332  1.00  0.00     0.180 C 
ATOM      2  C   UNL     1      48.561  63.310   2.883  1.00  0.00     0.177 C 
ATOM      3  C   UNL     1      47.716  63.678   4.114  1.00  0.00     0.180 C 
ATOM      4  C   UNL     1      47.752  62.540   5.158  1.00  0.00     0.214 C 
ATOM      5  C   UNL     1      49.217  62.172   5.445  1.00  0.00     0.339 C 
ATOM      6  O   UNL     1      49.870  61.758   4.256  1.00  0.00    -0.332 OA
ENDROOT
BRANCH   1   7
ATOM      7  C   UNL     1      50.803  62.385   2.130  1.00  0.00     0.198 C 
BRANCH   7   8
ATOM      8  O   UNL     1      50.642  60.988   1.932  1.00  0.00    -0.347 OA
BRANCH   8   9
ATOM      9  C   UNL     1      51.710  60.434   1.184  1.00  0.00     0.281 C 
ATOM     10  C   UNL     1      54.352  61.787   0.035  1.00  0.00     0.041 C 
ATOM     11  C   UNL     1      53.191  60.989  -0.573  1.00  0.00     0.150 C 
ATOM     12  C   UNL     1      53.502  59.461  -0.637  1.00  0.00     0.174 C 
ATOM     13  O   UNL     1      51.970  61.302   0.095  1.00  0.00    -0.344 OA
ATOM     14  C   UNL     1      52.180  58.666  -0.610  1.00  0.00     0.179 C 
ATOM     15  C   UNL     1      51.348  59.020   0.650  1.00  0.00     0.202 C 
BRANCH  12  16
ATOM     16  O   UNL     1      54.263  59.145  -1.776  1.00  0.00    -0.388 OA
ATOM     17  H   UNL     1      54.975  59.833  -1.865  1.00  0.00     0.211 HD
ENDBRANCH  12  16
BRANCH  14  18
ATOM     18  O   UNL     1      52.414  57.281  -0.685  1.00  0.00    -0.387 OA
ATOM     19  H   UNL     1      52.261  56.898   0.218  1.00  0.00     0.211 HD
ENDBRANCH  14  18
BRANCH  15  20
ATOM     20  O   UNL     1      49.977  58.958   0.320  1.00  0.00    -0.385 OA
ATOM     21  H   UNL     1      49.517  58.459   1.045  1.00  0.00     0.211 HD
ENDBRANCH  15  20
ENDBRANCH   8   9
ENDBRANCH   7   8
ENDBRANCH   1   7
BRANCH   2  22
ATOM     22  O   UNL     1      47.908  62.299   2.152  1.00  0.00    -0.387 OA
ATOM     23  H   UNL     1      47.317  62.742   1.484  1.00  0.00     0.211 HD
ENDBRANCH   2  22
BRANCH   3  24
ATOM     24  O   UNL     1      46.398  63.964   3.721  1.00  0.00    -0.387 OA
ATOM     25  H   UNL     1      45.810  63.354   4.235  1.00  0.00     0.211 HD
ENDBRANCH   3  24
BRANCH   5  26
ATOM     26  O   UNL     1      49.256  61.087   6.367  1.00  0.00    -0.454 OA
BRANCH  26  27
ATOM     27  C   UNL     1      50.352  60.226   6.472  1.00  0.00     0.214 A 
ATOM     28  C   UNL     1      50.304  58.936   5.915  1.00  0.00     0.180 A 
ATOM     29  C   UNL     1      51.523  60.646   7.123  1.00  0.00     0.239 A 
ATOM     30  O   UNL     1      51.370  58.144   5.998  1.00  0.00    -0.452 OA
ATOM     31  C   UNL     1      52.628  59.765   7.228  1.00  0.00     0.111 A 
ATOM     32  O   UNL     1      51.560  61.813   7.590  1.00  0.00    -0.285 OA
ATOM     33  C   UNL     1      52.498  58.495   6.607  1.00  0.00     0.146 A 
ATOM     34  C   UNL     1      53.859  60.080   7.882  1.00  0.00     0.134 A 
ATOM     35  C   UNL     1      53.562  57.588   6.616  1.00  0.00     0.094 A 
ATOM     36  C   UNL     1      54.920  59.168   7.839  1.00  0.00     0.093 A 
ATOM     37  C   UNL     1      54.773  57.924   7.221  1.00  0.00     0.123 A 
BRANCH  28  38
ATOM     38  C   UNL     1      49.121  58.436   5.175  1.00  0.00     0.025 A 
ATOM     39  C   UNL     1      49.243  58.138   3.809  1.00  0.00     0.062 A 
ATOM     40  C   UNL     1      47.881  58.231   5.806  1.00  0.00     0.016 A 
ATOM     41  C   UNL     1      48.139  57.683   3.071  1.00  0.00     0.158 A 
ATOM     42  C   UNL     1      46.778  57.784   5.073  1.00  0.00     0.051 A 
ATOM     43  C   UNL     1      46.895  57.516   3.707  1.00  0.00     0.157 A 
BRANCH  41  44
ATOM     44  O   UNL     1      48.268  57.404   1.711  1.00  0.00    -0.504 OA
ATOM     45  H   UNL     1      47.483  57.484   1.077  1.00  0.00     0.293 HD
ENDBRANCH  41  44
BRANCH  43  46
ATOM     46  O   UNL     1      45.774  57.073   3.000  1.00  0.00    -0.504 OA
ATOM     47  H   UNL     1      45.847  56.690   2.065  1.00  0.00     0.293 HD
ENDBRANCH  43  46
ENDBRANCH  28  38
BRANCH  34  48
ATOM     48  O   UNL     1      54.088  61.260   8.596  1.00  0.00    -0.507 OA
ATOM     49  H   UNL     1      54.973  61.538   8.991  1.00  0.00     0.293 HD
ENDBRANCH  34  48
BRANCH  37  50
ATOM     50  O   UNL     1      55.825  57.011   7.203  1.00  0.00    -0.508 OA
ATOM     51  H   UNL     1      56.769  57.303   6.990  1.00  0.00     0.293 HD
ENDBRANCH  37  50
ENDBRANCH  26  27
ENDBRANCH   5  26
BRANCH   4  52
ATOM     52  O   UNL     1      47.070  61.401   4.689  1.00  0.00    -0.384 OA
ATOM     53  H   UNL     1      47.696  60.914   4.088  1.00  0.00     0.211 HD
ENDBRANCH   4  52
TORSDOF 16
ENDMDL
MODEL 3
REMARK VINA RESULT:    -9.494      1.172      1.738
REMARK INTER + INTRA:         -18.479
REMARK INTER:                 -15.728
REMARK INTRA:                  -2.751
REMARK UNBOUND:                -2.880
REMARK SMILES C[C@@H]1O[C@@H](OC[C@@H]2O[C@H](Oc3c(-c4ccc(O)c(O)c4)oc4cc(O)cc(O)c4c3=O)[C@H](O)[C@H](O)[C@@H]2O)[C@@H](O)[C@H](O)[C@H]1O
REMARK SMILES IDX 7 1 36 2 34 3 32 4 9 5 8 6 6 7 5 8 4 9 1 10 2 11 42 12 3 13
REMARK SMILES IDX 40 14 38 15 43 16 41 18 39 20 37 22 35 24 10 26 11 27 12 28
REMARK SMILES IDX 30 29 21 30 29 31 31 32 22 33 27 34 23 35 26 36 24 37 13 38
REMARK SMILES IDX 20 39 14 40 18 41 15 42 16 43 19 44 17 46 28 48 25 50 33 52
REMARK H PARENT 43 17 41 19 39 21 37 23 35 25 19 45 17 47 28 49 25 51 33 53
REMARK Flexibility Score: inf
ROOT
ATOM      1  C   UNL     1      48.553  60.890   3.264  1.00  0.00     0.180 C 
ATOM      2  C   UNL     1      47.597  62.031   3.697  1.00  0.00     0.177 C 
ATOM      3  C   UNL     1      46.963  62.680   2.455  1.00  0.00     0.180 C 
ATOM      4  C   UNL     1      48.049  63.051   1.421  1.00  0.00     0.214 C 
ATOM      5  C   UNL     1      48.924  61.815   1.150  1.00  0.00     0.339 C 
ATOM      6  O   UNL     1      49.532  61.361   2.348  1.00  0.00    -0.332 OA
ENDROOT
BRANCH   1   7
ATOM      7  C   UNL     1      49.259  60.276   4.478  1.00  0.00     0.198 C 
BRANCH   7   8
ATOM      8  O   UNL     1      50.486  60.953   4.707  1.00  0.00    -0.347 OA
BRANCH   8   9
ATOM      9  C   UNL     1      51.423  60.133   5.382  1.00  0.00     0.281 C 
ATOM     10  C   UNL     1      51.167  57.146   6.451  1.00  0.00     0.041 C 
ATOM     11  C   UNL     1      51.526  58.496   7.085  1.00  0.00     0.150 C 
ATOM     12  C   UNL     1      53.065  58.754   7.079  1.00  0.00     0.174 C 
ATOM     13  O   UNL     1      50.762  59.543   6.488  1.00  0.00    -0.344 OA
ATOM     14  C   UNL     1      53.331  60.275   7.086  1.00  0.00     0.179 C 
ATOM     15  C   UNL     1      52.638  60.963   5.881  1.00  0.00     0.202 C 
BRANCH  12  16
ATOM     16  O   UNL     1      53.690  58.122   8.167  1.00  0.00    -0.388 OA
ATOM     17  H   UNL     1      53.540  57.144   8.077  1.00  0.00     0.211 HD
ENDBRANCH  12  16
BRANCH  14  18
ATOM     18  O   UNL     1      54.709  60.553   7.100  1.00  0.00    -0.387 OA
ATOM     19  H   UNL     1      54.823  61.532   6.982  1.00  0.00     0.211 HD
ENDBRANCH  14  18
BRANCH  15  20
ATOM     20  O   UNL     1      52.222  62.253   6.274  1.00  0.00    -0.385 OA
ATOM     21  H   UNL     1      52.363  62.326   7.255  1.00  0.00     0.211 HD
ENDBRANCH  15  20
ENDBRANCH   8   9
ENDBRANCH   7   8
ENDBRANCH   1   7
BRANCH   2  22
ATOM     22  O   UNL     1      48.298  63.008   4.431  1.00  0.00    -0.387 OA
ATOM     23  H   UNL     1      48.157  62.817   5.398  1.00  0.00     0.211 HD
ENDBRANCH   2  22
BRANCH   3  24
ATOM     24  O   UNL     1      46.218  63.809   2.834  1.00  0.00    -0.387 OA
ATOM     25  H   UNL     1      45.410  63.821   2.260  1.00  0.00     0.211 HD
ENDBRANCH   3  24
BRANCH   5  26
ATOM     26  O   UNL     1      49.960  62.165   0.238  1.00  0.00    -0.454 OA
BRANCH  26  27
ATOM     27  C   UNL     1      51.155  61.446   0.143  1.00  0.00     0.214 A 
ATOM     28  C   UNL     1      52.342  61.955   0.698  1.00  0.00     0.180 A 
ATOM     29  C   UNL     1      51.180  60.195  -0.496  1.00  0.00     0.239 A 
ATOM     30  O   UNL     1      53.461  61.239   0.625  1.00  0.00    -0.452 OA
ATOM     31  C   UNL     1      52.397  59.475  -0.590  1.00  0.00     0.111 A 
ATOM     32  O   UNL     1      50.104  59.740  -0.959  1.00  0.00    -0.285 OA
ATOM     33  C   UNL     1      53.536  60.054   0.028  1.00  0.00     0.146 A 
ATOM     34  C   UNL     1      52.542  58.205  -1.230  1.00  0.00     0.134 A 
ATOM     35  C   UNL     1      54.762  59.382   0.029  1.00  0.00     0.094 A 
ATOM     36  C   UNL     1      53.772  57.539  -1.178  1.00  0.00     0.093 A 
ATOM     37  C   UNL     1      54.880  58.125  -0.563  1.00  0.00     0.123 A 
BRANCH  28  38
ATOM     38  C   UNL     1      52.386  63.246   1.425  1.00  0.00     0.025 A 
ATOM     39  C   UNL     1      52.680  63.249   2.797  1.00  0.00     0.062 A 
ATOM     40  C   UNL     1      52.164  64.474   0.775  1.00  0.00     0.016 A 
ATOM     41  C   UNL     1      52.709  64.451   3.522  1.00  0.00     0.158 A 
ATOM     42  C   UNL     1      52.187  65.671   1.496  1.00  0.00     0.051 A 
ATOM     43  C   UNL     1      52.450  65.668   2.868  1.00  0.00     0.157 A 
BRANCH  41  44
ATOM     44  O   UNL     1      52.987  64.441   4.889  1.00  0.00    -0.504 OA
ATOM     45  H   UNL     1      52.463  65.012   5.541  1.00  0.00     0.293 HD
ENDBRANCH  41  44
BRANCH  43  46
ATOM     46  O   UNL     1      52.464  66.881   3.561  1.00  0.00    -0.504 OA
ATOM     47  H   UNL     1      53.323  67.387   3.740  1.00  0.00     0.293 HD
ENDBRANCH  43  46
ENDBRANCH  28  38
BRANCH  34  48
ATOM     48  O   UNL     1      51.522  57.564  -1.940  1.00  0.00    -0.507 OA
ATOM     49  H   UNL     1      50.974  56.792  -1.598  1.00  0.00     0.293 HD
ENDBRANCH  34  48
BRANCH  37  50
ATOM     50  O   UNL     1      56.108  57.467  -0.535  1.00  0.00    -0.508 OA
ATOM     51  H   UNL     1      56.881  57.823   0.011  1.00  0.00     0.293 HD
ENDBRANCH  37  50
ENDBRANCH  26  27
ENDBRANCH   5  26
BRANCH   4  52
ATOM     52  O   UNL     1      48.862  64.099   1.894  1.00  0.00    -0.384 OA
ATOM     53  H   UNL     1      48.965  64.748   1.146  1.00  0.00     0.211 HD
ENDBRANCH   4  52
TORSDOF 16
ENDMDL
MODEL 4
REMARK VINA RESULT:    -9.428      1.911      5.327
REMARK INTER + INTRA:         -18.371
REMARK INTER:                 -16.230
REMARK INTRA:                  -2.141
REMARK UNBOUND:                -2.880
REMARK SMILES C[C@@H]1O[C@@H](OC[C@@H]2O[C@H](Oc3c(-c4ccc(O)c(O)c4)oc4cc(O)cc(O)c4c3=O)[C@H](O)[C@H](O)[C@@H]2O)[C@@H](O)[C@H](O)[C@H]1O
REMARK SMILES IDX 7 1 36 2 34 3 32 4 9 5 8 6 6 7 5 8 4 9 1 10 2 11 42 12 3 13
REMARK SMILES IDX 40 14 38 15 43 16 41 18 39 20 37 22 35 24 10 26 11 27 12 28
REMARK SMILES IDX 30 29 21 30 29 31 31 32 22 33 27 34 23 35 26 36 24 37 13 38
REMARK SMILES IDX 20 39 14 40 18 41 15 42 16 43 19 44 17 46 28 48 25 50 33 52
REMARK H PARENT 43 17 41 19 39 21 37 23 35 25 19 45 17 47 28 49 25 51 33 53
REMARK Flexibility Score: inf
ROOT
ATOM      1  C   UNL     1      50.386  58.546   4.259  1.00  0.00     0.180 C 
ATOM      2  C   UNL     1      49.181  58.138   5.144  1.00  0.00     0.177 C 
ATOM      3  C   UNL     1      48.029  57.636   4.257  1.00  0.00     0.180 C 
ATOM      4  C   UNL     1      47.737  58.644   3.123  1.00  0.00     0.214 C 
ATOM      5  C   UNL     1      49.050  58.963   2.388  1.00  0.00     0.339 C 
ATOM      6  O   UNL     1      50.005  59.507   3.285  1.00  0.00    -0.332 OA
ENDROOT
BRANCH   1   7
ATOM      7  C   UNL     1      51.522  59.123   5.112  1.00  0.00     0.198 C 
BRANCH   7   8
ATOM      8  O   UNL     1      51.820  58.229   6.174  1.00  0.00    -0.347 OA
BRANCH   8   9
ATOM      9  C   UNL     1      52.589  58.851   7.188  1.00  0.00     0.281 C 
ATOM     10  C   UNL     1      52.093  61.552   8.798  1.00  0.00     0.041 C 
ATOM     11  C   UNL     1      53.234  61.000   7.933  1.00  0.00     0.150 C 
ATOM     12  C   UNL     1      54.307  60.254   8.787  1.00  0.00     0.174 C 
ATOM     13  O   UNL     1      52.710  60.223   6.857  1.00  0.00    -0.344 OA
ATOM     14  C   UNL     1      55.021  59.204   7.910  1.00  0.00     0.179 C 
ATOM     15  C   UNL     1      54.001  58.212   7.293  1.00  0.00     0.202 C 
BRANCH  12  16
ATOM     16  O   UNL     1      55.224  61.157   9.351  1.00  0.00    -0.388 OA
ATOM     17  H   UNL     1      56.076  61.079   8.845  1.00  0.00     0.211 HD
ENDBRANCH  12  16
BRANCH  14  18
ATOM     18  O   UNL     1      56.012  58.520   8.637  1.00  0.00    -0.387 OA
ATOM     19  H   UNL     1      55.921  57.552   8.437  1.00  0.00     0.211 HD
ENDBRANCH  14  18
BRANCH  15  20
ATOM     20  O   UNL     1      54.461  57.827   6.016  1.00  0.00    -0.385 OA
ATOM     21  H   UNL     1      53.764  58.088   5.356  1.00  0.00     0.211 HD
ENDBRANCH  15  20
ENDBRANCH   8   9
ENDBRANCH   7   8
ENDBRANCH   1   7
BRANCH   2  22
ATOM     22  O   UNL     1      48.740  59.233   5.911  1.00  0.00    -0.387 OA
ATOM     23  H   UNL     1      47.779  59.385   5.696  1.00  0.00     0.211 HD
ENDBRANCH   2  22
BRANCH   3  24
ATOM     24  O   UNL     1      46.886  57.411   5.041  1.00  0.00    -0.387 OA
ATOM     25  H   UNL     1      46.282  56.836   4.504  1.00  0.00     0.211 HD
ENDBRANCH   3  24
BRANCH   5  26
ATOM     26  O   UNL     1      48.797  59.933   1.377  1.00  0.00    -0.454 OA
BRANCH  26  27
ATOM     27  C   UNL     1      49.504  61.135   1.292  1.00  0.00     0.214 A 
ATOM     28  C   UNL     1      50.716  61.204   0.581  1.00  0.00     0.180 A 
ATOM     29  C   UNL     1      49.004  62.297   1.902  1.00  0.00     0.239 A 
ATOM     30  O   UNL     1      51.357  62.366   0.485  1.00  0.00    -0.452 OA
ATOM     31  C   UNL     1      49.730  63.511   1.813  1.00  0.00     0.111 A 
ATOM     32  O   UNL     1      47.904  62.226   2.508  1.00  0.00    -0.285 OA
ATOM     33  C   UNL     1      50.925  63.490   1.048  1.00  0.00     0.146 A 
ATOM     34  C   UNL     1      49.324  64.745   2.408  1.00  0.00     0.134 A 
ATOM     35  C   UNL     1      51.671  64.658   0.864  1.00  0.00     0.094 A 
ATOM     36  C   UNL     1      50.070  65.906   2.173  1.00  0.00     0.093 A 
ATOM     37  C   UNL     1      51.243  65.865   1.415  1.00  0.00     0.123 A 
BRANCH  28  38
ATOM     38  C   UNL     1      51.286  60.033  -0.126  1.00  0.00     0.025 A 
ATOM     39  C   UNL     1      50.919  59.793  -1.459  1.00  0.00     0.062 A 
ATOM     40  C   UNL     1      52.203  59.164   0.493  1.00  0.00     0.016 A 
ATOM     41  C   UNL     1      51.422  58.681  -2.153  1.00  0.00     0.158 A 
ATOM     42  C   UNL     1      52.702  58.053  -0.194  1.00  0.00     0.051 A 
ATOM     43  C   UNL     1      52.311  57.800  -1.511  1.00  0.00     0.157 A 
BRANCH  41  44
ATOM     44  O   UNL     1      51.039  58.444  -3.473  1.00  0.00    -0.504 OA
ATOM     45  H   UNL     1      51.263  59.097  -4.215  1.00  0.00     0.293 HD
ENDBRANCH  41  44
BRANCH  43  46
ATOM     46  O   UNL     1      52.825  56.681  -2.171  1.00  0.00    -0.504 OA
ATOM     47  H   UNL     1      52.550  56.443  -3.117  1.00  0.00     0.293 HD
ENDBRANCH  43  46
ENDBRANCH  28  38
BRANCH  34  48
ATOM     48  O   UNL     1      48.214  64.884   3.247  1.00  0.00    -0.507 OA
ATOM     49  H   UNL     1      47.290  64.531   3.051  1.00  0.00     0.293 HD
ENDBRANCH  34  48
BRANCH  37  50
ATOM     50  O   UNL     1      51.993  67.019   1.205  1.00  0.00    -0.508 OA
ATOM     51  H   UNL     1      52.872  66.990   0.705  1.00  0.00     0.293 HD
ENDBRANCH  37  50
ENDBRANCH  26  27
ENDBRANCH   5  26
BRANCH   4  52
ATOM     52  O   UNL     1      47.190  59.837   3.635  1.00  0.00    -0.384 OA
ATOM     53  H   UNL     1      46.675  60.261   2.897  1.00  0.00     0.211 HD
ENDBRANCH   4  52
TORSDOF 16
ENDMDL
MODEL 5
REMARK VINA RESULT:    -9.401      2.061      5.411
REMARK INTER + INTRA:         -18.327
REMARK INTER:                 -15.983
REMARK INTRA:                  -2.344
REMARK UNBOUND:                -2.880
REMARK SMILES C[C@@H]1O[C@@H](OC[C@@H]2O[C@H](Oc3c(-c4ccc(O)c(O)c4)oc4cc(O)cc(O)c4c3=O)[C@H](O)[C@H](O)[C@@H]2O)[C@@H](O)[C@H](O)[C@H]1O
REMARK SMILES IDX 7 1 36 2 34 3 32 4 9 5 8 6 6 7 5 8 4 9 1 10 2 11 42 12 3 13
REMARK SMILES IDX 40 14 38 15 43 16 41 18 39 20 37 22 35 24 10 26 11 27 12 28
REMARK SMILES IDX 30 29 21 30 29 31 31 32 22 33 27 34 23 35 26 36 24 37 13 38
REMARK SMILES IDX 20 39 14 40 18 41 15 42 16 43 19 44 17 46 28 48 25 50 33 52
REMARK H PARENT 43 17 41 19 39 21 37 23 35 25 19 45 17 47 28 49 25 51 33 53
REMARK Flexibility Score: inf
ROOT
ATOM      1  C   UNL     1      49.476  59.042   5.237  1.00  0.00     0.180 C 
ATOM      2  C   UNL     1      48.231  58.491   5.978  1.00  0.00     0.177 C 
ATOM      3  C   UNL     1      47.276  57.827   4.972  1.00  0.00     0.180 C 
ATOM      4  C   UNL     1      47.003  58.769   3.778  1.00  0.00     0.214 C 
ATOM      5  C   UNL     1      48.346  59.248   3.202  1.00  0.00     0.339 C 
ATOM      6  O   UNL     1      49.100  59.928   4.192  1.00  0.00    -0.332 OA
ENDROOT
BRANCH   1   7
ATOM      7  C   UNL     1      50.409  59.778   6.205  1.00  0.00     0.198 C 
BRANCH   7   8
ATOM      8  O   UNL     1      51.719  59.824   5.658  1.00  0.00    -0.347 OA
BRANCH   8   9
ATOM      9  C   UNL     1      52.701  59.449   6.608  1.00  0.00     0.281 C 
ATOM     10  C   UNL     1      53.568  60.827   9.343  1.00  0.00     0.041 C 
ATOM     11  C   UNL     1      54.300  60.409   8.061  1.00  0.00     0.150 C 
ATOM     12  C   UNL     1      54.894  58.969   8.169  1.00  0.00     0.174 C 
ATOM     13  O   UNL     1      53.459  60.602   6.924  1.00  0.00    -0.344 OA
ATOM     14  C   UNL     1      55.012  58.355   6.758  1.00  0.00     0.179 C 
ATOM     15  C   UNL     1      53.638  58.346   6.041  1.00  0.00     0.202 C 
BRANCH  12  16
ATOM     16  O   UNL     1      56.136  58.981   8.827  1.00  0.00    -0.388 OA
ATOM     17  H   UNL     1      56.781  58.478   8.264  1.00  0.00     0.211 HD
ENDBRANCH  12  16
BRANCH  14  18
ATOM     18  O   UNL     1      55.563  57.062   6.808  1.00  0.00    -0.387 OA
ATOM     19  H   UNL     1      56.226  56.985   6.073  1.00  0.00     0.211 HD
ENDBRANCH  14  18
BRANCH  15  20
ATOM     20  O   UNL     1      53.846  58.544   4.660  1.00  0.00    -0.385 OA
ATOM     21  H   UNL     1      54.698  59.044   4.555  1.00  0.00     0.211 HD
ENDBRANCH  15  20
ENDBRANCH   8   9
ENDBRANCH   7   8
ENDBRANCH   1   7
BRANCH   2  22
ATOM     22  O   UNL     1      47.558  59.530   6.648  1.00  0.00    -0.387 OA
ATOM     23  H   UNL     1      47.158  59.147   7.477  1.00  0.00     0.211 HD
ENDBRANCH   2  22
BRANCH   3  24
ATOM     24  O   UNL     1      46.082  57.464   5.615  1.00  0.00    -0.387 OA
ATOM     25  H   UNL     1      46.230  56.563   6.002  1.00  0.00     0.211 HD
ENDBRANCH   3  24
BRANCH   5  26
ATOM     26  O   UNL     1      48.100  60.159   2.136  1.00  0.00    -0.454 OA
BRANCH  26  27
ATOM     27  C   UNL     1      48.667  61.436   2.090  1.00  0.00     0.214 A 
ATOM     28  C   UNL     1      49.945  61.631   1.536  1.00  0.00     0.180 A 
ATOM     29  C   UNL     1      47.959  62.544   2.582  1.00  0.00     0.239 A 
ATOM     30  O   UNL     1      50.452  62.860   1.472  1.00  0.00    -0.452 OA
ATOM     31  C   UNL     1      48.544  63.834   2.534  1.00  0.00     0.111 A 
ATOM     32  O   UNL     1      46.806  62.357   3.046  1.00  0.00    -0.285 OA
ATOM     33  C   UNL     1      49.823  63.938   1.928  1.00  0.00     0.146 A 
ATOM     34  C   UNL     1      47.923  65.027   3.020  1.00  0.00     0.134 A 
ATOM     35  C   UNL     1      50.445  65.182   1.790  1.00  0.00     0.094 A 
ATOM     36  C   UNL     1      48.552  66.263   2.831  1.00  0.00     0.093 A 
ATOM     37  C   UNL     1      49.810  66.343   2.231  1.00  0.00     0.123 A 
BRANCH  28  38
ATOM     38  C   UNL     1      50.735  60.519   0.957  1.00  0.00     0.025 A 
ATOM     39  C   UNL     1      51.859  60.045   1.652  1.00  0.00     0.062 A 
ATOM     40  C   UNL     1      50.381  59.909  -0.259  1.00  0.00     0.016 A 
ATOM     41  C   UNL     1      52.644  59.008   1.123  1.00  0.00     0.158 A 
ATOM     42  C   UNL     1      51.165  58.880  -0.791  1.00  0.00     0.051 A 
ATOM     43  C   UNL     1      52.300  58.431  -0.112  1.00  0.00     0.157 A 
BRANCH  41  44
ATOM     44  O   UNL     1      53.767  58.554   1.815  1.00  0.00    -0.504 OA
ATOM     45  H   UNL     1      53.802  58.553   2.827  1.00  0.00     0.293 HD
ENDBRANCH  41  44
BRANCH  43  46
ATOM     46  O   UNL     1      53.064  57.402  -0.669  1.00  0.00    -0.504 OA
ATOM     47  H   UNL     1      53.940  57.583  -1.145  1.00  0.00     0.293 HD
ENDBRANCH  43  46
ENDBRANCH  28  38
BRANCH  34  48
ATOM     48  O   UNL     1      46.704  65.053   3.705  1.00  0.00    -0.507 OA
ATOM     49  H   UNL     1      45.892  64.504   3.467  1.00  0.00     0.293 HD
ENDBRANCH  34  48
BRANCH  37  50
ATOM     50  O   UNL     1      50.442  67.574   2.068  1.00  0.00    -0.508 OA
ATOM     51  H   UNL     1      51.145  67.893   2.721  1.00  0.00     0.293 HD
ENDBRANCH  37  50
ENDBRANCH  26  27
ENDBRANCH   5  26
BRANCH   4  52
ATOM     52  O   UNL     1      46.245  59.887   4.179  1.00  0.00    -0.384 OA
ATOM     53  H   UNL     1      45.659  59.589   4.926  1.00  0.00     0.211 HD
ENDBRANCH   4  52
TORSDOF 16
ENDMDL
MODEL 6
REMARK VINA RESULT:    -9.227      1.797      7.363
REMARK INTER + INTRA:         -18.040
REMARK INTER:                 -15.908
REMARK INTRA:                  -2.132
REMARK UNBOUND:                -2.880
REMARK SMILES C[C@@H]1O[C@@H](OC[C@@H]2O[C@H](Oc3c(-c4ccc(O)c(O)c4)oc4cc(O)cc(O)c4c3=O)[C@H](O)[C@H](O)[C@@H]2O)[C@@H](O)[C@H](O)[C@H]1O
REMARK SMILES IDX 7 1 36 2 34 3 32 4 9 5 8 6 6 7 5 8 4 9 1 10 2 11 42 12 3 13
REMARK SMILES IDX 40 14 38 15 43 16 41 18 39 20 37 22 35 24 10 26 11 27 12 28
REMARK SMILES IDX 30 29 21 30 29 31 31 32 22 33 27 34 23 35 26 36 24 37 13 38
REMARK SMILES IDX 20 39 14 40 18 41 15 42 16 43 19 44 17 46 28 48 25 50 33 52
REMARK H PARENT 43 17 41 19 39 21 37 23 35 25 19 45 17 47 28 49 25 51 33 53
REMARK Flexibility Score: inf
ROOT
ATOM      1  C   UNL     1      52.771  62.100   2.429  1.00  0.00     0.180 C 
ATOM      2  C   UNL     1      52.732  63.409   1.601  1.00  0.00     0.177 C 
ATOM      3  C   UNL     1      52.813  64.624   2.541  1.00  0.00     0.180 C 
ATOM      4  C   UNL     1      51.776  64.501   3.680  1.00  0.00     0.214 C 
ATOM      5  C   UNL     1      51.935  63.128   4.354  1.00  0.00     0.339 C 
ATOM      6  O   UNL     1      51.746  62.084   3.413  1.00  0.00    -0.332 OA
ENDROOT
BRANCH   1   7
ATOM      7  C   UNL     1      52.613  60.874   1.524  1.00  0.00     0.198 C 
BRANCH   7   8
ATOM      8  O   UNL     1      53.490  60.988   0.412  1.00  0.00    -0.347 OA
BRANCH   8   9
ATOM      9  C   UNL     1      53.223  60.007  -0.574  1.00  0.00     0.281 C 
ATOM     10  C   UNL     1      50.567  59.397  -2.220  1.00  0.00     0.041 C 
ATOM     11  C   UNL     1      51.488  58.577  -1.306  1.00  0.00     0.150 C 
ATOM     12  C   UNL     1      52.599  57.834  -2.112  1.00  0.00     0.174 C 
ATOM     13  O   UNL     1      51.989  59.391  -0.247  1.00  0.00    -0.344 OA
ATOM     14  C   UNL     1      53.822  57.596  -1.200  1.00  0.00     0.179 C 
ATOM     15  C   UNL     1      54.346  58.934  -0.618  1.00  0.00     0.202 C 
BRANCH  12  16
ATOM     16  O   UNL     1      52.118  56.625  -2.644  1.00  0.00    -0.388 OA
ATOM     17  H   UNL     1      52.894  56.017  -2.766  1.00  0.00     0.211 HD
ENDBRANCH  12  16
BRANCH  14  18
ATOM     18  O   UNL     1      54.842  56.909  -1.882  1.00  0.00    -0.387 OA
ATOM     19  H   UNL     1      55.557  56.697  -1.226  1.00  0.00     0.211 HD
ENDBRANCH  14  18
BRANCH  15  20
ATOM     20  O   UNL     1      54.849  58.698   0.679  1.00  0.00    -0.385 OA
ATOM     21  H   UNL     1      54.608  57.766   0.928  1.00  0.00     0.211 HD
ENDBRANCH  15  20
ENDBRANCH   8   9
ENDBRANCH   7   8
ENDBRANCH   1   7
BRANCH   2  22
ATOM     22  O   UNL     1      51.545  63.479   0.847  1.00  0.00    -0.387 OA
ATOM     23  H   UNL     1      51.702  64.111   0.093  1.00  0.00     0.211 HD
ENDBRANCH   2  22
BRANCH   3  24
ATOM     24  O   UNL     1      52.624  65.808   1.809  1.00  0.00    -0.387 OA
ATOM     25  H   UNL     1      53.434  65.927   1.249  1.00  0.00     0.211 HD
ENDBRANCH   3  24
BRANCH   5  26
ATOM     26  O   UNL     1      50.946  62.988   5.369  1.00  0.00    -0.454 OA
BRANCH  26  27
ATOM     27  C   UNL     1      50.088  61.886   5.437  1.00  0.00     0.214 A 
ATOM     28  C   UNL     1      50.465  60.728   6.140  1.00  0.00     0.180 A 
ATOM     29  C   UNL     1      48.828  61.930   4.817  1.00  0.00     0.239 A 
ATOM     30  O   UNL     1      49.619  59.704   6.220  1.00  0.00    -0.452 OA
ATOM     31  C   UNL     1      47.966  60.807   4.890  1.00  0.00     0.111 A 
ATOM     32  O   UNL     1      48.494  62.984   4.219  1.00  0.00    -0.285 OA
ATOM     33  C   UNL     1      48.420  59.697   5.648  1.00  0.00     0.146 A 
ATOM     34  C   UNL     1      46.674  60.735   4.284  1.00  0.00     0.134 A 
ATOM     35  C   UNL     1      47.607  58.571   5.815  1.00  0.00     0.094 A 
ATOM     36  C   UNL     1      45.867  59.613   4.503  1.00  0.00     0.093 A 
ATOM     37  C   UNL     1      46.331  58.531   5.254  1.00  0.00     0.123 A 
BRANCH  28  38
ATOM     38  C   UNL     1      51.758  60.622   6.856  1.00  0.00     0.025 A 
ATOM     39  C   UNL     1      51.850  61.090   8.176  1.00  0.00     0.062 A 
ATOM     40  C   UNL     1      52.894  60.047   6.259  1.00  0.00     0.016 A 
ATOM     41  C   UNL     1      53.064  61.025   8.878  1.00  0.00     0.158 A 
ATOM     42  C   UNL     1      54.106  59.987   6.953  1.00  0.00     0.051 A 
ATOM     43  C   UNL     1      54.202  60.480   8.256  1.00  0.00     0.157 A 
BRANCH  41  44
ATOM     44  O   UNL     1      53.147  61.506  10.184  1.00  0.00    -0.504 OA
ATOM     45  H   UNL     1      53.913  62.097  10.484  1.00  0.00     0.293 HD
ENDBRANCH  41  44
BRANCH  43  46
ATOM     46  O   UNL     1      55.427  60.408   8.924  1.00  0.00    -0.504 OA
ATOM     47  H   UNL     1      55.684  59.607   9.488  1.00  0.00     0.293 HD
ENDBRANCH  43  46
ENDBRANCH  28  38
BRANCH  34  48
ATOM     48  O   UNL     1      46.142  61.725   3.450  1.00  0.00    -0.507 OA
ATOM     49  H   UNL     1      46.347  61.829   2.469  1.00  0.00     0.293 HD
ENDBRANCH  34  48
BRANCH  37  50
ATOM     50  O   UNL     1      45.532  57.406   5.448  1.00  0.00    -0.508 OA
ATOM     51  H   UNL     1      45.210  56.850   4.667  1.00  0.00     0.293 HD
ENDBRANCH  37  50
ENDBRANCH  26  27
ENDBRANCH   5  26
BRANCH   4  52
ATOM     52  O   UNL     1      50.463  64.625   3.184  1.00  0.00    -0.384 OA
ATOM     53  H   UNL     1      49.850  64.313   3.903  1.00  0.00     0.211 HD
ENDBRANCH   4  52
TORSDOF 16
ENDMDL
MODEL 7
REMARK VINA RESULT:    -9.197      1.945      7.621
REMARK INTER + INTRA:         -17.992
REMARK INTER:                 -16.195
REMARK INTRA:                  -1.797
REMARK UNBOUND:                -2.880
REMARK SMILES C[C@@H]1O[C@@H](OC[C@@H]2O[C@H](Oc3c(-c4ccc(O)c(O)c4)oc4cc(O)cc(O)c4c3=O)[C@H](O)[C@H](O)[C@@H]2O)[C@@H](O)[C@H](O)[C@H]1O
REMARK SMILES IDX 7 1 36 2 34 3 32 4 9 5 8 6 6 7 5 8 4 9 1 10 2 11 42 12 3 13
REMARK SMILES IDX 40 14 38 15 43 16 41 18 39 20 37 22 35 24 10 26 11 27 12 28
REMARK SMILES IDX 30 29 21 30 29 31 31 32 22 33 27 34 23 35 26 36 24 37 13 38
REMARK SMILES IDX 20 39 14 40 18 41 15 42 16 43 19 44 17 46 28 48 25 50 33 52
REMARK H PARENT 43 17 41 19 39 21 37 23 35 25 19 45 17 47 28 49 25 51 33 53
REMARK Flexibility Score: inf
ROOT
ATOM      1  C   UNL     1      51.862  62.739   1.089  1.00  0.00     0.180 C 
ATOM      2  C   UNL     1      51.981  64.075   0.313  1.00  0.00     0.177 C 
ATOM      3  C   UNL     1      52.274  65.224   1.293  1.00  0.00     0.180 C 
ATOM      4  C   UNL     1      51.275  65.202   2.471  1.00  0.00     0.214 C 
ATOM      5  C   UNL     1      51.259  63.792   3.086  1.00  0.00     0.339 C 
ATOM      6  O   UNL     1      50.885  62.828   2.116  1.00  0.00    -0.332 OA
ENDROOT
BRANCH   1   7
ATOM      7  C   UNL     1      51.494  61.588   0.147  1.00  0.00     0.198 C 
BRANCH   7   8
ATOM      8  O   UNL     1      52.602  61.285  -0.688  1.00  0.00    -0.347 OA
BRANCH   8   9
ATOM      9  C   UNL     1      52.791  59.887  -0.826  1.00  0.00     0.281 C 
ATOM     10  C   UNL     1      55.359  58.084  -0.289  1.00  0.00     0.041 C 
ATOM     11  C   UNL     1      54.434  58.323  -1.490  1.00  0.00     0.150 C 
ATOM     12  C   UNL     1      53.264  57.291  -1.542  1.00  0.00     0.174 C 
ATOM     13  O   UNL     1      54.007  59.684  -1.524  1.00  0.00    -0.344 OA
ATOM     14  C   UNL     1      52.065  57.913  -2.288  1.00  0.00     0.179 C 
ATOM     15  C   UNL     1      51.620  59.237  -1.614  1.00  0.00     0.202 C 
BRANCH  12  16
ATOM     16  O   UNL     1      53.673  56.090  -2.145  1.00  0.00    -0.388 OA
ATOM     17  H   UNL     1      54.463  55.753  -1.646  1.00  0.00     0.211 HD
ENDBRANCH  12  16
BRANCH  14  18
ATOM     18  O   UNL     1      50.992  57.007  -2.374  1.00  0.00    -0.387 OA
ATOM     19  H   UNL     1      50.964  56.659  -3.304  1.00  0.00     0.211 HD
ENDBRANCH  14  18
BRANCH  15  20
ATOM     20  O   UNL     1      51.153  60.118  -2.612  1.00  0.00    -0.385 OA
ATOM     21  H   UNL     1      50.376  59.683  -3.055  1.00  0.00     0.211 HD
ENDBRANCH  15  20
ENDBRANCH   8   9
ENDBRANCH   7   8
ENDBRANCH   1   7
BRANCH   2  22
ATOM     22  O   UNL     1      50.788  64.347  -0.385  1.00  0.00    -0.387 OA
ATOM     23  H   UNL     1      50.906  64.027  -1.321  1.00  0.00     0.211 HD
ENDBRANCH   2  22
BRANCH   3  24
ATOM     24  O   UNL     1      52.230  66.453   0.614  1.00  0.00    -0.387 OA
ATOM     25  H   UNL     1      52.224  67.161   1.309  1.00  0.00     0.211 HD
ENDBRANCH   3  24
BRANCH   5  26
ATOM     26  O   UNL     1      50.301  63.751   4.138  1.00  0.00    -0.454 OA
BRANCH  26  27
ATOM     27  C   UNL     1      49.253  62.827   4.167  1.00  0.00     0.214 A 
ATOM     28  C   UNL     1      49.454  61.533   4.679  1.00  0.00     0.180 A 
ATOM     29  C   UNL     1      47.978  63.185   3.697  1.00  0.00     0.239 A 
ATOM     30  O   UNL     1      48.434  60.679   4.727  1.00  0.00    -0.452 OA
ATOM     31  C   UNL     1      46.923  62.240   3.728  1.00  0.00     0.111 A 
ATOM     32  O   UNL     1      47.807  64.356   3.271  1.00  0.00    -0.285 OA
ATOM     33  C   UNL     1      47.213  60.971   4.293  1.00  0.00     0.146 A 
ATOM     34  C   UNL     1      45.595  62.491   3.263  1.00  0.00     0.134 A 
ATOM     35  C   UNL     1      46.213  60.001   4.411  1.00  0.00     0.094 A 
ATOM     36  C   UNL     1      44.605  61.515   3.432  1.00  0.00     0.093 A 
ATOM     37  C   UNL     1      44.911  60.273   3.992  1.00  0.00     0.123 A 
BRANCH  28  38
ATOM     38  C   UNL     1      50.757  61.094   5.232  1.00  0.00     0.025 A 
ATOM     39  C   UNL     1      51.560  60.222   4.480  1.00  0.00     0.062 A 
ATOM     40  C   UNL     1      51.225  61.542   6.480  1.00  0.00     0.016 A 
ATOM     41  C   UNL     1      52.791  59.768   4.981  1.00  0.00     0.158 A 
ATOM     42  C   UNL     1      52.447  61.086   6.984  1.00  0.00     0.051 A 
ATOM     43  C   UNL     1      53.230  60.195   6.247  1.00  0.00     0.157 A 
BRANCH  41  44
ATOM     44  O   UNL     1      53.574  58.891   4.232  1.00  0.00    -0.504 OA
ATOM     45  H   UNL     1      53.927  59.144   3.317  1.00  0.00     0.293 HD
ENDBRANCH  41  44
BRANCH  43  46
ATOM     46  O   UNL     1      54.446  59.757   6.778  1.00  0.00    -0.504 OA
ATOM     47  H   UNL     1      55.304  59.777   6.240  1.00  0.00     0.293 HD
ENDBRANCH  43  46
ENDBRANCH  28  38
BRANCH  34  48
ATOM     48  O   UNL     1      45.198  63.667   2.618  1.00  0.00    -0.507 OA
ATOM     49  H   UNL     1      44.594  64.370   3.012  1.00  0.00     0.293 HD
ENDBRANCH  34  48
BRANCH  37  50
ATOM     50  O   UNL     1      43.927  59.297   4.135  1.00  0.00    -0.508 OA
ATOM     51  H   UNL     1      43.493  58.867   3.329  1.00  0.00     0.293 HD
ENDBRANCH  37  50
ENDBRANCH  26  27
ENDBRANCH   5  26
BRANCH   4  52
ATOM     52  O   UNL     1      49.975  65.534   2.039  1.00  0.00    -0.384 OA
ATOM     53  H   UNL     1      49.907  65.263   1.084  1.00  0.00     0.211 HD
ENDBRANCH   4  52
TORSDOF 16
ENDMDL
MODEL 8
REMARK VINA RESULT:    -9.060      2.375      6.009
REMARK INTER + INTRA:         -17.765
REMARK INTER:                 -15.771
REMARK INTRA:                  -1.994
REMARK UNBOUND:                -2.880
REMARK SMILES C[C@@H]1O[C@@H](OC[C@@H]2O[C@H](Oc3c(-c4ccc(O)c(O)c4)oc4cc(O)cc(O)c4c3=O)[C@H](O)[C@H](O)[C@@H]2O)[C@@H](O)[C@H](O)[C@H]1O
REMARK SMILES IDX 7 1 36 2 34 3 32 4 9 5 8 6 6 7 5 8 4 9 1 10 2 11 42 12 3 13
REMARK SMILES IDX 40 14 38 15 43 16 41 18 39 20 37 22 35 24 10 26 11 27 12 28
REMARK SMILES IDX 30 29 21 30 29 31 31 32 22 33 27 34 23 35 26 36 24 37 13 38
REMARK SMILES IDX 20 39 14 40 18 41 15 42 16 43 19 44 17 46 28 48 25 50 33 52
REMARK H PARENT 43 17 41 19 39 21 37 23 35 25 19 45 17 47 28 49 25 51 33 53
REMARK Flexibility Score: inf
ROOT
ATOM      1  C   UNL     1      49.804  59.471   5.051  1.00  0.00     0.180 C 
ATOM      2  C   UNL     1      48.769  58.710   5.917  1.00  0.00     0.177 C 
ATOM      3  C   UNL     1      47.784  57.953   5.009  1.00  0.00     0.180 C 
ATOM      4  C   UNL     1      47.212  58.893   3.925  1.00  0.00     0.214 C 
ATOM      5  C   UNL     1      48.378  59.591   3.204  1.00  0.00     0.339 C 
ATOM      6  O   UNL     1      49.161  60.334   4.124  1.00  0.00    -0.332 OA
ENDROOT
BRANCH   1   7
ATOM      7  C   UNL     1      50.751  60.297   5.929  1.00  0.00     0.198 C 
BRANCH   7   8
ATOM      8  O   UNL     1      51.103  59.549   7.083  1.00  0.00    -0.347 OA
BRANCH   8   9
ATOM      9  C   UNL     1      52.497  59.586   7.331  1.00  0.00     0.281 C 
ATOM     10  C   UNL     1      54.775  57.465   6.662  1.00  0.00     0.041 C 
ATOM     11  C   UNL     1      54.283  58.161   7.938  1.00  0.00     0.150 C 
ATOM     12  C   UNL     1      55.077  59.473   8.231  1.00  0.00     0.174 C 
ATOM     13  O   UNL     1      52.869  58.339   7.893  1.00  0.00    -0.344 OA
ATOM     14  C   UNL     1      54.192  60.434   9.053  1.00  0.00     0.179 C 
ATOM     15  C   UNL     1      52.862  60.732   8.314  1.00  0.00     0.202 C 
BRANCH  12  16
ATOM     16  O   UNL     1      56.285  59.199   8.893  1.00  0.00    -0.388 OA
ATOM     17  H   UNL     1      56.506  58.243   8.737  1.00  0.00     0.211 HD
ENDBRANCH  12  16
BRANCH  14  18
ATOM     18  O   UNL     1      54.877  61.625   9.356  1.00  0.00    -0.387 OA
ATOM     19  H   UNL     1      54.201  62.342   9.478  1.00  0.00     0.211 HD
ENDBRANCH  14  18
BRANCH  15  20
ATOM     20  O   UNL     1      51.840  60.899   9.272  1.00  0.00    -0.385 OA
ATOM     21  H   UNL     1      51.420  61.785   9.109  1.00  0.00     0.211 HD
ENDBRANCH  15  20
ENDBRANCH   8   9
ENDBRANCH   7   8
ENDBRANCH   1   7
BRANCH   2  22
ATOM     22  O   UNL     1      48.056  59.607   6.736  1.00  0.00    -0.387 OA
ATOM     23  H   UNL     1      47.440  60.127   6.150  1.00  0.00     0.211 HD
ENDBRANCH   2  22
BRANCH   3  24
ATOM     24  O   UNL     1      46.757  57.389   5.783  1.00  0.00    -0.387 OA
ATOM     25  H   UNL     1      47.174  56.671   6.327  1.00  0.00     0.211 HD
ENDBRANCH   3  24
BRANCH   5  26
ATOM     26  O   UNL     1      47.855  60.500   2.240  1.00  0.00    -0.454 OA
BRANCH  26  27
ATOM     27  C   UNL     1      48.147  61.867   2.256  1.00  0.00     0.214 A 
ATOM     28  C   UNL     1      49.327  62.353   1.666  1.00  0.00     0.180 A 
ATOM     29  C   UNL     1      47.255  62.775   2.849  1.00  0.00     0.239 A 
ATOM     30  O   UNL     1      49.570  63.661   1.664  1.00  0.00    -0.452 OA
ATOM     31  C   UNL     1      47.562  64.158   2.863  1.00  0.00     0.111 A 
ATOM     32  O   UNL     1      46.190  62.327   3.345  1.00  0.00    -0.285 OA
ATOM     33  C   UNL     1      48.759  64.558   2.215  1.00  0.00     0.146 A 
ATOM     34  C   UNL     1      46.737  65.167   3.452  1.00  0.00     0.134 A 
ATOM     35  C   UNL     1      49.107  65.910   2.136  1.00  0.00     0.094 A 
ATOM     36  C   UNL     1      47.090  66.515   3.321  1.00  0.00     0.093 A 
ATOM     37  C   UNL     1      48.273  66.888   2.677  1.00  0.00     0.123 A 
BRANCH  28  38
ATOM     38  C   UNL     1      50.297  61.463   0.984  1.00  0.00     0.025 A 
ATOM     39  C   UNL     1      50.099  61.145  -0.369  1.00  0.00     0.062 A 
ATOM     40  C   UNL     1      51.423  60.942   1.646  1.00  0.00     0.016 A 
ATOM     41  C   UNL     1      50.984  60.288  -1.042  1.00  0.00     0.158 A 
ATOM     42  C   UNL     1      52.303  60.084   0.980  1.00  0.00     0.051 A 
ATOM     43  C   UNL     1      52.087  59.746  -0.358  1.00  0.00     0.157 A 
BRANCH  41  44
ATOM     44  O   UNL     1      50.770  59.968  -2.382  1.00  0.00    -0.504 OA
ATOM     45  H   UNL     1      50.963  59.042  -2.743  1.00  0.00     0.293 HD
ENDBRANCH  41  44
BRANCH  43  46
ATOM     46  O   UNL     1      52.983  58.884  -0.996  1.00  0.00    -0.504 OA
ATOM     47  H   UNL     1      52.719  58.346  -1.813  1.00  0.00     0.293 HD
ENDBRANCH  43  46
ENDBRANCH  28  38
BRANCH  34  48
ATOM     48  O   UNL     1      45.576  64.901   4.185  1.00  0.00    -0.507 OA
ATOM     49  H   UNL     1      44.813  65.546   4.318  1.00  0.00     0.293 HD
ENDBRANCH  34  48
BRANCH  37  50
ATOM     50  O   UNL     1      48.631  68.230   2.572  1.00  0.00    -0.508 OA
ATOM     51  H   UNL     1      48.416  68.766   1.742  1.00  0.00     0.293 HD
ENDBRANCH  37  50
ENDBRANCH  26  27
ENDBRANCH   5  26
BRANCH   4  52
ATOM     52  O   UNL     1      46.368  59.867   4.493  1.00  0.00    -0.384 OA
ATOM     53  H   UNL     1      46.560  60.726   4.028  1.00  0.00     0.211 HD
ENDBRANCH   4  52
TORSDOF 16
ENDMDL
MODEL 9
REMARK VINA RESULT:    -9.016      2.074      6.547
REMARK INTER + INTRA:         -17.694
REMARK INTER:                 -15.143
REMARK INTRA:                  -2.551
REMARK UNBOUND:                -2.880
REMARK SMILES C[C@@H]1O[C@@H](OC[C@@H]2O[C@H](Oc3c(-c4ccc(O)c(O)c4)oc4cc(O)cc(O)c4c3=O)[C@H](O)[C@H](O)[C@@H]2O)[C@@H](O)[C@H](O)[C@H]1O
REMARK SMILES IDX 7 1 36 2 34 3 32 4 9 5 8 6 6 7 5 8 4 9 1 10 2 11 42 12 3 13
REMARK SMILES IDX 40 14 38 15 43 16 41 18 39 20 37 22 35 24 10 26 11 27 12 28
REMARK SMILES IDX 30 29 21 30 29 31 31 32 22 33 27 34 23 35 26 36 24 37 13 38
REMARK SMILES IDX 20 39 14 40 18 41 15 42 16 43 19 44 17 46 28 48 25 50 33 52
REMARK H PARENT 43 17 41 19 39 21 37 23 35 25 19 45 17 47 28 49 25 51 33 53
REMARK Flexibility Score: inf
ROOT
ATOM      1  C   UNL     1      48.111  59.134   3.162  1.00  0.00     0.180 C 
ATOM      2  C   UNL     1      47.617  57.963   4.048  1.00  0.00     0.177 C 
ATOM      3  C   UNL     1      46.947  58.516   5.318  1.00  0.00     0.180 C 
ATOM      4  C   UNL     1      47.859  59.557   6.004  1.00  0.00     0.214 C 
ATOM      5  C   UNL     1      48.284  60.609   4.966  1.00  0.00     0.339 C 
ATOM      6  O   UNL     1      48.974  59.998   3.888  1.00  0.00    -0.332 OA
ENDROOT
BRANCH   1   7
ATOM      7  C   UNL     1      48.852  58.612   1.926  1.00  0.00     0.198 C 
BRANCH   7   8
ATOM      8  O   UNL     1      50.253  58.677   2.149  1.00  0.00    -0.347 OA
BRANCH   8   9
ATOM      9  C   UNL     1      50.877  59.638   1.316  1.00  0.00     0.281 C 
ATOM     10  C   UNL     1      49.888  62.513   0.374  1.00  0.00     0.041 C 
ATOM     11  C   UNL     1      50.347  61.236  -0.343  1.00  0.00     0.150 C 
ATOM     12  C   UNL     1      51.877  61.255  -0.648  1.00  0.00     0.174 C 
ATOM     13  O   UNL     1      49.915  60.082   0.375  1.00  0.00    -0.344 OA
ATOM     14  C   UNL     1      52.401  59.806  -0.736  1.00  0.00     0.179 C 
ATOM     15  C   UNL     1      52.095  59.027   0.570  1.00  0.00     0.202 C 
BRANCH  12  16
ATOM     16  O   UNL     1      52.151  61.969  -1.828  1.00  0.00    -0.388 OA
ATOM     17  H   UNL     1      52.559  61.336  -2.477  1.00  0.00     0.211 HD
ENDBRANCH  12  16
BRANCH  14  18
ATOM     18  O   UNL     1      53.776  59.776  -1.029  1.00  0.00    -0.387 OA
ATOM     19  H   UNL     1      54.044  58.826  -1.134  1.00  0.00     0.211 HD
ENDBRANCH  14  18
BRANCH  15  20
ATOM     20  O   UNL     1      51.844  57.678   0.244  1.00  0.00    -0.385 OA
ATOM     21  H   UNL     1      50.871  57.516   0.369  1.00  0.00     0.211 HD
ENDBRANCH  15  20
ENDBRANCH   8   9
ENDBRANCH   7   8
ENDBRANCH   1   7
BRANCH   2  22
ATOM     22  O   UNL     1      48.694  57.131   4.410  1.00  0.00    -0.387 OA
ATOM     23  H   UNL     1      49.275  57.644   5.036  1.00  0.00     0.211 HD
ENDBRANCH   2  22
BRANCH   3  24
ATOM     24  O   UNL     1      46.637  57.461   6.192  1.00  0.00    -0.387 OA
ATOM     25  H   UNL     1      46.202  56.757   5.644  1.00  0.00     0.211 HD
ENDBRANCH   3  24
BRANCH   5  26
ATOM     26  O   UNL     1      49.168  61.542   5.579  1.00  0.00    -0.454 OA
BRANCH  26  27
ATOM     27  C   UNL     1      49.847  62.526   4.855  1.00  0.00     0.214 A 
ATOM     28  C   UNL     1      51.252  62.576   4.861  1.00  0.00     0.180 A 
ATOM     29  C   UNL     1      49.133  63.468   4.097  1.00  0.00     0.239 A 
ATOM     30  O   UNL     1      51.880  63.500   4.137  1.00  0.00    -0.452 OA
ATOM     31  C   UNL     1      49.831  64.463   3.368  1.00  0.00     0.111 A 
ATOM     32  O   UNL     1      47.878  63.391   4.078  1.00  0.00    -0.285 OA
ATOM     33  C   UNL     1      51.248  64.414   3.409  1.00  0.00     0.146 A 
ATOM     34  C   UNL     1      49.207  65.479   2.579  1.00  0.00     0.134 A 
ATOM     35  C   UNL     1      52.012  65.325   2.673  1.00  0.00     0.094 A 
ATOM     36  C   UNL     1      49.997  66.351   1.822  1.00  0.00     0.093 A 
ATOM     37  C   UNL     1      51.391  66.285   1.874  1.00  0.00     0.123 A 
BRANCH  28  38
ATOM     38  C   UNL     1      52.077  61.591   5.600  1.00  0.00     0.025 A 
ATOM     39  C   UNL     1      52.627  60.501   4.907  1.00  0.00     0.062 A 
ATOM     40  C   UNL     1      52.343  61.726   6.975  1.00  0.00     0.016 A 
ATOM     41  C   UNL     1      53.395  59.537   5.579  1.00  0.00     0.158 A 
ATOM     42  C   UNL     1      53.103  60.764   7.647  1.00  0.00     0.051 A 
ATOM     43  C   UNL     1      53.624  59.665   6.961  1.00  0.00     0.157 A 
BRANCH  41  44
ATOM     44  O   UNL     1      53.925  58.451   4.884  1.00  0.00    -0.504 OA
ATOM     45  H   UNL     1      54.884  58.153   5.017  1.00  0.00     0.293 HD
ENDBRANCH  41  44
BRANCH  43  46
ATOM     46  O   UNL     1      54.377  58.719   7.661  1.00  0.00    -0.504 OA
ATOM     47  H   UNL     1      55.218  58.972   8.167  1.00  0.00     0.293 HD
ENDBRANCH  43  46
ENDBRANCH  28  38
BRANCH  34  48
ATOM     48  O   UNL     1      47.825  65.685   2.516  1.00  0.00    -0.507 OA
ATOM     49  H   UNL     1      47.331  66.069   1.726  1.00  0.00     0.293 HD
ENDBRANCH  34  48
BRANCH  37  50
ATOM     50  O   UNL     1      52.173  67.172   1.136  1.00  0.00    -0.508 OA
ATOM     51  H   UNL     1      51.841  67.563   0.264  1.00  0.00     0.293 HD
ENDBRANCH  37  50
ENDBRANCH  26  27
ENDBRANCH   5  26
BRANCH   4  52
ATOM     52  O   UNL     1      49.008  58.947   6.543  1.00  0.00    -0.384 OA
ATOM     53  H   UNL     1      49.135  58.086   6.061  1.00  0.00     0.211 HD
ENDBRANCH   4  52
TORSDOF 16
ENDMDL
