MODEL 1
REMARK VINA RESULT:    -2.547      0.000      0.000
REMARK INTER + INTRA:          -7.372
REMARK INTER:                  -5.525
REMARK INTRA:                  -1.848
REMARK UNBOUND:                -1.848
REMARK SMILES CCCCCCCCCCCCCCCCCCCCCC(=O)[O-]
REMARK SMILES IDX 12 1 11 2 10 3 9 4 8 5 7 6 6 7 5 8 4 9 3 10 2 11 1 12 13 13
REMARK SMILES IDX 14 14 15 15 16 16 17 17 18 18 19 19 20 20 21 21 22 22 23 23
REMARK SMILES IDX 24 24
REMARK H PARENT
REMARK Flexibility Score: inf
ROOT
ATOM      1  C   UNL     1       5.845 -35.800  24.381  1.00  0.00     0.000 C 
ENDROOT
BRANCH   1   2
ATOM      2  C   UNL     1       5.704 -35.216  22.967  1.00  0.00     0.000 C 
BRANCH   2   3
ATOM      3  C   UNL     1       4.698 -35.996  22.100  1.00  0.00     0.000 C 
BRANCH   3   4
ATOM      4  C   UNL     1       4.552 -35.401  20.690  1.00  0.00    -0.000 C 
BRANCH   4   5
ATOM      5  C   UNL     1       5.900 -35.267  19.964  1.00  0.00    -0.000 C 
BRANCH   5   6
ATOM      6  C   UNL     1       5.727 -35.434  18.450  1.00  0.00    -0.000 C 
BRANCH   6   7
ATOM      7  C   UNL     1       4.243 -35.391  18.057  1.00  0.00    -0.000 C 
BRANCH   7   8
ATOM      8  C   UNL     1       3.915 -36.336  16.889  1.00  0.00    -0.000 C 
BRANCH   8   9
ATOM      9  C   UNL     1       2.481 -36.152  16.368  1.00  0.00    -0.000 C 
BRANCH   9  10
ATOM     10  C   UNL     1       2.190 -36.994  15.113  1.00  0.00    -0.000 C 
BRANCH  10  11
ATOM     11  C   UNL     1       3.449 -37.317  14.283  1.00  0.00    -0.003 C 
ATOM     12  C   UNL     1       3.788 -38.808  14.296  1.00  0.00     0.004 C 
ENDBRANCH  10  11
ENDBRANCH   9  10
ENDBRANCH   8   9
ENDBRANCH   7   8
ENDBRANCH   6   7
ENDBRANCH   5   6
ENDBRANCH   4   5
ENDBRANCH   3   4
ENDBRANCH   2   3
ENDBRANCH   1   2
BRANCH   1  13
ATOM     13  C   UNL     1       6.116 -37.315  24.368  1.00  0.00     0.000 C 
BRANCH  13  14
ATOM     14  C   UNL     1       4.957 -38.127  24.969  1.00  0.00     0.000 C 
BRANCH  14  15
ATOM     15  C   UNL     1       4.962 -39.594  24.512  1.00  0.00     0.000 C 
BRANCH  15  16
ATOM     16  C   UNL     1       4.538 -39.713  23.043  1.00  0.00     0.000 C 
BRANCH  16  17
ATOM     17  C   UNL     1       5.415 -40.732  22.299  1.00  0.00     0.000 C 
BRANCH  17  18
ATOM     18  C   UNL     1       5.728 -40.309  20.852  1.00  0.00     0.000 C 
BRANCH  18  19
ATOM     19  C   UNL     1       5.365 -38.852  20.503  1.00  0.00     0.000 C 
BRANCH  19  20
ATOM     20  C   UNL     1       4.260 -38.687  19.439  1.00  0.00     0.006 C 
BRANCH  20  21
ATOM     21  C   UNL     1       2.900 -38.244  20.000  1.00  0.00     0.053 C 
BRANCH  21  22
ATOM     22  C   UNL     1       1.780 -38.550  19.053  1.00  0.00     0.041 C 
ATOM     23  O   UNL     1       0.595 -38.617  19.473  1.00  0.00    -0.550 OA
ATOM     24  O   UNL     1       2.050 -38.794  17.713  1.00  0.00    -0.550 OA
ENDBRANCH  21  22
ENDBRANCH  20  21
ENDBRANCH  19  20
ENDBRANCH  18  19
ENDBRANCH  17  18
ENDBRANCH  16  17
ENDBRANCH  15  16
ENDBRANCH  14  15
ENDBRANCH  13  14
ENDBRANCH   1  13
TORSDOF 20
ENDMDL
MODEL 2
REMARK VINA RESULT:    -2.354      1.969      4.043
REMARK INTER + INTRA:          -6.953
REMARK INTER:                  -5.941
REMARK INTRA:                  -1.012
REMARK UNBOUND:                -1.848
REMARK SMILES CCCCCCCCCCCCCCCCCCCCCC(=O)[O-]
REMARK SMILES IDX 12 1 11 2 10 3 9 4 8 5 7 6 6 7 5 8 4 9 3 10 2 11 1 12 13 13
REMARK SMILES IDX 14 14 15 15 16 16 17 17 18 18 19 19 20 20 21 21 22 22 23 23
REMARK SMILES IDX 24 24
REMARK H PARENT
REMARK Flexibility Score: inf
ROOT
ATOM      1  C   UNL     1       4.579 -35.410  20.703  1.00  0.00     0.000 C 
ENDROOT
BRANCH   1   2
ATOM      2  C   UNL     1       5.117 -36.187  19.493  1.00  0.00     0.000 C 
BRANCH   2   3
ATOM      3  C   UNL     1       5.236 -37.699  19.762  1.00  0.00     0.000 C 
BRANCH   3   4
ATOM      4  C   UNL     1       3.964 -38.467  19.368  1.00  0.00    -0.000 C 
BRANCH   4   5
ATOM      5  C   UNL     1       2.690 -37.628  19.543  1.00  0.00    -0.000 C 
BRANCH   5   6
ATOM      6  C   UNL     1       1.497 -38.287  18.841  1.00  0.00    -0.000 C 
BRANCH   6   7
ATOM      7  C   UNL     1       1.807 -38.551  17.360  1.00  0.00    -0.000 C 
BRANCH   7   8
ATOM      8  C   UNL     1       2.426 -37.331  16.660  1.00  0.00    -0.000 C 
BRANCH   8   9
ATOM      9  C   UNL     1       1.615 -36.880  15.435  1.00  0.00    -0.000 C 
BRANCH   9  10
ATOM     10  C   UNL     1       2.336 -37.162  14.105  1.00  0.00    -0.000 C 
BRANCH  10  11
ATOM     11  C   UNL     1       3.814 -37.569  14.281  1.00  0.00    -0.003 C 
ATOM     12  C   UNL     1       4.017 -39.081  14.185  1.00  0.00     0.004 C 
ENDBRANCH  10  11
ENDBRANCH   9  10
ENDBRANCH   8   9
ENDBRANCH   7   8
ENDBRANCH   6   7
ENDBRANCH   5   6
ENDBRANCH   4   5
ENDBRANCH   3   4
ENDBRANCH   2   3
ENDBRANCH   1   2
BRANCH   1  13
ATOM     13  C   UNL     1       4.726 -36.194  22.019  1.00  0.00     0.000 C 
BRANCH  13  14
ATOM     14  C   UNL     1       6.125 -36.048  22.640  1.00  0.00     0.000 C 
BRANCH  14  15
ATOM     15  C   UNL     1       6.124 -35.170  23.901  1.00  0.00     0.000 C 
BRANCH  15  16
ATOM     16  C   UNL     1       5.583 -35.943  25.110  1.00  0.00     0.000 C 
BRANCH  16  17
ATOM     17  C   UNL     1       5.718 -37.458  24.899  1.00  0.00     0.000 C 
BRANCH  17  18
ATOM     18  C   UNL     1       4.546 -38.254  25.500  1.00  0.00     0.000 C 
BRANCH  18  19
ATOM     19  C   UNL     1       4.444 -39.720  25.036  1.00  0.00     0.000 C 
BRANCH  19  20
ATOM     20  C   UNL     1       5.611 -40.213  24.156  1.00  0.00     0.006 C 
BRANCH  20  21
ATOM     21  C   UNL     1       5.443 -39.917  22.657  1.00  0.00     0.053 C 
BRANCH  21  22
ATOM     22  C   UNL     1       5.793 -41.104  21.812  1.00  0.00     0.041 C 
ATOM     23  O   UNL     1       5.829 -42.255  22.320  1.00  0.00    -0.550 OA
ATOM     24  O   UNL     1       6.115 -40.932  20.472  1.00  0.00    -0.550 OA
ENDBRANCH  21  22
ENDBRANCH  20  21
ENDBRANCH  19  20
ENDBRANCH  18  19
ENDBRANCH  17  18
ENDBRANCH  16  17
ENDBRANCH  15  16
ENDBRANCH  14  15
ENDBRANCH  13  14
ENDBRANCH   1  13
TORSDOF 20
ENDMDL
MODEL 3
REMARK VINA RESULT:    -2.271      2.379      5.386
REMARK INTER + INTRA:          -6.774
REMARK INTER:                  -4.947
REMARK INTRA:                  -1.827
REMARK UNBOUND:                -1.848
REMARK SMILES CCCCCCCCCCCCCCCCCCCCCC(=O)[O-]
REMARK SMILES IDX 12 1 11 2 10 3 9 4 8 5 7 6 6 7 5 8 4 9 3 10 2 11 1 12 13 13
REMARK SMILES IDX 14 14 15 15 16 16 17 17 18 18 19 19 20 20 21 21 22 22 23 23
REMARK SMILES IDX 24 24
REMARK H PARENT
REMARK Flexibility Score: inf
ROOT
ATOM      1  C   UNL     1       2.357 -39.050  19.446  1.00  0.00     0.000 C 
ENDROOT
BRANCH   1   2
ATOM      2  C   UNL     1       0.886 -38.920  19.023  1.00  0.00     0.000 C 
BRANCH   2   3
ATOM      3  C   UNL     1       0.676 -37.873  17.914  1.00  0.00     0.000 C 
BRANCH   3   4
ATOM      4  C   UNL     1       1.780 -37.919  16.845  1.00  0.00    -0.000 C 
BRANCH   4   5
ATOM      5  C   UNL     1       1.475 -37.015  15.642  1.00  0.00    -0.000 C 
BRANCH   5   6
ATOM      6  C   UNL     1       2.286 -37.442  14.413  1.00  0.00    -0.000 C 
BRANCH   6   7
ATOM      7  C   UNL     1       3.775 -37.117  14.596  1.00  0.00    -0.000 C 
BRANCH   7   8
ATOM      8  C   UNL     1       4.691 -38.119  13.875  1.00  0.00    -0.000 C 
BRANCH   8   9
ATOM      9  C   UNL     1       4.134 -39.551  13.901  1.00  0.00    -0.000 C 
BRANCH   9  10
ATOM     10  C   UNL     1       5.239 -40.622  13.883  1.00  0.00    -0.000 C 
BRANCH  10  11
ATOM     11  C   UNL     1       4.778 -41.991  14.425  1.00  0.00    -0.003 C 
ATOM     12  C   UNL     1       5.923 -43.001  14.504  1.00  0.00     0.004 C 
ENDBRANCH  10  11
ENDBRANCH   9  10
ENDBRANCH   8   9
ENDBRANCH   7   8
ENDBRANCH   6   7
ENDBRANCH   5   6
ENDBRANCH   4   5
ENDBRANCH   3   4
ENDBRANCH   2   3
ENDBRANCH   1   2
BRANCH   1  13
ATOM     13  C   UNL     1       2.869 -37.802  20.188  1.00  0.00     0.000 C 
BRANCH  13  14
ATOM     14  C   UNL     1       4.304 -37.424  19.787  1.00  0.00     0.000 C 
BRANCH  14  15
ATOM     15  C   UNL     1       4.717 -36.037  20.302  1.00  0.00     0.000 C 
BRANCH  15  16
ATOM     16  C   UNL     1       6.098 -36.085  20.966  1.00  0.00     0.000 C 
BRANCH  16  17
ATOM     17  C   UNL     1       6.124 -35.233  22.244  1.00  0.00     0.000 C 
BRANCH  17  18
ATOM     18  C   UNL     1       4.971 -35.565  23.208  1.00  0.00     0.000 C 
BRANCH  18  19
ATOM     19  C   UNL     1       5.365 -36.415  24.432  1.00  0.00     0.000 C 
BRANCH  19  20
ATOM     20  C   UNL     1       5.757 -37.874  24.119  1.00  0.00     0.006 C 
BRANCH  20  21
ATOM     21  C   UNL     1       4.636 -38.707  23.476  1.00  0.00     0.053 C 
BRANCH  21  22
ATOM     22  C   UNL     1       5.147 -40.007  22.935  1.00  0.00     0.041 C 
ATOM     23  O   UNL     1       5.385 -40.133  21.706  1.00  0.00    -0.550 OA
ATOM     24  O   UNL     1       5.328 -41.091  23.785  1.00  0.00    -0.550 OA
ENDBRANCH  21  22
ENDBRANCH  20  21
ENDBRANCH  19  20
ENDBRANCH  18  19
ENDBRANCH  17  18
ENDBRANCH  16  17
ENDBRANCH  15  16
ENDBRANCH  14  15
ENDBRANCH  13  14
ENDBRANCH   1  13
TORSDOF 20
ENDMDL
MODEL 4
REMARK VINA RESULT:    -1.567      2.643      4.000
REMARK INTER + INTRA:          -5.246
REMARK INTER:                  -3.564
REMARK INTRA:                  -1.681
REMARK UNBOUND:                -1.848
REMARK SMILES CCCCCCCCCCCCCCCCCCCCCC(=O)[O-]
REMARK SMILES IDX 12 1 11 2 10 3 9 4 8 5 7 6 6 7 5 8 4 9 3 10 2 11 1 12 13 13
REMARK SMILES IDX 14 14 15 15 16 16 17 17 18 18 19 19 20 20 21 21 22 22 23 23
REMARK SMILES IDX 24 24
REMARK H PARENT
REMARK Flexibility Score: inf
ROOT
ATOM      1  C   UNL     1       5.074 -35.392  21.429  1.00  0.00     0.000 C 
ENDROOT
BRANCH   1   2
ATOM      2  C   UNL     1       6.080 -35.910  20.391  1.00  0.00     0.000 C 
BRANCH   2   3
ATOM      3  C   UNL     1       5.935 -35.215  19.024  1.00  0.00     0.000 C 
BRANCH   3   4
ATOM      4  C   UNL     1       4.624 -35.586  18.312  1.00  0.00    -0.000 C 
BRANCH   4   5
ATOM      5  C   UNL     1       3.871 -36.723  19.019  1.00  0.00    -0.000 C 
BRANCH   5   6
ATOM      6  C   UNL     1       3.670 -37.917  18.080  1.00  0.00    -0.000 C 
BRANCH   6   7
ATOM      7  C   UNL     1       2.182 -38.118  17.756  1.00  0.00    -0.000 C 
BRANCH   7   8
ATOM      8  C   UNL     1       1.654 -37.089  16.744  1.00  0.00    -0.000 C 
BRANCH   8   9
ATOM      9  C   UNL     1       1.825 -37.552  15.288  1.00  0.00    -0.000 C 
BRANCH   9  10
ATOM     10  C   UNL     1       3.034 -36.903  14.593  1.00  0.00    -0.000 C 
BRANCH  10  11
ATOM     11  C   UNL     1       3.979 -37.923  13.924  1.00  0.00    -0.003 C 
ATOM     12  C   UNL     1       3.813 -39.331  14.494  1.00  0.00     0.004 C 
ENDBRANCH  10  11
ENDBRANCH   9  10
ENDBRANCH   8   9
ENDBRANCH   7   8
ENDBRANCH   6   7
ENDBRANCH   5   6
ENDBRANCH   4   5
ENDBRANCH   3   4
ENDBRANCH   2   3
ENDBRANCH   1   2
BRANCH   1  13
ATOM     13  C   UNL     1       4.954 -36.323  22.648  1.00  0.00     0.000 C 
BRANCH  13  14
ATOM     14  C   UNL     1       5.695 -37.655  22.449  1.00  0.00     0.000 C 
BRANCH  14  15
ATOM     15  C   UNL     1       4.836 -38.710  21.735  1.00  0.00     0.000 C 
BRANCH  15  16
ATOM     16  C   UNL     1       5.696 -39.597  20.825  1.00  0.00     0.000 C 
BRANCH  16  17
ATOM     17  C   UNL     1       5.976 -40.955  21.487  1.00  0.00     0.000 C 
BRANCH  17  18
ATOM     18  C   UNL     1       4.970 -41.297  22.600  1.00  0.00     0.000 C 
BRANCH  18  19
ATOM     19  C   UNL     1       5.600 -41.723  23.942  1.00  0.00     0.000 C 
BRANCH  19  20
ATOM     20  C   UNL     1       5.536 -40.664  25.062  1.00  0.00     0.006 C 
BRANCH  20  21
ATOM     21  C   UNL     1       4.419 -39.623  24.886  1.00  0.00     0.053 C 
BRANCH  21  22
ATOM     22  C   UNL     1       4.664 -38.397  25.711  1.00  0.00     0.041 C 
ATOM     23  O   UNL     1       3.708 -37.824  26.296  1.00  0.00    -0.550 OA
ATOM     24  O   UNL     1       5.945 -37.867  25.805  1.00  0.00    -0.550 OA
ENDBRANCH  21  22
ENDBRANCH  20  21
ENDBRANCH  19  20
ENDBRANCH  18  19
ENDBRANCH  17  18
ENDBRANCH  16  17
ENDBRANCH  15  16
ENDBRANCH  14  15
ENDBRANCH  13  14
ENDBRANCH   1  13
TORSDOF 20
ENDMDL
MODEL 5
REMARK VINA RESULT:    -1.353      1.574      3.334
REMARK INTER + INTRA:          -4.783
REMARK INTER:                  -4.659
REMARK INTRA:                  -0.124
REMARK UNBOUND:                -1.848
REMARK SMILES CCCCCCCCCCCCCCCCCCCCCC(=O)[O-]
REMARK SMILES IDX 12 1 11 2 10 3 9 4 8 5 7 6 6 7 5 8 4 9 3 10 2 11 1 12 13 13
REMARK SMILES IDX 14 14 15 15 16 16 17 17 18 18 19 19 20 20 21 21 22 22 23 23
REMARK SMILES IDX 24 24
REMARK H PARENT
REMARK Flexibility Score: inf
ROOT
ATOM      1  C   UNL     1       4.896 -36.013  21.519  1.00  0.00     0.000 C 
ENDROOT
BRANCH   1   2
ATOM      2  C   UNL     1       5.145 -36.069  20.005  1.00  0.00     0.000 C 
BRANCH   2   3
ATOM      3  C   UNL     1       4.090 -35.289  19.199  1.00  0.00     0.000 C 
BRANCH   3   4
ATOM      4  C   UNL     1       4.068 -35.691  17.716  1.00  0.00    -0.000 C 
BRANCH   4   5
ATOM      5  C   UNL     1       4.085 -37.214  17.517  1.00  0.00    -0.000 C 
BRANCH   5   6
ATOM      6  C   UNL     1       2.696 -37.816  17.756  1.00  0.00    -0.000 C 
BRANCH   6   7
ATOM      7  C   UNL     1       1.643 -37.140  16.866  1.00  0.00    -0.000 C 
BRANCH   7   8
ATOM      8  C   UNL     1       1.773 -37.541  15.389  1.00  0.00    -0.000 C 
BRANCH   8   9
ATOM      9  C   UNL     1       2.920 -36.806  14.677  1.00  0.00    -0.000 C 
BRANCH   9  10
ATOM     10  C   UNL     1       3.959 -37.765  14.072  1.00  0.00    -0.000 C 
BRANCH  10  11
ATOM     11  C   UNL     1       3.625 -39.255  14.296  1.00  0.00    -0.003 C 
ATOM     12  C   UNL     1       4.806 -40.171  13.975  1.00  0.00     0.004 C 
ENDBRANCH  10  11
ENDBRANCH   9  10
ENDBRANCH   8   9
ENDBRANCH   7   8
ENDBRANCH   6   7
ENDBRANCH   5   6
ENDBRANCH   4   5
ENDBRANCH   3   4
ENDBRANCH   2   3
ENDBRANCH   1   2
BRANCH   1  13
ATOM     13  C   UNL     1       6.123 -35.509  22.300  1.00  0.00     0.000 C 
BRANCH  13  14
ATOM     14  C   UNL     1       5.822 -35.286  23.791  1.00  0.00     0.000 C 
BRANCH  14  15
ATOM     15  C   UNL     1       6.102 -36.532  24.645  1.00  0.00     0.000 C 
BRANCH  15  16
ATOM     16  C   UNL     1       4.856 -36.947  25.438  1.00  0.00     0.000 C 
BRANCH  16  17
ATOM     17  C   UNL     1       4.630 -38.464  25.352  1.00  0.00     0.000 C 
BRANCH  17  18
ATOM     18  C   UNL     1       5.302 -39.101  24.123  1.00  0.00     0.000 C 
BRANCH  18  19
ATOM     19  C   UNL     1       5.204 -40.638  24.047  1.00  0.00     0.000 C 
BRANCH  19  20
ATOM     20  C   UNL     1       5.494 -41.246  22.659  1.00  0.00     0.006 C 
BRANCH  20  21
ATOM     21  C   UNL     1       6.125 -40.266  21.657  1.00  0.00     0.053 C 
BRANCH  21  22
ATOM     22  C   UNL     1       5.087 -39.468  20.930  1.00  0.00     0.041 C 
ATOM     23  O   UNL     1       4.008 -39.160  21.501  1.00  0.00    -0.550 OA
ATOM     24  O   UNL     1       5.297 -39.093  19.609  1.00  0.00    -0.550 OA
ENDBRANCH  21  22
ENDBRANCH  20  21
ENDBRANCH  19  20
ENDBRANCH  18  19
ENDBRANCH  17  18
ENDBRANCH  16  17
ENDBRANCH  15  16
ENDBRANCH  14  15
ENDBRANCH  13  14
ENDBRANCH   1  13
TORSDOF 20
ENDMDL
MODEL 6
REMARK VINA RESULT:    -1.238      2.334      4.432
REMARK INTER + INTRA:          -4.532
REMARK INTER:                  -3.097
REMARK INTRA:                  -1.436
REMARK UNBOUND:                -1.848
REMARK SMILES CCCCCCCCCCCCCCCCCCCCCC(=O)[O-]
REMARK SMILES IDX 12 1 11 2 10 3 9 4 8 5 7 6 6 7 5 8 4 9 3 10 2 11 1 12 13 13
REMARK SMILES IDX 14 14 15 15 16 16 17 17 18 18 19 19 20 20 21 21 22 22 23 23
REMARK SMILES IDX 24 24
REMARK H PARENT
REMARK Flexibility Score: inf
ROOT
ATOM      1  C   UNL     1       4.545 -39.005  20.428  1.00  0.00     0.000 C 
ENDROOT
BRANCH   1   2
ATOM      2  C   UNL     1       4.847 -37.815  19.505  1.00  0.00     0.000 C 
BRANCH   2   3
ATOM      3  C   UNL     1       5.713 -36.739  20.187  1.00  0.00     0.000 C 
BRANCH   3   4
ATOM      4  C   UNL     1       5.434 -35.329  19.644  1.00  0.00    -0.000 C 
BRANCH   4   5
ATOM      5  C   UNL     1       5.365 -35.291  18.109  1.00  0.00    -0.000 C 
BRANCH   5   6
ATOM      6  C   UNL     1       3.911 -35.327  17.623  1.00  0.00    -0.000 C 
BRANCH   6   7
ATOM      7  C   UNL     1       3.690 -36.482  16.636  1.00  0.00    -0.000 C 
BRANCH   7   8
ATOM      8  C   UNL     1       2.255 -36.519  16.084  1.00  0.00    -0.000 C 
BRANCH   8   9
ATOM      9  C   UNL     1       1.383 -37.575  16.782  1.00  0.00    -0.000 C 
BRANCH   9  10
ATOM     10  C   UNL     1       2.132 -38.329  17.894  1.00  0.00    -0.000 C 
BRANCH  10  11
ATOM     11  C   UNL     1       1.356 -38.391  19.226  1.00  0.00    -0.003 C 
ATOM     12  C   UNL     1      -0.155 -38.269  19.025  1.00  0.00     0.004 C 
ENDBRANCH  10  11
ENDBRANCH   9  10
ENDBRANCH   8   9
ENDBRANCH   7   8
ENDBRANCH   6   7
ENDBRANCH   5   6
ENDBRANCH   4   5
ENDBRANCH   3   4
ENDBRANCH   2   3
ENDBRANCH   1   2
BRANCH   1  13
ATOM     13  C   UNL     1       5.711 -39.322  21.381  1.00  0.00     0.000 C 
BRANCH  13  14
ATOM     14  C   UNL     1       5.968 -40.832  21.518  1.00  0.00     0.000 C 
BRANCH  14  15
ATOM     15  C   UNL     1       5.634 -41.365  22.920  1.00  0.00     0.000 C 
BRANCH  15  16
ATOM     16  C   UNL     1       4.625 -40.454  23.629  1.00  0.00     0.000 C 
BRANCH  16  17
ATOM     17  C   UNL     1       5.046 -40.193  25.083  1.00  0.00     0.000 C 
BRANCH  17  18
ATOM     18  C   UNL     1       4.818 -38.736  25.521  1.00  0.00     0.000 C 
BRANCH  18  19
ATOM     19  C   UNL     1       6.102 -37.915  25.757  1.00  0.00     0.000 C 
BRANCH  19  20
ATOM     20  C   UNL     1       6.123 -36.523  25.093  1.00  0.00     0.006 C 
BRANCH  20  21
ATOM     21  C   UNL     1       5.291 -36.424  23.804  1.00  0.00     0.053 C 
BRANCH  21  22
ATOM     22  C   UNL     1       5.109 -35.003  23.366  1.00  0.00     0.041 C 
ATOM     23  O   UNL     1       4.137 -34.686  22.632  1.00  0.00    -0.550 OA
ATOM     24  O   UNL     1       6.033 -34.036  23.741  1.00  0.00    -0.550 OA
ENDBRANCH  21  22
ENDBRANCH  20  21
ENDBRANCH  19  20
ENDBRANCH  18  19
ENDBRANCH  17  18
ENDBRANCH  16  17
ENDBRANCH  15  16
ENDBRANCH  14  15
ENDBRANCH  13  14
ENDBRANCH   1  13
TORSDOF 20
ENDMDL
MODEL 7
REMARK VINA RESULT:    -1.085      1.318      6.533
REMARK INTER + INTRA:          -4.202
REMARK INTER:                  -2.877
REMARK INTRA:                  -1.324
REMARK UNBOUND:                -1.848
REMARK SMILES CCCCCCCCCCCCCCCCCCCCCC(=O)[O-]
REMARK SMILES IDX 12 1 11 2 10 3 9 4 8 5 7 6 6 7 5 8 4 9 3 10 2 11 1 12 13 13
REMARK SMILES IDX 14 14 15 15 16 16 17 17 18 18 19 19 20 20 21 21 22 22 23 23
REMARK SMILES IDX 24 24
REMARK H PARENT
REMARK Flexibility Score: inf
ROOT
ATOM      1  C   UNL     1       4.627 -39.281  21.671  1.00  0.00     0.000 C 
ENDROOT
BRANCH   1   2
ATOM      2  C   UNL     1       5.910 -40.122  21.757  1.00  0.00     0.000 C 
BRANCH   2   3
ATOM      3  C   UNL     1       5.653 -41.545  22.286  1.00  0.00     0.000 C 
BRANCH   3   4
ATOM      4  C   UNL     1       5.333 -41.564  23.790  1.00  0.00    -0.000 C 
BRANCH   4   5
ATOM      5  C   UNL     1       5.592 -40.208  24.465  1.00  0.00    -0.000 C 
BRANCH   5   6
ATOM      6  C   UNL     1       4.321 -39.678  25.138  1.00  0.00    -0.000 C 
BRANCH   6   7
ATOM      7  C   UNL     1       4.600 -38.364  25.883  1.00  0.00    -0.000 C 
BRANCH   7   8
ATOM      8  C   UNL     1       6.044 -37.874  25.693  1.00  0.00    -0.000 C 
BRANCH   8   9
ATOM      9  C   UNL     1       6.124 -36.577  24.872  1.00  0.00    -0.000 C 
BRANCH   9  10
ATOM     10  C   UNL     1       5.124 -36.549  23.703  1.00  0.00    -0.000 C 
BRANCH  10  11
ATOM     11  C   UNL     1       4.999 -35.164  23.034  1.00  0.00    -0.003 C 
ATOM     12  C   UNL     1       5.898 -34.117  23.692  1.00  0.00     0.004 C 
ENDBRANCH  10  11
ENDBRANCH   9  10
ENDBRANCH   8   9
ENDBRANCH   7   8
ENDBRANCH   6   7
ENDBRANCH   5   6
ENDBRANCH   4   5
ENDBRANCH   3   4
ENDBRANCH   2   3
ENDBRANCH   1   2
BRANCH   1  13
ATOM     13  C   UNL     1       4.336 -38.795  20.241  1.00  0.00     0.000 C 
BRANCH  13  14
ATOM     14  C   UNL     1       5.419 -37.842  19.709  1.00  0.00     0.000 C 
BRANCH  14  15
ATOM     15  C   UNL     1       5.116 -36.368  20.021  1.00  0.00     0.000 C 
BRANCH  15  16
ATOM     16  C   UNL     1       5.355 -35.484  18.791  1.00  0.00     0.000 C 
BRANCH  16  17
ATOM     17  C   UNL     1       4.063 -35.313  17.978  1.00  0.00     0.000 C 
BRANCH  17  18
ATOM     18  C   UNL     1       3.964 -36.294  16.797  1.00  0.00     0.000 C 
BRANCH  18  19
ATOM     19  C   UNL     1       2.601 -36.317  16.078  1.00  0.00     0.000 C 
BRANCH  19  20
ATOM     20  C   UNL     1       1.611 -37.389  16.580  1.00  0.00     0.006 C 
BRANCH  20  21
ATOM     21  C   UNL     1       2.093 -38.166  17.815  1.00  0.00     0.053 C 
BRANCH  21  22
ATOM     22  C   UNL     1       0.973 -38.448  18.769  1.00  0.00     0.041 C 
ATOM     23  O   UNL     1       1.218 -38.889  19.922  1.00  0.00    -0.550 OA
ATOM     24  O   UNL     1      -0.344 -38.257  18.371  1.00  0.00    -0.550 OA
ENDBRANCH  21  22
ENDBRANCH  20  21
ENDBRANCH  19  20
ENDBRANCH  18  19
ENDBRANCH  17  18
ENDBRANCH  16  17
ENDBRANCH  15  16
ENDBRANCH  14  15
ENDBRANCH  13  14
ENDBRANCH   1  13
TORSDOF 20
ENDMDL
