MODEL 1
REMARK VINA RESULT:    -4.590      0.000      0.000
REMARK INTER + INTRA:          -5.809
REMARK INTER:                  -5.529
REMARK INTRA:                  -0.279
REMARK UNBOUND:                -0.279
REMARK SMILES O=c1c(O)c(-c2ccc(O)c(O)c2)oc2cc(O)cc(O)c12
REMARK SMILES IDX 5 1 3 2 2 3 1 4 22 5 20 6 19 7 17 8 16 9 15 10 14 11 6 12
REMARK SMILES IDX 7 13 8 14 9 15 13 16 11 17 10 18 12 20 4 22 21 24 18 26
REMARK H PARENT 10 19 12 21 4 23 21 25 18 27
REMARK Flexibility Score: inf
ROOT
ATOM      1  C   UNL     1     117.921 123.323  96.011  1.00  0.00     0.180 A 
ATOM      2  C   UNL     1     118.257 124.475  95.278  1.00  0.00     0.208 A 
ATOM      3  C   UNL     1     118.223 124.423  93.876  1.00  0.00     0.238 A 
ATOM      4  O   UNL     1     118.472 125.473  93.226  1.00  0.00    -0.285 OA
ATOM      5  C   UNL     1     117.870 123.217  93.223  1.00  0.00     0.111 A 
ATOM      6  C   UNL     1     117.843 123.041  91.807  1.00  0.00     0.134 A 
ATOM      7  C   UNL     1     117.352 121.844  91.270  1.00  0.00     0.093 A 
ATOM      8  C   UNL     1     116.951 120.795  92.096  1.00  0.00     0.123 A 
ATOM      9  C   UNL     1     117.030 120.936  93.482  1.00  0.00     0.094 A 
ATOM     10  C   UNL     1     117.481 122.131  94.048  1.00  0.00     0.146 A 
ATOM     11  O   UNL     1     117.531 122.227  95.371  1.00  0.00    -0.452 OA
ENDROOT
BRANCH   1  12
ATOM     12  C   UNL     1     117.958 123.292  97.491  1.00  0.00     0.025 A 
ATOM     13  C   UNL     1     116.936 123.873  98.261  1.00  0.00     0.016 A 
ATOM     14  C   UNL     1     117.005 123.854  99.657  1.00  0.00     0.051 A 
ATOM     15  C   UNL     1     118.098 123.268 100.303  1.00  0.00     0.157 A 
ATOM     16  C   UNL     1     119.065 122.723  98.143  1.00  0.00     0.062 A 
ATOM     17  C   UNL     1     119.135 122.701  99.544  1.00  0.00     0.158 A 
BRANCH  15  18
ATOM     18  O   UNL     1     118.137 123.261 101.697  1.00  0.00    -0.504 OA
ATOM     19  H   UNL     1     118.725 123.897 102.221  1.00  0.00     0.293 HD
ENDBRANCH  15  18
BRANCH  17  20
ATOM     20  O   UNL     1     120.231 122.122 100.181  1.00  0.00    -0.504 OA
ATOM     21  H   UNL     1     120.860 122.668 100.757  1.00  0.00     0.293 HD
ENDBRANCH  17  20
ENDBRANCH   1  12
BRANCH   2  22
ATOM     22  O   UNL     1     118.582 125.660  95.943  1.00  0.00    -0.502 OA
ATOM     23  H   UNL     1     118.176 126.554  95.692  1.00  0.00     0.293 HD
ENDBRANCH   2  22
BRANCH   6  24
ATOM     24  O   UNL     1     118.307 123.992  90.892  1.00  0.00    -0.507 OA
ATOM     25  H   UNL     1     119.150 124.533  91.004  1.00  0.00     0.293 HD
ENDBRANCH   6  24
BRANCH   8  26
ATOM     26  O   UNL     1     116.482 119.613  91.527  1.00  0.00    -0.508 OA
ATOM     27  H   UNL     1     115.541 119.539  91.159  1.00  0.00     0.293 HD
ENDBRANCH   8  26
TORSDOF 6
ENDMDL
MODEL 2
REMARK VINA RESULT:    -4.546      4.354      7.025
REMARK INTER + INTRA:          -5.755
REMARK INTER:                  -5.485
REMARK INTRA:                  -0.271
REMARK UNBOUND:                -0.279
REMARK SMILES O=c1c(O)c(-c2ccc(O)c(O)c2)oc2cc(O)cc(O)c12
REMARK SMILES IDX 5 1 3 2 2 3 1 4 22 5 20 6 19 7 17 8 16 9 15 10 14 11 6 12
REMARK SMILES IDX 7 13 8 14 9 15 13 16 11 17 10 18 12 20 4 22 21 24 18 26
REMARK H PARENT 10 19 12 21 4 23 21 25 18 27
REMARK Flexibility Score: inf
ROOT
ATOM      1  C   UNL     1     117.573 125.727 101.551  1.00  0.00     0.180 A 
ATOM      2  C   UNL     1     117.621 124.434 101.000  1.00  0.00     0.208 A 
ATOM      3  C   UNL     1     117.261 124.253  99.656  1.00  0.00     0.238 A 
ATOM      4  O   UNL     1     117.359 123.102  99.154  1.00  0.00    -0.285 OA
ATOM      5  C   UNL     1     116.841 125.362  98.883  1.00  0.00     0.111 A 
ATOM      6  C   UNL     1     116.415 125.287  97.523  1.00  0.00     0.134 A 
ATOM      7  C   UNL     1     116.146 126.467  96.817  1.00  0.00     0.093 A 
ATOM      8  C   UNL     1     116.225 127.712  97.439  1.00  0.00     0.123 A 
ATOM      9  C   UNL     1     116.583 127.792  98.786  1.00  0.00     0.094 A 
ATOM     10  C   UNL     1     116.892 126.636  99.506  1.00  0.00     0.146 A 
ATOM     11  O   UNL     1     117.238 126.757 100.782  1.00  0.00    -0.452 OA
ENDROOT
BRANCH   1  12
ATOM     12  C   UNL     1     117.914 125.993 102.967  1.00  0.00     0.025 A 
ATOM     13  C   UNL     1     119.248 126.013 103.408  1.00  0.00     0.016 A 
ATOM     14  C   UNL     1     119.544 126.242 104.754  1.00  0.00     0.051 A 
ATOM     15  C   UNL     1     118.516 126.442 105.681  1.00  0.00     0.157 A 
ATOM     16  C   UNL     1     116.882 126.174 103.904  1.00  0.00     0.062 A 
ATOM     17  C   UNL     1     117.177 126.404 105.256  1.00  0.00     0.158 A 
BRANCH  15  18
ATOM     18  O   UNL     1     118.842 126.670 107.016  1.00  0.00    -0.504 OA
ATOM     19  H   UNL     1     118.137 126.729 107.740  1.00  0.00     0.293 HD
ENDBRANCH  15  18
BRANCH  17  20
ATOM     20  O   UNL     1     116.146 126.595 106.174  1.00  0.00    -0.504 OA
ATOM     21  H   UNL     1     115.223 126.208 106.024  1.00  0.00     0.293 HD
ENDBRANCH  17  20
ENDBRANCH   1  12
BRANCH   2  22
ATOM     22  O   UNL     1     118.059 123.357 101.775  1.00  0.00    -0.502 OA
ATOM     23  H   UNL     1     118.750 122.694 101.445  1.00  0.00     0.293 HD
ENDBRANCH   2  22
BRANCH   6  24
ATOM     24  O   UNL     1     116.215 124.087  96.832  1.00  0.00    -0.507 OA
ATOM     25  H   UNL     1     116.164 123.178  97.263  1.00  0.00     0.293 HD
ENDBRANCH   6  24
BRANCH   8  26
ATOM     26  O   UNL     1     115.935 128.864  96.711  1.00  0.00    -0.508 OA
ATOM     27  H   UNL     1     115.727 128.824  95.720  1.00  0.00     0.293 HD
ENDBRANCH   8  26
TORSDOF 6
ENDMDL
MODEL 3
REMARK VINA RESULT:    -4.540     15.855     18.632
REMARK INTER + INTRA:          -5.748
REMARK INTER:                  -5.433
REMARK INTRA:                  -0.315
REMARK UNBOUND:                -0.279
REMARK SMILES O=c1c(O)c(-c2ccc(O)c(O)c2)oc2cc(O)cc(O)c12
REMARK SMILES IDX 5 1 3 2 2 3 1 4 22 5 20 6 19 7 17 8 16 9 15 10 14 11 6 12
REMARK SMILES IDX 7 13 8 14 9 15 13 16 11 17 10 18 12 20 4 22 21 24 18 26
REMARK H PARENT 10 19 12 21 4 23 21 25 18 27
REMARK Flexibility Score: inf
ROOT
ATOM      1  C   UNL     1     133.760 125.693 101.417  1.00  0.00     0.180 A 
ATOM      2  C   UNL     1     132.411 125.396 101.682  1.00  0.00     0.208 A 
ATOM      3  C   UNL     1     132.050 124.960 102.966  1.00  0.00     0.238 A 
ATOM      4  O   UNL     1     130.833 124.748 103.212  1.00  0.00    -0.285 OA
ATOM      5  C   UNL     1     133.043 124.809 103.964  1.00  0.00     0.111 A 
ATOM      6  C   UNL     1     132.795 124.335 105.287  1.00  0.00     0.134 A 
ATOM      7  C   UNL     1     133.830 124.350 106.232  1.00  0.00     0.093 A 
ATOM      8  C   UNL     1     135.116 124.760 105.883  1.00  0.00     0.123 A 
ATOM      9  C   UNL     1     135.382 125.169 104.576  1.00  0.00     0.094 A 
ATOM     10  C   UNL     1     134.363 125.198 103.622  1.00  0.00     0.146 A 
ATOM     11  O   UNL     1     134.657 125.604 102.392  1.00  0.00    -0.452 OA
ENDROOT
BRANCH   1  12
ATOM     12  C   UNL     1     134.222 126.134 100.081  1.00  0.00     0.025 A 
ATOM     13  C   UNL     1     134.160 127.484  99.694  1.00  0.00     0.016 A 
ATOM     14  C   UNL     1     134.578 127.873  98.418  1.00  0.00     0.051 A 
ATOM     15  C   UNL     1     135.052 126.922  97.508  1.00  0.00     0.157 A 
ATOM     16  C   UNL     1     134.679 125.179  99.157  1.00  0.00     0.062 A 
ATOM     17  C   UNL     1     135.100 125.567  97.877  1.00  0.00     0.158 A 
BRANCH  15  18
ATOM     18  O   UNL     1     135.465 127.341  96.244  1.00  0.00    -0.504 OA
ATOM     19  H   UNL     1     136.441 127.486  96.018  1.00  0.00     0.293 HD
ENDBRANCH  15  18
BRANCH  17  20
ATOM     20  O   UNL     1     135.564 124.613  96.973  1.00  0.00    -0.504 OA
ATOM     21  H   UNL     1     134.929 124.085  96.386  1.00  0.00     0.293 HD
ENDBRANCH  17  20
ENDBRANCH   1  12
BRANCH   2  22
ATOM     22  O   UNL     1     131.445 125.573 100.687  1.00  0.00    -0.502 OA
ATOM     23  H   UNL     1     130.580 125.046 100.670  1.00  0.00     0.293 HD
ENDBRANCH   2  22
BRANCH   6  24
ATOM     24  O   UNL     1     131.568 123.817 105.715  1.00  0.00    -0.507 OA
ATOM     25  H   UNL     1     131.399 123.421 106.627  1.00  0.00     0.293 HD
ENDBRANCH   6  24
BRANCH   8  26
ATOM     26  O   UNL     1     136.125 124.747 106.844  1.00  0.00    -0.508 OA
ATOM     27  H   UNL     1     136.989 124.237 106.698  1.00  0.00     0.293 HD
ENDBRANCH   8  26
TORSDOF 6
ENDMDL
MODEL 4
REMARK VINA RESULT:    -4.478     15.727     16.942
REMARK INTER + INTRA:          -5.674
REMARK INTER:                  -5.401
REMARK INTRA:                  -0.273
REMARK UNBOUND:                -0.279
REMARK SMILES O=c1c(O)c(-c2ccc(O)c(O)c2)oc2cc(O)cc(O)c12
REMARK SMILES IDX 5 1 3 2 2 3 1 4 22 5 20 6 19 7 17 8 16 9 15 10 14 11 6 12
REMARK SMILES IDX 7 13 8 14 9 15 13 16 11 17 10 18 12 20 4 22 21 24 18 26
REMARK H PARENT 10 19 12 21 4 23 21 25 18 27
REMARK Flexibility Score: inf
ROOT
ATOM      1  C   UNL     1     133.609 128.245  96.056  1.00  0.00     0.180 A 
ATOM      2  C   UNL     1     133.358 127.131  95.235  1.00  0.00     0.208 A 
ATOM      3  C   UNL     1     133.450 127.278  93.842  1.00  0.00     0.238 A 
ATOM      4  O   UNL     1     133.278 126.264  93.115  1.00  0.00    -0.285 OA
ATOM      5  C   UNL     1     133.776 128.539  93.286  1.00  0.00     0.111 A 
ATOM      6  C   UNL     1     133.857 128.810  91.887  1.00  0.00     0.134 A 
ATOM      7  C   UNL     1     134.316 130.061  91.452  1.00  0.00     0.093 A 
ATOM      8  C   UNL     1     134.633 131.068  92.362  1.00  0.00     0.123 A 
ATOM      9  C   UNL     1     134.499 130.831  93.731  1.00  0.00     0.094 A 
ATOM     10  C   UNL     1     134.079 129.584  94.197  1.00  0.00     0.146 A 
ATOM     11  O   UNL     1     133.976 129.397  95.507  1.00  0.00    -0.452 OA
ENDROOT
BRANCH   1  12
ATOM     12  C   UNL     1     133.506 128.175  97.532  1.00  0.00     0.025 A 
ATOM     13  C   UNL     1     134.510 127.571  98.307  1.00  0.00     0.016 A 
ATOM     14  C   UNL     1     134.380 127.494  99.697  1.00  0.00     0.051 A 
ATOM     15  C   UNL     1     133.243 128.007 100.330  1.00  0.00     0.157 A 
ATOM     16  C   UNL     1     132.356 128.670  98.169  1.00  0.00     0.062 A 
ATOM     17  C   UNL     1     132.223 128.595  99.563  1.00  0.00     0.158 A 
BRANCH  15  18
ATOM     18  O   UNL     1     133.142 127.918 101.717  1.00  0.00    -0.504 OA
ATOM     19  H   UNL     1     133.136 128.740 102.310  1.00  0.00     0.293 HD
ENDBRANCH  15  18
BRANCH  17  20
ATOM     20  O   UNL     1     131.084 129.101 100.186  1.00  0.00    -0.504 OA
ATOM     21  H   UNL     1     130.808 128.801 101.113  1.00  0.00     0.293 HD
ENDBRANCH  17  20
ENDBRANCH   1  12
BRANCH   2  22
ATOM     22  O   UNL     1     133.059 125.891  95.806  1.00  0.00    -0.502 OA
ATOM     23  H   UNL     1     133.585 125.509  96.583  1.00  0.00     0.293 HD
ENDBRANCH   2  22
BRANCH   6  24
ATOM     24  O   UNL     1     133.478 127.904  90.892  1.00  0.00    -0.507 OA
ATOM     25  H   UNL     1     134.091 127.223  90.472  1.00  0.00     0.293 HD
ENDBRANCH   6  24
BRANCH   8  26
ATOM     26  O   UNL     1     135.071 132.305  91.893  1.00  0.00    -0.508 OA
ATOM     27  H   UNL     1     135.102 132.513  90.902  1.00  0.00     0.293 HD
ENDBRANCH   8  26
TORSDOF 6
ENDMDL
MODEL 5
REMARK VINA RESULT:    -4.478     16.946     17.486
REMARK INTER + INTRA:          -5.673
REMARK INTER:                  -5.432
REMARK INTRA:                  -0.242
REMARK UNBOUND:                -0.279
REMARK SMILES O=c1c(O)c(-c2ccc(O)c(O)c2)oc2cc(O)cc(O)c12
REMARK SMILES IDX 5 1 3 2 2 3 1 4 22 5 20 6 19 7 17 8 16 9 15 10 14 11 6 12
REMARK SMILES IDX 7 13 8 14 9 15 13 16 11 17 10 18 12 20 4 22 21 24 18 26
REMARK H PARENT 10 19 12 21 4 23 21 25 18 27
REMARK Flexibility Score: inf
ROOT
ATOM      1  C   UNL     1     133.965 125.605 101.563  1.00  0.00     0.180 A 
ATOM      2  C   UNL     1     133.741 126.866 100.982  1.00  0.00     0.208 A 
ATOM      3  C   UNL     1     134.097 127.068  99.639  1.00  0.00     0.238 A 
ATOM      4  O   UNL     1     133.843 128.182  99.109  1.00  0.00    -0.285 OA
ATOM      5  C   UNL     1     134.686 126.015  98.899  1.00  0.00     0.111 A 
ATOM      6  C   UNL     1     135.121 126.122  97.544  1.00  0.00     0.134 A 
ATOM      7  C   UNL     1     135.570 124.978  96.870  1.00  0.00     0.093 A 
ATOM      8  C   UNL     1     135.659 123.749  97.521  1.00  0.00     0.123 A 
ATOM      9  C   UNL     1     135.292 123.647  98.863  1.00  0.00     0.094 A 
ATOM     10  C   UNL     1     134.807 124.761  99.551  1.00  0.00     0.146 A 
ATOM     11  O   UNL     1     134.458 124.618 100.825  1.00  0.00    -0.452 OA
ENDROOT
BRANCH   1  12
ATOM     12  C   UNL     1     133.640 125.322 102.980  1.00  0.00     0.025 A 
ATOM     13  C   UNL     1     132.310 125.186 103.413  1.00  0.00     0.016 A 
ATOM     14  C   UNL     1     132.027 124.944 104.760  1.00  0.00     0.051 A 
ATOM     15  C   UNL     1     133.063 124.847 105.695  1.00  0.00     0.157 A 
ATOM     16  C   UNL     1     134.678 125.245 103.925  1.00  0.00     0.062 A 
ATOM     17  C   UNL     1     134.396 125.001 105.277  1.00  0.00     0.158 A 
BRANCH  15  18
ATOM     18  O   UNL     1     132.749 124.602 107.031  1.00  0.00    -0.504 OA
ATOM     19  H   UNL     1     133.243 125.054 107.791  1.00  0.00     0.293 HD
ENDBRANCH  15  18
BRANCH  17  20
ATOM     20  O   UNL     1     135.433 124.913 106.204  1.00  0.00    -0.504 OA
ATOM     21  H   UNL     1     136.042 124.105 106.243  1.00  0.00     0.293 HD
ENDBRANCH  17  20
ENDBRANCH   1  12
BRANCH   2  22
ATOM     22  O   UNL     1     133.139 127.885 101.725  1.00  0.00    -0.502 OA
ATOM     23  H   UNL     1     133.474 128.161 102.640  1.00  0.00     0.293 HD
ENDBRANCH   2  22
BRANCH   6  24
ATOM     24  O   UNL     1     135.159 127.323  96.828  1.00  0.00    -0.507 OA
ATOM     25  H   UNL     1     135.045 128.238  97.235  1.00  0.00     0.293 HD
ENDBRANCH   6  24
BRANCH   8  26
ATOM     26  O   UNL     1     136.125 122.635  96.824  1.00  0.00    -0.508 OA
ATOM     27  H   UNL     1     135.531 121.832  96.653  1.00  0.00     0.293 HD
ENDBRANCH   8  26
TORSDOF 6
ENDMDL
MODEL 6
REMARK VINA RESULT:    -4.434     15.948     18.333
REMARK INTER + INTRA:          -5.621
REMARK INTER:                  -5.391
REMARK INTRA:                  -0.229
REMARK UNBOUND:                -0.279
REMARK SMILES O=c1c(O)c(-c2ccc(O)c(O)c2)oc2cc(O)cc(O)c12
REMARK SMILES IDX 5 1 3 2 2 3 1 4 22 5 20 6 19 7 17 8 16 9 15 10 14 11 6 12
REMARK SMILES IDX 7 13 8 14 9 15 13 16 11 17 10 18 12 20 4 22 21 24 18 26
REMARK H PARENT 10 19 12 21 4 23 21 25 18 27
REMARK Flexibility Score: inf
ROOT
ATOM      1  C   UNL     1     133.629 125.690 102.365  1.00  0.00     0.180 A 
ATOM      2  C   UNL     1     134.492 124.956 103.198  1.00  0.00     0.208 A 
ATOM      3  C   UNL     1     134.066 124.624 104.494  1.00  0.00     0.238 A 
ATOM      4  O   UNL     1     134.821 123.920 105.216  1.00  0.00    -0.285 OA
ATOM      5  C   UNL     1     132.792 125.043 104.947  1.00  0.00     0.111 A 
ATOM      6  C   UNL     1     132.276 124.796 106.254  1.00  0.00     0.134 A 
ATOM      7  C   UNL     1     130.951 125.143 106.550  1.00  0.00     0.093 A 
ATOM      8  C   UNL     1     130.147 125.784 105.609  1.00  0.00     0.123 A 
ATOM      9  C   UNL     1     130.662 126.083 104.346  1.00  0.00     0.094 A 
ATOM     10  C   UNL     1     131.968 125.718 104.010  1.00  0.00     0.146 A 
ATOM     11  O   UNL     1     132.415 126.011 102.795  1.00  0.00    -0.452 OA
ENDROOT
BRANCH   1  12
ATOM     12  C   UNL     1     134.017 126.100 100.995  1.00  0.00     0.025 A 
ATOM     13  C   UNL     1     134.282 127.444 100.680  1.00  0.00     0.016 A 
ATOM     14  C   UNL     1     134.622 127.809  99.375  1.00  0.00     0.051 A 
ATOM     15  C   UNL     1     134.690 126.845  98.365  1.00  0.00     0.157 A 
ATOM     16  C   UNL     1     134.067 125.136  99.974  1.00  0.00     0.062 A 
ATOM     17  C   UNL     1     134.409 125.501  98.664  1.00  0.00     0.158 A 
BRANCH  15  18
ATOM     18  O   UNL     1     135.035 127.240  97.073  1.00  0.00    -0.504 OA
ATOM     19  H   UNL     1     135.166 126.572  96.324  1.00  0.00     0.293 HD
ENDBRANCH  15  18
BRANCH  17  20
ATOM     20  O   UNL     1     134.469 124.535  97.661  1.00  0.00    -0.504 OA
ATOM     21  H   UNL     1     134.462 124.787  96.680  1.00  0.00     0.293 HD
ENDBRANCH  17  20
ENDBRANCH   1  12
BRANCH   2  22
ATOM     22  O   UNL     1     135.737 124.535 102.724  1.00  0.00    -0.502 OA
ATOM     23  H   UNL     1     136.445 125.184 102.401  1.00  0.00     0.293 HD
ENDBRANCH   2  22
BRANCH   6  24
ATOM     24  O   UNL     1     133.024 124.243 107.298  1.00  0.00    -0.507 OA
ATOM     25  H   UNL     1     132.681 123.550 107.945  1.00  0.00     0.293 HD
ENDBRANCH   6  24
BRANCH   8  26
ATOM     26  O   UNL     1     128.839 126.128 105.943  1.00  0.00    -0.508 OA
ATOM     27  H   UNL     1     128.554 127.096 106.036  1.00  0.00     0.293 HD
ENDBRANCH   8  26
TORSDOF 6
ENDMDL
MODEL 7
REMARK VINA RESULT:    -4.409      4.655     10.307
REMARK INTER + INTRA:          -5.591
REMARK INTER:                  -5.377
REMARK INTRA:                  -0.214
REMARK UNBOUND:                -0.279
REMARK SMILES O=c1c(O)c(-c2ccc(O)c(O)c2)oc2cc(O)cc(O)c12
REMARK SMILES IDX 5 1 3 2 2 3 1 4 22 5 20 6 19 7 17 8 16 9 15 10 14 11 6 12
REMARK SMILES IDX 7 13 8 14 9 15 13 16 11 17 10 18 12 20 4 22 21 24 18 26
REMARK H PARENT 10 19 12 21 4 23 21 25 18 27
REMARK Flexibility Score: inf
ROOT
ATOM      1  C   UNL     1     117.982 125.748 102.410  1.00  0.00     0.180 A 
ATOM      2  C   UNL     1     117.134 126.446 103.288  1.00  0.00     0.208 A 
ATOM      3  C   UNL     1     117.586 126.736 104.584  1.00  0.00     0.238 A 
ATOM      4  O   UNL     1     116.843 127.408 105.347  1.00  0.00    -0.285 OA
ATOM      5  C   UNL     1     118.873 126.311 104.993  1.00  0.00     0.111 A 
ATOM      6  C   UNL     1     119.417 126.516 106.297  1.00  0.00     0.134 A 
ATOM      7  C   UNL     1     120.751 126.169 106.551  1.00  0.00     0.093 A 
ATOM      8  C   UNL     1     121.538 125.567 105.570  1.00  0.00     0.123 A 
ATOM      9  C   UNL     1     120.996 125.308 104.310  1.00  0.00     0.094 A 
ATOM     10  C   UNL     1     119.681 125.675 104.016  1.00  0.00     0.146 A 
ATOM     11  O   UNL     1     119.208 125.421 102.801  1.00  0.00    -0.452 OA
ENDROOT
BRANCH   1  12
ATOM     12  C   UNL     1     117.566 125.384 101.036  1.00  0.00     0.025 A 
ATOM     13  C   UNL     1     117.328 124.047 100.674  1.00  0.00     0.016 A 
ATOM     14  C   UNL     1     116.961 123.725  99.364  1.00  0.00     0.051 A 
ATOM     15  C   UNL     1     116.838 124.727  98.397  1.00  0.00     0.157 A 
ATOM     16  C   UNL     1     117.462 126.386 100.057  1.00  0.00     0.062 A 
ATOM     17  C   UNL     1     117.092 126.065  98.742  1.00  0.00     0.158 A 
BRANCH  15  18
ATOM     18  O   UNL     1     116.467 124.375  97.100  1.00  0.00    -0.504 OA
ATOM     19  H   UNL     1     116.682 123.466  96.707  1.00  0.00     0.293 HD
ENDBRANCH  15  18
BRANCH  17  20
ATOM     20  O   UNL     1     116.979 127.068  97.782  1.00  0.00    -0.504 OA
ATOM     21  H   UNL     1     116.131 127.193  97.243  1.00  0.00     0.293 HD
ENDBRANCH  17  20
ENDBRANCH   1  12
BRANCH   2  22
ATOM     22  O   UNL     1     115.875 126.874 102.856  1.00  0.00    -0.502 OA
ATOM     23  H   UNL     1     115.733 127.766 102.397  1.00  0.00     0.293 HD
ENDBRANCH   2  22
BRANCH   6  24
ATOM     24  O   UNL     1     118.689 127.026 107.376  1.00  0.00    -0.507 OA
ATOM     25  H   UNL     1     118.988 126.989 108.339  1.00  0.00     0.293 HD
ENDBRANCH   6  24
BRANCH   8  26
ATOM     26  O   UNL     1     122.855 125.221 105.863  1.00  0.00    -0.508 OA
ATOM     27  H   UNL     1     123.636 125.731 105.466  1.00  0.00     0.293 HD
ENDBRANCH   8  26
TORSDOF 6
ENDMDL
MODEL 8
REMARK VINA RESULT:    -4.365      4.660     10.288
REMARK INTER + INTRA:          -5.538
REMARK INTER:                  -5.248
REMARK INTRA:                  -0.290
REMARK UNBOUND:                -0.279
REMARK SMILES O=c1c(O)c(-c2ccc(O)c(O)c2)oc2cc(O)cc(O)c12
REMARK SMILES IDX 5 1 3 2 2 3 1 4 22 5 20 6 19 7 17 8 16 9 15 10 14 11 6 12
REMARK SMILES IDX 7 13 8 14 9 15 13 16 11 17 10 18 12 20 4 22 21 24 18 26
REMARK H PARENT 10 19 12 21 4 23 21 25 18 27
REMARK Flexibility Score: inf
ROOT
ATOM      1  C   UNL     1     118.126 125.670 102.188  1.00  0.00     0.180 A 
ATOM      2  C   UNL     1     119.498 125.667 102.494  1.00  0.00     0.208 A 
ATOM      3  C   UNL     1     119.910 126.062 103.777  1.00  0.00     0.238 A 
ATOM      4  O   UNL     1     121.136 126.005 104.062  1.00  0.00    -0.285 OA
ATOM      5  C   UNL     1     118.948 126.471 104.732  1.00  0.00     0.111 A 
ATOM      6  C   UNL     1     119.257 126.929 106.048  1.00  0.00     0.134 A 
ATOM      7  C   UNL     1     118.218 127.183 106.952  1.00  0.00     0.093 A 
ATOM      8  C   UNL     1     116.883 127.059 106.568  1.00  0.00     0.123 A 
ATOM      9  C   UNL     1     116.570 126.668 105.265  1.00  0.00     0.094 A 
ATOM     10  C   UNL     1     117.585 126.374 104.352  1.00  0.00     0.146 A 
ATOM     11  O   UNL     1     117.244 125.996 103.126  1.00  0.00    -0.452 OA
ENDROOT
BRANCH   1  12
ATOM     12  C   UNL     1     117.616 125.291 100.850  1.00  0.00     0.025 A 
ATOM     13  C   UNL     1     117.485 123.944 100.472  1.00  0.00     0.016 A 
ATOM     14  C   UNL     1     117.026 123.611  99.194  1.00  0.00     0.051 A 
ATOM     15  C   UNL     1     116.703 124.614  98.275  1.00  0.00     0.157 A 
ATOM     16  C   UNL     1     117.311 126.296  99.917  1.00  0.00     0.062 A 
ATOM     17  C   UNL     1     116.849 125.964  98.635  1.00  0.00     0.158 A 
BRANCH  15  18
ATOM     18  O   UNL     1     116.244 124.250  97.009  1.00  0.00    -0.504 OA
ATOM     19  H   UNL     1     115.725 124.890  96.421  1.00  0.00     0.293 HD
ENDBRANCH  15  18
BRANCH  17  20
ATOM     20  O   UNL     1     116.536 126.969  97.721  1.00  0.00    -0.504 OA
ATOM     21  H   UNL     1     117.074 127.101  96.874  1.00  0.00     0.293 HD
ENDBRANCH  17  20
ENDBRANCH   1  12
BRANCH   2  22
ATOM     22  O   UNL     1     120.429 125.240 101.543  1.00  0.00    -0.502 OA
ATOM     23  H   UNL     1     121.394 125.041 101.778  1.00  0.00     0.293 HD
ENDBRANCH   2  22
BRANCH   6  24
ATOM     24  O   UNL     1     120.556 127.175 106.505  1.00  0.00    -0.507 OA
ATOM     25  H   UNL     1     121.393 127.031 105.961  1.00  0.00     0.293 HD
ENDBRANCH   6  24
BRANCH   8  26
ATOM     26  O   UNL     1     115.875 127.335 107.490  1.00  0.00    -0.508 OA
ATOM     27  H   UNL     1     115.543 128.280 107.644  1.00  0.00     0.293 HD
ENDBRANCH   8  26
TORSDOF 6
ENDMDL
