MODEL 1
REMARK VINA RESULT:    -5.921      0.000      0.000
REMARK INTER + INTRA:         -15.340
REMARK INTER:                 -12.844
REMARK INTRA:                  -2.496
REMARK UNBOUND:                -2.496
REMARK SMILES CCCCCCCCCCCCCCCCCCCCCC(=O)[O-]
REMARK SMILES IDX 12 1 11 2 10 3 9 4 8 5 7 6 6 7 5 8 4 9 3 10 2 11 1 12 13 13
REMARK SMILES IDX 14 14 15 15 16 16 17 17 18 18 19 19 20 20 21 21 22 22 23 23
REMARK SMILES IDX 24 24
REMARK H PARENT
REMARK Flexibility Score: inf
ROOT
ATOM      1  C   UNL     1      -3.999 -32.667 -51.541  1.00  0.00     0.000 C 
ENDROOT
BRANCH   1   2
ATOM      2  C   UNL     1      -2.991 -32.525 -52.687  1.00  0.00     0.000 C 
BRANCH   2   3
ATOM      3  C   UNL     1      -1.927 -33.633 -52.636  1.00  0.00     0.000 C 
BRANCH   3   4
ATOM      4  C   UNL     1      -0.698 -33.331 -53.517  1.00  0.00    -0.000 C 
BRANCH   4   5
ATOM      5  C   UNL     1       0.503 -32.704 -52.776  1.00  0.00    -0.000 C 
BRANCH   5   6
ATOM      6  C   UNL     1       0.542 -31.165 -52.813  1.00  0.00    -0.000 C 
BRANCH   6   7
ATOM      7  C   UNL     1       0.370 -30.539 -51.419  1.00  0.00    -0.000 C 
BRANCH   7   8
ATOM      8  C   UNL     1      -0.837 -29.585 -51.348  1.00  0.00    -0.000 C 
BRANCH   8   9
ATOM      9  C   UNL     1      -1.427 -29.194 -52.719  1.00  0.00    -0.000 C 
BRANCH   9  10
ATOM     10  C   UNL     1      -1.407 -27.684 -53.046  1.00  0.00    -0.000 C 
BRANCH  10  11
ATOM     11  C   UNL     1      -0.240 -26.902 -52.422  1.00  0.00    -0.003 C 
ATOM     12  C   UNL     1      -0.417 -25.388 -52.522  1.00  0.00     0.004 C 
ENDBRANCH  10  11
ENDBRANCH   9  10
ENDBRANCH   8   9
ENDBRANCH   7   8
ENDBRANCH   6   7
ENDBRANCH   5   6
ENDBRANCH   4   5
ENDBRANCH   3   4
ENDBRANCH   2   3
ENDBRANCH   1   2
BRANCH   1  13
ATOM     13  C   UNL     1      -5.132 -31.642 -51.678  1.00  0.00     0.000 C 
BRANCH  13  14
ATOM     14  C   UNL     1      -6.290 -31.963 -50.724  1.00  0.00     0.000 C 
BRANCH  14  15
ATOM     15  C   UNL     1      -6.144 -31.191 -49.403  1.00  0.00     0.000 C 
BRANCH  15  16
ATOM     16  C   UNL     1      -7.208 -30.090 -49.243  1.00  0.00     0.000 C 
BRANCH  16  17
ATOM     17  C   UNL     1      -6.656 -28.653 -49.312  1.00  0.00     0.000 C 
BRANCH  17  18
ATOM     18  C   UNL     1      -5.798 -28.336 -50.553  1.00  0.00     0.000 C 
BRANCH  18  19
ATOM     19  C   UNL     1      -6.260 -27.086 -51.331  1.00  0.00     0.000 C 
BRANCH  19  20
ATOM     20  C   UNL     1      -5.706 -27.045 -52.763  1.00  0.00     0.006 C 
BRANCH  20  21
ATOM     21  C   UNL     1      -5.041 -28.374 -53.132  1.00  0.00     0.053 C 
BRANCH  21  22
ATOM     22  C   UNL     1      -5.566 -28.877 -54.441  1.00  0.00     0.041 C 
ATOM     23  O   UNL     1      -6.430 -28.217 -55.074  1.00  0.00    -0.550 OA
ATOM     24  O   UNL     1      -5.135 -30.101 -54.939  1.00  0.00    -0.550 OA
ENDBRANCH  21  22
ENDBRANCH  20  21
ENDBRANCH  19  20
ENDBRANCH  18  19
ENDBRANCH  17  18
ENDBRANCH  16  17
ENDBRANCH  15  16
ENDBRANCH  14  15
ENDBRANCH  13  14
ENDBRANCH   1  13
TORSDOF 20
ENDMDL
MODEL 2
REMARK VINA RESULT:    -5.870      2.147      3.209
REMARK INTER + INTRA:         -15.229
REMARK INTER:                 -12.164
REMARK INTRA:                  -3.065
REMARK UNBOUND:                -2.496
REMARK SMILES CCCCCCCCCCCCCCCCCCCCCC(=O)[O-]
REMARK SMILES IDX 12 1 11 2 10 3 9 4 8 5 7 6 6 7 5 8 4 9 3 10 2 11 1 12 13 13
REMARK SMILES IDX 14 14 15 15 16 16 17 17 18 18 19 19 20 20 21 21 22 22 23 23
REMARK SMILES IDX 24 24
REMARK H PARENT
REMARK Flexibility Score: inf
ROOT
ATOM      1  C   UNL     1      -3.399 -33.282 -50.881  1.00  0.00     0.000 C 
ENDROOT
BRANCH   1   2
ATOM      2  C   UNL     1      -1.915 -33.188 -51.252  1.00  0.00     0.000 C 
BRANCH   2   3
ATOM      3  C   UNL     1      -1.678 -33.595 -52.715  1.00  0.00     0.000 C 
BRANCH   3   4
ATOM      4  C   UNL     1      -1.064 -32.464 -53.563  1.00  0.00    -0.000 C 
BRANCH   4   5
ATOM      5  C   UNL     1       0.297 -31.931 -53.065  1.00  0.00    -0.000 C 
BRANCH   5   6
ATOM      6  C   UNL     1       0.379 -30.398 -52.949  1.00  0.00    -0.000 C 
BRANCH   6   7
ATOM      7  C   UNL     1      -0.341 -29.863 -51.700  1.00  0.00    -0.000 C 
BRANCH   7   8
ATOM      8  C   UNL     1      -1.668 -29.160 -52.043  1.00  0.00    -0.000 C 
BRANCH   8   9
ATOM      9  C   UNL     1      -1.512 -27.855 -52.850  1.00  0.00    -0.000 C 
BRANCH   9  10
ATOM     10  C   UNL     1      -0.401 -26.899 -52.361  1.00  0.00    -0.000 C 
BRANCH  10  11
ATOM     11  C   UNL     1       0.317 -26.117 -53.473  1.00  0.00    -0.003 C 
ATOM     12  C   UNL     1       1.257 -26.989 -54.302  1.00  0.00     0.004 C 
ENDBRANCH  10  11
ENDBRANCH   9  10
ENDBRANCH   8   9
ENDBRANCH   7   8
ENDBRANCH   6   7
ENDBRANCH   5   6
ENDBRANCH   4   5
ENDBRANCH   3   4
ENDBRANCH   2   3
ENDBRANCH   1   2
BRANCH   1  13
ATOM     13  C   UNL     1      -4.145 -32.001 -51.276  1.00  0.00     0.000 C 
BRANCH  13  14
ATOM     14  C   UNL     1      -5.367 -32.316 -52.150  1.00  0.00     0.000 C 
BRANCH  14  15
ATOM     15  C   UNL     1      -5.264 -31.611 -53.512  1.00  0.00     0.000 C 
BRANCH  15  16
ATOM     16  C   UNL     1      -4.445 -30.309 -53.442  1.00  0.00     0.000 C 
BRANCH  16  17
ATOM     17  C   UNL     1      -5.234 -29.037 -53.803  1.00  0.00     0.000 C 
BRANCH  17  18
ATOM     18  C   UNL     1      -5.368 -28.000 -52.669  1.00  0.00     0.000 C 
BRANCH  18  19
ATOM     19  C   UNL     1      -5.228 -28.600 -51.254  1.00  0.00     0.000 C 
BRANCH  19  20
ATOM     20  C   UNL     1      -6.395 -28.213 -50.331  1.00  0.00     0.006 C 
BRANCH  20  21
ATOM     21  C   UNL     1      -6.402 -29.076 -49.066  1.00  0.00     0.053 C 
BRANCH  21  22
ATOM     22  C   UNL     1      -7.562 -30.023 -49.085  1.00  0.00     0.041 C 
ATOM     23  O   UNL     1      -8.595 -29.774 -48.410  1.00  0.00    -0.550 OA
ATOM     24  O   UNL     1      -7.483 -31.206 -49.809  1.00  0.00    -0.550 OA
ENDBRANCH  21  22
ENDBRANCH  20  21
ENDBRANCH  19  20
ENDBRANCH  18  19
ENDBRANCH  17  18
ENDBRANCH  16  17
ENDBRANCH  15  16
ENDBRANCH  14  15
ENDBRANCH  13  14
ENDBRANCH   1  13
TORSDOF 20
ENDMDL
MODEL 3
REMARK VINA RESULT:    -5.826      2.272      5.046
REMARK INTER + INTRA:         -15.133
REMARK INTER:                 -12.475
REMARK INTRA:                  -2.657
REMARK UNBOUND:                -2.496
REMARK SMILES CCCCCCCCCCCCCCCCCCCCCC(=O)[O-]
REMARK SMILES IDX 12 1 11 2 10 3 9 4 8 5 7 6 6 7 5 8 4 9 3 10 2 11 1 12 13 13
REMARK SMILES IDX 14 14 15 15 16 16 17 17 18 18 19 19 20 20 21 21 22 22 23 23
REMARK SMILES IDX 24 24
REMARK H PARENT
REMARK Flexibility Score: inf
ROOT
ATOM      1  C   UNL     1      -0.529 -30.337 -51.247  1.00  0.00     0.000 C 
ENDROOT
BRANCH   1   2
ATOM      2  C   UNL     1       0.579 -31.223 -51.828  1.00  0.00     0.000 C 
BRANCH   2   3
ATOM      3  C   UNL     1       0.011 -32.542 -52.375  1.00  0.00     0.000 C 
BRANCH   3   4
ATOM      4  C   UNL     1      -1.089 -32.331 -53.435  1.00  0.00    -0.000 C 
BRANCH   4   5
ATOM      5  C   UNL     1      -2.453 -32.974 -53.104  1.00  0.00    -0.000 C 
BRANCH   5   6
ATOM      6  C   UNL     1      -2.595 -33.457 -51.649  1.00  0.00    -0.000 C 
BRANCH   6   7
ATOM      7  C   UNL     1      -3.684 -32.692 -50.879  1.00  0.00    -0.000 C 
BRANCH   7   8
ATOM      8  C   UNL     1      -4.908 -32.369 -51.756  1.00  0.00    -0.000 C 
BRANCH   8   9
ATOM      9  C   UNL     1      -5.827 -31.265 -51.194  1.00  0.00    -0.000 C 
BRANCH   9  10
ATOM     10  C   UNL     1      -6.258 -31.444 -49.722  1.00  0.00    -0.000 C 
BRANCH  10  11
ATOM     11  C   UNL     1      -6.456 -30.134 -48.941  1.00  0.00    -0.003 C 
ATOM     12  C   UNL     1      -6.450 -28.899 -49.838  1.00  0.00     0.004 C 
ENDBRANCH  10  11
ENDBRANCH   9  10
ENDBRANCH   8   9
ENDBRANCH   7   8
ENDBRANCH   6   7
ENDBRANCH   5   6
ENDBRANCH   4   5
ENDBRANCH   3   4
ENDBRANCH   2   3
ENDBRANCH   1   2
BRANCH   1  13
ATOM     13  C   UNL     1      -0.392 -28.892 -51.744  1.00  0.00     0.000 C 
BRANCH  13  14
ATOM     14  C   UNL     1      -1.510 -28.536 -52.733  1.00  0.00     0.000 C 
BRANCH  14  15
ATOM     15  C   UNL     1      -2.795 -29.315 -52.413  1.00  0.00     0.000 C 
BRANCH  15  16
ATOM     16  C   UNL     1      -4.065 -28.468 -52.616  1.00  0.00     0.000 C 
BRANCH  16  17
ATOM     17  C   UNL     1      -4.999 -28.975 -53.731  1.00  0.00     0.000 C 
BRANCH  17  18
ATOM     18  C   UNL     1      -5.535 -27.889 -54.686  1.00  0.00     0.000 C 
BRANCH  18  19
ATOM     19  C   UNL     1      -4.780 -26.546 -54.592  1.00  0.00     0.000 C 
BRANCH  19  20
ATOM     20  C   UNL     1      -5.676 -25.342 -54.923  1.00  0.00     0.006 C 
BRANCH  20  21
ATOM     21  C   UNL     1      -5.825 -25.171 -56.438  1.00  0.00     0.053 C 
BRANCH  21  22
ATOM     22  C   UNL     1      -6.773 -24.054 -56.748  1.00  0.00     0.041 C 
ATOM     23  O   UNL     1      -7.830 -24.279 -57.392  1.00  0.00    -0.550 OA
ATOM     24  O   UNL     1      -6.465 -22.754 -56.365  1.00  0.00    -0.550 OA
ENDBRANCH  21  22
ENDBRANCH  20  21
ENDBRANCH  19  20
ENDBRANCH  18  19
ENDBRANCH  17  18
ENDBRANCH  16  17
ENDBRANCH  15  16
ENDBRANCH  14  15
ENDBRANCH  13  14
ENDBRANCH   1  13
TORSDOF 20
ENDMDL
MODEL 4
REMARK VINA RESULT:    -5.800      2.447      6.366
REMARK INTER + INTRA:         -15.078
REMARK INTER:                 -12.158
REMARK INTRA:                  -2.920
REMARK UNBOUND:                -2.496
REMARK SMILES CCCCCCCCCCCCCCCCCCCCCC(=O)[O-]
REMARK SMILES IDX 12 1 11 2 10 3 9 4 8 5 7 6 6 7 5 8 4 9 3 10 2 11 1 12 13 13
REMARK SMILES IDX 14 14 15 15 16 16 17 17 18 18 19 19 20 20 21 21 22 22 23 23
REMARK SMILES IDX 24 24
REMARK H PARENT
REMARK Flexibility Score: inf
ROOT
ATOM      1  C   UNL     1      -5.262 -32.273 -52.328  1.00  0.00     0.000 C 
ENDROOT
BRANCH   1   2
ATOM      2  C   UNL     1      -5.283 -31.684 -53.743  1.00  0.00     0.000 C 
BRANCH   2   3
ATOM      3  C   UNL     1      -4.479 -30.377 -53.816  1.00  0.00     0.000 C 
BRANCH   3   4
ATOM      4  C   UNL     1      -5.371 -29.121 -53.869  1.00  0.00    -0.000 C 
BRANCH   4   5
ATOM      5  C   UNL     1      -4.811 -27.885 -53.132  1.00  0.00    -0.000 C 
BRANCH   5   6
ATOM      6  C   UNL     1      -5.664 -27.411 -51.941  1.00  0.00    -0.000 C 
BRANCH   6   7
ATOM      7  C   UNL     1      -5.955 -28.540 -50.940  1.00  0.00    -0.000 C 
BRANCH   7   8
ATOM      8  C   UNL     1      -6.270 -28.009 -49.529  1.00  0.00    -0.000 C 
BRANCH   8   9
ATOM      9  C   UNL     1      -6.392 -29.100 -48.445  1.00  0.00    -0.000 C 
BRANCH   9  10
ATOM     10  C   UNL     1      -6.370 -30.555 -48.961  1.00  0.00    -0.000 C 
BRANCH  10  11
ATOM     11  C   UNL     1      -7.755 -31.195 -49.154  1.00  0.00    -0.003 C 
ATOM     12  C   UNL     1      -8.814 -30.616 -48.219  1.00  0.00     0.004 C 
ENDBRANCH  10  11
ENDBRANCH   9  10
ENDBRANCH   8   9
ENDBRANCH   7   8
ENDBRANCH   6   7
ENDBRANCH   5   6
ENDBRANCH   4   5
ENDBRANCH   3   4
ENDBRANCH   2   3
ENDBRANCH   1   2
BRANCH   1  13
ATOM     13  C   UNL     1      -4.007 -31.826 -51.567  1.00  0.00     0.000 C 
BRANCH  13  14
ATOM     14  C   UNL     1      -2.979 -32.962 -51.473  1.00  0.00     0.000 C 
BRANCH  14  15
ATOM     15  C   UNL     1      -2.201 -33.108 -52.790  1.00  0.00     0.000 C 
BRANCH  15  16
ATOM     16  C   UNL     1      -1.119 -32.026 -52.959  1.00  0.00     0.000 C 
BRANCH  16  17
ATOM     17  C   UNL     1      -0.305 -31.731 -51.685  1.00  0.00     0.000 C 
BRANCH  17  18
ATOM     18  C   UNL     1      -0.213 -30.242 -51.292  1.00  0.00     0.000 C 
BRANCH  18  19
ATOM     19  C   UNL     1      -1.289 -29.354 -51.950  1.00  0.00     0.000 C 
BRANCH  19  20
ATOM     20  C   UNL     1      -0.706 -28.409 -53.012  1.00  0.00     0.006 C 
BRANCH  20  21
ATOM     21  C   UNL     1      -1.250 -26.988 -52.839  1.00  0.00     0.053 C 
BRANCH  21  22
ATOM     22  C   UNL     1      -0.128 -26.019 -52.626  1.00  0.00     0.041 C 
ATOM     23  O   UNL     1       0.824 -25.962 -53.447  1.00  0.00    -0.550 OA
ATOM     24  O   UNL     1      -0.110 -25.212 -51.496  1.00  0.00    -0.550 OA
ENDBRANCH  21  22
ENDBRANCH  20  21
ENDBRANCH  19  20
ENDBRANCH  18  19
ENDBRANCH  17  18
ENDBRANCH  16  17
ENDBRANCH  15  16
ENDBRANCH  14  15
ENDBRANCH  13  14
ENDBRANCH   1  13
TORSDOF 20
ENDMDL
MODEL 5
REMARK VINA RESULT:    -5.776      1.858      6.457
REMARK INTER + INTRA:         -15.024
REMARK INTER:                 -12.515
REMARK INTRA:                  -2.509
REMARK UNBOUND:                -2.496
REMARK SMILES CCCCCCCCCCCCCCCCCCCCCC(=O)[O-]
REMARK SMILES IDX 12 1 11 2 10 3 9 4 8 5 7 6 6 7 5 8 4 9 3 10 2 11 1 12 13 13
REMARK SMILES IDX 14 14 15 15 16 16 17 17 18 18 19 19 20 20 21 21 22 22 23 23
REMARK SMILES IDX 24 24
REMARK H PARENT
REMARK Flexibility Score: inf
ROOT
ATOM      1  C   UNL     1      -5.141 -30.925 -52.100  1.00  0.00     0.000 C 
ENDROOT
BRANCH   1   2
ATOM      2  C   UNL     1      -4.458 -30.319 -53.331  1.00  0.00     0.000 C 
BRANCH   2   3
ATOM      3  C   UNL     1      -5.485 -29.719 -54.302  1.00  0.00     0.000 C 
BRANCH   3   4
ATOM      4  C   UNL     1      -5.219 -28.234 -54.621  1.00  0.00    -0.000 C 
BRANCH   4   5
ATOM      5  C   UNL     1      -6.140 -27.230 -53.894  1.00  0.00    -0.000 C 
BRANCH   5   6
ATOM      6  C   UNL     1      -5.609 -26.748 -52.532  1.00  0.00    -0.000 C 
BRANCH   6   7
ATOM      7  C   UNL     1      -6.456 -27.260 -51.356  1.00  0.00    -0.000 C 
BRANCH   7   8
ATOM      8  C   UNL     1      -5.664 -28.199 -50.426  1.00  0.00    -0.000 C 
BRANCH   8   9
ATOM      9  C   UNL     1      -6.376 -28.540 -49.101  1.00  0.00    -0.000 C 
BRANCH   9  10
ATOM     10  C   UNL     1      -6.390 -30.037 -48.719  1.00  0.00    -0.000 C 
BRANCH  10  11
ATOM     11  C   UNL     1      -7.633 -30.813 -49.187  1.00  0.00    -0.003 C 
ATOM     12  C   UNL     1      -8.867 -30.531 -48.333  1.00  0.00     0.004 C 
ENDBRANCH  10  11
ENDBRANCH   9  10
ENDBRANCH   8   9
ENDBRANCH   7   8
ENDBRANCH   6   7
ENDBRANCH   5   6
ENDBRANCH   4   5
ENDBRANCH   3   4
ENDBRANCH   2   3
ENDBRANCH   1   2
BRANCH   1  13
ATOM     13  C   UNL     1      -4.866 -32.431 -52.006  1.00  0.00     0.000 C 
BRANCH  13  14
ATOM     14  C   UNL     1      -3.791 -32.735 -50.953  1.00  0.00     0.000 C 
BRANCH  14  15
ATOM     15  C   UNL     1      -2.662 -33.589 -51.551  1.00  0.00     0.000 C 
BRANCH  15  16
ATOM     16  C   UNL     1      -2.387 -33.253 -53.028  1.00  0.00     0.000 C 
BRANCH  16  17
ATOM     17  C   UNL     1      -0.960 -32.750 -53.314  1.00  0.00     0.000 C 
BRANCH  17  18
ATOM     18  C   UNL     1      -0.038 -32.647 -52.083  1.00  0.00     0.000 C 
BRANCH  18  19
ATOM     19  C   UNL     1       0.290 -31.198 -51.667  1.00  0.00     0.000 C 
BRANCH  19  20
ATOM     20  C   UNL     1      -0.948 -30.288 -51.669  1.00  0.00     0.006 C 
BRANCH  20  21
ATOM     21  C   UNL     1      -0.552 -28.824 -51.463  1.00  0.00     0.053 C 
BRANCH  21  22
ATOM     22  C   UNL     1      -0.721 -28.051 -52.735  1.00  0.00     0.041 C 
ATOM     23  O   UNL     1       0.010 -28.298 -53.729  1.00  0.00    -0.550 OA
ATOM     24  O   UNL     1      -1.656 -27.026 -52.808  1.00  0.00    -0.550 OA
ENDBRANCH  21  22
ENDBRANCH  20  21
ENDBRANCH  19  20
ENDBRANCH  18  19
ENDBRANCH  17  18
ENDBRANCH  16  17
ENDBRANCH  15  16
ENDBRANCH  14  15
ENDBRANCH  13  14
ENDBRANCH   1  13
TORSDOF 20
ENDMDL
MODEL 6
REMARK VINA RESULT:    -5.740      1.687      5.083
REMARK INTER + INTRA:         -14.948
REMARK INTER:                 -12.486
REMARK INTRA:                  -2.462
REMARK UNBOUND:                -2.496
REMARK SMILES CCCCCCCCCCCCCCCCCCCCCC(=O)[O-]
REMARK SMILES IDX 12 1 11 2 10 3 9 4 8 5 7 6 6 7 5 8 4 9 3 10 2 11 1 12 13 13
REMARK SMILES IDX 14 14 15 15 16 16 17 17 18 18 19 19 20 20 21 21 22 22 23 23
REMARK SMILES IDX 24 24
REMARK H PARENT
REMARK Flexibility Score: inf
ROOT
ATOM      1  C   UNL     1      -0.269 -31.281 -52.803  1.00  0.00     0.000 C 
ENDROOT
BRANCH   1   2
ATOM      2  C   UNL     1      -0.206 -32.812 -52.813  1.00  0.00     0.000 C 
BRANCH   2   3
ATOM      3  C   UNL     1      -1.607 -33.430 -52.692  1.00  0.00     0.000 C 
BRANCH   3   4
ATOM      4  C   UNL     1      -2.055 -33.631 -51.231  1.00  0.00    -0.000 C 
BRANCH   4   5
ATOM      5  C   UNL     1      -3.490 -33.159 -50.912  1.00  0.00    -0.000 C 
BRANCH   5   6
ATOM      6  C   UNL     1      -4.211 -32.469 -52.084  1.00  0.00    -0.000 C 
BRANCH   6   7
ATOM      7  C   UNL     1      -5.664 -32.100 -51.745  1.00  0.00    -0.000 C 
BRANCH   7   8
ATOM      8  C   UNL     1      -5.794 -31.429 -50.365  1.00  0.00    -0.000 C 
BRANCH   8   9
ATOM      9  C   UNL     1      -7.244 -31.255 -49.870  1.00  0.00    -0.000 C 
BRANCH   9  10
ATOM     10  C   UNL     1      -7.480 -30.073 -48.903  1.00  0.00    -0.000 C 
BRANCH  10  11
ATOM     11  C   UNL     1      -6.334 -29.050 -48.839  1.00  0.00    -0.003 C 
ATOM     12  C   UNL     1      -6.352 -28.061 -50.001  1.00  0.00     0.004 C 
ENDBRANCH  10  11
ENDBRANCH   9  10
ENDBRANCH   8   9
ENDBRANCH   7   8
ENDBRANCH   6   7
ENDBRANCH   5   6
ENDBRANCH   4   5
ENDBRANCH   3   4
ENDBRANCH   2   3
ENDBRANCH   1   2
BRANCH   1  13
ATOM     13  C   UNL     1      -0.067 -30.733 -51.385  1.00  0.00     0.000 C 
BRANCH  13  14
ATOM     14  C   UNL     1      -0.556 -29.282 -51.275  1.00  0.00     0.000 C 
BRANCH  14  15
ATOM     15  C   UNL     1      -0.844 -28.693 -52.664  1.00  0.00     0.000 C 
BRANCH  15  16
ATOM     16  C   UNL     1      -2.293 -28.191 -52.803  1.00  0.00     0.000 C 
BRANCH  16  17
ATOM     17  C   UNL     1      -3.301 -29.264 -53.255  1.00  0.00     0.000 C 
BRANCH  17  18
ATOM     18  C   UNL     1      -4.786 -28.872 -53.121  1.00  0.00     0.000 C 
BRANCH  18  19
ATOM     19  C   UNL     1      -5.528 -28.764 -54.470  1.00  0.00     0.000 C 
BRANCH  19  20
ATOM     20  C   UNL     1      -6.123 -27.366 -54.705  1.00  0.00     0.006 C 
BRANCH  20  21
ATOM     21  C   UNL     1      -5.713 -26.402 -53.588  1.00  0.00     0.053 C 
BRANCH  21  22
ATOM     22  C   UNL     1      -4.974 -25.229 -54.155  1.00  0.00     0.041 C 
ATOM     23  O   UNL     1      -5.484 -24.079 -54.114  1.00  0.00    -0.550 OA
ATOM     24  O   UNL     1      -3.743 -25.414 -54.770  1.00  0.00    -0.550 OA
ENDBRANCH  21  22
ENDBRANCH  20  21
ENDBRANCH  19  20
ENDBRANCH  18  19
ENDBRANCH  17  18
ENDBRANCH  16  17
ENDBRANCH  15  16
ENDBRANCH  14  15
ENDBRANCH  13  14
ENDBRANCH   1  13
TORSDOF 20
ENDMDL
MODEL 7
REMARK VINA RESULT:    -5.728      2.046      6.146
REMARK INTER + INTRA:         -14.921
REMARK INTER:                 -12.133
REMARK INTRA:                  -2.788
REMARK UNBOUND:                -2.496
REMARK SMILES CCCCCCCCCCCCCCCCCCCCCC(=O)[O-]
REMARK SMILES IDX 12 1 11 2 10 3 9 4 8 5 7 6 6 7 5 8 4 9 3 10 2 11 1 12 13 13
REMARK SMILES IDX 14 14 15 15 16 16 17 17 18 18 19 19 20 20 21 21 22 22 23 23
REMARK SMILES IDX 24 24
REMARK H PARENT
REMARK Flexibility Score: inf
ROOT
ATOM      1  C   UNL     1      -3.959 -32.707 -51.429  1.00  0.00     0.000 C 
ENDROOT
BRANCH   1   2
ATOM      2  C   UNL     1      -5.429 -32.276 -51.368  1.00  0.00     0.000 C 
BRANCH   2   3
ATOM      3  C   UNL     1      -5.748 -31.560 -50.047  1.00  0.00     0.000 C 
BRANCH   3   4
ATOM      4  C   UNL     1      -7.249 -31.254 -49.873  1.00  0.00    -0.000 C 
BRANCH   4   5
ATOM      5  C   UNL     1      -7.571 -29.895 -49.214  1.00  0.00    -0.000 C 
BRANCH   5   6
ATOM      6  C   UNL     1      -6.383 -29.242 -48.484  1.00  0.00    -0.000 C 
BRANCH   6   7
ATOM      7  C   UNL     1      -6.003 -27.878 -49.084  1.00  0.00    -0.000 C 
BRANCH   7   8
ATOM      8  C   UNL     1      -6.718 -27.604 -50.420  1.00  0.00    -0.000 C 
BRANCH   8   9
ATOM      9  C   UNL     1      -5.778 -27.481 -51.637  1.00  0.00    -0.000 C 
BRANCH   9  10
ATOM     10  C   UNL     1      -5.026 -28.772 -52.030  1.00  0.00    -0.000 C 
BRANCH  10  11
ATOM     11  C   UNL     1      -4.464 -28.785 -53.461  1.00  0.00    -0.003 C 
ATOM     12  C   UNL     1      -5.234 -29.715 -54.395  1.00  0.00     0.004 C 
ENDBRANCH  10  11
ENDBRANCH   9  10
ENDBRANCH   8   9
ENDBRANCH   7   8
ENDBRANCH   6   7
ENDBRANCH   5   6
ENDBRANCH   4   5
ENDBRANCH   3   4
ENDBRANCH   2   3
ENDBRANCH   1   2
BRANCH   1  13
ATOM     13  C   UNL     1      -3.342 -32.361 -52.790  1.00  0.00     0.000 C 
BRANCH  13  14
ATOM     14  C   UNL     1      -2.094 -33.211 -53.066  1.00  0.00     0.000 C 
BRANCH  14  15
ATOM     15  C   UNL     1      -0.921 -32.331 -53.523  1.00  0.00     0.000 C 
BRANCH  15  16
ATOM     16  C   UNL     1       0.303 -32.449 -52.596  1.00  0.00     0.000 C 
BRANCH  16  17
ATOM     17  C   UNL     1       0.608 -31.182 -51.775  1.00  0.00     0.000 C 
BRANCH  17  18
ATOM     18  C   UNL     1      -0.628 -30.422 -51.253  1.00  0.00     0.000 C 
BRANCH  18  19
ATOM     19  C   UNL     1      -0.704 -28.954 -51.725  1.00  0.00     0.000 C 
BRANCH  19  20
ATOM     20  C   UNL     1      -0.288 -28.785 -53.195  1.00  0.00     0.006 C 
BRANCH  20  21
ATOM     21  C   UNL     1       0.278 -27.385 -53.446  1.00  0.00     0.053 C 
BRANCH  21  22
ATOM     22  C   UNL     1      -0.642 -26.341 -52.892  1.00  0.00     0.041 C 
ATOM     23  O   UNL     1      -1.773 -26.154 -53.410  1.00  0.00    -0.550 OA
ATOM     24  O   UNL     1      -0.230 -25.541 -51.834  1.00  0.00    -0.550 OA
ENDBRANCH  21  22
ENDBRANCH  20  21
ENDBRANCH  19  20
ENDBRANCH  18  19
ENDBRANCH  17  18
ENDBRANCH  16  17
ENDBRANCH  15  16
ENDBRANCH  14  15
ENDBRANCH  13  14
ENDBRANCH   1  13
TORSDOF 20
ENDMDL
MODEL 8
REMARK VINA RESULT:    -5.725      2.185      3.466
REMARK INTER + INTRA:         -14.915
REMARK INTER:                 -12.191
REMARK INTRA:                  -2.724
REMARK UNBOUND:                -2.496
REMARK SMILES CCCCCCCCCCCCCCCCCCCCCC(=O)[O-]
REMARK SMILES IDX 12 1 11 2 10 3 9 4 8 5 7 6 6 7 5 8 4 9 3 10 2 11 1 12 13 13
REMARK SMILES IDX 14 14 15 15 16 16 17 17 18 18 19 19 20 20 21 21 22 22 23 23
REMARK SMILES IDX 24 24
REMARK H PARENT
REMARK Flexibility Score: inf
ROOT
ATOM      1  C   UNL     1      -2.435 -33.540 -51.884  1.00  0.00     0.000 C 
ENDROOT
BRANCH   1   2
ATOM      2  C   UNL     1      -1.761 -33.256 -53.231  1.00  0.00     0.000 C 
BRANCH   2   3
ATOM      3  C   UNL     1      -0.239 -33.109 -53.074  1.00  0.00     0.000 C 
BRANCH   3   4
ATOM      4  C   UNL     1       0.242 -31.650 -53.197  1.00  0.00    -0.000 C 
BRANCH   4   5
ATOM      5  C   UNL     1       0.458 -30.914 -51.857  1.00  0.00    -0.000 C 
BRANCH   5   6
ATOM      6  C   UNL     1      -0.691 -29.971 -51.454  1.00  0.00    -0.000 C 
BRANCH   6   7
ATOM      7  C   UNL     1      -0.402 -28.505 -51.812  1.00  0.00    -0.000 C 
BRANCH   7   8
ATOM      8  C   UNL     1      -1.222 -28.022 -53.022  1.00  0.00    -0.000 C 
BRANCH   8   9
ATOM      9  C   UNL     1      -0.396 -27.313 -54.115  1.00  0.00    -0.000 C 
BRANCH   9  10
ATOM     10  C   UNL     1       1.089 -27.732 -54.204  1.00  0.00    -0.000 C 
BRANCH  10  11
ATOM     11  C   UNL     1       1.390 -28.836 -55.230  1.00  0.00    -0.003 C 
ATOM     12  C   UNL     1       2.735 -29.519 -54.993  1.00  0.00     0.004 C 
ENDBRANCH  10  11
ENDBRANCH   9  10
ENDBRANCH   8   9
ENDBRANCH   7   8
ENDBRANCH   6   7
ENDBRANCH   5   6
ENDBRANCH   4   5
ENDBRANCH   3   4
ENDBRANCH   2   3
ENDBRANCH   1   2
BRANCH   1  13
ATOM     13  C   UNL     1      -3.159 -32.293 -51.360  1.00  0.00     0.000 C 
BRANCH  13  14
ATOM     14  C   UNL     1      -4.668 -32.539 -51.231  1.00  0.00     0.000 C 
BRANCH  14  15
ATOM     15  C   UNL     1      -5.431 -31.897 -52.400  1.00  0.00     0.000 C 
BRANCH  15  16
ATOM     16  C   UNL     1      -4.543 -30.963 -53.242  1.00  0.00     0.000 C 
BRANCH  16  17
ATOM     17  C   UNL     1      -5.232 -30.378 -54.489  1.00  0.00     0.000 C 
BRANCH  17  18
ATOM     18  C   UNL     1      -5.617 -28.888 -54.391  1.00  0.00     0.000 C 
BRANCH  18  19
ATOM     19  C   UNL     1      -4.785 -28.094 -53.361  1.00  0.00     0.000 C 
BRANCH  19  20
ATOM     20  C   UNL     1      -5.649 -27.503 -52.236  1.00  0.00     0.006 C 
BRANCH  20  21
ATOM     21  C   UNL     1      -5.432 -28.260 -50.923  1.00  0.00     0.053 C 
BRANCH  21  22
ATOM     22  C   UNL     1      -6.416 -27.807 -49.888  1.00  0.00     0.041 C 
ATOM     23  O   UNL     1      -6.740 -26.594 -49.808  1.00  0.00    -0.550 OA
ATOM     24  O   UNL     1      -6.941 -28.720 -48.981  1.00  0.00    -0.550 OA
ENDBRANCH  21  22
ENDBRANCH  20  21
ENDBRANCH  19  20
ENDBRANCH  18  19
ENDBRANCH  17  18
ENDBRANCH  16  17
ENDBRANCH  15  16
ENDBRANCH  14  15
ENDBRANCH  13  14
ENDBRANCH   1  13
TORSDOF 20
ENDMDL
MODEL 9
REMARK VINA RESULT:    -5.668      2.178      5.252
REMARK INTER + INTRA:         -14.791
REMARK INTER:                 -12.055
REMARK INTRA:                  -2.736
REMARK UNBOUND:                -2.496
REMARK SMILES CCCCCCCCCCCCCCCCCCCCCC(=O)[O-]
REMARK SMILES IDX 12 1 11 2 10 3 9 4 8 5 7 6 6 7 5 8 4 9 3 10 2 11 1 12 13 13
REMARK SMILES IDX 14 14 15 15 16 16 17 17 18 18 19 19 20 20 21 21 22 22 23 23
REMARK SMILES IDX 24 24
REMARK H PARENT
REMARK Flexibility Score: inf
ROOT
ATOM      1  C   UNL     1       0.602 -31.392 -52.602  1.00  0.00     0.000 C 
ENDROOT
BRANCH   1   2
ATOM      2  C   UNL     1       0.613 -30.672 -51.248  1.00  0.00     0.000 C 
BRANCH   2   3
ATOM      3  C   UNL     1      -0.393 -29.511 -51.225  1.00  0.00     0.000 C 
BRANCH   3   4
ATOM      4  C   UNL     1      -0.981 -29.193 -52.614  1.00  0.00    -0.000 C 
BRANCH   4   5
ATOM      5  C   UNL     1      -2.478 -29.529 -52.787  1.00  0.00    -0.000 C 
BRANCH   5   6
ATOM      6  C   UNL     1      -3.431 -28.345 -52.546  1.00  0.00    -0.000 C 
BRANCH   6   7
ATOM      7  C   UNL     1      -4.907 -28.773 -52.519  1.00  0.00    -0.000 C 
BRANCH   7   8
ATOM      8  C   UNL     1      -5.446 -29.110 -53.922  1.00  0.00    -0.000 C 
BRANCH   8   9
ATOM      9  C   UNL     1      -5.776 -27.881 -54.795  1.00  0.00    -0.000 C 
BRANCH   9  10
ATOM     10  C   UNL     1      -5.895 -26.540 -54.037  1.00  0.00    -0.000 C 
BRANCH  10  11
ATOM     11  C   UNL     1      -4.919 -25.446 -54.500  1.00  0.00    -0.003 C 
ATOM     12  C   UNL     1      -5.487 -24.037 -54.343  1.00  0.00     0.004 C 
ENDBRANCH  10  11
ENDBRANCH   9  10
ENDBRANCH   8   9
ENDBRANCH   7   8
ENDBRANCH   6   7
ENDBRANCH   5   6
ENDBRANCH   4   5
ENDBRANCH   3   4
ENDBRANCH   2   3
ENDBRANCH   1   2
BRANCH   1  13
ATOM     13  C   UNL     1       0.020 -32.805 -52.466  1.00  0.00     0.000 C 
BRANCH  13  14
ATOM     14  C   UNL     1      -0.997 -33.096 -53.577  1.00  0.00     0.000 C 
BRANCH  14  15
ATOM     15  C   UNL     1      -2.435 -32.995 -53.046  1.00  0.00     0.000 C 
BRANCH  15  16
ATOM     16  C   UNL     1      -2.508 -33.127 -51.513  1.00  0.00     0.000 C 
BRANCH  16  17
ATOM     17  C   UNL     1      -3.822 -32.620 -50.890  1.00  0.00     0.000 C 
BRANCH  17  18
ATOM     18  C   UNL     1      -4.966 -32.354 -51.889  1.00  0.00     0.000 C 
BRANCH  18  19
ATOM     19  C   UNL     1      -6.286 -31.911 -51.224  1.00  0.00     0.000 C 
BRANCH  19  20
ATOM     20  C   UNL     1      -6.071 -31.321 -49.822  1.00  0.00     0.006 C 
BRANCH  20  21
ATOM     21  C   UNL     1      -7.185 -30.332 -49.467  1.00  0.00     0.053 C 
BRANCH  21  22
ATOM     22  C   UNL     1      -6.605 -29.061 -48.927  1.00  0.00     0.041 C 
ATOM     23  O   UNL     1      -5.997 -29.059 -47.825  1.00  0.00    -0.550 OA
ATOM     24  O   UNL     1      -6.778 -27.868 -49.618  1.00  0.00    -0.550 OA
ENDBRANCH  21  22
ENDBRANCH  20  21
ENDBRANCH  19  20
ENDBRANCH  18  19
ENDBRANCH  17  18
ENDBRANCH  16  17
ENDBRANCH  15  16
ENDBRANCH  14  15
ENDBRANCH  13  14
ENDBRANCH   1  13
TORSDOF 20
ENDMDL
