MODEL 1
REMARK VINA RESULT:    12.439      0.000      0.000
REMARK INTER + INTRA:          32.559
REMARK INTER:                  32.801
REMARK INTRA:                  -0.242
REMARK UNBOUND:                -0.242
REMARK SMILES CCCCCCCCCCCCCCCCCCCCCCCCCCCCCC(=O)[O-]
REMARK SMILES IDX 16 1 17 2 18 3 19 4 20 5 21 6 22 7 23 8 24 9 25 10 26 11
REMARK SMILES IDX 27 12 28 13 29 14 30 15 31 16 32 17 15 18 14 19 13 20 12 21
REMARK SMILES IDX 11 22 10 23 9 24 8 25 7 26 6 27 5 28 4 29 3 30 2 31 1 32
REMARK H PARENT
REMARK Flexibility Score: inf
ROOT
ATOM      1  C   UNL     1      -4.983  36.283  25.557  1.00  0.00     0.000 C 
ENDROOT
BRANCH   1   2
ATOM      2  C   UNL     1      -4.631  37.774  25.399  1.00  0.00     0.000 C 
BRANCH   2   3
ATOM      3  C   UNL     1      -3.587  38.305  26.399  1.00  0.00     0.000 C 
BRANCH   3   4
ATOM      4  C   UNL     1      -2.423  37.325  26.632  1.00  0.00     0.000 C 
BRANCH   4   5
ATOM      5  C   UNL     1      -2.672  36.394  27.830  1.00  0.00     0.000 C 
BRANCH   5   6
ATOM      6  C   UNL     1      -1.636  35.259  27.919  1.00  0.00     0.000 C 
BRANCH   6   7
ATOM      7  C   UNL     1      -1.936  34.277  29.062  1.00  0.00     0.000 C 
BRANCH   7   8
ATOM      8  C   UNL     1      -0.668  33.602  29.617  1.00  0.00     0.000 C 
BRANCH   8   9
ATOM      9  C   UNL     1       0.550  33.821  28.702  1.00  0.00     0.000 C 
BRANCH   9  10
ATOM     10  C   UNL     1       1.883  33.557  29.423  1.00  0.00     0.000 C 
BRANCH  10  11
ATOM     11  C   UNL     1       2.986  34.533  28.980  1.00  0.00     0.000 C 
BRANCH  11  12
ATOM     12  C   UNL     1       3.157  34.558  27.450  1.00  0.00     0.000 C 
BRANCH  12  13
ATOM     13  C   UNL     1       4.157  35.629  26.973  1.00  0.00     0.006 C 
BRANCH  13  14
ATOM     14  C   UNL     1       4.144  36.917  27.818  1.00  0.00     0.053 C 
BRANCH  14  15
ATOM     15  C   UNL     1       4.846  38.058  27.145  1.00  0.00     0.041 C 
ATOM     16  O   UNL     1       4.186  38.967  26.580  1.00  0.00    -0.550 OA
ATOM     17  O   UNL     1       6.232  38.142  27.185  1.00  0.00    -0.550 OA
ENDBRANCH  14  15
ENDBRANCH  13  14
ENDBRANCH  12  13
ENDBRANCH  11  12
ENDBRANCH  10  11
ENDBRANCH   9  10
ENDBRANCH   8   9
ENDBRANCH   7   8
ENDBRANCH   6   7
ENDBRANCH   5   6
ENDBRANCH   4   5
ENDBRANCH   3   4
ENDBRANCH   2   3
ENDBRANCH   1   2
BRANCH   1  18
ATOM     18  C   UNL     1      -6.125  35.835  24.628  1.00  0.00     0.000 C 
BRANCH  18  19
ATOM     19  C   UNL     1      -5.935  34.402  24.106  1.00  0.00     0.000 C 
BRANCH  19  20
ATOM     20  C   UNL     1      -4.680  34.254  23.230  1.00  0.00     0.000 C 
BRANCH  20  21
ATOM     21  C   UNL     1      -4.643  35.260  22.067  1.00  0.00     0.000 C 
BRANCH  21  22
ATOM     22  C   UNL     1      -5.908  36.139  21.962  1.00  0.00     0.000 C 
BRANCH  22  23
ATOM     23  C   UNL     1      -5.827  37.133  20.788  1.00  0.00     0.000 C 
BRANCH  23  24
ATOM     24  C   UNL     1      -4.875  36.658  19.676  1.00  0.00    -0.000 C 
BRANCH  24  25
ATOM     25  C   UNL     1      -5.287  35.297  19.091  1.00  0.00    -0.000 C 
BRANCH  25  26
ATOM     26  C   UNL     1      -4.244  34.734  18.109  1.00  0.00    -0.000 C 
BRANCH  26  27
ATOM     27  C   UNL     1      -4.329  35.378  16.718  1.00  0.00    -0.000 C 
BRANCH  27  28
ATOM     28  C   UNL     1      -3.169  34.906  15.827  1.00  0.00    -0.000 C 
BRANCH  28  29
ATOM     29  C   UNL     1      -2.547  36.046  15.005  1.00  0.00    -0.000 C 
BRANCH  29  30
ATOM     30  C   UNL     1      -3.561  36.712  14.059  1.00  0.00    -0.000 C 
BRANCH  30  31
ATOM     31  C   UNL     1      -3.686  38.225  14.301  1.00  0.00    -0.003 C 
ATOM     32  C   UNL     1      -5.046  38.782  13.880  1.00  0.00     0.004 C 
ENDBRANCH  30  31
ENDBRANCH  29  30
ENDBRANCH  28  29
ENDBRANCH  27  28
ENDBRANCH  26  27
ENDBRANCH  25  26
ENDBRANCH  24  25
ENDBRANCH  23  24
ENDBRANCH  22  23
ENDBRANCH  21  22
ENDBRANCH  20  21
ENDBRANCH  19  20
ENDBRANCH  18  19
ENDBRANCH   1  18
TORSDOF 28
ENDMDL
MODEL 2
REMARK VINA RESULT:    12.627      4.365     12.269
REMARK INTER + INTRA:          33.054
REMARK INTER:                  31.962
REMARK INTRA:                   1.092
REMARK UNBOUND:                -0.242
REMARK SMILES CCCCCCCCCCCCCCCCCCCCCCCCCCCCCC(=O)[O-]
REMARK SMILES IDX 16 1 17 2 18 3 19 4 20 5 21 6 22 7 23 8 24 9 25 10 26 11
REMARK SMILES IDX 27 12 28 13 29 14 30 15 31 16 32 17 15 18 14 19 13 20 12 21
REMARK SMILES IDX 11 22 10 23 9 24 8 25 7 26 6 27 5 28 4 29 3 30 2 31 1 32
REMARK H PARENT
REMARK Flexibility Score: inf
ROOT
ATOM      1  C   UNL     1      -6.124  34.921  24.603  1.00  0.00     0.000 C 
ENDROOT
BRANCH   1   2
ATOM      2  C   UNL     1      -4.985  34.943  23.567  1.00  0.00     0.000 C 
BRANCH   2   3
ATOM      3  C   UNL     1      -5.299  34.227  22.241  1.00  0.00     0.000 C 
BRANCH   3   4
ATOM      4  C   UNL     1      -5.985  35.141  21.209  1.00  0.00     0.000 C 
BRANCH   4   5
ATOM      5  C   UNL     1      -5.861  36.630  21.572  1.00  0.00     0.000 C 
BRANCH   5   6
ATOM      6  C   UNL     1      -5.223  37.460  20.443  1.00  0.00     0.000 C 
BRANCH   6   7
ATOM      7  C   UNL     1      -5.271  36.744  19.086  1.00  0.00     0.000 C 
BRANCH   7   8
ATOM      8  C   UNL     1      -5.494  35.226  19.219  1.00  0.00     0.000 C 
BRANCH   8   9
ATOM      9  C   UNL     1      -4.795  34.440  18.096  1.00  0.00     0.000 C 
BRANCH   9  10
ATOM     10  C   UNL     1      -4.182  35.361  17.027  1.00  0.00     0.000 C 
BRANCH  10  11
ATOM     11  C   UNL     1      -2.879  34.786  16.445  1.00  0.00     0.000 C 
BRANCH  11  12
ATOM     12  C   UNL     1      -2.326  35.651  15.298  1.00  0.00     0.000 C 
BRANCH  12  13
ATOM     13  C   UNL     1      -3.432  36.255  14.411  1.00  0.00     0.006 C 
BRANCH  13  14
ATOM     14  C   UNL     1      -3.402  37.793  14.334  1.00  0.00     0.053 C 
BRANCH  14  15
ATOM     15  C   UNL     1      -4.746  38.384  14.034  1.00  0.00     0.041 C 
ATOM     16  O   UNL     1      -4.875  39.625  13.875  1.00  0.00    -0.550 OA
ATOM     17  O   UNL     1      -5.852  37.556  13.882  1.00  0.00    -0.550 OA
ENDBRANCH  14  15
ENDBRANCH  13  14
ENDBRANCH  12  13
ENDBRANCH  11  12
ENDBRANCH  10  11
ENDBRANCH   9  10
ENDBRANCH   8   9
ENDBRANCH   7   8
ENDBRANCH   6   7
ENDBRANCH   5   6
ENDBRANCH   4   5
ENDBRANCH   3   4
ENDBRANCH   2   3
ENDBRANCH   1   2
BRANCH   1  18
ATOM     18  C   UNL     1      -6.099  36.136  25.548  1.00  0.00     0.000 C 
BRANCH  18  19
ATOM     19  C   UNL     1      -4.885  37.047  25.309  1.00  0.00     0.000 C 
BRANCH  19  20
ATOM     20  C   UNL     1      -4.234  37.519  26.619  1.00  0.00     0.000 C 
BRANCH  20  21
ATOM     21  C   UNL     1      -2.705  37.644  26.515  1.00  0.00     0.000 C 
BRANCH  21  22
ATOM     22  C   UNL     1      -1.953  37.163  27.775  1.00  0.00     0.000 C 
BRANCH  22  23
ATOM     23  C   UNL     1      -1.854  35.628  27.841  1.00  0.00     0.000 C 
BRANCH  23  24
ATOM     24  C   UNL     1      -1.726  35.105  29.283  1.00  0.00    -0.000 C 
BRANCH  24  25
ATOM     25  C   UNL     1      -1.702  33.569  29.351  1.00  0.00    -0.000 C 
BRANCH  25  26
ATOM     26  C   UNL     1      -0.319  33.014  29.736  1.00  0.00    -0.000 C 
BRANCH  26  27
ATOM     27  C   UNL     1       0.820  34.000  29.440  1.00  0.00    -0.000 C 
BRANCH  27  28
ATOM     28  C   UNL     1       2.068  33.256  28.938  1.00  0.00    -0.000 C 
BRANCH  28  29
ATOM     29  C   UNL     1       3.379  33.939  29.360  1.00  0.00    -0.000 C 
BRANCH  29  30
ATOM     30  C   UNL     1       3.436  34.222  30.871  1.00  0.00    -0.000 C 
BRANCH  30  31
ATOM     31  C   UNL     1       4.212  33.142  31.642  1.00  0.00    -0.003 C 
ATOM     32  C   UNL     1       3.974  31.735  31.092  1.00  0.00     0.004 C 
ENDBRANCH  30  31
ENDBRANCH  29  30
ENDBRANCH  28  29
ENDBRANCH  27  28
ENDBRANCH  26  27
ENDBRANCH  25  26
ENDBRANCH  24  25
ENDBRANCH  23  24
ENDBRANCH  22  23
ENDBRANCH  21  22
ENDBRANCH  20  21
ENDBRANCH  19  20
ENDBRANCH  18  19
ENDBRANCH   1  18
TORSDOF 28
ENDMDL
MODEL 3
REMARK VINA RESULT:    13.507      3.916     11.609
REMARK INTER + INTRA:          35.373
REMARK INTER:                  36.780
REMARK INTRA:                  -1.406
REMARK UNBOUND:                -0.242
REMARK SMILES CCCCCCCCCCCCCCCCCCCCCCCCCCCCCC(=O)[O-]
REMARK SMILES IDX 16 1 17 2 18 3 19 4 20 5 21 6 22 7 23 8 24 9 25 10 26 11
REMARK SMILES IDX 27 12 28 13 29 14 30 15 31 16 32 17 15 18 14 19 13 20 12 21
REMARK SMILES IDX 11 22 10 23 9 24 8 25 7 26 6 27 5 28 4 29 3 30 2 31 1 32
REMARK H PARENT
REMARK Flexibility Score: inf
ROOT
ATOM      1  C   UNL     1      -6.120  35.916  24.279  1.00  0.00     0.000 C 
ENDROOT
BRANCH   1   2
ATOM      2  C   UNL     1      -6.123  34.595  25.071  1.00  0.00     0.000 C 
BRANCH   2   3
ATOM      3  C   UNL     1      -6.124  33.320  24.208  1.00  0.00     0.000 C 
BRANCH   3   4
ATOM      4  C   UNL     1      -6.100  33.615  22.697  1.00  0.00     0.000 C 
BRANCH   4   5
ATOM      5  C   UNL     1      -4.670  33.774  22.154  1.00  0.00     0.000 C 
BRANCH   5   6
ATOM      6  C   UNL     1      -4.563  34.882  21.091  1.00  0.00     0.000 C 
BRANCH   6   7
ATOM      7  C   UNL     1      -5.918  35.538  20.785  1.00  0.00     0.000 C 
BRANCH   7   8
ATOM      8  C   UNL     1      -5.856  36.508  19.591  1.00  0.00     0.000 C 
BRANCH   8   9
ATOM      9  C   UNL     1      -4.589  36.300  18.744  1.00  0.00     0.000 C 
BRANCH   9  10
ATOM     10  C   UNL     1      -4.619  34.980  17.954  1.00  0.00     0.000 C 
BRANCH  10  11
ATOM     11  C   UNL     1      -4.112  35.155  16.512  1.00  0.00     0.000 C 
BRANCH  11  12
ATOM     12  C   UNL     1      -2.790  35.941  16.455  1.00  0.00     0.000 C 
BRANCH  12  13
ATOM     13  C   UNL     1      -2.135  35.916  15.060  1.00  0.00     0.006 C 
BRANCH  13  14
ATOM     14  C   UNL     1      -3.124  36.132  13.900  1.00  0.00     0.053 C 
BRANCH  14  15
ATOM     15  C   UNL     1      -3.915  37.397  14.041  1.00  0.00     0.041 C 
ATOM     16  O   UNL     1      -5.172  37.371  13.983  1.00  0.00    -0.550 OA
ATOM     17  O   UNL     1      -3.266  38.600  14.287  1.00  0.00    -0.550 OA
ENDBRANCH  14  15
ENDBRANCH  13  14
ENDBRANCH  12  13
ENDBRANCH  11  12
ENDBRANCH  10  11
ENDBRANCH   9  10
ENDBRANCH   8   9
ENDBRANCH   7   8
ENDBRANCH   6   7
ENDBRANCH   5   6
ENDBRANCH   4   5
ENDBRANCH   3   4
ENDBRANCH   2   3
ENDBRANCH   1   2
BRANCH   1  18
ATOM     18  C   UNL     1      -5.022  36.890  24.742  1.00  0.00     0.000 C 
BRANCH  18  19
ATOM     19  C   UNL     1      -4.668  36.719  26.228  1.00  0.00     0.000 C 
BRANCH  19  20
ATOM     20  C   UNL     1      -3.157  36.550  26.459  1.00  0.00     0.000 C 
BRANCH  20  21
ATOM     21  C   UNL     1      -2.796  36.373  27.943  1.00  0.00     0.000 C 
BRANCH  21  22
ATOM     22  C   UNL     1      -1.673  35.344  28.193  1.00  0.00     0.000 C 
BRANCH  22  23
ATOM     23  C   UNL     1      -2.162  34.142  29.022  1.00  0.00     0.000 C 
BRANCH  23  24
ATOM     24  C   UNL     1      -1.013  33.408  29.736  1.00  0.00    -0.000 C 
BRANCH  24  25
ATOM     25  C   UNL     1       0.320  34.169  29.639  1.00  0.00    -0.000 C 
BRANCH  25  26
ATOM     26  C   UNL     1       1.448  33.315  29.035  1.00  0.00    -0.000 C 
BRANCH  26  27
ATOM     27  C   UNL     1       2.780  33.474  29.782  1.00  0.00    -0.000 C 
BRANCH  27  28
ATOM     28  C   UNL     1       3.561  34.688  29.253  1.00  0.00    -0.000 C 
BRANCH  28  29
ATOM     29  C   UNL     1       3.604  34.746  27.718  1.00  0.00    -0.000 C 
BRANCH  29  30
ATOM     30  C   UNL     1       3.660  36.187  27.184  1.00  0.00    -0.000 C 
BRANCH  30  31
ATOM     31  C   UNL     1       5.023  36.853  27.431  1.00  0.00    -0.003 C 
ATOM     32  C   UNL     1       5.078  38.297  26.930  1.00  0.00     0.004 C 
ENDBRANCH  30  31
ENDBRANCH  29  30
ENDBRANCH  28  29
ENDBRANCH  27  28
ENDBRANCH  26  27
ENDBRANCH  25  26
ENDBRANCH  24  25
ENDBRANCH  23  24
ENDBRANCH  22  23
ENDBRANCH  21  22
ENDBRANCH  20  21
ENDBRANCH  19  20
ENDBRANCH  18  19
ENDBRANCH   1  18
TORSDOF 28
ENDMDL
MODEL 4
REMARK VINA RESULT:    13.541      4.652     11.364
REMARK INTER + INTRA:          35.465
REMARK INTER:                  33.132
REMARK INTRA:                   2.333
REMARK UNBOUND:                -0.242
REMARK SMILES CCCCCCCCCCCCCCCCCCCCCCCCCCCCCC(=O)[O-]
REMARK SMILES IDX 16 1 17 2 18 3 19 4 20 5 21 6 22 7 23 8 24 9 25 10 26 11
REMARK SMILES IDX 27 12 28 13 29 14 30 15 31 16 32 17 15 18 14 19 13 20 12 21
REMARK SMILES IDX 11 22 10 23 9 24 8 25 7 26 6 27 5 28 4 29 3 30 2 31 1 32
REMARK H PARENT
REMARK Flexibility Score: inf
ROOT
ATOM      1  C   UNL     1      -5.963  36.474  22.174  1.00  0.00     0.000 C 
ENDROOT
BRANCH   1   2
ATOM      2  C   UNL     1      -6.112  37.659  23.147  1.00  0.00     0.000 C 
BRANCH   2   3
ATOM      3  C   UNL     1      -5.075  38.782  22.965  1.00  0.00     0.000 C 
BRANCH   3   4
ATOM      4  C   UNL     1      -4.989  39.296  21.516  1.00  0.00     0.000 C 
BRANCH   4   5
ATOM      5  C   UNL     1      -5.797  38.426  20.538  1.00  0.00     0.000 C 
BRANCH   5   6
ATOM      6  C   UNL     1      -4.976  38.009  19.305  1.00  0.00     0.000 C 
BRANCH   6   7
ATOM      7  C   UNL     1      -4.796  36.487  19.205  1.00  0.00     0.000 C 
BRANCH   7   8
ATOM      8  C   UNL     1      -6.081  35.760  18.767  1.00  0.00     0.000 C 
BRANCH   8   9
ATOM      9  C   UNL     1      -5.786  34.605  17.795  1.00  0.00     0.000 C 
BRANCH   9  10
ATOM     10  C   UNL     1      -4.335  34.105  17.897  1.00  0.00     0.000 C 
BRANCH  10  11
ATOM     11  C   UNL     1      -3.342  35.065  17.220  1.00  0.00     0.000 C 
BRANCH  11  12
ATOM     12  C   UNL     1      -3.730  35.365  15.761  1.00  0.00     0.000 C 
BRANCH  12  13
ATOM     13  C   UNL     1      -2.532  35.807  14.898  1.00  0.00     0.006 C 
BRANCH  13  14
ATOM     14  C   UNL     1      -2.848  36.966  13.934  1.00  0.00     0.053 C 
BRANCH  14  15
ATOM     15  C   UNL     1      -4.282  37.395  13.996  1.00  0.00     0.041 C 
ATOM     16  O   UNL     1      -5.199  36.539  14.100  1.00  0.00    -0.550 OA
ATOM     17  O   UNL     1      -4.606  38.746  13.987  1.00  0.00    -0.550 OA
ENDBRANCH  14  15
ENDBRANCH  13  14
ENDBRANCH  12  13
ENDBRANCH  11  12
ENDBRANCH  10  11
ENDBRANCH   9  10
ENDBRANCH   8   9
ENDBRANCH   7   8
ENDBRANCH   6   7
ENDBRANCH   5   6
ENDBRANCH   4   5
ENDBRANCH   3   4
ENDBRANCH   2   3
ENDBRANCH   1   2
BRANCH   1  18
ATOM     18  C   UNL     1      -5.849  35.118  22.894  1.00  0.00     0.000 C 
BRANCH  18  19
ATOM     19  C   UNL     1      -4.861  35.154  24.070  1.00  0.00     0.000 C 
BRANCH  19  20
ATOM     20  C   UNL     1      -5.430  34.499  25.339  1.00  0.00     0.000 C 
BRANCH  20  21
ATOM     21  C   UNL     1      -6.001  35.523  26.335  1.00  0.00     0.000 C 
BRANCH  21  22
ATOM     22  C   UNL     1      -6.120  36.951  25.761  1.00  0.00     0.000 C 
BRANCH  22  23
ATOM     23  C   UNL     1      -4.983  37.868  26.250  1.00  0.00     0.000 C 
BRANCH  23  24
ATOM     24  C   UNL     1      -3.591  37.247  26.042  1.00  0.00    -0.000 C 
BRANCH  24  25
ATOM     25  C   UNL     1      -2.500  37.963  26.857  1.00  0.00    -0.000 C 
BRANCH  25  26
ATOM     26  C   UNL     1      -1.425  36.998  27.386  1.00  0.00    -0.000 C 
BRANCH  26  27
ATOM     27  C   UNL     1      -1.968  35.584  27.637  1.00  0.00    -0.000 C 
BRANCH  27  28
ATOM     28  C   UNL     1      -1.139  34.865  28.714  1.00  0.00    -0.000 C 
BRANCH  28  29
ATOM     29  C   UNL     1      -1.984  33.919  29.582  1.00  0.00    -0.000 C 
BRANCH  29  30
ATOM     30  C   UNL     1      -1.120  32.970  30.430  1.00  0.00    -0.000 C 
BRANCH  30  31
ATOM     31  C   UNL     1      -0.480  31.851  29.592  1.00  0.00    -0.003 C 
ATOM     32  C   UNL     1       1.045  31.824  29.706  1.00  0.00     0.004 C 
ENDBRANCH  30  31
ENDBRANCH  29  30
ENDBRANCH  28  29
ENDBRANCH  27  28
ENDBRANCH  26  27
ENDBRANCH  25  26
ENDBRANCH  24  25
ENDBRANCH  23  24
ENDBRANCH  22  23
ENDBRANCH  21  22
ENDBRANCH  20  21
ENDBRANCH  19  20
ENDBRANCH  18  19
ENDBRANCH   1  18
TORSDOF 28
ENDMDL
MODEL 5
REMARK VINA RESULT:    13.554      3.340      4.020
REMARK INTER + INTRA:          35.499
REMARK INTER:                  36.472
REMARK INTRA:                  -0.973
REMARK UNBOUND:                -0.242
REMARK SMILES CCCCCCCCCCCCCCCCCCCCCCCCCCCCCC(=O)[O-]
REMARK SMILES IDX 16 1 17 2 18 3 19 4 20 5 21 6 22 7 23 8 24 9 25 10 26 11
REMARK SMILES IDX 27 12 28 13 29 14 30 15 31 16 32 17 15 18 14 19 13 20 12 21
REMARK SMILES IDX 11 22 10 23 9 24 8 25 7 26 6 27 5 28 4 29 3 30 2 31 1 32
REMARK H PARENT
REMARK Flexibility Score: inf
ROOT
ATOM      1  C   UNL     1      -5.027  36.184  25.546  1.00  0.00     0.000 C 
ENDROOT
BRANCH   1   2
ATOM      2  C   UNL     1      -4.567  37.651  25.632  1.00  0.00     0.000 C 
BRANCH   2   3
ATOM      3  C   UNL     1      -3.646  37.974  26.823  1.00  0.00     0.000 C 
BRANCH   3   4
ATOM      4  C   UNL     1      -2.374  37.107  26.855  1.00  0.00     0.000 C 
BRANCH   4   5
ATOM      5  C   UNL     1      -2.172  36.413  28.212  1.00  0.00     0.000 C 
BRANCH   5   6
ATOM      6  C   UNL     1      -1.859  34.913  28.065  1.00  0.00     0.000 C 
BRANCH   6   7
ATOM      7  C   UNL     1      -2.084  34.134  29.370  1.00  0.00     0.000 C 
BRANCH   7   8
ATOM      8  C   UNL     1      -0.908  33.203  29.721  1.00  0.00     0.000 C 
BRANCH   8   9
ATOM      9  C   UNL     1       0.308  33.444  28.811  1.00  0.00     0.000 C 
BRANCH   9  10
ATOM     10  C   UNL     1       1.643  33.168  29.526  1.00  0.00     0.000 C 
BRANCH  10  11
ATOM     11  C   UNL     1       1.664  31.786  30.200  1.00  0.00     0.000 C 
BRANCH  11  12
ATOM     12  C   UNL     1       3.098  31.271  30.420  1.00  0.00     0.000 C 
BRANCH  12  13
ATOM     13  C   UNL     1       3.160  29.753  30.677  1.00  0.00     0.006 C 
BRANCH  13  14
ATOM     14  C   UNL     1       4.067  28.988  29.695  1.00  0.00     0.053 C 
BRANCH  14  15
ATOM     15  C   UNL     1       3.318  27.977  28.882  1.00  0.00     0.041 C 
ATOM     16  O   UNL     1       2.064  27.909  28.950  1.00  0.00    -0.550 OA
ATOM     17  O   UNL     1       4.003  27.140  28.009  1.00  0.00    -0.550 OA
ENDBRANCH  14  15
ENDBRANCH  13  14
ENDBRANCH  12  13
ENDBRANCH  11  12
ENDBRANCH  10  11
ENDBRANCH   9  10
ENDBRANCH   8   9
ENDBRANCH   7   8
ENDBRANCH   6   7
ENDBRANCH   5   6
ENDBRANCH   4   5
ENDBRANCH   3   4
ENDBRANCH   2   3
ENDBRANCH   1   2
BRANCH   1  18
ATOM     18  C   UNL     1      -6.122  35.960  24.488  1.00  0.00     0.000 C 
BRANCH  18  19
ATOM     19  C   UNL     1      -6.031  34.577  23.825  1.00  0.00     0.000 C 
BRANCH  19  20
ATOM     20  C   UNL     1      -4.736  34.396  23.016  1.00  0.00     0.000 C 
BRANCH  20  21
ATOM     21  C   UNL     1      -4.597  35.418  21.875  1.00  0.00     0.000 C 
BRANCH  21  22
ATOM     22  C   UNL     1      -5.944  35.994  21.386  1.00  0.00     0.000 C 
BRANCH  22  23
ATOM     23  C   UNL     1      -5.758  37.020  20.253  1.00  0.00     0.000 C 
BRANCH  23  24
ATOM     24  C   UNL     1      -4.657  36.610  19.259  1.00  0.00    -0.000 C 
BRANCH  24  25
ATOM     25  C   UNL     1      -4.810  35.158  18.777  1.00  0.00    -0.000 C 
BRANCH  25  26
ATOM     26  C   UNL     1      -3.779  34.778  17.701  1.00  0.00    -0.000 C 
BRANCH  26  27
ATOM     27  C   UNL     1      -4.125  35.349  16.318  1.00  0.00    -0.000 C 
BRANCH  27  28
ATOM     28  C   UNL     1      -3.003  35.055  15.309  1.00  0.00    -0.000 C 
BRANCH  28  29
ATOM     29  C   UNL     1      -2.331  36.330  14.778  1.00  0.00    -0.000 C 
BRANCH  29  30
ATOM     30  C   UNL     1      -3.263  37.157  13.876  1.00  0.00    -0.000 C 
BRANCH  30  31
ATOM     31  C   UNL     1      -3.770  38.433  14.567  1.00  0.00    -0.003 C 
ATOM     32  C   UNL     1      -5.048  38.983  13.932  1.00  0.00     0.004 C 
ENDBRANCH  30  31
ENDBRANCH  29  30
ENDBRANCH  28  29
ENDBRANCH  27  28
ENDBRANCH  26  27
ENDBRANCH  25  26
ENDBRANCH  24  25
ENDBRANCH  23  24
ENDBRANCH  22  23
ENDBRANCH  21  22
ENDBRANCH  20  21
ENDBRANCH  19  20
ENDBRANCH  18  19
ENDBRANCH   1  18
TORSDOF 28
ENDMDL
MODEL 6
REMARK VINA RESULT:    13.667      4.219     11.696
REMARK INTER + INTRA:          35.797
REMARK INTER:                  33.991
REMARK INTRA:                   1.807
REMARK UNBOUND:                -0.242
REMARK SMILES CCCCCCCCCCCCCCCCCCCCCCCCCCCCCC(=O)[O-]
REMARK SMILES IDX 16 1 17 2 18 3 19 4 20 5 21 6 22 7 23 8 24 9 25 10 26 11
REMARK SMILES IDX 27 12 28 13 29 14 30 15 31 16 32 17 15 18 14 19 13 20 12 21
REMARK SMILES IDX 11 22 10 23 9 24 8 25 7 26 6 27 5 28 4 29 3 30 2 31 1 32
REMARK H PARENT
REMARK Flexibility Score: inf
ROOT
ATOM      1  C   UNL     1      -5.727  36.684  22.869  1.00  0.00     0.000 C 
ENDROOT
BRANCH   1   2
ATOM      2  C   UNL     1      -6.059  37.891  23.766  1.00  0.00     0.000 C 
BRANCH   2   3
ATOM      3  C   UNL     1      -5.359  39.204  23.373  1.00  0.00     0.000 C 
BRANCH   3   4
ATOM      4  C   UNL     1      -5.061  39.302  21.866  1.00  0.00     0.000 C 
BRANCH   4   5
ATOM      5  C   UNL     1      -5.906  38.320  21.037  1.00  0.00     0.000 C 
BRANCH   5   6
ATOM      6  C   UNL     1      -5.298  38.044  19.650  1.00  0.00     0.000 C 
BRANCH   6   7
ATOM      7  C   UNL     1      -4.890  36.574  19.468  1.00  0.00     0.000 C 
BRANCH   7   8
ATOM      8  C   UNL     1      -6.078  35.667  19.095  1.00  0.00     0.000 C 
BRANCH   8   9
ATOM      9  C   UNL     1      -5.630  34.226  18.797  1.00  0.00     0.000 C 
BRANCH   9  10
ATOM     10  C   UNL     1      -4.327  34.171  17.979  1.00  0.00     0.000 C 
BRANCH  10  11
ATOM     11  C   UNL     1      -4.336  35.166  16.807  1.00  0.00     0.000 C 
BRANCH  11  12
ATOM     12  C   UNL     1      -2.927  35.401  16.235  1.00  0.00     0.000 C 
BRANCH  12  13
ATOM     13  C   UNL     1      -2.904  35.470  14.696  1.00  0.00     0.006 C 
BRANCH  13  14
ATOM     14  C   UNL     1      -2.837  36.903  14.135  1.00  0.00     0.053 C 
BRANCH  14  15
ATOM     15  C   UNL     1      -4.167  37.593  14.147  1.00  0.00     0.041 C 
ATOM     16  O   UNL     1      -5.217  36.954  13.880  1.00  0.00    -0.550 OA
ATOM     17  O   UNL     1      -4.253  38.933  14.501  1.00  0.00    -0.550 OA
ENDBRANCH  14  15
ENDBRANCH  13  14
ENDBRANCH  12  13
ENDBRANCH  11  12
ENDBRANCH  10  11
ENDBRANCH   9  10
ENDBRANCH   8   9
ENDBRANCH   7   8
ENDBRANCH   6   7
ENDBRANCH   5   6
ENDBRANCH   4   5
ENDBRANCH   3   4
ENDBRANCH   2   3
ENDBRANCH   1   2
BRANCH   1  18
ATOM     18  C   UNL     1      -6.112  35.338  23.508  1.00  0.00     0.000 C 
BRANCH  18  19
ATOM     19  C   UNL     1      -5.736  35.260  24.996  1.00  0.00     0.000 C 
BRANCH  19  20
ATOM     20  C   UNL     1      -5.158  36.582  25.528  1.00  0.00     0.000 C 
BRANCH  20  21
ATOM     21  C   UNL     1      -3.683  36.463  25.946  1.00  0.00     0.000 C 
BRANCH  21  22
ATOM     22  C   UNL     1      -3.235  37.533  26.966  1.00  0.00     0.000 C 
BRANCH  22  23
ATOM     23  C   UNL     1      -1.830  37.247  27.526  1.00  0.00     0.000 C 
BRANCH  23  24
ATOM     24  C   UNL     1      -1.526  35.741  27.621  1.00  0.00    -0.000 C 
BRANCH  24  25
ATOM     25  C   UNL     1      -2.526  34.995  28.521  1.00  0.00    -0.000 C 
BRANCH  25  26
ATOM     26  C   UNL     1      -1.860  34.378  29.763  1.00  0.00    -0.000 C 
BRANCH  26  27
ATOM     27  C   UNL     1      -1.247  32.998  29.485  1.00  0.00    -0.000 C 
BRANCH  27  28
ATOM     28  C   UNL     1       0.281  33.096  29.352  1.00  0.00    -0.000 C 
BRANCH  28  29
ATOM     29  C   UNL     1       0.821  34.491  29.701  1.00  0.00    -0.000 C 
BRANCH  29  30
ATOM     30  C   UNL     1       2.177  34.434  30.425  1.00  0.00    -0.000 C 
BRANCH  30  31
ATOM     31  C   UNL     1       3.299  33.889  29.528  1.00  0.00    -0.003 C 
ATOM     32  C   UNL     1       3.957  32.632  30.100  1.00  0.00     0.004 C 
ENDBRANCH  30  31
ENDBRANCH  29  30
ENDBRANCH  28  29
ENDBRANCH  27  28
ENDBRANCH  26  27
ENDBRANCH  25  26
ENDBRANCH  24  25
ENDBRANCH  23  24
ENDBRANCH  22  23
ENDBRANCH  21  22
ENDBRANCH  20  21
ENDBRANCH  19  20
ENDBRANCH  18  19
ENDBRANCH   1  18
TORSDOF 28
ENDMDL
MODEL 7
REMARK VINA RESULT:    13.923      1.391      2.055
REMARK INTER + INTRA:          36.472
REMARK INTER:                  36.625
REMARK INTRA:                  -0.153
REMARK UNBOUND:                -0.242
REMARK SMILES CCCCCCCCCCCCCCCCCCCCCCCCCCCCCC(=O)[O-]
REMARK SMILES IDX 16 1 17 2 18 3 19 4 20 5 21 6 22 7 23 8 24 9 25 10 26 11
REMARK SMILES IDX 27 12 28 13 29 14 30 15 31 16 32 17 15 18 14 19 13 20 12 21
REMARK SMILES IDX 11 22 10 23 9 24 8 25 7 26 6 27 5 28 4 29 3 30 2 31 1 32
REMARK H PARENT
REMARK Flexibility Score: inf
ROOT
ATOM      1  C   UNL     1      -5.240  36.129  25.804  1.00  0.00     0.000 C 
ENDROOT
BRANCH   1   2
ATOM      2  C   UNL     1      -4.371  37.382  25.587  1.00  0.00     0.000 C 
BRANCH   2   3
ATOM      3  C   UNL     1      -3.773  37.988  26.869  1.00  0.00     0.000 C 
BRANCH   3   4
ATOM      4  C   UNL     1      -2.337  37.509  27.150  1.00  0.00     0.000 C 
BRANCH   4   5
ATOM      5  C   UNL     1      -2.244  35.979  27.275  1.00  0.00     0.000 C 
BRANCH   5   6
ATOM      6  C   UNL     1      -1.555  35.534  28.577  1.00  0.00     0.000 C 
BRANCH   6   7
ATOM      7  C   UNL     1      -2.146  34.234  29.143  1.00  0.00     0.000 C 
BRANCH   7   8
ATOM      8  C   UNL     1      -1.179  33.502  30.092  1.00  0.00     0.000 C 
BRANCH   8   9
ATOM      9  C   UNL     1      -0.287  32.497  29.343  1.00  0.00     0.000 C 
BRANCH   9  10
ATOM     10  C   UNL     1       0.859  31.961  30.219  1.00  0.00     0.000 C 
BRANCH  10  11
ATOM     11  C   UNL     1       2.147  31.729  29.410  1.00  0.00     0.000 C 
BRANCH  11  12
ATOM     12  C   UNL     1       3.404  32.169  30.183  1.00  0.00     0.000 C 
BRANCH  12  13
ATOM     13  C   UNL     1       3.605  33.697  30.186  1.00  0.00     0.006 C 
BRANCH  13  14
ATOM     14  C   UNL     1       4.760  34.177  29.288  1.00  0.00     0.053 C 
BRANCH  14  15
ATOM     15  C   UNL     1       4.282  34.796  28.010  1.00  0.00     0.041 C 
ATOM     16  O   UNL     1       3.082  34.673  27.654  1.00  0.00    -0.550 OA
ATOM     17  O   UNL     1       5.152  35.551  27.233  1.00  0.00    -0.550 OA
ENDBRANCH  14  15
ENDBRANCH  13  14
ENDBRANCH  12  13
ENDBRANCH  11  12
ENDBRANCH  10  11
ENDBRANCH   9  10
ENDBRANCH   8   9
ENDBRANCH   7   8
ENDBRANCH   6   7
ENDBRANCH   5   6
ENDBRANCH   4   5
ENDBRANCH   3   4
ENDBRANCH   2   3
ENDBRANCH   1   2
BRANCH   1  18
ATOM     18  C   UNL     1      -6.119  35.791  24.586  1.00  0.00     0.000 C 
BRANCH  18  19
ATOM     19  C   UNL     1      -6.114  34.291  24.252  1.00  0.00     0.000 C 
BRANCH  19  20
ATOM     20  C   UNL     1      -4.976  33.903  23.294  1.00  0.00     0.000 C 
BRANCH  20  21
ATOM     21  C   UNL     1      -4.840  34.872  22.107  1.00  0.00     0.000 C 
BRANCH  21  22
ATOM     22  C   UNL     1      -6.125  35.672  21.804  1.00  0.00     0.000 C 
BRANCH  22  23
ATOM     23  C   UNL     1      -5.950  37.177  22.079  1.00  0.00     0.000 C 
BRANCH  23  24
ATOM     24  C   UNL     1      -5.225  37.907  20.934  1.00  0.00    -0.000 C 
BRANCH  24  25
ATOM     25  C   UNL     1      -5.569  37.322  19.554  1.00  0.00    -0.000 C 
BRANCH  25  26
ATOM     26  C   UNL     1      -4.374  36.608  18.898  1.00  0.00    -0.000 C 
BRANCH  26  27
ATOM     27  C   UNL     1      -4.569  35.088  18.805  1.00  0.00    -0.000 C 
BRANCH  27  28
ATOM     28  C   UNL     1      -4.320  34.593  17.371  1.00  0.00    -0.000 C 
BRANCH  28  29
ATOM     29  C   UNL     1      -4.071  35.739  16.380  1.00  0.00    -0.000 C 
BRANCH  29  30
ATOM     30  C   UNL     1      -2.888  35.457  15.438  1.00  0.00    -0.000 C 
BRANCH  30  31
ATOM     31  C   UNL     1      -2.989  36.237  14.117  1.00  0.00    -0.003 C 
ATOM     32  C   UNL     1      -3.947  37.426  14.204  1.00  0.00     0.004 C 
ENDBRANCH  30  31
ENDBRANCH  29  30
ENDBRANCH  28  29
ENDBRANCH  27  28
ENDBRANCH  26  27
ENDBRANCH  25  26
ENDBRANCH  24  25
ENDBRANCH  23  24
ENDBRANCH  22  23
ENDBRANCH  21  22
ENDBRANCH  20  21
ENDBRANCH  19  20
ENDBRANCH  18  19
ENDBRANCH   1  18
TORSDOF 28
ENDMDL
MODEL 8
REMARK VINA RESULT:    14.233      3.899     11.465
REMARK INTER + INTRA:          37.288
REMARK INTER:                  38.662
REMARK INTRA:                  -1.374
REMARK UNBOUND:                -0.242
REMARK SMILES CCCCCCCCCCCCCCCCCCCCCCCCCCCCCC(=O)[O-]
REMARK SMILES IDX 16 1 17 2 18 3 19 4 20 5 21 6 22 7 23 8 24 9 25 10 26 11
REMARK SMILES IDX 27 12 28 13 29 14 30 15 31 16 32 17 15 18 14 19 13 20 12 21
REMARK SMILES IDX 11 22 10 23 9 24 8 25 7 26 6 27 5 28 4 29 3 30 2 31 1 32
REMARK H PARENT
REMARK Flexibility Score: inf
ROOT
ATOM      1  C   UNL     1      -5.109  36.661  25.171  1.00  0.00     0.000 C 
ENDROOT
BRANCH   1   2
ATOM      2  C   UNL     1      -5.788  37.506  24.078  1.00  0.00     0.000 C 
BRANCH   2   3
ATOM      3  C   UNL     1      -5.270  38.951  23.958  1.00  0.00     0.000 C 
BRANCH   3   4
ATOM      4  C   UNL     1      -4.900  39.341  22.516  1.00  0.00     0.000 C 
BRANCH   4   5
ATOM      5  C   UNL     1      -6.035  39.046  21.520  1.00  0.00     0.000 C 
BRANCH   5   6
ATOM      6  C   UNL     1      -5.524  38.876  20.078  1.00  0.00     0.000 C 
BRANCH   6   7
ATOM      7  C   UNL     1      -5.154  37.422  19.751  1.00  0.00     0.000 C 
BRANCH   7   8
ATOM      8  C   UNL     1      -5.880  36.405  20.652  1.00  0.00     0.000 C 
BRANCH   8   9
ATOM      9  C   UNL     1      -4.992  35.192  20.982  1.00  0.00     0.000 C 
BRANCH   9  10
ATOM     10  C   UNL     1      -4.325  34.593  19.731  1.00  0.00     0.000 C 
BRANCH  10  11
ATOM     11  C   UNL     1      -5.349  34.246  18.638  1.00  0.00     0.000 C 
BRANCH  11  12
ATOM     12  C   UNL     1      -4.791  34.487  17.224  1.00  0.00     0.000 C 
BRANCH  12  13
ATOM     13  C   UNL     1      -3.592  35.454  17.207  1.00  0.00     0.006 C 
BRANCH  13  14
ATOM     14  C   UNL     1      -3.727  36.601  16.188  1.00  0.00     0.053 C 
BRANCH  14  15
ATOM     15  C   UNL     1      -3.362  36.184  14.795  1.00  0.00     0.041 C 
ATOM     16  O   UNL     1      -2.155  36.063  14.463  1.00  0.00    -0.550 OA
ATOM     17  O   UNL     1      -4.359  35.882  13.875  1.00  0.00    -0.550 OA
ENDBRANCH  14  15
ENDBRANCH  13  14
ENDBRANCH  12  13
ENDBRANCH  11  12
ENDBRANCH  10  11
ENDBRANCH   9  10
ENDBRANCH   8   9
ENDBRANCH   7   8
ENDBRANCH   6   7
ENDBRANCH   5   6
ENDBRANCH   4   5
ENDBRANCH   3   4
ENDBRANCH   2   3
ENDBRANCH   1   2
BRANCH   1  18
ATOM     18  C   UNL     1      -3.984  37.416  25.901  1.00  0.00     0.000 C 
BRANCH  18  19
ATOM     19  C   UNL     1      -3.648  36.800  27.268  1.00  0.00     0.000 C 
BRANCH  19  20
ATOM     20  C   UNL     1      -2.145  36.862  27.590  1.00  0.00     0.000 C 
BRANCH  20  21
ATOM     21  C   UNL     1      -1.492  35.472  27.656  1.00  0.00     0.000 C 
BRANCH  21  22
ATOM     22  C   UNL     1      -1.815  34.692  28.949  1.00  0.00     0.000 C 
BRANCH  22  23
ATOM     23  C   UNL     1      -0.861  33.502  29.162  1.00  0.00     0.000 C 
BRANCH  23  24
ATOM     24  C   UNL     1       0.406  33.892  29.945  1.00  0.00    -0.000 C 
BRANCH  24  25
ATOM     25  C   UNL     1       1.695  33.447  29.236  1.00  0.00    -0.000 C 
BRANCH  25  26
ATOM     26  C   UNL     1       2.965  33.858  30.001  1.00  0.00    -0.000 C 
BRANCH  26  27
ATOM     27  C   UNL     1       3.775  34.940  29.271  1.00  0.00    -0.000 C 
BRANCH  27  28
ATOM     28  C   UNL     1       4.807  34.304  28.326  1.00  0.00    -0.000 C 
BRANCH  28  29
ATOM     29  C   UNL     1       4.644  34.764  26.869  1.00  0.00    -0.000 C 
BRANCH  29  30
ATOM     30  C   UNL     1       4.014  36.163  26.760  1.00  0.00    -0.000 C 
BRANCH  30  31
ATOM     31  C   UNL     1       4.604  37.154  27.776  1.00  0.00    -0.003 C 
ATOM     32  C   UNL     1       5.337  38.319  27.111  1.00  0.00     0.004 C 
ENDBRANCH  30  31
ENDBRANCH  29  30
ENDBRANCH  28  29
ENDBRANCH  27  28
ENDBRANCH  26  27
ENDBRANCH  25  26
ENDBRANCH  24  25
ENDBRANCH  23  24
ENDBRANCH  22  23
ENDBRANCH  21  22
ENDBRANCH  20  21
ENDBRANCH  19  20
ENDBRANCH  18  19
ENDBRANCH   1  18
TORSDOF 28
ENDMDL
MODEL 9
REMARK VINA RESULT:    14.645      1.517      2.466
REMARK INTER + INTRA:          38.375
REMARK INTER:                  39.530
REMARK INTRA:                  -1.155
REMARK UNBOUND:                -0.242
REMARK SMILES CCCCCCCCCCCCCCCCCCCCCCCCCCCCCC(=O)[O-]
REMARK SMILES IDX 16 1 17 2 18 3 19 4 20 5 21 6 22 7 23 8 24 9 25 10 26 11
REMARK SMILES IDX 27 12 28 13 29 14 30 15 31 16 32 17 15 18 14 19 13 20 12 21
REMARK SMILES IDX 11 22 10 23 9 24 8 25 7 26 6 27 5 28 4 29 3 30 2 31 1 32
REMARK H PARENT
REMARK Flexibility Score: inf
ROOT
ATOM      1  C   UNL     1      -5.898  36.921  23.833  1.00  0.00     0.000 C 
ENDROOT
BRANCH   1   2
ATOM      2  C   UNL     1      -5.496  36.017  25.012  1.00  0.00     0.000 C 
BRANCH   2   3
ATOM      3  C   UNL     1      -4.719  36.723  26.138  1.00  0.00     0.000 C 
BRANCH   3   4
ATOM      4  C   UNL     1      -3.346  36.084  26.416  1.00  0.00     0.000 C 
BRANCH   4   5
ATOM      5  C   UNL     1      -2.452  36.976  27.294  1.00  0.00     0.000 C 
BRANCH   5   6
ATOM      6  C   UNL     1      -1.627  36.165  28.310  1.00  0.00     0.000 C 
BRANCH   6   7
ATOM      7  C   UNL     1      -2.147  34.730  28.480  1.00  0.00     0.000 C 
BRANCH   7   8
ATOM      8  C   UNL     1      -1.773  34.117  29.842  1.00  0.00     0.000 C 
BRANCH   8   9
ATOM      9  C   UNL     1      -0.250  34.050  30.045  1.00  0.00     0.000 C 
BRANCH   9  10
ATOM     10  C   UNL     1       0.439  33.113  29.037  1.00  0.00     0.000 C 
BRANCH  10  11
ATOM     11  C   UNL     1       1.633  32.370  29.658  1.00  0.00     0.000 C 
BRANCH  11  12
ATOM     12  C   UNL     1       2.879  33.266  29.770  1.00  0.00     0.000 C 
BRANCH  12  13
ATOM     13  C   UNL     1       2.983  34.299  28.632  1.00  0.00     0.006 C 
BRANCH  13  14
ATOM     14  C   UNL     1       4.293  35.108  28.638  1.00  0.00     0.053 C 
BRANCH  14  15
ATOM     15  C   UNL     1       4.509  35.870  27.365  1.00  0.00     0.041 C 
ATOM     16  O   UNL     1       4.268  35.333  26.254  1.00  0.00    -0.550 OA
ATOM     17  O   UNL     1       4.931  37.193  27.409  1.00  0.00    -0.550 OA
ENDBRANCH  14  15
ENDBRANCH  13  14
ENDBRANCH  12  13
ENDBRANCH  11  12
ENDBRANCH  10  11
ENDBRANCH   9  10
ENDBRANCH   8   9
ENDBRANCH   7   8
ENDBRANCH   6   7
ENDBRANCH   5   6
ENDBRANCH   4   5
ENDBRANCH   3   4
ENDBRANCH   2   3
ENDBRANCH   1   2
BRANCH   1  18
ATOM     18  C   UNL     1      -5.953  38.412  24.213  1.00  0.00     0.000 C 
BRANCH  18  19
ATOM     19  C   UNL     1      -4.753  39.205  23.671  1.00  0.00     0.000 C 
BRANCH  19  20
ATOM     20  C   UNL     1      -5.176  40.348  22.733  1.00  0.00     0.000 C 
BRANCH  20  21
ATOM     21  C   UNL     1      -5.417  39.877  21.289  1.00  0.00     0.000 C 
BRANCH  21  22
ATOM     22  C   UNL     1      -5.754  38.374  21.171  1.00  0.00     0.000 C 
BRANCH  22  23
ATOM     23  C   UNL     1      -5.230  37.764  19.858  1.00  0.00     0.000 C 
BRANCH  23  24
ATOM     24  C   UNL     1      -5.865  36.397  19.547  1.00  0.00    -0.000 C 
BRANCH  24  25
ATOM     25  C   UNL     1      -5.152  35.241  20.267  1.00  0.00    -0.000 C 
BRANCH  25  26
ATOM     26  C   UNL     1      -4.743  34.107  19.310  1.00  0.00    -0.000 C 
BRANCH  26  27
ATOM     27  C   UNL     1      -4.867  34.505  17.832  1.00  0.00    -0.000 C 
BRANCH  27  28
ATOM     28  C   UNL     1      -3.681  33.961  17.019  1.00  0.00    -0.000 C 
BRANCH  28  29
ATOM     29  C   UNL     1      -3.056  35.018  16.097  1.00  0.00    -0.000 C 
BRANCH  29  30
ATOM     30  C   UNL     1      -3.918  36.287  15.986  1.00  0.00    -0.000 C 
BRANCH  30  31
ATOM     31  C   UNL     1      -3.967  36.841  14.553  1.00  0.00    -0.003 C 
ATOM     32  C   UNL     1      -2.592  36.876  13.884  1.00  0.00     0.004 C 
ENDBRANCH  30  31
ENDBRANCH  29  30
ENDBRANCH  28  29
ENDBRANCH  27  28
ENDBRANCH  26  27
ENDBRANCH  25  26
ENDBRANCH  24  25
ENDBRANCH  23  24
ENDBRANCH  22  23
ENDBRANCH  21  22
ENDBRANCH  20  21
ENDBRANCH  19  20
ENDBRANCH  18  19
ENDBRANCH   1  18
TORSDOF 28
ENDMDL
