MODEL 1
REMARK VINA RESULT:    -4.446      0.000      0.000
REMARK INTER + INTRA:         -10.167
REMARK INTER:                  -8.345
REMARK INTRA:                  -1.822
REMARK UNBOUND:                -1.822
REMARK SMILES CCCCCCCCC=CCCCCCCCC(=O)[O-]
REMARK SMILES IDX 10 1 9 2 11 3 12 4 13 5 14 6 15 7 16 8 17 9 18 10 19 11
REMARK SMILES IDX 20 12 8 13 7 14 6 15 5 16 4 17 3 18 2 19 1 20
REMARK H PARENT
REMARK Flexibility Score: inf
ROOT
ATOM      1  C   UNL     1      -2.575  19.703  29.491  1.00  0.00    -0.031 C 
ATOM      2  C   UNL     1      -1.747  20.621  30.011  1.00  0.00    -0.031 C 
ENDROOT
BRANCH   1   3
ATOM      3  C   UNL     1      -2.066  18.340  29.104  1.00  0.00     0.027 C 
BRANCH   3   4
ATOM      4  C   UNL     1      -0.532  18.270  29.109  1.00  0.00     0.004 C 
BRANCH   4   5
ATOM      5  C   UNL     1       0.010  17.380  27.978  1.00  0.00     0.000 C 
BRANCH   5   6
ATOM      6  C   UNL     1       0.984  16.307  28.489  1.00  0.00     0.000 C 
BRANCH   6   7
ATOM      7  C   UNL     1       0.717  15.920  29.955  1.00  0.00     0.000 C 
BRANCH   7   8
ATOM      8  C   UNL     1       0.868  14.410  30.202  1.00  0.00     0.006 C 
BRANCH   8   9
ATOM      9  C   UNL     1      -0.478  13.716  30.442  1.00  0.00     0.053 C 
BRANCH   9  10
ATOM     10  C   UNL     1      -0.551  12.436  29.671  1.00  0.00     0.041 C 
ATOM     11  O   UNL     1      -1.441  11.587  29.937  1.00  0.00    -0.550 OA
ATOM     12  O   UNL     1       0.391  12.162  28.688  1.00  0.00    -0.550 OA
ENDBRANCH   9  10
ENDBRANCH   8   9
ENDBRANCH   7   8
ENDBRANCH   6   7
ENDBRANCH   5   6
ENDBRANCH   4   5
ENDBRANCH   3   4
ENDBRANCH   1   3
BRANCH   2  13
ATOM     13  C   UNL     1      -2.231  21.992  30.399  1.00  0.00     0.027 C 
BRANCH  13  14
ATOM     14  C   UNL     1      -1.118  22.862  31.009  1.00  0.00     0.004 C 
BRANCH  14  15
ATOM     15  C   UNL     1       0.216  22.820  30.237  1.00  0.00     0.000 C 
BRANCH  15  16
ATOM     16  C   UNL     1       1.293  21.899  30.844  1.00  0.00     0.000 C 
BRANCH  16  17
ATOM     17  C   UNL     1       1.986  20.961  29.839  1.00  0.00    -0.000 C 
BRANCH  17  18
ATOM     18  C   UNL     1       2.617  19.731  30.512  1.00  0.00    -0.000 C 
BRANCH  18  19
ATOM     19  C   UNL     1       3.396  18.854  29.521  1.00  0.00    -0.003 C 
ATOM     20  C   UNL     1       3.242  19.320  28.074  1.00  0.00     0.004 C 
ENDBRANCH  18  19
ENDBRANCH  17  18
ENDBRANCH  16  17
ENDBRANCH  15  16
ENDBRANCH  14  15
ENDBRANCH  13  14
ENDBRANCH   2  13
TORSDOF 15
ENDMDL
MODEL 2
REMARK VINA RESULT:    -4.429      4.221      7.157
REMARK INTER + INTRA:         -10.134
REMARK INTER:                  -7.788
REMARK INTRA:                  -2.347
REMARK UNBOUND:                -1.822
REMARK SMILES CCCCCCCCC=CCCCCCCCC(=O)[O-]
REMARK SMILES IDX 10 1 9 2 11 3 12 4 13 5 14 6 15 7 16 8 17 9 18 10 19 11
REMARK SMILES IDX 20 12 8 13 7 14 6 15 5 16 4 17 3 18 2 19 1 20
REMARK H PARENT
REMARK Flexibility Score: inf
ROOT
ATOM      1  C   UNL     1      -1.626  19.355  29.482  1.00  0.00    -0.031 C 
ATOM      2  C   UNL     1      -1.723  18.073  29.102  1.00  0.00    -0.031 C 
ENDROOT
BRANCH   1   3
ATOM      3  C   UNL     1      -2.860  20.203  29.647  1.00  0.00     0.027 C 
BRANCH   3   4
ATOM      4  C   UNL     1      -2.532  21.609  30.168  1.00  0.00     0.004 C 
BRANCH   4   5
ATOM      5  C   UNL     1      -1.046  21.755  30.541  1.00  0.00     0.000 C 
BRANCH   5   6
ATOM      6  C   UNL     1      -0.623  23.223  30.709  1.00  0.00     0.000 C 
BRANCH   6   7
ATOM      7  C   UNL     1       0.473  23.636  29.710  1.00  0.00     0.000 C 
BRANCH   7   8
ATOM      8  C   UNL     1       1.613  24.422  30.379  1.00  0.00     0.006 C 
BRANCH   8   9
ATOM      9  C   UNL     1       2.516  23.531  31.240  1.00  0.00     0.053 C 
BRANCH   9  10
ATOM     10  C   UNL     1       3.942  23.651  30.801  1.00  0.00     0.041 C 
ATOM     11  O   UNL     1       4.541  22.657  30.318  1.00  0.00    -0.550 OA
ATOM     12  O   UNL     1       4.621  24.851  30.967  1.00  0.00    -0.550 OA
ENDBRANCH   9  10
ENDBRANCH   8   9
ENDBRANCH   7   8
ENDBRANCH   6   7
ENDBRANCH   5   6
ENDBRANCH   4   5
ENDBRANCH   3   4
ENDBRANCH   1   3
BRANCH   2  13
ATOM     13  C   UNL     1      -0.504  17.208  28.924  1.00  0.00     0.027 C 
BRANCH  13  14
ATOM     14  C   UNL     1       0.333  17.610  27.698  1.00  0.00     0.004 C 
BRANCH  14  15
ATOM     15  C   UNL     1       1.846  17.353  27.850  1.00  0.00     0.000 C 
BRANCH  15  16
ATOM     16  C   UNL     1       2.725  18.620  27.867  1.00  0.00     0.000 C 
BRANCH  16  17
ATOM     17  C   UNL     1       3.127  19.111  29.270  1.00  0.00    -0.000 C 
BRANCH  17  18
ATOM     18  C   UNL     1       2.110  20.098  29.868  1.00  0.00    -0.000 C 
BRANCH  18  19
ATOM     19  C   UNL     1       1.743  19.756  31.319  1.00  0.00    -0.003 C 
ATOM     20  C   UNL     1       1.649  18.250  31.564  1.00  0.00     0.004 C 
ENDBRANCH  18  19
ENDBRANCH  17  18
ENDBRANCH  16  17
ENDBRANCH  15  16
ENDBRANCH  14  15
ENDBRANCH  13  14
ENDBRANCH   2  13
TORSDOF 15
ENDMDL
MODEL 3
REMARK VINA RESULT:    -4.379      5.390      8.568
REMARK INTER + INTRA:         -10.041
REMARK INTER:                  -8.630
REMARK INTRA:                  -1.411
REMARK UNBOUND:                -1.822
REMARK SMILES CCCCCCCCC=CCCCCCCCC(=O)[O-]
REMARK SMILES IDX 10 1 9 2 11 3 12 4 13 5 14 6 15 7 16 8 17 9 18 10 19 11
REMARK SMILES IDX 20 12 8 13 7 14 6 15 5 16 4 17 3 18 2 19 1 20
REMARK H PARENT
REMARK Flexibility Score: inf
ROOT
ATOM      1  C   UNL     1       3.542  18.873  28.593  1.00  0.00    -0.031 C 
ATOM      2  C   UNL     1       2.819  18.356  27.589  1.00  0.00    -0.031 C 
ENDROOT
BRANCH   1   3
ATOM      3  C   UNL     1       4.350  20.128  28.392  1.00  0.00     0.027 C 
BRANCH   3   4
ATOM      4  C   UNL     1       4.807  20.742  29.722  1.00  0.00     0.004 C 
BRANCH   4   5
ATOM      5  C   UNL     1       5.563  22.067  29.517  1.00  0.00     0.000 C 
BRANCH   5   6
ATOM      6  C   UNL     1       6.666  21.957  28.452  1.00  0.00     0.000 C 
BRANCH   6   7
ATOM      7  C   UNL     1       7.691  23.101  28.546  1.00  0.00     0.000 C 
BRANCH   7   8
ATOM      8  C   UNL     1       9.142  22.594  28.543  1.00  0.00     0.006 C 
BRANCH   8   9
ATOM      9  C   UNL     1       9.247  21.115  28.152  1.00  0.00     0.053 C 
BRANCH   9  10
ATOM     10  C   UNL     1       9.849  20.975  26.789  1.00  0.00     0.041 C 
ATOM     11  O   UNL     1       9.443  20.077  26.007  1.00  0.00    -0.550 OA
ATOM     12  O   UNL     1      10.888  21.810  26.399  1.00  0.00    -0.550 OA
ENDBRANCH   9  10
ENDBRANCH   8   9
ENDBRANCH   7   8
ENDBRANCH   6   7
ENDBRANCH   5   6
ENDBRANCH   4   5
ENDBRANCH   3   4
ENDBRANCH   1   3
BRANCH   2  13
ATOM     13  C   UNL     1       2.009  17.099  27.764  1.00  0.00     0.027 C 
BRANCH  13  14
ATOM     14  C   UNL     1       0.502  17.334  27.564  1.00  0.00     0.004 C 
BRANCH  14  15
ATOM     15  C   UNL     1      -0.308  17.410  28.875  1.00  0.00     0.000 C 
BRANCH  15  16
ATOM     16  C   UNL     1      -0.508  18.832  29.437  1.00  0.00     0.000 C 
BRANCH  16  17
ATOM     17  C   UNL     1       0.507  19.252  30.514  1.00  0.00    -0.000 C 
BRANCH  17  18
ATOM     18  C   UNL     1       0.934  20.724  30.387  1.00  0.00    -0.000 C 
BRANCH  18  19
ATOM     19  C   UNL     1      -0.263  21.673  30.235  1.00  0.00    -0.003 C 
ATOM     20  C   UNL     1       0.157  23.137  30.122  1.00  0.00     0.004 C 
ENDBRANCH  18  19
ENDBRANCH  17  18
ENDBRANCH  16  17
ENDBRANCH  15  16
ENDBRANCH  14  15
ENDBRANCH  13  14
ENDBRANCH   2  13
TORSDOF 15
ENDMDL
MODEL 4
REMARK VINA RESULT:    -4.342      1.425      3.072
REMARK INTER + INTRA:          -9.971
REMARK INTER:                  -7.659
REMARK INTRA:                  -2.312
REMARK UNBOUND:                -1.822
REMARK SMILES CCCCCCCCC=CCCCCCCCC(=O)[O-]
REMARK SMILES IDX 10 1 9 2 11 3 12 4 13 5 14 6 15 7 16 8 17 9 18 10 19 11
REMARK SMILES IDX 20 12 8 13 7 14 6 15 5 16 4 17 3 18 2 19 1 20
REMARK H PARENT
REMARK Flexibility Score: inf
ROOT
ATOM      1  C   UNL     1       0.369  19.833  30.139  1.00  0.00    -0.031 C 
ATOM      2  C   UNL     1       0.965  21.030  30.235  1.00  0.00    -0.031 C 
ENDROOT
BRANCH   1   3
ATOM      3  C   UNL     1      -1.101  19.729  29.829  1.00  0.00     0.027 C 
BRANCH   3   4
ATOM      4  C   UNL     1      -1.444  18.435  29.079  1.00  0.00     0.004 C 
BRANCH   4   5
ATOM      5  C   UNL     1      -0.188  17.724  28.546  1.00  0.00     0.000 C 
BRANCH   5   6
ATOM      6  C   UNL     1      -0.032  16.303  29.110  1.00  0.00     0.000 C 
BRANCH   6   7
ATOM      7  C   UNL     1       0.874  16.260  30.354  1.00  0.00     0.000 C 
BRANCH   7   8
ATOM      8  C   UNL     1       1.274  14.827  30.742  1.00  0.00     0.006 C 
BRANCH   8   9
ATOM      9  C   UNL     1       0.105  13.841  30.637  1.00  0.00     0.053 C 
BRANCH   9  10
ATOM     10  C   UNL     1       0.506  12.635  29.847  1.00  0.00     0.041 C 
ATOM     11  O   UNL     1      -0.288  12.134  29.010  1.00  0.00    -0.550 OA
ATOM     12  O   UNL     1       1.741  12.039  30.068  1.00  0.00    -0.550 OA
ENDBRANCH   9  10
ENDBRANCH   8   9
ENDBRANCH   7   8
ENDBRANCH   6   7
ENDBRANCH   5   6
ENDBRANCH   4   5
ENDBRANCH   3   4
ENDBRANCH   1   3
BRANCH   2  13
ATOM     13  C   UNL     1       2.431  21.160  30.550  1.00  0.00     0.027 C 
BRANCH  13  14
ATOM     14  C   UNL     1       3.162  19.805  30.538  1.00  0.00     0.004 C 
BRANCH  14  15
ATOM     15  C   UNL     1       4.367  19.743  29.578  1.00  0.00     0.000 C 
BRANCH  15  16
ATOM     16  C   UNL     1       4.007  19.686  28.080  1.00  0.00     0.000 C 
BRANCH  16  17
ATOM     17  C   UNL     1       3.040  18.554  27.688  1.00  0.00    -0.000 C 
BRANCH  17  18
ATOM     18  C   UNL     1       3.576  17.161  28.055  1.00  0.00    -0.000 C 
BRANCH  18  19
ATOM     19  C   UNL     1       3.545  16.188  26.867  1.00  0.00    -0.003 C 
ATOM     20  C   UNL     1       2.762  14.911  27.172  1.00  0.00     0.004 C 
ENDBRANCH  18  19
ENDBRANCH  17  18
ENDBRANCH  16  17
ENDBRANCH  15  16
ENDBRANCH  14  15
ENDBRANCH  13  14
ENDBRANCH   2  13
TORSDOF 15
ENDMDL
MODEL 5
REMARK VINA RESULT:    -4.267      2.779      6.085
REMARK INTER + INTRA:          -9.830
REMARK INTER:                  -7.632
REMARK INTRA:                  -2.198
REMARK UNBOUND:                -1.822
REMARK SMILES CCCCCCCCC=CCCCCCCCC(=O)[O-]
REMARK SMILES IDX 10 1 9 2 11 3 12 4 13 5 14 6 15 7 16 8 17 9 18 10 19 11
REMARK SMILES IDX 20 12 8 13 7 14 6 15 5 16 4 17 3 18 2 19 1 20
REMARK H PARENT
REMARK Flexibility Score: inf
ROOT
ATOM      1  C   UNL     1      -2.863  19.708  29.496  1.00  0.00    -0.031 C 
ATOM      2  C   UNL     1      -1.611  19.229  29.454  1.00  0.00    -0.031 C 
ENDROOT
BRANCH   1   3
ATOM      3  C   UNL     1      -3.125  21.140  29.878  1.00  0.00     0.027 C 
BRANCH   3   4
ATOM      4  C   UNL     1      -2.085  21.675  30.872  1.00  0.00     0.004 C 
BRANCH   4   5
ATOM      5  C   UNL     1      -1.196  22.765  30.248  1.00  0.00     0.000 C 
BRANCH   5   6
ATOM      6  C   UNL     1       0.293  22.385  30.256  1.00  0.00     0.000 C 
BRANCH   6   7
ATOM      7  C   UNL     1       0.649  21.424  31.404  1.00  0.00     0.000 C 
BRANCH   7   8
ATOM      8  C   UNL     1       1.573  20.282  30.951  1.00  0.00     0.006 C 
BRANCH   8   9
ATOM      9  C   UNL     1       2.023  20.432  29.493  1.00  0.00     0.053 C 
BRANCH   9  10
ATOM     10  C   UNL     1       3.229  19.587  29.227  1.00  0.00     0.041 C 
ATOM     11  O   UNL     1       3.801  18.986  30.173  1.00  0.00    -0.550 OA
ATOM     12  O   UNL     1       3.745  19.498  27.941  1.00  0.00    -0.550 OA
ENDBRANCH   9  10
ENDBRANCH   8   9
ENDBRANCH   7   8
ENDBRANCH   6   7
ENDBRANCH   5   6
ENDBRANCH   4   5
ENDBRANCH   3   4
ENDBRANCH   1   3
BRANCH   2  13
ATOM     13  C   UNL     1      -1.324  17.799  29.081  1.00  0.00     0.027 C 
BRANCH  13  14
ATOM     14  C   UNL     1      -0.110  17.663  28.147  1.00  0.00     0.004 C 
BRANCH  14  15
ATOM     15  C   UNL     1       0.991  16.718  28.670  1.00  0.00     0.000 C 
BRANCH  15  16
ATOM     16  C   UNL     1       0.873  16.339  30.159  1.00  0.00     0.000 C 
BRANCH  16  17
ATOM     17  C   UNL     1       1.613  15.051  30.562  1.00  0.00    -0.000 C 
BRANCH  17  18
ATOM     18  C   UNL     1       0.717  14.064  31.328  1.00  0.00    -0.000 C 
BRANCH  18  19
ATOM     19  C   UNL     1      -0.527  13.655  30.526  1.00  0.00    -0.003 C 
ATOM     20  C   UNL     1      -0.208  12.660  29.411  1.00  0.00     0.004 C 
ENDBRANCH  18  19
ENDBRANCH  17  18
ENDBRANCH  16  17
ENDBRANCH  15  16
ENDBRANCH  14  15
ENDBRANCH  13  14
ENDBRANCH   2  13
TORSDOF 15
ENDMDL
MODEL 6
REMARK VINA RESULT:    -4.235      4.979      7.565
REMARK INTER + INTRA:          -9.770
REMARK INTER:                  -7.710
REMARK INTRA:                  -2.060
REMARK UNBOUND:                -1.822
REMARK SMILES CCCCCCCCC=CCCCCCCCC(=O)[O-]
REMARK SMILES IDX 10 1 9 2 11 3 12 4 13 5 14 6 15 7 16 8 17 9 18 10 19 11
REMARK SMILES IDX 20 12 8 13 7 14 6 15 5 16 4 17 3 18 2 19 1 20
REMARK H PARENT
REMARK Flexibility Score: inf
ROOT
ATOM      1  C   UNL     1       0.627  19.303  30.377  1.00  0.00    -0.031 C 
ATOM      2  C   UNL     1      -0.582  19.489  29.830  1.00  0.00    -0.031 C 
ENDROOT
BRANCH   1   3
ATOM      3  C   UNL     1       1.315  20.418  31.121  1.00  0.00     0.027 C 
BRANCH   3   4
ATOM      4  C   UNL     1       2.536  20.955  30.362  1.00  0.00     0.004 C 
BRANCH   4   5
ATOM      5  C   UNL     1       2.932  20.045  29.186  1.00  0.00     0.000 C 
BRANCH   5   6
ATOM      6  C   UNL     1       4.454  19.971  28.987  1.00  0.00     0.000 C 
BRANCH   6   7
ATOM      7  C   UNL     1       5.208  21.027  29.816  1.00  0.00     0.000 C 
BRANCH   7   8
ATOM      8  C   UNL     1       5.949  22.047  28.936  1.00  0.00     0.006 C 
BRANCH   8   9
ATOM      9  C   UNL     1       7.015  21.394  28.048  1.00  0.00     0.053 C 
BRANCH   9  10
ATOM     10  C   UNL     1       8.240  22.251  27.984  1.00  0.00     0.041 C 
ATOM     11  O   UNL     1       8.247  23.385  28.527  1.00  0.00    -0.550 OA
ATOM     12  O   UNL     1       9.358  21.813  27.287  1.00  0.00    -0.550 OA
ENDBRANCH   9  10
ENDBRANCH   8   9
ENDBRANCH   7   8
ENDBRANCH   6   7
ENDBRANCH   5   6
ENDBRANCH   4   5
ENDBRANCH   3   4
ENDBRANCH   1   3
BRANCH   2  13
ATOM     13  C   UNL     1      -1.286  18.393  29.076  1.00  0.00     0.027 C 
BRANCH  13  14
ATOM     14  C   UNL     1      -0.358  17.210  28.750  1.00  0.00     0.004 C 
BRANCH  14  15
ATOM     15  C   UNL     1       0.401  17.347  27.414  1.00  0.00     0.000 C 
BRANCH  15  16
ATOM     16  C   UNL     1       1.906  17.019  27.482  1.00  0.00     0.000 C 
BRANCH  16  17
ATOM     17  C   UNL     1       2.239  15.519  27.572  1.00  0.00    -0.000 C 
BRANCH  17  18
ATOM     18  C   UNL     1       2.856  15.127  28.925  1.00  0.00    -0.000 C 
BRANCH  18  19
ATOM     19  C   UNL     1       3.246  16.349  29.769  1.00  0.00    -0.003 C 
ATOM     20  C   UNL     1       2.532  16.384  31.120  1.00  0.00     0.004 C 
ENDBRANCH  18  19
ENDBRANCH  17  18
ENDBRANCH  16  17
ENDBRANCH  15  16
ENDBRANCH  14  15
ENDBRANCH  13  14
ENDBRANCH   2  13
TORSDOF 15
ENDMDL
MODEL 7
REMARK VINA RESULT:    -4.221      5.295      8.355
REMARK INTER + INTRA:          -9.745
REMARK INTER:                  -7.503
REMARK INTRA:                  -2.241
REMARK UNBOUND:                -1.822
REMARK SMILES CCCCCCCCC=CCCCCCCCC(=O)[O-]
REMARK SMILES IDX 10 1 9 2 11 3 12 4 13 5 14 6 15 7 16 8 17 9 18 10 19 11
REMARK SMILES IDX 20 12 8 13 7 14 6 15 5 16 4 17 3 18 2 19 1 20
REMARK H PARENT
REMARK Flexibility Score: inf
ROOT
ATOM      1  C   UNL     1       3.170  19.101  27.647  1.00  0.00    -0.031 C 
ATOM      2  C   UNL     1       3.182  17.798  27.960  1.00  0.00    -0.031 C 
ENDROOT
BRANCH   1   3
ATOM      3  C   UNL     1       4.352  19.979  27.961  1.00  0.00     0.027 C 
BRANCH   3   4
ATOM      4  C   UNL     1       4.846  19.793  29.402  1.00  0.00     0.004 C 
BRANCH   4   5
ATOM      5  C   UNL     1       4.750  21.094  30.219  1.00  0.00     0.000 C 
BRANCH   5   6
ATOM      6  C   UNL     1       5.491  22.263  29.552  1.00  0.00     0.000 C 
BRANCH   6   7
ATOM      7  C   UNL     1       7.019  22.072  29.558  1.00  0.00     0.000 C 
BRANCH   7   8
ATOM      8  C   UNL     1       7.712  22.828  28.414  1.00  0.00     0.006 C 
BRANCH   8   9
ATOM      9  C   UNL     1       9.232  22.625  28.410  1.00  0.00     0.053 C 
BRANCH   9  10
ATOM     10  C   UNL     1       9.638  21.730  27.282  1.00  0.00     0.041 C 
ATOM     11  O   UNL     1       8.956  20.709  27.008  1.00  0.00    -0.550 OA
ATOM     12  O   UNL     1      10.794  21.999  26.562  1.00  0.00    -0.550 OA
ENDBRANCH   9  10
ENDBRANCH   8   9
ENDBRANCH   7   8
ENDBRANCH   6   7
ENDBRANCH   5   6
ENDBRANCH   4   5
ENDBRANCH   3   4
ENDBRANCH   1   3
BRANCH   2  13
ATOM     13  C   UNL     1       2.010  16.902  27.662  1.00  0.00     0.027 C 
BRANCH  13  14
ATOM     14  C   UNL     1       0.662  17.634  27.778  1.00  0.00     0.004 C 
BRANCH  14  15
ATOM     15  C   UNL     1       0.098  17.704  29.212  1.00  0.00     0.000 C 
BRANCH  15  16
ATOM     16  C   UNL     1       0.079  19.112  29.838  1.00  0.00     0.000 C 
BRANCH  16  17
ATOM     17  C   UNL     1       1.232  19.403  30.816  1.00  0.00    -0.000 C 
BRANCH  17  18
ATOM     18  C   UNL     1       1.487  18.245  31.795  1.00  0.00    -0.000 C 
BRANCH  18  19
ATOM     19  C   UNL     1       2.845  17.567  31.562  1.00  0.00    -0.003 C 
ATOM     20  C   UNL     1       2.722  16.059  31.346  1.00  0.00     0.004 C 
ENDBRANCH  18  19
ENDBRANCH  17  18
ENDBRANCH  16  17
ENDBRANCH  15  16
ENDBRANCH  14  15
ENDBRANCH  13  14
ENDBRANCH   2  13
TORSDOF 15
ENDMDL
MODEL 8
REMARK VINA RESULT:    -4.161      2.401      3.889
REMARK INTER + INTRA:          -9.631
REMARK INTER:                  -6.560
REMARK INTRA:                  -3.070
REMARK UNBOUND:                -1.822
REMARK SMILES CCCCCCCCC=CCCCCCCCC(=O)[O-]
REMARK SMILES IDX 10 1 9 2 11 3 12 4 13 5 14 6 15 7 16 8 17 9 18 10 19 11
REMARK SMILES IDX 20 12 8 13 7 14 6 15 5 16 4 17 3 18 2 19 1 20
REMARK H PARENT
REMARK Flexibility Score: inf
ROOT
ATOM      1  C   UNL     1       1.754  16.198  27.258  1.00  0.00    -0.031 C 
ATOM      2  C   UNL     1       1.322  17.385  27.709  1.00  0.00    -0.031 C 
ENDROOT
BRANCH   1   3
ATOM      3  C   UNL     1       3.205  15.989  26.914  1.00  0.00     0.027 C 
BRANCH   3   4
ATOM      4  C   UNL     1       3.728  14.633  27.406  1.00  0.00     0.004 C 
BRANCH   4   5
ATOM      5  C   UNL     1       2.601  13.748  27.967  1.00  0.00     0.000 C 
BRANCH   5   6
ATOM      6  C   UNL     1       2.872  13.295  29.411  1.00  0.00     0.000 C 
BRANCH   6   7
ATOM      7  C   UNL     1       2.206  14.215  30.451  1.00  0.00     0.000 C 
BRANCH   7   8
ATOM      8  C   UNL     1       0.698  14.382  30.208  1.00  0.00     0.006 C 
BRANCH   8   9
ATOM      9  C   UNL     1      -0.148  13.486  31.121  1.00  0.00     0.053 C 
BRANCH   9  10
ATOM     10  C   UNL     1      -0.895  12.472  30.313  1.00  0.00     0.041 C 
ATOM     11  O   UNL     1      -1.992  12.017  30.727  1.00  0.00    -0.550 OA
ATOM     12  O   UNL     1      -0.357  11.999  29.123  1.00  0.00    -0.550 OA
ENDBRANCH   9  10
ENDBRANCH   8   9
ENDBRANCH   7   8
ENDBRANCH   6   7
ENDBRANCH   5   6
ENDBRANCH   4   5
ENDBRANCH   3   4
ENDBRANCH   1   3
BRANCH   2  13
ATOM     13  C   UNL     1      -0.124  17.620  28.054  1.00  0.00     0.027 C 
BRANCH  13  14
ATOM     14  C   UNL     1      -0.305  18.256  29.443  1.00  0.00     0.004 C 
BRANCH  14  15
ATOM     15  C   UNL     1       1.010  18.700  30.115  1.00  0.00     0.000 C 
BRANCH  15  16
ATOM     16  C   UNL     1       1.343  17.981  31.437  1.00  0.00     0.000 C 
BRANCH  16  17
ATOM     17  C   UNL     1       2.822  17.589  31.608  1.00  0.00    -0.000 C 
BRANCH  17  18
ATOM     18  C   UNL     1       3.620  17.695  30.298  1.00  0.00    -0.000 C 
BRANCH  18  19
ATOM     19  C   UNL     1       4.831  16.751  30.270  1.00  0.00    -0.003 C 
ATOM     20  C   UNL     1       5.877  17.166  29.236  1.00  0.00     0.004 C 
ENDBRANCH  18  19
ENDBRANCH  17  18
ENDBRANCH  16  17
ENDBRANCH  15  16
ENDBRANCH  14  15
ENDBRANCH  13  14
ENDBRANCH   2  13
TORSDOF 15
ENDMDL
