MODEL 1
REMARK VINA RESULT:     7.794      0.000      0.000
REMARK INTER + INTRA:          13.921
REMARK INTER:                  15.085
REMARK INTRA:                  -1.164
REMARK UNBOUND:                -1.164
REMARK SMILES CCCCCCCCCCCCCCCCCC(=O)[O-]
REMARK SMILES IDX 10 1 11 2 12 3 13 4 14 5 15 6 16 7 17 8 18 9 19 10 20 11
REMARK SMILES IDX 9 12 8 13 7 14 6 15 5 16 4 17 3 18 2 19 1 20
REMARK H PARENT
REMARK Flexibility Score: inf
ROOT
ATOM      1  C   UNL     1      36.550  15.222  44.037  1.00  0.00     0.000 C 
ENDROOT
BRANCH   1   2
ATOM      2  C   UNL     1      35.099  15.699  44.198  1.00  0.00     0.000 C 
BRANCH   2   3
ATOM      3  C   UNL     1      34.840  17.049  43.511  1.00  0.00     0.000 C 
BRANCH   3   4
ATOM      4  C   UNL     1      33.493  17.084  42.767  1.00  0.00     0.000 C 
BRANCH   4   5
ATOM      5  C   UNL     1      33.513  18.023  41.549  1.00  0.00     0.000 C 
BRANCH   5   6
ATOM      6  C   UNL     1      34.114  17.354  40.301  1.00  0.00     0.000 C 
BRANCH   6   7
ATOM      7  C   UNL     1      33.620  17.991  38.988  1.00  0.00     0.006 C 
BRANCH   7   8
ATOM      8  C   UNL     1      32.304  18.776  39.119  1.00  0.00     0.053 C 
BRANCH   8   9
ATOM      9  C   UNL     1      31.519  18.772  37.842  1.00  0.00     0.041 C 
ATOM     10  O   UNL     1      31.161  17.683  37.322  1.00  0.00    -0.550 OA
ATOM     11  O   UNL     1      31.156  19.973  37.247  1.00  0.00    -0.550 OA
ENDBRANCH   8   9
ENDBRANCH   7   8
ENDBRANCH   6   7
ENDBRANCH   5   6
ENDBRANCH   4   5
ENDBRANCH   3   4
ENDBRANCH   2   3
ENDBRANCH   1   2
BRANCH   1  12
ATOM     12  C   UNL     1      36.629  13.999  43.111  1.00  0.00     0.000 C 
BRANCH  12  13
ATOM     13  C   UNL     1      35.242  13.464  42.721  1.00  0.00    -0.000 C 
BRANCH  13  14
ATOM     14  C   UNL     1      35.288  12.554  41.480  1.00  0.00    -0.000 C 
BRANCH  14  15
ATOM     15  C   UNL     1      34.417  13.082  40.329  1.00  0.00    -0.000 C 
BRANCH  15  16
ATOM     16  C   UNL     1      33.046  12.393  40.262  1.00  0.00    -0.000 C 
BRANCH  16  17
ATOM     17  C   UNL     1      33.081  11.030  40.971  1.00  0.00    -0.000 C 
BRANCH  17  18
ATOM     18  C   UNL     1      32.755   9.856  40.029  1.00  0.00    -0.000 C 
BRANCH  18  19
ATOM     19  C   UNL     1      33.936   8.913  39.738  1.00  0.00    -0.003 C 
ATOM     20  C   UNL     1      35.275   9.462  40.228  1.00  0.00     0.004 C 
ENDBRANCH  18  19
ENDBRANCH  17  18
ENDBRANCH  16  17
ENDBRANCH  15  16
ENDBRANCH  14  15
ENDBRANCH  13  14
ENDBRANCH  12  13
ENDBRANCH   1  12
TORSDOF 16
ENDMDL
MODEL 2
REMARK VINA RESULT:     7.971      3.266      7.243
REMARK INTER + INTRA:          14.263
REMARK INTER:                  15.476
REMARK INTRA:                  -1.213
REMARK UNBOUND:                -1.164
REMARK SMILES CCCCCCCCCCCCCCCCCC(=O)[O-]
REMARK SMILES IDX 10 1 11 2 12 3 13 4 14 5 15 6 16 7 17 8 18 9 19 10 20 11
REMARK SMILES IDX 9 12 8 13 7 14 6 15 5 16 4 17 3 18 2 19 1 20
REMARK H PARENT
REMARK Flexibility Score: inf
ROOT
ATOM      1  C   UNL     1      34.497  15.924  43.688  1.00  0.00     0.000 C 
ENDROOT
BRANCH   1   2
ATOM      2  C   UNL     1      35.910  15.475  44.092  1.00  0.00     0.000 C 
BRANCH   2   3
ATOM      3  C   UNL     1      36.350  14.189  43.375  1.00  0.00     0.000 C 
BRANCH   3   4
ATOM      4  C   UNL     1      35.158  13.369  42.849  1.00  0.00     0.000 C 
BRANCH   4   5
ATOM      5  C   UNL     1      35.432  12.738  41.474  1.00  0.00     0.000 C 
BRANCH   5   6
ATOM      6  C   UNL     1      34.591  13.376  40.356  1.00  0.00     0.000 C 
BRANCH   6   7
ATOM      7  C   UNL     1      33.362  12.528  39.978  1.00  0.00     0.006 C 
BRANCH   7   8
ATOM      8  C   UNL     1      33.084  11.353  40.930  1.00  0.00     0.053 C 
BRANCH   8   9
ATOM      9  C   UNL     1      33.280  10.028  40.260  1.00  0.00     0.041 C 
ATOM     10  O   UNL     1      32.288   9.300  39.994  1.00  0.00    -0.550 OA
ATOM     11  O   UNL     1      34.555   9.613  39.900  1.00  0.00    -0.550 OA
ENDBRANCH   8   9
ENDBRANCH   7   8
ENDBRANCH   6   7
ENDBRANCH   5   6
ENDBRANCH   4   5
ENDBRANCH   3   4
ENDBRANCH   2   3
ENDBRANCH   1   2
BRANCH   1  12
ATOM     12  C   UNL     1      34.507  17.367  43.163  1.00  0.00     0.000 C 
BRANCH  12  13
ATOM     13  C   UNL     1      33.569  17.564  41.961  1.00  0.00    -0.000 C 
BRANCH  13  14
ATOM     14  C   UNL     1      34.042  16.797  40.713  1.00  0.00    -0.000 C 
BRANCH  14  15
ATOM     15  C   UNL     1      33.996  17.657  39.440  1.00  0.00    -0.000 C 
BRANCH  15  16
ATOM     16  C   UNL     1      32.658  18.392  39.271  1.00  0.00    -0.000 C 
BRANCH  16  17
ATOM     17  C   UNL     1      32.070  18.150  37.872  1.00  0.00    -0.000 C 
BRANCH  17  18
ATOM     18  C   UNL     1      31.056  19.229  37.453  1.00  0.00    -0.000 C 
BRANCH  18  19
ATOM     19  C   UNL     1      31.040  20.484  38.343  1.00  0.00    -0.003 C 
ATOM     20  C   UNL     1      31.566  21.729  37.630  1.00  0.00     0.004 C 
ENDBRANCH  18  19
ENDBRANCH  17  18
ENDBRANCH  16  17
ENDBRANCH  15  16
ENDBRANCH  14  15
ENDBRANCH  13  14
ENDBRANCH  12  13
ENDBRANCH   1  12
TORSDOF 16
ENDMDL
MODEL 3
REMARK VINA RESULT:     8.026      3.269      6.964
REMARK INTER + INTRA:          14.370
REMARK INTER:                  15.534
REMARK INTRA:                  -1.164
REMARK UNBOUND:                -1.164
REMARK SMILES CCCCCCCCCCCCCCCCCC(=O)[O-]
REMARK SMILES IDX 10 1 11 2 12 3 13 4 14 5 15 6 16 7 17 8 18 9 19 10 20 11
REMARK SMILES IDX 9 12 8 13 7 14 6 15 5 16 4 17 3 18 2 19 1 20
REMARK H PARENT
REMARK Flexibility Score: inf
ROOT
ATOM      1  C   UNL     1      35.170  15.645  44.546  1.00  0.00     0.000 C 
ENDROOT
BRANCH   1   2
ATOM      2  C   UNL     1      36.570  15.024  44.429  1.00  0.00     0.000 C 
BRANCH   2   3
ATOM      3  C   UNL     1      36.675  14.020  43.270  1.00  0.00     0.000 C 
BRANCH   3   4
ATOM      4  C   UNL     1      35.298  13.607  42.719  1.00  0.00     0.000 C 
BRANCH   4   5
ATOM      5  C   UNL     1      35.392  12.894  41.360  1.00  0.00     0.000 C 
BRANCH   5   6
ATOM      6  C   UNL     1      34.361  13.420  40.347  1.00  0.00     0.000 C 
BRANCH   6   7
ATOM      7  C   UNL     1      33.267  12.387  40.020  1.00  0.00     0.006 C 
BRANCH   7   8
ATOM      8  C   UNL     1      33.198  11.203  40.999  1.00  0.00     0.053 C 
BRANCH   8   9
ATOM      9  C   UNL     1      33.228   9.884  40.288  1.00  0.00     0.041 C 
ATOM     10  O   UNL     1      34.327   9.373  39.948  1.00  0.00    -0.550 OA
ATOM     11  O   UNL     1      32.043   9.207  40.031  1.00  0.00    -0.550 OA
ENDBRANCH   8   9
ENDBRANCH   7   8
ENDBRANCH   6   7
ENDBRANCH   5   6
ENDBRANCH   4   5
ENDBRANCH   3   4
ENDBRANCH   2   3
ENDBRANCH   1   2
BRANCH   1  12
ATOM     12  C   UNL     1      35.044  16.891  43.657  1.00  0.00     0.000 C 
BRANCH  12  13
ATOM     13  C   UNL     1      33.663  17.004  42.991  1.00  0.00    -0.000 C 
BRANCH  13  14
ATOM     14  C   UNL     1      33.702  17.816  41.685  1.00  0.00    -0.000 C 
BRANCH  14  15
ATOM     15  C   UNL     1      33.964  16.938  40.451  1.00  0.00    -0.000 C 
BRANCH  15  16
ATOM     16  C   UNL     1      34.215  17.763  39.181  1.00  0.00    -0.000 C 
BRANCH  16  17
ATOM     17  C   UNL     1      33.026  18.691  38.884  1.00  0.00    -0.000 C 
BRANCH  17  18
ATOM     18  C   UNL     1      32.053  18.104  37.845  1.00  0.00    -0.000 C 
BRANCH  18  19
ATOM     19  C   UNL     1      30.901  19.039  37.437  1.00  0.00    -0.003 C 
ATOM     20  C   UNL     1      30.959  20.399  38.131  1.00  0.00     0.004 C 
ENDBRANCH  18  19
ENDBRANCH  17  18
ENDBRANCH  16  17
ENDBRANCH  15  16
ENDBRANCH  14  15
ENDBRANCH  13  14
ENDBRANCH  12  13
ENDBRANCH   1  12
TORSDOF 16
ENDMDL
MODEL 4
REMARK VINA RESULT:     8.834      3.163      7.913
REMARK INTER + INTRA:          15.933
REMARK INTER:                  16.817
REMARK INTRA:                  -0.884
REMARK UNBOUND:                -1.164
REMARK SMILES CCCCCCCCCCCCCCCCCC(=O)[O-]
REMARK SMILES IDX 10 1 11 2 12 3 13 4 14 5 15 6 16 7 17 8 18 9 19 10 20 11
REMARK SMILES IDX 9 12 8 13 7 14 6 15 5 16 4 17 3 18 2 19 1 20
REMARK H PARENT
REMARK Flexibility Score: inf
ROOT
ATOM      1  C   UNL     1      33.714  17.362  42.427  1.00  0.00     0.000 C 
ENDROOT
BRANCH   1   2
ATOM      2  C   UNL     1      34.901  16.931  43.301  1.00  0.00     0.000 C 
BRANCH   2   3
ATOM      3  C   UNL     1      34.689  15.552  43.948  1.00  0.00     0.000 C 
BRANCH   3   4
ATOM      4  C   UNL     1      35.972  14.701  43.958  1.00  0.00     0.000 C 
BRANCH   4   5
ATOM      5  C   UNL     1      36.146  13.875  42.673  1.00  0.00     0.000 C 
BRANCH   5   6
ATOM      6  C   UNL     1      34.830  13.231  42.206  1.00  0.00     0.000 C 
BRANCH   6   7
ATOM      7  C   UNL     1      34.859  12.829  40.719  1.00  0.00     0.006 C 
BRANCH   7   8
ATOM      8  C   UNL     1      33.518  12.309  40.175  1.00  0.00     0.053 C 
BRANCH   8   9
ATOM      9  C   UNL     1      33.155  10.976  40.757  1.00  0.00     0.041 C 
ATOM     10  O   UNL     1      33.590   9.917  40.233  1.00  0.00    -0.550 OA
ATOM     11  O   UNL     1      32.364  10.908  41.895  1.00  0.00    -0.550 OA
ENDBRANCH   8   9
ENDBRANCH   7   8
ENDBRANCH   6   7
ENDBRANCH   5   6
ENDBRANCH   4   5
ENDBRANCH   3   4
ENDBRANCH   2   3
ENDBRANCH   1   2
BRANCH   1  12
ATOM     12  C   UNL     1      34.199  18.041  41.137  1.00  0.00     0.000 C 
BRANCH  12  13
ATOM     13  C   UNL     1      33.594  17.407  39.874  1.00  0.00    -0.000 C 
BRANCH  13  14
ATOM     14  C   UNL     1      33.038  18.457  38.895  1.00  0.00    -0.000 C 
BRANCH  14  15
ATOM     15  C   UNL     1      32.011  17.865  37.916  1.00  0.00    -0.000 C 
BRANCH  15  16
ATOM     16  C   UNL     1      30.929  18.877  37.513  1.00  0.00    -0.000 C 
BRANCH  16  17
ATOM     17  C   UNL     1      31.138  20.220  38.230  1.00  0.00    -0.000 C 
BRANCH  17  18
ATOM     18  C   UNL     1      31.660  21.325  37.293  1.00  0.00    -0.000 C 
BRANCH  18  19
ATOM     19  C   UNL     1      31.754  22.722  37.930  1.00  0.00    -0.003 C 
ATOM     20  C   UNL     1      32.414  23.753  37.015  1.00  0.00     0.004 C 
ENDBRANCH  18  19
ENDBRANCH  17  18
ENDBRANCH  16  17
ENDBRANCH  15  16
ENDBRANCH  14  15
ENDBRANCH  13  14
ENDBRANCH  12  13
ENDBRANCH   1  12
TORSDOF 16
ENDMDL
MODEL 5
REMARK VINA RESULT:    10.537      4.657      8.664
REMARK INTER + INTRA:          19.228
REMARK INTER:                  20.096
REMARK INTRA:                  -0.867
REMARK UNBOUND:                -1.164
REMARK SMILES CCCCCCCCCCCCCCCCCC(=O)[O-]
REMARK SMILES IDX 10 1 11 2 12 3 13 4 14 5 15 6 16 7 17 8 18 9 19 10 20 11
REMARK SMILES IDX 9 12 8 13 7 14 6 15 5 16 4 17 3 18 2 19 1 20
REMARK H PARENT
REMARK Flexibility Score: inf
ROOT
ATOM      1  C   UNL     1      35.015  13.235  40.936  1.00  0.00     0.000 C 
ENDROOT
BRANCH   1   2
ATOM      2  C   UNL     1      33.762  12.544  40.377  1.00  0.00     0.000 C 
BRANCH   2   3
ATOM      3  C   UNL     1      33.369  11.294  41.179  1.00  0.00     0.000 C 
BRANCH   3   4
ATOM      4  C   UNL     1      33.615   9.990  40.399  1.00  0.00     0.000 C 
BRANCH   4   5
ATOM      5  C   UNL     1      32.324   9.400  39.807  1.00  0.00     0.000 C 
BRANCH   5   6
ATOM      6  C   UNL     1      31.257   9.125  40.880  1.00  0.00     0.000 C 
BRANCH   6   7
ATOM      7  C   UNL     1      30.791   7.657  40.893  1.00  0.00     0.006 C 
BRANCH   7   8
ATOM      8  C   UNL     1      29.420   7.432  41.553  1.00  0.00     0.053 C 
BRANCH   8   9
ATOM      9  C   UNL     1      29.252   6.022  42.032  1.00  0.00     0.041 C 
ATOM     10  O   UNL     1      30.229   5.400  42.525  1.00  0.00    -0.550 OA
ATOM     11  O   UNL     1      28.009   5.408  41.962  1.00  0.00    -0.550 OA
ENDBRANCH   8   9
ENDBRANCH   7   8
ENDBRANCH   6   7
ENDBRANCH   5   6
ENDBRANCH   4   5
ENDBRANCH   3   4
ENDBRANCH   2   3
ENDBRANCH   1   2
BRANCH   1  12
ATOM     12  C   UNL     1      34.869  13.506  42.440  1.00  0.00     0.000 C 
BRANCH  12  13
ATOM     13  C   UNL     1      36.224  13.700  43.139  1.00  0.00    -0.000 C 
BRANCH  13  14
ATOM     14  C   UNL     1      36.237  14.923  44.074  1.00  0.00    -0.000 C 
BRANCH  14  15
ATOM     15  C   UNL     1      34.895  15.673  44.082  1.00  0.00    -0.000 C 
BRANCH  15  16
ATOM     16  C   UNL     1      34.912  16.921  43.185  1.00  0.00    -0.000 C 
BRANCH  16  17
ATOM     17  C   UNL     1      33.598  17.051  42.400  1.00  0.00    -0.000 C 
BRANCH  17  18
ATOM     18  C   UNL     1      33.689  18.063  41.243  1.00  0.00    -0.000 C 
BRANCH  18  19
ATOM     19  C   UNL     1      33.753  17.437  39.839  1.00  0.00    -0.003 C 
ATOM     20  C   UNL     1      33.086  18.299  38.769  1.00  0.00     0.004 C 
ENDBRANCH  18  19
ENDBRANCH  17  18
ENDBRANCH  16  17
ENDBRANCH  15  16
ENDBRANCH  14  15
ENDBRANCH  13  14
ENDBRANCH  12  13
ENDBRANCH   1  12
TORSDOF 16
ENDMDL
MODEL 6
REMARK VINA RESULT:    10.606      4.720      9.555
REMARK INTER + INTRA:          19.362
REMARK INTER:                  20.391
REMARK INTRA:                  -1.029
REMARK UNBOUND:                -1.164
REMARK SMILES CCCCCCCCCCCCCCCCCC(=O)[O-]
REMARK SMILES IDX 10 1 11 2 12 3 13 4 14 5 15 6 16 7 17 8 18 9 19 10 20 11
REMARK SMILES IDX 9 12 8 13 7 14 6 15 5 16 4 17 3 18 2 19 1 20
REMARK H PARENT
REMARK Flexibility Score: inf
ROOT
ATOM      1  C   UNL     1      32.858   9.845  40.384  1.00  0.00     0.000 C 
ENDROOT
BRANCH   1   2
ATOM      2  C   UNL     1      34.061   9.480  39.502  1.00  0.00     0.000 C 
BRANCH   2   3
ATOM      3  C   UNL     1      34.575   8.056  39.762  1.00  0.00     0.000 C 
BRANCH   3   4
ATOM      4  C   UNL     1      33.853   7.373  40.938  1.00  0.00     0.000 C 
BRANCH   4   5
ATOM      5  C   UNL     1      34.174   5.873  41.041  1.00  0.00     0.000 C 
BRANCH   5   6
ATOM      6  C   UNL     1      32.906   5.002  41.076  1.00  0.00     0.000 C 
BRANCH   6   7
ATOM      7  C   UNL     1      31.755   5.659  41.862  1.00  0.00     0.006 C 
BRANCH   7   8
ATOM      8  C   UNL     1      30.422   4.895  41.791  1.00  0.00     0.053 C 
BRANCH   8   9
ATOM      9  C   UNL     1      29.249   5.786  42.067  1.00  0.00     0.041 C 
ATOM     10  O   UNL     1      28.268   5.355  42.727  1.00  0.00    -0.550 OA
ATOM     11  O   UNL     1      29.256   7.102  41.622  1.00  0.00    -0.550 OA
ENDBRANCH   8   9
ENDBRANCH   7   8
ENDBRANCH   6   7
ENDBRANCH   5   6
ENDBRANCH   4   5
ENDBRANCH   3   4
ENDBRANCH   2   3
ENDBRANCH   1   2
BRANCH   1  12
ATOM     12  C   UNL     1      33.088  11.182  41.104  1.00  0.00     0.000 C 
BRANCH  12  13
ATOM     13  C   UNL     1      33.207  12.365  40.129  1.00  0.00    -0.000 C 
BRANCH  13  14
ATOM     14  C   UNL     1      34.493  13.182  40.348  1.00  0.00    -0.000 C 
BRANCH  14  15
ATOM     15  C   UNL     1      35.296  12.704  41.568  1.00  0.00    -0.000 C 
BRANCH  15  16
ATOM     16  C   UNL     1      34.990  13.520  42.833  1.00  0.00    -0.000 C 
BRANCH  16  17
ATOM     17  C   UNL     1      36.278  14.108  43.432  1.00  0.00    -0.000 C 
BRANCH  17  18
ATOM     18  C   UNL     1      36.135  15.590  43.824  1.00  0.00    -0.000 C 
BRANCH  18  19
ATOM     19  C   UNL     1      34.689  16.062  44.055  1.00  0.00    -0.003 C 
ATOM     20  C   UNL     1      34.244  17.133  43.060  1.00  0.00     0.004 C 
ENDBRANCH  18  19
ENDBRANCH  17  18
ENDBRANCH  16  17
ENDBRANCH  15  16
ENDBRANCH  14  15
ENDBRANCH  13  14
ENDBRANCH  12  13
ENDBRANCH   1  12
TORSDOF 16
ENDMDL
