MODEL 1
REMARK VINA RESULT:    -0.663      0.000      0.000
REMARK INTER + INTRA:          -0.254
REMARK INTER:                  -0.798
REMARK INTRA:                   0.544
REMARK UNBOUND:                 0.544
REMARK SMILES O=c1c(O)c(-c2ccc(O)c(O)c2)oc2cc(O)cc(O)c12
REMARK SMILES IDX 5 1 3 2 2 3 1 4 22 5 20 6 19 7 17 8 16 9 15 10 14 11 6 12
REMARK SMILES IDX 7 13 8 14 9 15 13 16 11 17 10 18 12 20 4 22 21 24 18 26
REMARK H PARENT 10 19 12 21 4 23 21 25 18 27
REMARK Flexibility Score: inf
ROOT
ATOM      1  C   UNL     1      16.893  -7.895  34.522  1.00  0.00     0.180 A 
ATOM      2  C   UNL     1      17.395  -7.994  33.212  1.00  0.00     0.208 A 
ATOM      3  C   UNL     1      18.782  -7.933  33.008  1.00  0.00     0.238 A 
ATOM      4  O   UNL     1      19.222  -7.968  31.829  1.00  0.00    -0.285 OA
ATOM      5  C   UNL     1      19.652  -7.788  34.117  1.00  0.00     0.111 A 
ATOM      6  C   UNL     1      21.076  -7.756  34.030  1.00  0.00     0.134 A 
ATOM      7  C   UNL     1      21.831  -7.477  35.177  1.00  0.00     0.093 A 
ATOM      8  C   UNL     1      21.217  -7.297  36.417  1.00  0.00     0.123 A 
ATOM      9  C   UNL     1      19.830  -7.387  36.523  1.00  0.00     0.094 A 
ATOM     10  C   UNL     1      19.048  -7.627  35.391  1.00  0.00     0.146 A 
ATOM     11  O   UNL     1      17.729  -7.694  35.532  1.00  0.00    -0.452 OA
ENDROOT
BRANCH   1  12
ATOM     12  C   UNL     1      15.445  -7.976  34.819  1.00  0.00     0.025 A 
ATOM     13  C   UNL     1      14.967  -7.954  36.141  1.00  0.00     0.016 A 
ATOM     14  C   UNL     1      13.594  -8.008  36.398  1.00  0.00     0.051 A 
ATOM     15  C   UNL     1      12.679  -8.070  35.338  1.00  0.00     0.157 A 
ATOM     16  C   UNL     1      14.522  -8.017  33.761  1.00  0.00     0.062 A 
ATOM     17  C   UNL     1      13.147  -8.070  34.014  1.00  0.00     0.158 A 
BRANCH  15  18
ATOM     18  O   UNL     1      11.311  -8.125  35.597  1.00  0.00    -0.504 OA
ATOM     19  H   UNL     1      10.898  -8.896  36.109  1.00  0.00     0.293 HD
ENDBRANCH  15  18
BRANCH  17  20
ATOM     20  O   UNL     1      12.262  -8.124  32.937  1.00  0.00    -0.504 OA
ATOM     21  H   UNL     1      12.533  -8.494  32.035  1.00  0.00     0.293 HD
ENDBRANCH  17  20
ENDBRANCH   1  12
BRANCH   2  22
ATOM     22  O   UNL     1      16.518  -8.115  32.131  1.00  0.00    -0.502 OA
ATOM     23  H   UNL     1      16.604  -7.550  31.295  1.00  0.00     0.293 HD
ENDBRANCH   2  22
BRANCH   6  24
ATOM     24  O   UNL     1      21.793  -8.014  32.858  1.00  0.00    -0.507 OA
ATOM     25  H   UNL     1      22.664  -7.572  32.608  1.00  0.00     0.293 HD
ENDBRANCH   6  24
BRANCH   8  26
ATOM     26  O   UNL     1      21.976  -7.037  37.556  1.00  0.00    -0.508 OA
ATOM     27  H   UNL     1      21.711  -7.401  38.464  1.00  0.00     0.293 HD
ENDBRANCH   8  26
TORSDOF 6
ENDMDL
MODEL 2
REMARK VINA RESULT:    -0.394      3.653      7.062
REMARK INTER + INTRA:           0.070
REMARK INTER:                   0.027
REMARK INTRA:                   0.043
REMARK UNBOUND:                 0.544
REMARK SMILES O=c1c(O)c(-c2ccc(O)c(O)c2)oc2cc(O)cc(O)c12
REMARK SMILES IDX 5 1 3 2 2 3 1 4 22 5 20 6 19 7 17 8 16 9 15 10 14 11 6 12
REMARK SMILES IDX 7 13 8 14 9 15 13 16 11 17 10 18 12 20 4 22 21 24 18 26
REMARK H PARENT 10 19 12 21 4 23 21 25 18 27
REMARK Flexibility Score: inf
ROOT
ATOM      1  C   UNL     1      19.917  -4.715  34.798  1.00  0.00     0.180 A 
ATOM      2  C   UNL     1      20.620  -5.202  33.682  1.00  0.00     0.208 A 
ATOM      3  C   UNL     1      20.024  -6.188  32.879  1.00  0.00     0.238 A 
ATOM      4  O   UNL     1      20.680  -6.659  31.913  1.00  0.00    -0.285 OA
ATOM      5  C   UNL     1      18.728  -6.664  33.193  1.00  0.00     0.111 A 
ATOM      6  C   UNL     1      18.012  -7.632  32.426  1.00  0.00     0.134 A 
ATOM      7  C   UNL     1      16.791  -8.125  32.902  1.00  0.00     0.093 A 
ATOM      8  C   UNL     1      16.229  -7.636  34.084  1.00  0.00     0.123 A 
ATOM      9  C   UNL     1      16.891  -6.648  34.808  1.00  0.00     0.094 A 
ATOM     10  C   UNL     1      18.129  -6.163  34.378  1.00  0.00     0.146 A 
ATOM     11  O   UNL     1      18.732  -5.228  35.103  1.00  0.00    -0.452 OA
ENDROOT
BRANCH   1  12
ATOM     12  C   UNL     1      20.469  -3.659  35.677  1.00  0.00     0.025 A 
ATOM     13  C   UNL     1      20.513  -3.818  37.073  1.00  0.00     0.016 A 
ATOM     14  C   UNL     1      21.060  -2.818  37.881  1.00  0.00     0.051 A 
ATOM     15  C   UNL     1      21.582  -1.651  37.307  1.00  0.00     0.157 A 
ATOM     16  C   UNL     1      21.012  -2.497  35.105  1.00  0.00     0.062 A 
ATOM     17  C   UNL     1      21.560  -1.493  35.911  1.00  0.00     0.158 A 
BRANCH  15  18
ATOM     18  O   UNL     1      22.125  -0.655  38.116  1.00  0.00    -0.504 OA
ATOM     19  H   UNL     1      22.704  -0.878  38.917  1.00  0.00     0.293 HD
ENDBRANCH  15  18
BRANCH  17  20
ATOM     20  O   UNL     1      22.078  -0.348  35.308  1.00  0.00    -0.504 OA
ATOM     21  H   UNL     1      21.510   0.263  34.734  1.00  0.00     0.293 HD
ENDBRANCH  17  20
ENDBRANCH   1  12
BRANCH   2  22
ATOM     22  O   UNL     1      21.907  -4.734  33.403  1.00  0.00    -0.502 OA
ATOM     23  H   UNL     1      22.713  -5.347  33.368  1.00  0.00     0.293 HD
ENDBRANCH   2  22
BRANCH   6  24
ATOM     24  O   UNL     1      18.441  -8.118  31.187  1.00  0.00    -0.507 OA
ATOM     25  H   UNL     1      17.885  -8.690  30.570  1.00  0.00     0.293 HD
ENDBRANCH   6  24
BRANCH   8  26
ATOM     26  O   UNL     1      15.006  -8.120  34.542  1.00  0.00    -0.508 OA
ATOM     27  H   UNL     1      14.879  -9.096  34.783  1.00  0.00     0.293 HD
ENDBRANCH   8  26
TORSDOF 6
ENDMDL
MODEL 3
REMARK VINA RESULT:     1.330      3.807      6.766
REMARK INTER + INTRA:           2.146
REMARK INTER:                   1.602
REMARK INTRA:                   0.543
REMARK UNBOUND:                 0.544
REMARK SMILES O=c1c(O)c(-c2ccc(O)c(O)c2)oc2cc(O)cc(O)c12
REMARK SMILES IDX 5 1 3 2 2 3 1 4 22 5 20 6 19 7 17 8 16 9 15 10 14 11 6 12
REMARK SMILES IDX 7 13 8 14 9 15 13 16 11 17 10 18 12 20 4 22 21 24 18 26
REMARK H PARENT 10 19 12 21 4 23 21 25 18 27
REMARK Flexibility Score: inf
ROOT
ATOM      1  C   UNL     1      19.698  -4.456  35.089  1.00  0.00     0.180 A 
ATOM      2  C   UNL     1      20.941  -4.966  34.675  1.00  0.00     0.208 A 
ATOM      3  C   UNL     1      20.971  -6.024  33.753  1.00  0.00     0.238 A 
ATOM      4  O   UNL     1      22.085  -6.511  33.428  1.00  0.00    -0.285 OA
ATOM      5  C   UNL     1      19.758  -6.550  33.245  1.00  0.00     0.111 A 
ATOM      6  C   UNL     1      19.671  -7.594  32.276  1.00  0.00     0.134 A 
ATOM      7  C   UNL     1      18.418  -8.125  31.943  1.00  0.00     0.093 A 
ATOM      8  C   UNL     1      17.246  -7.603  32.495  1.00  0.00     0.123 A 
ATOM      9  C   UNL     1      17.317  -6.542  33.395  1.00  0.00     0.094 A 
ATOM     10  C   UNL     1      18.554  -6.017  33.775  1.00  0.00     0.146 A 
ATOM     11  O   UNL     1      18.578  -5.014  34.645  1.00  0.00    -0.452 OA
ENDROOT
BRANCH   1  12
ATOM     12  C   UNL     1      19.586  -3.326  36.039  1.00  0.00     0.025 A 
ATOM     13  C   UNL     1      18.334  -2.874  36.495  1.00  0.00     0.016 A 
ATOM     14  C   UNL     1      18.254  -1.821  37.409  1.00  0.00     0.051 A 
ATOM     15  C   UNL     1      19.420  -1.213  37.892  1.00  0.00     0.157 A 
ATOM     16  C   UNL     1      20.752  -2.727  36.542  1.00  0.00     0.062 A 
ATOM     17  C   UNL     1      20.675  -1.672  37.458  1.00  0.00     0.158 A 
BRANCH  15  18
ATOM     18  O   UNL     1      19.337  -0.161  38.803  1.00  0.00    -0.504 OA
ATOM     19  H   UNL     1      20.128   0.443  38.990  1.00  0.00     0.293 HD
ENDBRANCH  15  18
BRANCH  17  20
ATOM     20  O   UNL     1      21.854  -1.093  37.925  1.00  0.00    -0.504 OA
ATOM     21  H   UNL     1      21.853  -0.335  38.597  1.00  0.00     0.293 HD
ENDBRANCH  17  20
ENDBRANCH   1  12
BRANCH   2  22
ATOM     22  O   UNL     1      22.125  -4.446  35.206  1.00  0.00    -0.502 OA
ATOM     23  H   UNL     1      22.454  -4.682  36.135  1.00  0.00     0.293 HD
ENDBRANCH   2  22
BRANCH   6  24
ATOM     24  O   UNL     1      20.773  -8.124  31.598  1.00  0.00    -0.507 OA
ATOM     25  H   UNL     1      20.721  -8.656  30.743  1.00  0.00     0.293 HD
ENDBRANCH   6  24
BRANCH   8  26
ATOM     26  O   UNL     1      16.002  -8.125  32.145  1.00  0.00    -0.508 OA
ATOM     27  H   UNL     1      15.186  -7.531  32.053  1.00  0.00     0.293 HD
ENDBRANCH   8  26
TORSDOF 6
ENDMDL
