MODEL 1
REMARK VINA RESULT:    -1.263      0.000      0.000
REMARK INTER + INTRA:          -6.419
REMARK INTER:                  -3.330
REMARK INTRA:                  -3.089
REMARK UNBOUND:                -3.089
REMARK SMILES CCCCCCCCCCCCCCCCCCCCCCCCCCCCCC(=O)[O-]
REMARK SMILES IDX 16 1 17 2 18 3 19 4 20 5 21 6 22 7 23 8 24 9 25 10 26 11
REMARK SMILES IDX 27 12 28 13 29 14 30 15 31 16 32 17 15 18 14 19 13 20 12 21
REMARK SMILES IDX 11 22 10 23 9 24 8 25 7 26 6 27 5 28 4 29 3 30 2 31 1 32
REMARK H PARENT
REMARK Flexibility Score: inf
ROOT
ATOM      1  C   UNL     1     -32.400  67.126  86.275  1.00  0.00     0.000 C 
ENDROOT
BRANCH   1   2
ATOM      2  C   UNL     1     -31.742  68.149  87.218  1.00  0.00     0.000 C 
BRANCH   2   3
ATOM      3  C   UNL     1     -31.431  69.481  86.519  1.00  0.00     0.000 C 
BRANCH   3   4
ATOM      4  C   UNL     1     -29.921  69.773  86.436  1.00  0.00     0.000 C 
BRANCH   4   5
ATOM      5  C   UNL     1     -29.105  68.896  87.409  1.00  0.00     0.000 C 
BRANCH   5   6
ATOM      6  C   UNL     1     -27.587  68.930  87.153  1.00  0.00     0.000 C 
BRANCH   6   7
ATOM      7  C   UNL     1     -27.223  68.776  85.669  1.00  0.00     0.000 C 
BRANCH   7   8
ATOM      8  C   UNL     1     -26.400  67.511  85.386  1.00  0.00     0.000 C 
BRANCH   8   9
ATOM      9  C   UNL     1     -27.165  66.480  84.534  1.00  0.00     0.000 C 
BRANCH   9  10
ATOM     10  C   UNL     1     -28.562  66.978  84.104  1.00  0.00     0.000 C 
BRANCH  10  11
ATOM     11  C   UNL     1     -28.654  67.420  82.628  1.00  0.00     0.000 C 
BRANCH  11  12
ATOM     12  C   UNL     1     -27.710  66.689  81.660  1.00  0.00     0.000 C 
BRANCH  12  13
ATOM     13  C   UNL     1     -27.967  65.171  81.603  1.00  0.00     0.006 C 
BRANCH  13  14
ATOM     14  C   UNL     1     -29.039  64.799  80.570  1.00  0.00     0.053 C 
BRANCH  14  15
ATOM     15  C   UNL     1     -30.322  64.368  81.216  1.00  0.00     0.041 C 
ATOM     16  O   UNL     1     -31.168  63.697  80.562  1.00  0.00    -0.550 OA
ATOM     17  O   UNL     1     -30.606  64.755  82.518  1.00  0.00    -0.550 OA
ENDBRANCH  14  15
ENDBRANCH  13  14
ENDBRANCH  12  13
ENDBRANCH  11  12
ENDBRANCH  10  11
ENDBRANCH   9  10
ENDBRANCH   8   9
ENDBRANCH   7   8
ENDBRANCH   6   7
ENDBRANCH   5   6
ENDBRANCH   4   5
ENDBRANCH   3   4
ENDBRANCH   2   3
ENDBRANCH   1   2
BRANCH   1  18
ATOM     18  C   UNL     1     -31.441  65.988  85.893  1.00  0.00     0.000 C 
BRANCH  18  19
ATOM     19  C   UNL     1     -30.081  66.103  86.602  1.00  0.00     0.000 C 
BRANCH  19  20
ATOM     20  C   UNL     1     -29.424  64.726  86.841  1.00  0.00     0.000 C 
BRANCH  20  21
ATOM     21  C   UNL     1     -30.377  63.536  86.637  1.00  0.00     0.000 C 
BRANCH  21  22
ATOM     22  C   UNL     1     -30.141  62.803  85.305  1.00  0.00     0.000 C 
BRANCH  22  23
ATOM     23  C   UNL     1     -28.854  63.259  84.597  1.00  0.00     0.000 C 
BRANCH  23  24
ATOM     24  C   UNL     1     -28.207  62.141  83.763  1.00  0.00    -0.000 C 
BRANCH  24  25
ATOM     25  C   UNL     1     -27.192  61.348  84.602  1.00  0.00    -0.000 C 
BRANCH  25  26
ATOM     26  C   UNL     1     -26.720  60.064  83.899  1.00  0.00    -0.000 C 
BRANCH  26  27
ATOM     27  C   UNL     1     -27.814  59.440  83.014  1.00  0.00    -0.000 C 
BRANCH  27  28
ATOM     28  C   UNL     1     -27.237  58.506  81.936  1.00  0.00    -0.000 C 
BRANCH  28  29
ATOM     29  C   UNL     1     -27.893  57.115  81.952  1.00  0.00    -0.000 C 
BRANCH  29  30
ATOM     30  C   UNL     1     -27.488  56.334  83.210  1.00  0.00    -0.000 C 
BRANCH  30  31
ATOM     31  C   UNL     1     -26.021  55.876  83.179  1.00  0.00    -0.003 C 
ATOM     32  C   UNL     1     -25.174  56.516  84.279  1.00  0.00     0.004 C 
ENDBRANCH  30  31
ENDBRANCH  29  30
ENDBRANCH  28  29
ENDBRANCH  27  28
ENDBRANCH  26  27
ENDBRANCH  25  26
ENDBRANCH  24  25
ENDBRANCH  23  24
ENDBRANCH  22  23
ENDBRANCH  21  22
ENDBRANCH  20  21
ENDBRANCH  19  20
ENDBRANCH  18  19
ENDBRANCH   1  18
TORSDOF 28
ENDMDL
MODEL 2
REMARK VINA RESULT:    -0.961      3.087      6.873
REMARK INTER + INTRA:          -5.623
REMARK INTER:                  -3.162
REMARK INTRA:                  -2.461
REMARK UNBOUND:                -3.089
REMARK SMILES CCCCCCCCCCCCCCCCCCCCCCCCCCCCCC(=O)[O-]
REMARK SMILES IDX 16 1 17 2 18 3 19 4 20 5 21 6 22 7 23 8 24 9 25 10 26 11
REMARK SMILES IDX 27 12 28 13 29 14 30 15 31 16 32 17 15 18 14 19 13 20 12 21
REMARK SMILES IDX 11 22 10 23 9 24 8 25 7 26 6 27 5 28 4 29 3 30 2 31 1 32
REMARK H PARENT
REMARK Flexibility Score: inf
ROOT
ATOM      1  C   UNL     1     -31.444  67.771  86.776  1.00  0.00     0.000 C 
ENDROOT
BRANCH   1   2
ATOM      2  C   UNL     1     -31.031  69.102  86.125  1.00  0.00     0.000 C 
BRANCH   2   3
ATOM      3  C   UNL     1     -29.752  69.689  86.742  1.00  0.00     0.000 C 
BRANCH   3   4
ATOM      4  C   UNL     1     -29.043  68.706  87.693  1.00  0.00     0.000 C 
BRANCH   4   5
ATOM      5  C   UNL     1     -27.584  68.436  87.267  1.00  0.00     0.000 C 
BRANCH   5   6
ATOM      6  C   UNL     1     -27.298  68.758  85.789  1.00  0.00     0.000 C 
BRANCH   6   7
ATOM      7  C   UNL     1     -27.406  67.530  84.874  1.00  0.00     0.000 C 
BRANCH   7   8
ATOM      8  C   UNL     1     -26.759  66.277  85.480  1.00  0.00     0.000 C 
BRANCH   8   9
ATOM      9  C   UNL     1     -27.732  65.086  85.568  1.00  0.00     0.000 C 
BRANCH   9  10
ATOM     10  C   UNL     1     -28.837  65.292  86.627  1.00  0.00     0.000 C 
BRANCH  10  11
ATOM     11  C   UNL     1     -29.786  64.088  86.799  1.00  0.00     0.000 C 
BRANCH  11  12
ATOM     12  C   UNL     1     -30.150  63.343  85.506  1.00  0.00     0.000 C 
BRANCH  12  13
ATOM     13  C   UNL     1     -29.331  62.053  85.305  1.00  0.00     0.006 C 
BRANCH  13  14
ATOM     14  C   UNL     1     -28.671  61.990  83.922  1.00  0.00     0.053 C 
BRANCH  14  15
ATOM     15  C   UNL     1     -27.520  61.028  83.887  1.00  0.00     0.041 C 
ATOM     16  O   UNL     1     -27.510  60.079  83.055  1.00  0.00    -0.550 OA
ATOM     17  O   UNL     1     -26.490  61.146  84.810  1.00  0.00    -0.550 OA
ENDBRANCH  14  15
ENDBRANCH  13  14
ENDBRANCH  12  13
ENDBRANCH  11  12
ENDBRANCH  10  11
ENDBRANCH   9  10
ENDBRANCH   8   9
ENDBRANCH   7   8
ENDBRANCH   6   7
ENDBRANCH   5   6
ENDBRANCH   4   5
ENDBRANCH   3   4
ENDBRANCH   2   3
ENDBRANCH   1   2
BRANCH   1  18
ATOM     18  C   UNL     1     -31.706  66.671  85.734  1.00  0.00     0.000 C 
BRANCH  18  19
ATOM     19  C   UNL     1     -31.409  67.140  84.299  1.00  0.00     0.000 C 
BRANCH  19  20
ATOM     20  C   UNL     1     -30.075  66.579  83.762  1.00  0.00     0.000 C 
BRANCH  20  21
ATOM     21  C   UNL     1     -30.242  65.437  82.745  1.00  0.00     0.000 C 
BRANCH  21  22
ATOM     22  C   UNL     1     -28.899  64.835  82.297  1.00  0.00     0.000 C 
BRANCH  22  23
ATOM     23  C   UNL     1     -28.270  65.599  81.120  1.00  0.00     0.000 C 
BRANCH  23  24
ATOM     24  C   UNL     1     -27.912  67.051  81.477  1.00  0.00    -0.000 C 
BRANCH  24  25
ATOM     25  C   UNL     1     -26.388  67.250  81.506  1.00  0.00    -0.000 C 
BRANCH  25  26
ATOM     26  C   UNL     1     -25.951  68.562  80.832  1.00  0.00    -0.000 C 
BRANCH  26  27
ATOM     27  C   UNL     1     -24.475  68.535  80.393  1.00  0.00    -0.000 C 
BRANCH  27  28
ATOM     28  C   UNL     1     -24.122  69.694  79.444  1.00  0.00    -0.000 C 
BRANCH  28  29
ATOM     29  C   UNL     1     -22.959  70.551  79.971  1.00  0.00    -0.000 C 
BRANCH  29  30
ATOM     30  C   UNL     1     -22.810  70.396  81.492  1.00  0.00    -0.000 C 
BRANCH  30  31
ATOM     31  C   UNL     1     -21.948  69.186  81.884  1.00  0.00    -0.003 C 
ATOM     32  C   UNL     1     -20.933  68.805  80.807  1.00  0.00     0.004 C 
ENDBRANCH  30  31
ENDBRANCH  29  30
ENDBRANCH  28  29
ENDBRANCH  27  28
ENDBRANCH  26  27
ENDBRANCH  25  26
ENDBRANCH  24  25
ENDBRANCH  23  24
ENDBRANCH  22  23
ENDBRANCH  21  22
ENDBRANCH  20  21
ENDBRANCH  19  20
ENDBRANCH  18  19
ENDBRANCH   1  18
TORSDOF 28
ENDMDL
MODEL 3
REMARK VINA RESULT:    -0.925      2.221      4.680
REMARK INTER + INTRA:          -5.528
REMARK INTER:                  -2.002
REMARK INTRA:                  -3.526
REMARK UNBOUND:                -3.089
REMARK SMILES CCCCCCCCCCCCCCCCCCCCCCCCCCCCCC(=O)[O-]
REMARK SMILES IDX 16 1 17 2 18 3 19 4 20 5 21 6 22 7 23 8 24 9 25 10 26 11
REMARK SMILES IDX 27 12 28 13 29 14 30 15 31 16 32 17 15 18 14 19 13 20 12 21
REMARK SMILES IDX 11 22 10 23 9 24 8 25 7 26 6 27 5 28 4 29 3 30 2 31 1 32
REMARK H PARENT
REMARK Flexibility Score: inf
ROOT
ATOM      1  C   UNL     1     -26.027  67.688  85.154  1.00  0.00     0.000 C 
ENDROOT
BRANCH   1   2
ATOM      2  C   UNL     1     -26.728  68.967  85.643  1.00  0.00     0.000 C 
BRANCH   2   3
ATOM      3  C   UNL     1     -26.390  69.304  87.103  1.00  0.00     0.000 C 
BRANCH   3   4
ATOM      4  C   UNL     1     -27.624  69.274  88.023  1.00  0.00     0.000 C 
BRANCH   4   5
ATOM      5  C   UNL     1     -27.952  67.846  88.510  1.00  0.00     0.000 C 
BRANCH   5   6
ATOM      6  C   UNL     1     -28.677  66.983  87.460  1.00  0.00     0.000 C 
BRANCH   6   7
ATOM      7  C   UNL     1     -28.042  65.598  87.278  1.00  0.00     0.000 C 
BRANCH   7   8
ATOM      8  C   UNL     1     -28.830  64.704  86.310  1.00  0.00     0.000 C 
BRANCH   8   9
ATOM      9  C   UNL     1     -30.352  64.771  86.540  1.00  0.00     0.000 C 
BRANCH   9  10
ATOM     10  C   UNL     1     -31.147  64.988  85.234  1.00  0.00     0.000 C 
BRANCH  10  11
ATOM     11  C   UNL     1     -31.646  66.433  85.026  1.00  0.00     0.000 C 
BRANCH  11  12
ATOM     12  C   UNL     1     -32.392  67.052  86.218  1.00  0.00     0.000 C 
BRANCH  12  13
ATOM     13  C   UNL     1     -31.585  68.159  86.923  1.00  0.00     0.006 C 
BRANCH  13  14
ATOM     14  C   UNL     1     -30.772  69.007  85.936  1.00  0.00     0.053 C 
BRANCH  14  15
ATOM     15  C   UNL     1     -30.907  70.476  86.208  1.00  0.00     0.041 C 
ATOM     16  O   UNL     1     -31.609  71.201  85.450  1.00  0.00    -0.550 OA
ATOM     17  O   UNL     1     -30.211  71.052  87.262  1.00  0.00    -0.550 OA
ENDBRANCH  14  15
ENDBRANCH  13  14
ENDBRANCH  12  13
ENDBRANCH  11  12
ENDBRANCH  10  11
ENDBRANCH   9  10
ENDBRANCH   8   9
ENDBRANCH   7   8
ENDBRANCH   6   7
ENDBRANCH   5   6
ENDBRANCH   4   5
ENDBRANCH   3   4
ENDBRANCH   2   3
ENDBRANCH   1   2
BRANCH   1  18
ATOM     18  C   UNL     1     -26.950  66.814  84.290  1.00  0.00     0.000 C 
BRANCH  18  19
ATOM     19  C   UNL     1     -28.329  67.458  84.066  1.00  0.00     0.000 C 
BRANCH  19  20
ATOM     20  C   UNL     1     -28.979  67.010  82.740  1.00  0.00     0.000 C 
BRANCH  20  21
ATOM     21  C   UNL     1     -27.971  66.540  81.678  1.00  0.00     0.000 C 
BRANCH  21  22
ATOM     22  C   UNL     1     -28.087  65.038  81.367  1.00  0.00     0.000 C 
BRANCH  22  23
ATOM     23  C   UNL     1     -29.534  64.526  81.447  1.00  0.00     0.000 C 
BRANCH  23  24
ATOM     24  C   UNL     1     -29.745  63.517  82.588  1.00  0.00    -0.000 C 
BRANCH  24  25
ATOM     25  C   UNL     1     -28.440  63.288  83.366  1.00  0.00    -0.000 C 
BRANCH  25  26
ATOM     26  C   UNL     1     -28.479  62.010  84.222  1.00  0.00    -0.000 C 
BRANCH  26  27
ATOM     27  C   UNL     1     -27.352  61.025  83.861  1.00  0.00    -0.000 C 
BRANCH  27  28
ATOM     28  C   UNL     1     -27.821  59.922  82.896  1.00  0.00    -0.000 C 
BRANCH  28  29
ATOM     29  C   UNL     1     -26.776  58.807  82.725  1.00  0.00    -0.000 C 
BRANCH  29  30
ATOM     30  C   UNL     1     -27.450  57.474  82.372  1.00  0.00    -0.000 C 
BRANCH  30  31
ATOM     31  C   UNL     1     -26.840  56.282  83.127  1.00  0.00    -0.003 C 
ATOM     32  C   UNL     1     -25.737  56.696  84.102  1.00  0.00     0.004 C 
ENDBRANCH  30  31
ENDBRANCH  29  30
ENDBRANCH  28  29
ENDBRANCH  27  28
ENDBRANCH  26  27
ENDBRANCH  25  26
ENDBRANCH  24  25
ENDBRANCH  23  24
ENDBRANCH  22  23
ENDBRANCH  21  22
ENDBRANCH  20  21
ENDBRANCH  19  20
ENDBRANCH  18  19
ENDBRANCH   1  18
TORSDOF 28
ENDMDL
MODEL 4
REMARK VINA RESULT:    -0.784      3.197      7.409
REMARK INTER + INTRA:          -5.155
REMARK INTER:                  -2.689
REMARK INTRA:                  -2.466
REMARK UNBOUND:                -3.089
REMARK SMILES CCCCCCCCCCCCCCCCCCCCCCCCCCCCCC(=O)[O-]
REMARK SMILES IDX 16 1 17 2 18 3 19 4 20 5 21 6 22 7 23 8 24 9 25 10 26 11
REMARK SMILES IDX 27 12 28 13 29 14 30 15 31 16 32 17 15 18 14 19 13 20 12 21
REMARK SMILES IDX 11 22 10 23 9 24 8 25 7 26 6 27 5 28 4 29 3 30 2 31 1 32
REMARK H PARENT
REMARK Flexibility Score: inf
ROOT
ATOM      1  C   UNL     1     -28.012  68.312  87.026  1.00  0.00     0.000 C 
ENDROOT
BRANCH   1   2
ATOM      2  C   UNL     1     -29.280  69.166  87.196  1.00  0.00     0.000 C 
BRANCH   2   3
ATOM      3  C   UNL     1     -30.406  68.747  86.238  1.00  0.00     0.000 C 
BRANCH   3   4
ATOM      4  C   UNL     1     -31.591  68.083  86.964  1.00  0.00     0.000 C 
BRANCH   4   5
ATOM      5  C   UNL     1     -32.364  67.111  86.048  1.00  0.00     0.000 C 
BRANCH   5   6
ATOM      6  C   UNL     1     -31.550  65.873  85.627  1.00  0.00     0.000 C 
BRANCH   6   7
ATOM      7  C   UNL     1     -30.280  65.674  86.467  1.00  0.00     0.000 C 
BRANCH   7   8
ATOM      8  C   UNL     1     -29.982  64.196  86.755  1.00  0.00     0.000 C 
BRANCH   8   9
ATOM      9  C   UNL     1     -30.497  63.256  85.648  1.00  0.00     0.000 C 
BRANCH   9  10
ATOM     10  C   UNL     1     -29.547  62.068  85.382  1.00  0.00     0.000 C 
BRANCH  10  11
ATOM     11  C   UNL     1     -28.590  62.274  84.190  1.00  0.00     0.000 C 
BRANCH  11  12
ATOM     12  C   UNL     1     -27.144  61.804  84.415  1.00  0.00     0.000 C 
BRANCH  12  13
ATOM     13  C   UNL     1     -26.912  60.346  83.973  1.00  0.00     0.006 C 
BRANCH  13  14
ATOM     14  C   UNL     1     -27.813  59.941  82.799  1.00  0.00     0.053 C 
BRANCH  14  15
ATOM     15  C   UNL     1     -27.580  58.523  82.369  1.00  0.00     0.041 C 
ATOM     16  O   UNL     1     -26.722  57.813  82.962  1.00  0.00    -0.550 OA
ATOM     17  O   UNL     1     -28.270  58.007  81.280  1.00  0.00    -0.550 OA
ENDBRANCH  14  15
ENDBRANCH  13  14
ENDBRANCH  12  13
ENDBRANCH  11  12
ENDBRANCH  10  11
ENDBRANCH   9  10
ENDBRANCH   8   9
ENDBRANCH   7   8
ENDBRANCH   6   7
ENDBRANCH   5   6
ENDBRANCH   4   5
ENDBRANCH   3   4
ENDBRANCH   2   3
ENDBRANCH   1   2
BRANCH   1  18
ATOM     18  C   UNL     1     -27.297  68.592  85.694  1.00  0.00     0.000 C 
BRANCH  18  19
ATOM     19  C   UNL     1     -26.471  67.389  85.207  1.00  0.00     0.000 C 
BRANCH  19  20
ATOM     20  C   UNL     1     -27.357  66.184  84.825  1.00  0.00     0.000 C 
BRANCH  20  21
ATOM     21  C   UNL     1     -28.530  66.542  83.896  1.00  0.00     0.000 C 
BRANCH  21  22
ATOM     22  C   UNL     1     -28.913  65.393  82.948  1.00  0.00     0.000 C 
BRANCH  22  23
ATOM     23  C   UNL     1     -28.325  65.565  81.538  1.00  0.00     0.000 C 
BRANCH  23  24
ATOM     24  C   UNL     1     -27.844  67.000  81.266  1.00  0.00    -0.000 C 
BRANCH  24  25
ATOM     25  C   UNL     1     -26.309  67.074  81.271  1.00  0.00    -0.000 C 
BRANCH  25  26
ATOM     26  C   UNL     1     -25.786  68.495  81.000  1.00  0.00    -0.000 C 
BRANCH  26  27
ATOM     27  C   UNL     1     -24.467  68.496  80.204  1.00  0.00    -0.000 C 
BRANCH  27  28
ATOM     28  C   UNL     1     -24.211  69.835  79.491  1.00  0.00    -0.000 C 
BRANCH  28  29
ATOM     29  C   UNL     1     -22.902  70.501  79.948  1.00  0.00    -0.000 C 
BRANCH  29  30
ATOM     30  C   UNL     1     -22.749  70.419  81.473  1.00  0.00    -0.000 C 
BRANCH  30  31
ATOM     31  C   UNL     1     -21.922  69.204  81.923  1.00  0.00    -0.003 C 
ATOM     32  C   UNL     1     -20.925  68.738  80.862  1.00  0.00     0.004 C 
ENDBRANCH  30  31
ENDBRANCH  29  30
ENDBRANCH  28  29
ENDBRANCH  27  28
ENDBRANCH  26  27
ENDBRANCH  25  26
ENDBRANCH  24  25
ENDBRANCH  23  24
ENDBRANCH  22  23
ENDBRANCH  21  22
ENDBRANCH  20  21
ENDBRANCH  19  20
ENDBRANCH  18  19
ENDBRANCH   1  18
TORSDOF 28
ENDMDL
MODEL 5
REMARK VINA RESULT:    -0.732      3.435      5.043
REMARK INTER + INTRA:          -5.020
REMARK INTER:                  -1.796
REMARK INTRA:                  -3.224
REMARK UNBOUND:                -3.089
REMARK SMILES CCCCCCCCCCCCCCCCCCCCCCCCCCCCCC(=O)[O-]
REMARK SMILES IDX 16 1 17 2 18 3 19 4 20 5 21 6 22 7 23 8 24 9 25 10 26 11
REMARK SMILES IDX 27 12 28 13 29 14 30 15 31 16 32 17 15 18 14 19 13 20 12 21
REMARK SMILES IDX 11 22 10 23 9 24 8 25 7 26 6 27 5 28 4 29 3 30 2 31 1 32
REMARK H PARENT
REMARK Flexibility Score: inf
ROOT
ATOM      1  C   UNL     1     -29.059  68.903  87.515  1.00  0.00     0.000 C 
ENDROOT
BRANCH   1   2
ATOM      2  C   UNL     1     -27.927  67.905  87.214  1.00  0.00     0.000 C 
BRANCH   2   3
ATOM      3  C   UNL     1     -26.776  68.540  86.420  1.00  0.00     0.000 C 
BRANCH   3   4
ATOM      4  C   UNL     1     -26.428  67.754  85.142  1.00  0.00     0.000 C 
BRANCH   4   5
ATOM      5  C   UNL     1     -27.466  66.653  84.836  1.00  0.00     0.000 C 
BRANCH   5   6
ATOM      6  C   UNL     1     -28.436  67.013  83.695  1.00  0.00     0.000 C 
BRANCH   6   7
ATOM      7  C   UNL     1     -28.612  65.878  82.676  1.00  0.00     0.000 C 
BRANCH   7   8
ATOM      8  C   UNL     1     -27.844  66.126  81.370  1.00  0.00     0.000 C 
BRANCH   8   9
ATOM      9  C   UNL     1     -27.363  67.583  81.228  1.00  0.00     0.000 C 
BRANCH   9  10
ATOM     10  C   UNL     1     -25.823  67.703  81.184  1.00  0.00     0.000 C 
BRANCH  10  11
ATOM     11  C   UNL     1     -25.306  69.015  80.559  1.00  0.00     0.000 C 
BRANCH  11  12
ATOM     12  C   UNL     1     -24.129  68.862  79.583  1.00  0.00     0.000 C 
BRANCH  12  13
ATOM     13  C   UNL     1     -23.265  70.135  79.480  1.00  0.00     0.006 C 
BRANCH  13  14
ATOM     14  C   UNL     1     -22.526  70.446  80.789  1.00  0.00     0.053 C 
BRANCH  14  15
ATOM     15  C   UNL     1     -21.732  69.274  81.282  1.00  0.00     0.041 C 
ATOM     16  O   UNL     1     -20.735  68.860  80.627  1.00  0.00    -0.550 OA
ATOM     17  O   UNL     1     -22.126  68.605  82.433  1.00  0.00    -0.550 OA
ENDBRANCH  14  15
ENDBRANCH  13  14
ENDBRANCH  12  13
ENDBRANCH  11  12
ENDBRANCH  10  11
ENDBRANCH   9  10
ENDBRANCH   8   9
ENDBRANCH   7   8
ENDBRANCH   6   7
ENDBRANCH   5   6
ENDBRANCH   4   5
ENDBRANCH   3   4
ENDBRANCH   2   3
ENDBRANCH   1   2
BRANCH   1  18
ATOM     18  C   UNL     1     -29.774  69.373  86.238  1.00  0.00     0.000 C 
BRANCH  18  19
ATOM     19  C   UNL     1     -31.297  69.176  86.312  1.00  0.00     0.000 C 
BRANCH  19  20
ATOM     20  C   UNL     1     -31.686  67.852  87.005  1.00  0.00     0.000 C 
BRANCH  20  21
ATOM     21  C   UNL     1     -32.356  66.831  86.069  1.00  0.00     0.000 C 
BRANCH  21  22
ATOM     22  C   UNL     1     -31.377  65.764  85.552  1.00  0.00     0.000 C 
BRANCH  22  23
ATOM     23  C   UNL     1     -30.180  65.549  86.493  1.00  0.00     0.000 C 
BRANCH  23  24
ATOM     24  C   UNL     1     -29.670  64.099  86.486  1.00  0.00    -0.000 C 
BRANCH  24  25
ATOM     25  C   UNL     1     -30.176  63.345  85.246  1.00  0.00    -0.000 C 
BRANCH  25  26
ATOM     26  C   UNL     1     -29.059  63.077  84.222  1.00  0.00    -0.000 C 
BRANCH  26  27
ATOM     27  C   UNL     1     -28.155  61.900  84.631  1.00  0.00    -0.000 C 
BRANCH  27  28
ATOM     28  C   UNL     1     -27.538  61.183  83.418  1.00  0.00    -0.000 C 
BRANCH  28  29
ATOM     29  C   UNL     1     -27.190  59.715  83.718  1.00  0.00    -0.000 C 
BRANCH  29  30
ATOM     30  C   UNL     1     -27.158  58.885  82.427  1.00  0.00    -0.000 C 
BRANCH  30  31
ATOM     31  C   UNL     1     -27.098  57.373  82.695  1.00  0.00    -0.003 C 
ATOM     32  C   UNL     1     -26.122  57.005  83.813  1.00  0.00     0.004 C 
ENDBRANCH  30  31
ENDBRANCH  29  30
ENDBRANCH  28  29
ENDBRANCH  27  28
ENDBRANCH  26  27
ENDBRANCH  25  26
ENDBRANCH  24  25
ENDBRANCH  23  24
ENDBRANCH  22  23
ENDBRANCH  21  22
ENDBRANCH  20  21
ENDBRANCH  19  20
ENDBRANCH  18  19
ENDBRANCH   1  18
TORSDOF 28
ENDMDL
MODEL 6
REMARK VINA RESULT:    -0.631      2.825      7.673
REMARK INTER + INTRA:          -4.754
REMARK INTER:                  -3.254
REMARK INTRA:                  -1.500
REMARK UNBOUND:                -3.089
REMARK SMILES CCCCCCCCCCCCCCCCCCCCCCCCCCCCCC(=O)[O-]
REMARK SMILES IDX 16 1 17 2 18 3 19 4 20 5 21 6 22 7 23 8 24 9 25 10 26 11
REMARK SMILES IDX 27 12 28 13 29 14 30 15 31 16 32 17 15 18 14 19 13 20 12 21
REMARK SMILES IDX 11 22 10 23 9 24 8 25 7 26 6 27 5 28 4 29 3 30 2 31 1 32
REMARK H PARENT
REMARK Flexibility Score: inf
ROOT
ATOM      1  C   UNL     1     -30.042  66.605  83.399  1.00  0.00     0.000 C 
ENDROOT
BRANCH   1   2
ATOM      2  C   UNL     1     -28.842  67.300  82.732  1.00  0.00     0.000 C 
BRANCH   2   3
ATOM      3  C   UNL     1     -28.252  66.478  81.575  1.00  0.00     0.000 C 
BRANCH   3   4
ATOM      4  C   UNL     1     -28.179  64.973  81.890  1.00  0.00     0.000 C 
BRANCH   4   5
ATOM      5  C   UNL     1     -29.535  64.413  82.370  1.00  0.00     0.000 C 
BRANCH   5   6
ATOM      6  C   UNL     1     -29.428  63.050  83.079  1.00  0.00     0.000 C 
BRANCH   6   7
ATOM      7  C   UNL     1     -28.076  62.837  83.773  1.00  0.00     0.000 C 
BRANCH   7   8
ATOM      8  C   UNL     1     -28.004  61.511  84.544  1.00  0.00     0.000 C 
BRANCH   8   9
ATOM      9  C   UNL     1     -27.124  60.459  83.842  1.00  0.00     0.000 C 
BRANCH   9  10
ATOM     10  C   UNL     1     -27.859  59.734  82.693  1.00  0.00     0.000 C 
BRANCH  10  11
ATOM     11  C   UNL     1     -27.101  58.520  82.119  1.00  0.00     0.000 C 
BRANCH  11  12
ATOM     12  C   UNL     1     -27.782  57.158  82.324  1.00  0.00     0.000 C 
BRANCH  12  13
ATOM     13  C   UNL     1     -26.890  56.147  83.070  1.00  0.00     0.006 C 
BRANCH  13  14
ATOM     14  C   UNL     1     -26.494  56.639  84.468  1.00  0.00     0.053 C 
BRANCH  14  15
ATOM     15  C   UNL     1     -25.017  56.528  84.710  1.00  0.00     0.041 C 
ATOM     16  O   UNL     1     -24.212  56.537  83.738  1.00  0.00    -0.550 OA
ATOM     17  O   UNL     1     -24.538  56.358  86.002  1.00  0.00    -0.550 OA
ENDBRANCH  14  15
ENDBRANCH  13  14
ENDBRANCH  12  13
ENDBRANCH  11  12
ENDBRANCH  10  11
ENDBRANCH   9  10
ENDBRANCH   8   9
ENDBRANCH   7   8
ENDBRANCH   6   7
ENDBRANCH   5   6
ENDBRANCH   4   5
ENDBRANCH   3   4
ENDBRANCH   2   3
ENDBRANCH   1   2
BRANCH   1  18
ATOM     18  C   UNL     1     -30.760  67.522  84.402  1.00  0.00     0.000 C 
BRANCH  18  19
ATOM     19  C   UNL     1     -31.683  66.742  85.354  1.00  0.00     0.000 C 
BRANCH  19  20
ATOM     20  C   UNL     1     -31.901  67.475  86.694  1.00  0.00     0.000 C 
BRANCH  20  21
ATOM     21  C   UNL     1     -31.706  68.999  86.610  1.00  0.00     0.000 C 
BRANCH  21  22
ATOM     22  C   UNL     1     -30.225  69.408  86.535  1.00  0.00     0.000 C 
BRANCH  22  23
ATOM     23  C   UNL     1     -29.389  68.826  87.688  1.00  0.00     0.000 C 
BRANCH  23  24
ATOM     24  C   UNL     1     -27.900  68.688  87.331  1.00  0.00    -0.000 C 
BRANCH  24  25
ATOM     25  C   UNL     1     -27.696  68.708  85.808  1.00  0.00    -0.000 C 
BRANCH  25  26
ATOM     26  C   UNL     1     -26.286  68.253  85.395  1.00  0.00    -0.000 C 
BRANCH  26  27
ATOM     27  C   UNL     1     -26.178  66.723  85.255  1.00  0.00    -0.000 C 
BRANCH  27  28
ATOM     28  C   UNL     1     -27.554  66.042  85.160  1.00  0.00    -0.000 C 
BRANCH  28  29
ATOM     29  C   UNL     1     -27.874  65.188  86.398  1.00  0.00    -0.000 C 
BRANCH  29  30
ATOM     30  C   UNL     1     -29.383  65.179  86.683  1.00  0.00    -0.000 C 
BRANCH  30  31
ATOM     31  C   UNL     1     -29.912  63.780  87.035  1.00  0.00    -0.003 C 
ATOM     32  C   UNL     1     -30.916  63.248  86.012  1.00  0.00     0.004 C 
ENDBRANCH  30  31
ENDBRANCH  29  30
ENDBRANCH  28  29
ENDBRANCH  27  28
ENDBRANCH  26  27
ENDBRANCH  25  26
ENDBRANCH  24  25
ENDBRANCH  23  24
ENDBRANCH  22  23
ENDBRANCH  21  22
ENDBRANCH  20  21
ENDBRANCH  19  20
ENDBRANCH  18  19
ENDBRANCH   1  18
TORSDOF 28
ENDMDL
MODEL 7
REMARK VINA RESULT:    -0.607      1.444      4.184
REMARK INTER + INTRA:          -4.690
REMARK INTER:                  -1.967
REMARK INTRA:                  -2.723
REMARK UNBOUND:                -3.089
REMARK SMILES CCCCCCCCCCCCCCCCCCCCCCCCCCCCCC(=O)[O-]
REMARK SMILES IDX 16 1 17 2 18 3 19 4 20 5 21 6 22 7 23 8 24 9 25 10 26 11
REMARK SMILES IDX 27 12 28 13 29 14 30 15 31 16 32 17 15 18 14 19 13 20 12 21
REMARK SMILES IDX 11 22 10 23 9 24 8 25 7 26 6 27 5 28 4 29 3 30 2 31 1 32
REMARK H PARENT
REMARK Flexibility Score: inf
ROOT
ATOM      1  C   UNL     1     -26.300  67.125  85.267  1.00  0.00     0.000 C 
ENDROOT
BRANCH   1   2
ATOM      2  C   UNL     1     -26.618  68.620  85.441  1.00  0.00     0.000 C 
BRANCH   2   3
ATOM      3  C   UNL     1     -26.317  69.126  86.860  1.00  0.00     0.000 C 
BRANCH   3   4
ATOM      4  C   UNL     1     -27.190  68.449  87.933  1.00  0.00     0.000 C 
BRANCH   4   5
ATOM      5  C   UNL     1     -28.669  68.351  87.501  1.00  0.00     0.000 C 
BRANCH   5   6
ATOM      6  C   UNL     1     -29.282  69.696  87.071  1.00  0.00     0.000 C 
BRANCH   6   7
ATOM      7  C   UNL     1     -30.312  69.554  85.942  1.00  0.00     0.000 C 
BRANCH   7   8
ATOM      8  C   UNL     1     -31.658  70.213  86.277  1.00  0.00     0.000 C 
BRANCH   8   9
ATOM      9  C   UNL     1     -32.688  69.214  86.840  1.00  0.00     0.000 C 
BRANCH   9  10
ATOM     10  C   UNL     1     -32.062  67.848  87.199  1.00  0.00     0.000 C 
BRANCH  10  11
ATOM     11  C   UNL     1     -32.391  66.717  86.203  1.00  0.00     0.000 C 
BRANCH  11  12
ATOM     12  C   UNL     1     -31.543  66.697  84.922  1.00  0.00     0.000 C 
BRANCH  12  13
ATOM     13  C   UNL     1     -30.575  65.498  84.861  1.00  0.00     0.006 C 
BRANCH  13  14
ATOM     14  C   UNL     1     -30.097  65.063  86.253  1.00  0.00     0.053 C 
BRANCH  14  15
ATOM     15  C   UNL     1     -30.492  63.651  86.571  1.00  0.00     0.041 C 
ATOM     16  O   UNL     1     -30.139  63.124  87.662  1.00  0.00    -0.550 OA
ATOM     17  O   UNL     1     -31.198  62.903  85.639  1.00  0.00    -0.550 OA
ENDBRANCH  14  15
ENDBRANCH  13  14
ENDBRANCH  12  13
ENDBRANCH  11  12
ENDBRANCH  10  11
ENDBRANCH   9  10
ENDBRANCH   8   9
ENDBRANCH   7   8
ENDBRANCH   6   7
ENDBRANCH   5   6
ENDBRANCH   4   5
ENDBRANCH   3   4
ENDBRANCH   2   3
ENDBRANCH   1   2
BRANCH   1  18
ATOM     18  C   UNL     1     -27.368  66.397  84.434  1.00  0.00     0.000 C 
BRANCH  18  19
ATOM     19  C   UNL     1     -28.256  67.371  83.640  1.00  0.00     0.000 C 
BRANCH  19  20
ATOM     20  C   UNL     1     -28.245  67.074  82.125  1.00  0.00     0.000 C 
BRANCH  20  21
ATOM     21  C   UNL     1     -27.851  65.629  81.775  1.00  0.00     0.000 C 
BRANCH  21  22
ATOM     22  C   UNL     1     -29.037  64.795  81.260  1.00  0.00     0.000 C 
BRANCH  22  23
ATOM     23  C   UNL     1     -29.804  64.092  82.392  1.00  0.00     0.000 C 
BRANCH  23  24
ATOM     24  C   UNL     1     -29.221  62.713  82.739  1.00  0.00    -0.000 C 
BRANCH  24  25
ATOM     25  C   UNL     1     -28.275  62.805  83.947  1.00  0.00    -0.000 C 
BRANCH  25  26
ATOM     26  C   UNL     1     -27.513  61.493  84.202  1.00  0.00    -0.000 C 
BRANCH  26  27
ATOM     27  C   UNL     1     -27.548  60.546  82.989  1.00  0.00    -0.000 C 
BRANCH  27  28
ATOM     28  C   UNL     1     -27.027  59.138  83.326  1.00  0.00    -0.000 C 
BRANCH  28  29
ATOM     29  C   UNL     1     -27.497  58.080  82.314  1.00  0.00    -0.000 C 
BRANCH  29  30
ATOM     30  C   UNL     1     -26.928  56.697  82.663  1.00  0.00    -0.000 C 
BRANCH  30  31
ATOM     31  C   UNL     1     -26.189  56.682  84.010  1.00  0.00    -0.003 C 
ATOM     32  C   UNL     1     -24.816  56.016  83.928  1.00  0.00     0.004 C 
ENDBRANCH  30  31
ENDBRANCH  29  30
ENDBRANCH  28  29
ENDBRANCH  27  28
ENDBRANCH  26  27
ENDBRANCH  25  26
ENDBRANCH  24  25
ENDBRANCH  23  24
ENDBRANCH  22  23
ENDBRANCH  21  22
ENDBRANCH  20  21
ENDBRANCH  19  20
ENDBRANCH  18  19
ENDBRANCH   1  18
TORSDOF 28
ENDMDL
MODEL 8
REMARK VINA RESULT:    -0.517      3.583      9.350
REMARK INTER + INTRA:          -4.452
REMARK INTER:                  -1.865
REMARK INTRA:                  -2.586
REMARK UNBOUND:                -3.089
REMARK SMILES CCCCCCCCCCCCCCCCCCCCCCCCCCCCCC(=O)[O-]
REMARK SMILES IDX 16 1 17 2 18 3 19 4 20 5 21 6 22 7 23 8 24 9 25 10 26 11
REMARK SMILES IDX 27 12 28 13 29 14 30 15 31 16 32 17 15 18 14 19 13 20 12 21
REMARK SMILES IDX 11 22 10 23 9 24 8 25 7 26 6 27 5 28 4 29 3 30 2 31 1 32
REMARK H PARENT
REMARK Flexibility Score: inf
ROOT
ATOM      1  C   UNL     1     -27.448  61.506  84.234  1.00  0.00     0.000 C 
ENDROOT
BRANCH   1   2
ATOM      2  C   UNL     1     -27.798  60.511  83.115  1.00  0.00     0.000 C 
BRANCH   2   3
ATOM      3  C   UNL     1     -27.321  59.084  83.424  1.00  0.00     0.000 C 
BRANCH   3   4
ATOM      4  C   UNL     1     -27.378  58.157  82.195  1.00  0.00     0.000 C 
BRANCH   4   5
ATOM      5  C   UNL     1     -28.739  58.234  81.471  1.00  0.00     0.000 C 
BRANCH   5   6
ATOM      6  C   UNL     1     -29.494  56.892  81.421  1.00  0.00     0.000 C 
BRANCH   6   7
ATOM      7  C   UNL     1     -29.522  56.271  80.017  1.00  0.00     0.000 C 
BRANCH   7   8
ATOM      8  C   UNL     1     -30.938  55.884  79.566  1.00  0.00     0.000 C 
BRANCH   8   9
ATOM      9  C   UNL     1     -31.094  55.877  78.033  1.00  0.00     0.000 C 
BRANCH   9  10
ATOM     10  C   UNL     1     -29.738  55.875  77.293  1.00  0.00     0.000 C 
BRANCH  10  11
ATOM     11  C   UNL     1     -29.729  56.686  75.981  1.00  0.00     0.000 C 
BRANCH  11  12
ATOM     12  C   UNL     1     -28.641  57.766  75.880  1.00  0.00     0.000 C 
BRANCH  12  13
ATOM     13  C   UNL     1     -29.201  59.147  75.484  1.00  0.00     0.006 C 
BRANCH  13  14
ATOM     14  C   UNL     1     -30.666  59.075  75.032  1.00  0.00     0.053 C 
BRANCH  14  15
ATOM     15  C   UNL     1     -31.371  60.390  75.188  1.00  0.00     0.041 C 
ATOM     16  O   UNL     1     -30.711  61.441  75.420  1.00  0.00    -0.550 OA
ATOM     17  O   UNL     1     -32.757  60.443  75.135  1.00  0.00    -0.550 OA
ENDBRANCH  14  15
ENDBRANCH  13  14
ENDBRANCH  12  13
ENDBRANCH  11  12
ENDBRANCH  10  11
ENDBRANCH   9  10
ENDBRANCH   8   9
ENDBRANCH   7   8
ENDBRANCH   6   7
ENDBRANCH   5   6
ENDBRANCH   4   5
ENDBRANCH   3   4
ENDBRANCH   2   3
ENDBRANCH   1   2
BRANCH   1  18
ATOM     18  C   UNL     1     -28.611  62.462  84.547  1.00  0.00     0.000 C 
BRANCH  18  19
ATOM     19  C   UNL     1     -28.158  63.699  85.342  1.00  0.00     0.000 C 
BRANCH  19  20
ATOM     20  C   UNL     1     -29.333  64.406  86.049  1.00  0.00     0.000 C 
BRANCH  20  21
ATOM     21  C   UNL     1     -30.602  64.522  85.187  1.00  0.00     0.000 C 
BRANCH  21  22
ATOM     22  C   UNL     1     -30.948  65.977  84.827  1.00  0.00     0.000 C 
BRANCH  22  23
ATOM     23  C   UNL     1     -31.141  66.865  86.067  1.00  0.00     0.000 C 
BRANCH  23  24
ATOM     24  C   UNL     1     -30.206  68.086  86.075  1.00  0.00    -0.000 C 
BRANCH  24  25
ATOM     25  C   UNL     1     -28.796  67.693  86.546  1.00  0.00    -0.000 C 
BRANCH  25  26
ATOM     26  C   UNL     1     -27.709  68.048  85.517  1.00  0.00    -0.000 C 
BRANCH  26  27
ATOM     27  C   UNL     1     -27.573  66.983  84.413  1.00  0.00    -0.000 C 
BRANCH  27  28
ATOM     28  C   UNL     1     -28.542  67.221  83.242  1.00  0.00    -0.000 C 
BRANCH  28  29
ATOM     29  C   UNL     1     -27.979  66.719  81.902  1.00  0.00    -0.000 C 
BRANCH  29  30
ATOM     30  C   UNL     1     -28.146  65.198  81.773  1.00  0.00    -0.000 C 
BRANCH  30  31
ATOM     31  C   UNL     1     -29.396  64.804  80.971  1.00  0.00    -0.003 C 
ATOM     32  C   UNL     1     -30.230  63.724  81.659  1.00  0.00     0.004 C 
ENDBRANCH  30  31
ENDBRANCH  29  30
ENDBRANCH  28  29
ENDBRANCH  27  28
ENDBRANCH  26  27
ENDBRANCH  25  26
ENDBRANCH  24  25
ENDBRANCH  23  24
ENDBRANCH  22  23
ENDBRANCH  21  22
ENDBRANCH  20  21
ENDBRANCH  19  20
ENDBRANCH  18  19
ENDBRANCH   1  18
TORSDOF 28
ENDMDL
MODEL 9
REMARK VINA RESULT:    -0.515      2.476      5.067
REMARK INTER + INTRA:          -4.446
REMARK INTER:                  -2.157
REMARK INTRA:                  -2.289
REMARK UNBOUND:                -3.089
REMARK SMILES CCCCCCCCCCCCCCCCCCCCCCCCCCCCCC(=O)[O-]
REMARK SMILES IDX 16 1 17 2 18 3 19 4 20 5 21 6 22 7 23 8 24 9 25 10 26 11
REMARK SMILES IDX 27 12 28 13 29 14 30 15 31 16 32 17 15 18 14 19 13 20 12 21
REMARK SMILES IDX 11 22 10 23 9 24 8 25 7 26 6 27 5 28 4 29 3 30 2 31 1 32
REMARK H PARENT
REMARK Flexibility Score: inf
ROOT
ATOM      1  C   UNL     1     -28.231  65.546  81.806  1.00  0.00     0.000 C 
ENDROOT
BRANCH   1   2
ATOM      2  C   UNL     1     -28.225  67.017  82.254  1.00  0.00     0.000 C 
BRANCH   2   3
ATOM      3  C   UNL     1     -28.477  67.177  83.761  1.00  0.00     0.000 C 
BRANCH   3   4
ATOM      4  C   UNL     1     -27.297  66.681  84.618  1.00  0.00     0.000 C 
BRANCH   4   5
ATOM      5  C   UNL     1     -26.365  67.835  85.047  1.00  0.00     0.000 C 
BRANCH   5   6
ATOM      6  C   UNL     1     -26.943  68.718  86.168  1.00  0.00     0.000 C 
BRANCH   6   7
ATOM      7  C   UNL     1     -28.208  68.127  86.807  1.00  0.00     0.000 C 
BRANCH   7   8
ATOM      8  C   UNL     1     -28.942  69.129  87.709  1.00  0.00     0.000 C 
BRANCH   8   9
ATOM      9  C   UNL     1     -29.894  70.052  86.925  1.00  0.00     0.000 C 
BRANCH   9  10
ATOM     10  C   UNL     1     -30.892  69.271  86.042  1.00  0.00     0.000 C 
BRANCH  10  11
ATOM     11  C   UNL     1     -32.063  68.633  86.817  1.00  0.00     0.000 C 
BRANCH  11  12
ATOM     12  C   UNL     1     -31.990  67.108  86.987  1.00  0.00     0.000 C 
BRANCH  12  13
ATOM     13  C   UNL     1     -32.042  66.351  85.646  1.00  0.00     0.006 C 
BRANCH  13  14
ATOM     14  C   UNL     1     -30.668  65.810  85.228  1.00  0.00     0.053 C 
BRANCH  14  15
ATOM     15  C   UNL     1     -30.176  64.738  86.153  1.00  0.00     0.041 C 
ATOM     16  O   UNL     1     -29.046  64.845  86.706  1.00  0.00    -0.550 OA
ATOM     17  O   UNL     1     -30.939  63.597  86.360  1.00  0.00    -0.550 OA
ENDBRANCH  14  15
ENDBRANCH  13  14
ENDBRANCH  12  13
ENDBRANCH  11  12
ENDBRANCH  10  11
ENDBRANCH   9  10
ENDBRANCH   8   9
ENDBRANCH   7   8
ENDBRANCH   6   7
ENDBRANCH   5   6
ENDBRANCH   4   5
ENDBRANCH   3   4
ENDBRANCH   2   3
ENDBRANCH   1   2
BRANCH   1  18
ATOM     18  C   UNL     1     -29.589  64.869  82.055  1.00  0.00     0.000 C 
BRANCH  18  19
ATOM     19  C   UNL     1     -29.440  63.425  82.566  1.00  0.00     0.000 C 
BRANCH  19  20
ATOM     20  C   UNL     1     -28.289  63.278  83.584  1.00  0.00     0.000 C 
BRANCH  20  21
ATOM     21  C   UNL     1     -28.330  61.966  84.387  1.00  0.00     0.000 C 
BRANCH  21  22
ATOM     22  C   UNL     1     -27.118  61.059  84.112  1.00  0.00     0.000 C 
BRANCH  22  23
ATOM     23  C   UNL     1     -27.368  60.068  82.964  1.00  0.00     0.000 C 
BRANCH  23  24
ATOM     24  C   UNL     1     -26.924  58.636  83.308  1.00  0.00    -0.000 C 
BRANCH  24  25
ATOM     25  C   UNL     1     -27.357  57.649  82.213  1.00  0.00    -0.000 C 
BRANCH  25  26
ATOM     26  C   UNL     1     -28.859  57.742  81.894  1.00  0.00    -0.000 C 
BRANCH  26  27
ATOM     27  C   UNL     1     -29.414  56.441  81.285  1.00  0.00    -0.000 C 
BRANCH  27  28
ATOM     28  C   UNL     1     -30.674  56.680  80.435  1.00  0.00    -0.000 C 
BRANCH  28  29
ATOM     29  C   UNL     1     -30.658  55.877  79.124  1.00  0.00    -0.000 C 
BRANCH  29  30
ATOM     30  C   UNL     1     -30.270  56.773  77.938  1.00  0.00    -0.000 C 
BRANCH  30  31
ATOM     31  C   UNL     1     -30.509  56.097  76.579  1.00  0.00    -0.003 C 
ATOM     32  C   UNL     1     -31.446  56.895  75.674  1.00  0.00     0.004 C 
ENDBRANCH  30  31
ENDBRANCH  29  30
ENDBRANCH  28  29
ENDBRANCH  27  28
ENDBRANCH  26  27
ENDBRANCH  25  26
ENDBRANCH  24  25
ENDBRANCH  23  24
ENDBRANCH  22  23
ENDBRANCH  21  22
ENDBRANCH  20  21
ENDBRANCH  19  20
ENDBRANCH  18  19
ENDBRANCH   1  18
TORSDOF 28
ENDMDL
