MODEL 1
REMARK VINA RESULT:    -4.280      0.000      0.000
REMARK INTER + INTRA:         -13.977
REMARK INTER:                  -9.784
REMARK INTRA:                  -4.193
REMARK UNBOUND:                -4.193
REMARK SMILES CCCCCCCCCCCCCCCCCCCCCCCC(=O)[O-]
REMARK SMILES IDX 13 1 14 2 15 3 16 4 17 5 18 6 19 7 20 8 21 9 22 10 23 11
REMARK SMILES IDX 24 12 25 13 26 14 12 15 11 16 10 17 9 18 8 19 7 20 6 21 5 22
REMARK SMILES IDX 4 23 3 24 2 25 1 26
REMARK H PARENT
REMARK Flexibility Score: inf
ROOT
ATOM      1  C   UNL     1       6.995  34.379  68.195  1.00  0.00     0.000 C 
ENDROOT
BRANCH   1   2
ATOM      2  C   UNL     1       8.485  33.974  68.154  1.00  0.00     0.000 C 
BRANCH   2   3
ATOM      3  C   UNL     1       8.716  32.452  68.126  1.00  0.00     0.000 C 
BRANCH   3   4
ATOM      4  C   UNL     1       8.399  31.770  66.783  1.00  0.00     0.000 C 
BRANCH   4   5
ATOM      5  C   UNL     1       7.116  30.911  66.769  1.00  0.00     0.000 C 
BRANCH   5   6
ATOM      6  C   UNL     1       6.925  29.997  67.993  1.00  0.00     0.000 C 
BRANCH   6   7
ATOM      7  C   UNL     1       5.459  29.875  68.429  1.00  0.00     0.000 C 
BRANCH   7   8
ATOM      8  C   UNL     1       5.283  30.334  69.885  1.00  0.00     0.000 C 
BRANCH   8   9
ATOM      9  C   UNL     1       6.491  31.132  70.404  1.00  0.00     0.000 C 
BRANCH   9  10
ATOM     10  C   UNL     1       6.077  32.358  71.235  1.00  0.00     0.006 C 
BRANCH  10  11
ATOM     11  C   UNL     1       7.281  33.049  71.887  1.00  0.00     0.053 C 
BRANCH  11  12
ATOM     12  C   UNL     1       7.485  32.598  73.301  1.00  0.00     0.041 C 
ATOM     13  O   UNL     1       6.678  31.790  73.831  1.00  0.00    -0.550 OA
ATOM     14  O   UNL     1       8.547  33.097  74.045  1.00  0.00    -0.550 OA
ENDBRANCH  11  12
ENDBRANCH  10  11
ENDBRANCH   9  10
ENDBRANCH   8   9
ENDBRANCH   7   8
ENDBRANCH   6   7
ENDBRANCH   5   6
ENDBRANCH   4   5
ENDBRANCH   3   4
ENDBRANCH   2   3
ENDBRANCH   1   2
BRANCH   1  15
ATOM     15  C   UNL     1       6.412  34.615  66.792  1.00  0.00     0.000 C 
BRANCH  15  16
ATOM     16  C   UNL     1       5.048  33.933  66.582  1.00  0.00     0.000 C 
BRANCH  16  17
ATOM     17  C   UNL     1       4.408  33.331  67.849  1.00  0.00     0.000 C 
BRANCH  17  18
ATOM     18  C   UNL     1       3.125  32.536  67.555  1.00  0.00    -0.000 C 
BRANCH  18  19
ATOM     19  C   UNL     1       2.282  32.276  68.816  1.00  0.00    -0.000 C 
BRANCH  19  20
ATOM     20  C   UNL     1       0.845  32.833  68.768  1.00  0.00    -0.000 C 
BRANCH  20  21
ATOM     21  C   UNL     1       0.591  33.908  67.690  1.00  0.00    -0.000 C 
BRANCH  21  22
ATOM     22  C   UNL     1       0.302  35.318  68.237  1.00  0.00    -0.000 C 
BRANCH  22  23
ATOM     23  C   UNL     1       0.894  35.544  69.639  1.00  0.00    -0.000 C 
BRANCH  23  24
ATOM     24  C   UNL     1       2.268  36.237  69.600  1.00  0.00    -0.000 C 
BRANCH  24  25
ATOM     25  C   UNL     1       3.336  35.599  70.506  1.00  0.00    -0.003 C 
ATOM     26  C   UNL     1       3.102  35.870  71.992  1.00  0.00     0.004 C 
ENDBRANCH  24  25
ENDBRANCH  23  24
ENDBRANCH  22  23
ENDBRANCH  21  22
ENDBRANCH  20  21
ENDBRANCH  19  20
ENDBRANCH  18  19
ENDBRANCH  17  18
ENDBRANCH  16  17
ENDBRANCH  15  16
ENDBRANCH   1  15
TORSDOF 22
ENDMDL
MODEL 2
REMARK VINA RESULT:    -4.251     12.511     15.420
REMARK INTER + INTRA:         -13.911
REMARK INTER:                 -12.404
REMARK INTRA:                  -1.507
REMARK UNBOUND:                -4.193
REMARK SMILES CCCCCCCCCCCCCCCCCCCCCCCC(=O)[O-]
REMARK SMILES IDX 13 1 14 2 15 3 16 4 17 5 18 6 19 7 20 8 21 9 22 10 23 11
REMARK SMILES IDX 24 12 25 13 26 14 12 15 11 16 10 17 9 18 8 19 7 20 6 21 5 22
REMARK SMILES IDX 4 23 3 24 2 25 1 26
REMARK H PARENT
REMARK Flexibility Score: inf
ROOT
ATOM      1  C   UNL     1       6.997  47.297  68.444  1.00  0.00     0.000 C 
ENDROOT
BRANCH   1   2
ATOM      2  C   UNL     1       5.548  47.371  67.914  1.00  0.00     0.000 C 
BRANCH   2   3
ATOM      3  C   UNL     1       5.447  47.743  66.424  1.00  0.00     0.000 C 
BRANCH   3   4
ATOM      4  C   UNL     1       4.102  47.403  65.757  1.00  0.00     0.000 C 
BRANCH   4   5
ATOM      5  C   UNL     1       4.140  46.216  64.769  1.00  0.00     0.000 C 
BRANCH   5   6
ATOM      6  C   UNL     1       3.567  44.895  65.311  1.00  0.00     0.000 C 
BRANCH   6   7
ATOM      7  C   UNL     1       2.084  44.994  65.693  1.00  0.00     0.000 C 
BRANCH   7   8
ATOM      8  C   UNL     1       1.851  44.462  67.116  1.00  0.00     0.000 C 
BRANCH   8   9
ATOM      9  C   UNL     1       3.161  44.269  67.898  1.00  0.00     0.000 C 
BRANCH   9  10
ATOM     10  C   UNL     1       3.134  43.019  68.794  1.00  0.00     0.006 C 
BRANCH  10  11
ATOM     11  C   UNL     1       2.621  43.331  70.206  1.00  0.00     0.053 C 
BRANCH  11  12
ATOM     12  C   UNL     1       3.744  43.569  71.169  1.00  0.00     0.041 C 
ATOM     13  O   UNL     1       4.859  43.014  70.990  1.00  0.00    -0.550 OA
ATOM     14  O   UNL     1       3.547  44.376  72.282  1.00  0.00    -0.550 OA
ENDBRANCH  11  12
ENDBRANCH  10  11
ENDBRANCH   9  10
ENDBRANCH   8   9
ENDBRANCH   7   8
ENDBRANCH   6   7
ENDBRANCH   5   6
ENDBRANCH   4   5
ENDBRANCH   3   4
ENDBRANCH   2   3
ENDBRANCH   1   2
BRANCH   1  15
ATOM     15  C   UNL     1       7.132  47.866  69.866  1.00  0.00     0.000 C 
BRANCH  15  16
ATOM     16  C   UNL     1       7.586  49.337  69.889  1.00  0.00     0.000 C 
BRANCH  16  17
ATOM     17  C   UNL     1       8.962  49.594  70.534  1.00  0.00     0.000 C 
BRANCH  17  18
ATOM     18  C   UNL     1       9.545  48.349  71.225  1.00  0.00    -0.000 C 
BRANCH  18  19
ATOM     19  C   UNL     1      11.060  48.194  70.996  1.00  0.00    -0.000 C 
BRANCH  19  20
ATOM     20  C   UNL     1      11.913  48.141  72.279  1.00  0.00    -0.000 C 
BRANCH  20  21
ATOM     21  C   UNL     1      11.142  47.786  73.568  1.00  0.00    -0.000 C 
BRANCH  21  22
ATOM     22  C   UNL     1      12.022  47.595  74.817  1.00  0.00    -0.000 C 
BRANCH  22  23
ATOM     23  C   UNL     1      11.293  46.855  75.951  1.00  0.00    -0.000 C 
BRANCH  23  24
ATOM     24  C   UNL     1      10.254  47.738  76.666  1.00  0.00    -0.000 C 
BRANCH  24  25
ATOM     25  C   UNL     1      10.851  48.798  77.609  1.00  0.00    -0.003 C 
ATOM     26  C   UNL     1      10.082  48.934  78.922  1.00  0.00     0.004 C 
ENDBRANCH  24  25
ENDBRANCH  23  24
ENDBRANCH  22  23
ENDBRANCH  21  22
ENDBRANCH  20  21
ENDBRANCH  19  20
ENDBRANCH  18  19
ENDBRANCH  17  18
ENDBRANCH  16  17
ENDBRANCH  15  16
ENDBRANCH   1  15
TORSDOF 22
ENDMDL
MODEL 3
REMARK VINA RESULT:    -4.171     11.893     15.007
REMARK INTER + INTRA:         -13.728
REMARK INTER:                 -11.232
REMARK INTRA:                  -2.496
REMARK UNBOUND:                -4.193
REMARK SMILES CCCCCCCCCCCCCCCCCCCCCCCC(=O)[O-]
REMARK SMILES IDX 13 1 14 2 15 3 16 4 17 5 18 6 19 7 20 8 21 9 22 10 23 11
REMARK SMILES IDX 24 12 25 13 26 14 12 15 11 16 10 17 9 18 8 19 7 20 6 21 5 22
REMARK SMILES IDX 4 23 3 24 2 25 1 26
REMARK H PARENT
REMARK Flexibility Score: inf
ROOT
ATOM      1  C   UNL     1       3.575  44.128  71.758  1.00  0.00     0.000 C 
ENDROOT
BRANCH   1   2
ATOM      2  C   UNL     1       2.477  43.363  70.988  1.00  0.00     0.000 C 
BRANCH   2   3
ATOM      3  C   UNL     1       2.889  42.947  69.564  1.00  0.00     0.000 C 
BRANCH   3   4
ATOM      4  C   UNL     1       2.185  43.717  68.432  1.00  0.00     0.000 C 
BRANCH   4   5
ATOM      5  C   UNL     1       3.097  44.140  67.259  1.00  0.00     0.000 C 
BRANCH   5   6
ATOM      6  C   UNL     1       3.078  43.199  66.042  1.00  0.00     0.000 C 
BRANCH   6   7
ATOM      7  C   UNL     1       3.571  43.872  64.754  1.00  0.00     0.000 C 
BRANCH   7   8
ATOM      8  C   UNL     1       2.533  44.877  64.231  1.00  0.00     0.000 C 
BRANCH   8   9
ATOM      9  C   UNL     1       3.056  46.323  64.231  1.00  0.00     0.000 C 
BRANCH   9  10
ATOM     10  C   UNL     1       4.516  46.424  64.703  1.00  0.00     0.006 C 
BRANCH  10  11
ATOM     11  C   UNL     1       4.642  47.172  66.036  1.00  0.00     0.053 C 
BRANCH  11  12
ATOM     12  C   UNL     1       4.894  48.636  65.832  1.00  0.00     0.041 C 
ATOM     13  O   UNL     1       6.060  49.098  65.940  1.00  0.00    -0.550 OA
ATOM     14  O   UNL     1       3.836  49.493  65.560  1.00  0.00    -0.550 OA
ENDBRANCH  11  12
ENDBRANCH  10  11
ENDBRANCH   9  10
ENDBRANCH   8   9
ENDBRANCH   7   8
ENDBRANCH   6   7
ENDBRANCH   5   6
ENDBRANCH   4   5
ENDBRANCH   3   4
ENDBRANCH   2   3
ENDBRANCH   1   2
BRANCH   1  15
ATOM     15  C   UNL     1       4.875  44.263  70.948  1.00  0.00     0.000 C 
BRANCH  15  16
ATOM     16  C   UNL     1       4.879  45.482  70.009  1.00  0.00     0.000 C 
BRANCH  16  17
ATOM     17  C   UNL     1       6.233  46.206  69.871  1.00  0.00     0.000 C 
BRANCH  17  18
ATOM     18  C   UNL     1       6.091  47.661  69.392  1.00  0.00    -0.000 C 
BRANCH  18  19
ATOM     19  C   UNL     1       7.201  48.579  69.936  1.00  0.00    -0.000 C 
BRANCH  19  20
ATOM     20  C   UNL     1       8.176  47.909  70.925  1.00  0.00    -0.000 C 
BRANCH  20  21
ATOM     21  C   UNL     1       9.381  48.774  71.349  1.00  0.00    -0.000 C 
BRANCH  21  22
ATOM     22  C   UNL     1      10.703  48.436  70.635  1.00  0.00    -0.000 C 
BRANCH  22  23
ATOM     23  C   UNL     1      10.512  48.144  69.137  1.00  0.00    -0.000 C 
BRANCH  23  24
ATOM     24  C   UNL     1      10.714  46.658  68.789  1.00  0.00    -0.000 C 
BRANCH  24  25
ATOM     25  C   UNL     1       9.587  46.035  67.946  1.00  0.00    -0.003 C 
ATOM     26  C   UNL     1       8.878  47.050  67.051  1.00  0.00     0.004 C 
ENDBRANCH  24  25
ENDBRANCH  23  24
ENDBRANCH  22  23
ENDBRANCH  21  22
ENDBRANCH  20  21
ENDBRANCH  19  20
ENDBRANCH  18  19
ENDBRANCH  17  18
ENDBRANCH  16  17
ENDBRANCH  15  16
ENDBRANCH   1  15
TORSDOF 22
ENDMDL
MODEL 4
REMARK VINA RESULT:    -4.161      2.964      6.467
REMARK INTER + INTRA:         -13.705
REMARK INTER:                  -9.880
REMARK INTRA:                  -3.825
REMARK UNBOUND:                -4.193
REMARK SMILES CCCCCCCCCCCCCCCCCCCCCCCC(=O)[O-]
REMARK SMILES IDX 13 1 14 2 15 3 16 4 17 5 18 6 19 7 20 8 21 9 22 10 23 11
REMARK SMILES IDX 24 12 25 13 26 14 12 15 11 16 10 17 9 18 8 19 7 20 6 21 5 22
REMARK SMILES IDX 4 23 3 24 2 25 1 26
REMARK H PARENT
REMARK Flexibility Score: inf
ROOT
ATOM      1  C   UNL     1       5.869  35.527  70.248  1.00  0.00     0.000 C 
ENDROOT
BRANCH   1   2
ATOM      2  C   UNL     1       4.358  35.663  70.537  1.00  0.00     0.000 C 
BRANCH   2   3
ATOM      3  C   UNL     1       3.777  34.507  71.371  1.00  0.00     0.000 C 
BRANCH   3   4
ATOM      4  C   UNL     1       2.734  33.639  70.645  1.00  0.00     0.000 C 
BRANCH   4   5
ATOM      5  C   UNL     1       2.974  32.116  70.726  1.00  0.00     0.000 C 
BRANCH   5   6
ATOM      6  C   UNL     1       3.042  31.390  69.372  1.00  0.00     0.000 C 
BRANCH   6   7
ATOM      7  C   UNL     1       3.289  32.340  68.192  1.00  0.00     0.000 C 
BRANCH   7   8
ATOM      8  C   UNL     1       2.128  32.275  67.187  1.00  0.00     0.000 C 
BRANCH   8   9
ATOM      9  C   UNL     1       0.772  32.014  67.865  1.00  0.00     0.000 C 
BRANCH   9  10
ATOM     10  C   UNL     1      -0.026  33.306  68.106  1.00  0.00     0.006 C 
BRANCH  10  11
ATOM     11  C   UNL     1       0.600  34.513  67.397  1.00  0.00     0.053 C 
BRANCH  11  12
ATOM     12  C   UNL     1       0.215  35.806  68.050  1.00  0.00     0.041 C 
ATOM     13  O   UNL     1      -0.101  36.801  67.347  1.00  0.00    -0.550 OA
ATOM     14  O   UNL     1       0.239  35.921  69.434  1.00  0.00    -0.550 OA
ENDBRANCH  11  12
ENDBRANCH  10  11
ENDBRANCH   9  10
ENDBRANCH   8   9
ENDBRANCH   7   8
ENDBRANCH   6   7
ENDBRANCH   5   6
ENDBRANCH   4   5
ENDBRANCH   3   4
ENDBRANCH   2   3
ENDBRANCH   1   2
BRANCH   1  15
ATOM     15  C   UNL     1       6.152  34.718  68.971  1.00  0.00     0.000 C 
BRANCH  15  16
ATOM     16  C   UNL     1       7.654  34.576  68.666  1.00  0.00     0.000 C 
BRANCH  16  17
ATOM     17  C   UNL     1       8.048  33.327  67.853  1.00  0.00     0.000 C 
BRANCH  17  18
ATOM     18  C   UNL     1       6.835  32.571  67.285  1.00  0.00    -0.000 C 
BRANCH  18  19
ATOM     19  C   UNL     1       7.143  31.095  66.974  1.00  0.00    -0.000 C 
BRANCH  19  20
ATOM     20  C   UNL     1       7.486  30.227  68.202  1.00  0.00    -0.000 C 
BRANCH  20  21
ATOM     21  C   UNL     1       6.528  30.377  69.402  1.00  0.00    -0.000 C 
BRANCH  21  22
ATOM     22  C   UNL     1       7.206  30.786  70.723  1.00  0.00    -0.000 C 
BRANCH  22  23
ATOM     23  C   UNL     1       6.520  31.986  71.397  1.00  0.00    -0.000 C 
BRANCH  23  24
ATOM     24  C   UNL     1       7.517  32.917  72.113  1.00  0.00    -0.000 C 
BRANCH  24  25
ATOM     25  C   UNL     1       7.948  32.442  73.512  1.00  0.00    -0.003 C 
ATOM     26  C   UNL     1       8.746  33.493  74.282  1.00  0.00     0.004 C 
ENDBRANCH  24  25
ENDBRANCH  23  24
ENDBRANCH  22  23
ENDBRANCH  21  22
ENDBRANCH  20  21
ENDBRANCH  19  20
ENDBRANCH  18  19
ENDBRANCH  17  18
ENDBRANCH  16  17
ENDBRANCH  15  16
ENDBRANCH   1  15
TORSDOF 22
ENDMDL
MODEL 5
REMARK VINA RESULT:    -4.128     12.357     14.563
REMARK INTER + INTRA:         -13.630
REMARK INTER:                 -11.912
REMARK INTRA:                  -1.718
REMARK UNBOUND:                -4.193
REMARK SMILES CCCCCCCCCCCCCCCCCCCCCCCC(=O)[O-]
REMARK SMILES IDX 13 1 14 2 15 3 16 4 17 5 18 6 19 7 20 8 21 9 22 10 23 11
REMARK SMILES IDX 24 12 25 13 26 14 12 15 11 16 10 17 9 18 8 19 7 20 6 21 5 22
REMARK SMILES IDX 4 23 3 24 2 25 1 26
REMARK H PARENT
REMARK Flexibility Score: inf
ROOT
ATOM      1  C   UNL     1       5.565  48.353  67.075  1.00  0.00     0.000 C 
ENDROOT
BRANCH   1   2
ATOM      2  C   UNL     1       7.084  48.290  66.803  1.00  0.00     0.000 C 
BRANCH   2   3
ATOM      3  C   UNL     1       7.872  47.485  67.853  1.00  0.00     0.000 C 
BRANCH   3   4
ATOM      4  C   UNL     1       7.116  47.210  69.166  1.00  0.00     0.000 C 
BRANCH   4   5
ATOM      5  C   UNL     1       7.707  47.889  70.420  1.00  0.00     0.000 C 
BRANCH   5   6
ATOM      6  C   UNL     1       8.089  49.369  70.246  1.00  0.00     0.000 C 
BRANCH   6   7
ATOM      7  C   UNL     1       9.557  49.657  70.593  1.00  0.00     0.000 C 
BRANCH   7   8
ATOM      8  C   UNL     1      10.413  48.391  70.430  1.00  0.00     0.000 C 
BRANCH   8   9
ATOM      9  C   UNL     1      11.491  48.261  71.520  1.00  0.00     0.000 C 
BRANCH   9  10
ATOM     10  C   UNL     1      10.904  47.881  72.889  1.00  0.00     0.006 C 
BRANCH  10  11
ATOM     11  C   UNL     1      11.978  47.823  73.983  1.00  0.00     0.053 C 
BRANCH  11  12
ATOM     12  C   UNL     1      11.546  46.982  75.145  1.00  0.00     0.041 C 
ATOM     13  O   UNL     1      11.572  45.726  75.062  1.00  0.00    -0.550 OA
ATOM     14  O   UNL     1      11.082  47.585  76.307  1.00  0.00    -0.550 OA
ENDBRANCH  11  12
ENDBRANCH  10  11
ENDBRANCH   9  10
ENDBRANCH   8   9
ENDBRANCH   7   8
ENDBRANCH   6   7
ENDBRANCH   5   6
ENDBRANCH   4   5
ENDBRANCH   3   4
ENDBRANCH   2   3
ENDBRANCH   1   2
BRANCH   1  15
ATOM     15  C   UNL     1       4.830  49.274  66.088  1.00  0.00     0.000 C 
BRANCH  15  16
ATOM     16  C   UNL     1       5.252  49.053  64.624  1.00  0.00     0.000 C 
BRANCH  16  17
ATOM     17  C   UNL     1       4.703  47.773  63.964  1.00  0.00     0.000 C 
BRANCH  17  18
ATOM     18  C   UNL     1       3.558  47.127  64.763  1.00  0.00    -0.000 C 
BRANCH  18  19
ATOM     19  C   UNL     1       3.819  45.646  65.089  1.00  0.00    -0.000 C 
BRANCH  19  20
ATOM     20  C   UNL     1       2.762  44.979  65.993  1.00  0.00    -0.000 C 
BRANCH  20  21
ATOM     21  C   UNL     1       3.257  44.574  67.397  1.00  0.00    -0.000 C 
BRANCH  21  22
ATOM     22  C   UNL     1       2.955  43.117  67.794  1.00  0.00    -0.000 C 
BRANCH  22  23
ATOM     23  C   UNL     1       3.275  42.825  69.270  1.00  0.00    -0.000 C 
BRANCH  23  24
ATOM     24  C   UNL     1       2.151  43.272  70.223  1.00  0.00    -0.000 C 
BRANCH  24  25
ATOM     25  C   UNL     1       2.634  43.786  71.590  1.00  0.00    -0.003 C 
ATOM     26  C   UNL     1       4.110  44.184  71.594  1.00  0.00     0.004 C 
ENDBRANCH  24  25
ENDBRANCH  23  24
ENDBRANCH  22  23
ENDBRANCH  21  22
ENDBRANCH  20  21
ENDBRANCH  19  20
ENDBRANCH  18  19
ENDBRANCH  17  18
ENDBRANCH  16  17
ENDBRANCH  15  16
ENDBRANCH   1  15
TORSDOF 22
ENDMDL
MODEL 6
REMARK VINA RESULT:    -4.127      2.984      6.460
REMARK INTER + INTRA:         -13.628
REMARK INTER:                  -9.736
REMARK INTRA:                  -3.892
REMARK UNBOUND:                -4.193
REMARK SMILES CCCCCCCCCCCCCCCCCCCCCCCC(=O)[O-]
REMARK SMILES IDX 13 1 14 2 15 3 16 4 17 5 18 6 19 7 20 8 21 9 22 10 23 11
REMARK SMILES IDX 24 12 25 13 26 14 12 15 11 16 10 17 9 18 8 19 7 20 6 21 5 22
REMARK SMILES IDX 4 23 3 24 2 25 1 26
REMARK H PARENT
REMARK Flexibility Score: inf
ROOT
ATOM      1  C   UNL     1       7.193  34.813  68.401  1.00  0.00     0.000 C 
ENDROOT
BRANCH   1   2
ATOM      2  C   UNL     1       5.863  34.505  69.124  1.00  0.00     0.000 C 
BRANCH   2   3
ATOM      3  C   UNL     1       5.547  35.467  70.283  1.00  0.00     0.000 C 
BRANCH   3   4
ATOM      4  C   UNL     1       4.611  34.899  71.365  1.00  0.00     0.000 C 
BRANCH   4   5
ATOM      5  C   UNL     1       3.191  35.505  71.390  1.00  0.00     0.000 C 
BRANCH   5   6
ATOM      6  C   UNL     1       2.078  34.591  70.849  1.00  0.00     0.000 C 
BRANCH   6   7
ATOM      7  C   UNL     1       2.405  33.098  70.989  1.00  0.00     0.000 C 
BRANCH   7   8
ATOM      8  C   UNL     1       2.232  32.374  69.645  1.00  0.00     0.000 C 
BRANCH   8   9
ATOM      9  C   UNL     1       2.367  33.320  68.440  1.00  0.00     0.000 C 
BRANCH   9  10
ATOM     10  C   UNL     1       1.137  33.283  67.519  1.00  0.00     0.006 C 
BRANCH  10  11
ATOM     11  C   UNL     1       0.180  34.452  67.784  1.00  0.00     0.053 C 
BRANCH  11  12
ATOM     12  C   UNL     1       0.740  35.753  67.297  1.00  0.00     0.041 C 
ATOM     13  O   UNL     1       0.715  36.033  66.070  1.00  0.00    -0.550 OA
ATOM     14  O   UNL     1       1.320  36.641  68.193  1.00  0.00    -0.550 OA
ENDBRANCH  11  12
ENDBRANCH  10  11
ENDBRANCH   9  10
ENDBRANCH   8   9
ENDBRANCH   7   8
ENDBRANCH   6   7
ENDBRANCH   5   6
ENDBRANCH   4   5
ENDBRANCH   3   4
ENDBRANCH   2   3
ENDBRANCH   1   2
BRANCH   1  15
ATOM     15  C   UNL     1       7.573  33.725  67.383  1.00  0.00     0.000 C 
BRANCH  15  16
ATOM     16  C   UNL     1       8.854  32.961  67.764  1.00  0.00     0.000 C 
BRANCH  16  17
ATOM     17  C   UNL     1       8.817  31.441  67.513  1.00  0.00     0.000 C 
BRANCH  17  18
ATOM     18  C   UNL     1       7.689  31.016  66.558  1.00  0.00    -0.000 C 
BRANCH  18  19
ATOM     19  C   UNL     1       6.624  30.140  67.244  1.00  0.00    -0.000 C 
BRANCH  19  20
ATOM     20  C   UNL     1       6.698  30.108  68.784  1.00  0.00    -0.000 C 
BRANCH  20  21
ATOM     21  C   UNL     1       5.437  30.615  69.514  1.00  0.00    -0.000 C 
BRANCH  21  22
ATOM     22  C   UNL     1       5.711  31.387  70.818  1.00  0.00    -0.000 C 
BRANCH  22  23
ATOM     23  C   UNL     1       7.212  31.529  71.121  1.00  0.00    -0.000 C 
BRANCH  23  24
ATOM     24  C   UNL     1       7.525  32.733  72.028  1.00  0.00    -0.000 C 
BRANCH  24  25
ATOM     25  C   UNL     1       7.822  32.374  73.495  1.00  0.00    -0.003 C 
ATOM     26  C   UNL     1       8.055  30.880  73.711  1.00  0.00     0.004 C 
ENDBRANCH  24  25
ENDBRANCH  23  24
ENDBRANCH  22  23
ENDBRANCH  21  22
ENDBRANCH  20  21
ENDBRANCH  19  20
ENDBRANCH  18  19
ENDBRANCH  17  18
ENDBRANCH  16  17
ENDBRANCH  15  16
ENDBRANCH   1  15
TORSDOF 22
ENDMDL
MODEL 7
REMARK VINA RESULT:    -4.072      3.157      6.050
REMARK INTER + INTRA:         -13.502
REMARK INTER:                  -9.702
REMARK INTRA:                  -3.801
REMARK UNBOUND:                -4.193
REMARK SMILES CCCCCCCCCCCCCCCCCCCCCCCC(=O)[O-]
REMARK SMILES IDX 13 1 14 2 15 3 16 4 17 5 18 6 19 7 20 8 21 9 22 10 23 11
REMARK SMILES IDX 24 12 25 13 26 14 12 15 11 16 10 17 9 18 8 19 7 20 6 21 5 22
REMARK SMILES IDX 4 23 3 24 2 25 1 26
REMARK H PARENT
REMARK Flexibility Score: inf
ROOT
ATOM      1  C   UNL     1       7.382  33.703  67.839  1.00  0.00     0.000 C 
ENDROOT
BRANCH   1   2
ATOM      2  C   UNL     1       6.285  33.911  66.771  1.00  0.00     0.000 C 
BRANCH   2   3
ATOM      3  C   UNL     1       4.859  33.978  67.347  1.00  0.00     0.000 C 
BRANCH   3   4
ATOM      4  C   UNL     1       4.126  32.627  67.431  1.00  0.00     0.000 C 
BRANCH   4   5
ATOM      5  C   UNL     1       3.913  32.082  68.860  1.00  0.00     0.000 C 
BRANCH   5   6
ATOM      6  C   UNL     1       2.473  32.186  69.393  1.00  0.00     0.000 C 
BRANCH   6   7
ATOM      7  C   UNL     1       1.413  31.894  68.323  1.00  0.00     0.000 C 
BRANCH   7   8
ATOM      8  C   UNL     1       0.519  33.122  68.092  1.00  0.00     0.000 C 
BRANCH   8   9
ATOM      9  C   UNL     1       0.560  34.114  69.267  1.00  0.00     0.000 C 
BRANCH   9  10
ATOM     10  C   UNL     1       0.137  35.534  68.856  1.00  0.00     0.006 C 
BRANCH  10  11
ATOM     11  C   UNL     1       1.315  36.355  68.314  1.00  0.00     0.053 C 
BRANCH  11  12
ATOM     12  C   UNL     1       1.259  36.494  66.823  1.00  0.00     0.041 C 
ATOM     13  O   UNL     1       2.288  36.284  66.128  1.00  0.00    -0.550 OA
ATOM     14  O   UNL     1       0.080  36.891  66.205  1.00  0.00    -0.550 OA
ENDBRANCH  11  12
ENDBRANCH  10  11
ENDBRANCH   9  10
ENDBRANCH   8   9
ENDBRANCH   7   8
ENDBRANCH   6   7
ENDBRANCH   5   6
ENDBRANCH   4   5
ENDBRANCH   3   4
ENDBRANCH   2   3
ENDBRANCH   1   2
BRANCH   1  15
ATOM     15  C   UNL     1       8.521  32.797  67.343  1.00  0.00     0.000 C 
BRANCH  15  16
ATOM     16  C   UNL     1       8.734  31.556  68.228  1.00  0.00     0.000 C 
BRANCH  16  17
ATOM     17  C   UNL     1       7.464  30.741  68.542  1.00  0.00     0.000 C 
BRANCH  17  18
ATOM     18  C   UNL     1       7.449  30.175  69.972  1.00  0.00    -0.000 C 
BRANCH  18  19
ATOM     19  C   UNL     1       6.177  30.556  70.751  1.00  0.00    -0.000 C 
BRANCH  19  20
ATOM     20  C   UNL     1       6.423  31.259  72.101  1.00  0.00    -0.000 C 
BRANCH  20  21
ATOM     21  C   UNL     1       7.508  32.357  72.083  1.00  0.00    -0.000 C 
BRANCH  21  22
ATOM     22  C   UNL     1       7.177  33.580  71.208  1.00  0.00    -0.000 C 
BRANCH  22  23
ATOM     23  C   UNL     1       5.711  34.026  71.340  1.00  0.00    -0.000 C 
BRANCH  23  24
ATOM     24  C   UNL     1       5.407  35.313  70.552  1.00  0.00    -0.000 C 
BRANCH  24  25
ATOM     25  C   UNL     1       3.914  35.675  70.462  1.00  0.00    -0.003 C 
ATOM     26  C   UNL     1       3.199  35.613  71.811  1.00  0.00     0.004 C 
ENDBRANCH  24  25
ENDBRANCH  23  24
ENDBRANCH  22  23
ENDBRANCH  21  22
ENDBRANCH  20  21
ENDBRANCH  19  20
ENDBRANCH  18  19
ENDBRANCH  17  18
ENDBRANCH  16  17
ENDBRANCH  15  16
ENDBRANCH   1  15
TORSDOF 22
ENDMDL
MODEL 8
REMARK VINA RESULT:    -4.006      2.509      4.548
REMARK INTER + INTRA:         -13.351
REMARK INTER:                  -9.306
REMARK INTRA:                  -4.044
REMARK UNBOUND:                -4.193
REMARK SMILES CCCCCCCCCCCCCCCCCCCCCCCC(=O)[O-]
REMARK SMILES IDX 13 1 14 2 15 3 16 4 17 5 18 6 19 7 20 8 21 9 22 10 23 11
REMARK SMILES IDX 24 12 25 13 26 14 12 15 11 16 10 17 9 18 8 19 7 20 6 21 5 22
REMARK SMILES IDX 4 23 3 24 2 25 1 26
REMARK H PARENT
REMARK Flexibility Score: inf
ROOT
ATOM      1  C   UNL     1       7.301  32.854  71.693  1.00  0.00     0.000 C 
ENDROOT
BRANCH   1   2
ATOM      2  C   UNL     1       6.330  31.840  72.336  1.00  0.00     0.000 C 
BRANCH   2   3
ATOM      3  C   UNL     1       6.185  30.528  71.544  1.00  0.00     0.000 C 
BRANCH   3   4
ATOM      4  C   UNL     1       4.935  30.442  70.649  1.00  0.00     0.000 C 
BRANCH   4   5
ATOM      5  C   UNL     1       5.146  30.874  69.182  1.00  0.00     0.000 C 
BRANCH   5   6
ATOM      6  C   UNL     1       5.929  29.876  68.311  1.00  0.00     0.000 C 
BRANCH   6   7
ATOM      7  C   UNL     1       7.103  30.523  67.562  1.00  0.00     0.000 C 
BRANCH   7   8
ATOM      8  C   UNL     1       8.102  31.145  68.550  1.00  0.00     0.000 C 
BRANCH   8   9
ATOM      9  C   UNL     1       8.500  32.580  68.165  1.00  0.00     0.000 C 
BRANCH   9  10
ATOM     10  C   UNL     1       7.750  33.087  66.922  1.00  0.00     0.006 C 
BRANCH  10  11
ATOM     11  C   UNL     1       6.869  34.304  67.235  1.00  0.00     0.053 C 
BRANCH  11  12
ATOM     12  C   UNL     1       5.557  34.243  66.514  1.00  0.00     0.041 C 
ATOM     13  O   UNL     1       5.330  35.016  65.547  1.00  0.00    -0.550 OA
ATOM     14  O   UNL     1       4.573  33.357  66.933  1.00  0.00    -0.550 OA
ENDBRANCH  11  12
ENDBRANCH  10  11
ENDBRANCH   9  10
ENDBRANCH   8   9
ENDBRANCH   7   8
ENDBRANCH   6   7
ENDBRANCH   5   6
ENDBRANCH   4   5
ENDBRANCH   3   4
ENDBRANCH   2   3
ENDBRANCH   1   2
BRANCH   1  15
ATOM     15  C   UNL     1       6.566  33.960  70.916  1.00  0.00     0.000 C 
BRANCH  15  16
ATOM     16  C   UNL     1       5.076  34.069  71.284  1.00  0.00     0.000 C 
BRANCH  16  17
ATOM     17  C   UNL     1       4.206  34.863  70.289  1.00  0.00     0.000 C 
BRANCH  17  18
ATOM     18  C   UNL     1       3.345  35.941  70.970  1.00  0.00    -0.000 C 
BRANCH  18  19
ATOM     19  C   UNL     1       1.917  36.011  70.400  1.00  0.00    -0.000 C 
BRANCH  19  20
ATOM     20  C   UNL     1       1.828  36.347  68.897  1.00  0.00    -0.000 C 
BRANCH  20  21
ATOM     21  C   UNL     1       0.426  36.199  68.270  1.00  0.00    -0.000 C 
BRANCH  21  22
ATOM     22  C   UNL     1      -0.061  34.747  68.110  1.00  0.00    -0.000 C 
BRANCH  22  23
ATOM     23  C   UNL     1       1.059  33.789  67.672  1.00  0.00    -0.000 C 
BRANCH  23  24
ATOM     24  C   UNL     1       1.041  32.458  68.446  1.00  0.00    -0.000 C 
BRANCH  24  25
ATOM     25  C   UNL     1       0.591  32.573  69.913  1.00  0.00    -0.003 C 
ATOM     26  C   UNL     1       1.705  32.258  70.909  1.00  0.00     0.004 C 
ENDBRANCH  24  25
ENDBRANCH  23  24
ENDBRANCH  22  23
ENDBRANCH  21  22
ENDBRANCH  20  21
ENDBRANCH  19  20
ENDBRANCH  18  19
ENDBRANCH  17  18
ENDBRANCH  16  17
ENDBRANCH  15  16
ENDBRANCH   1  15
TORSDOF 22
ENDMDL
MODEL 9
REMARK VINA RESULT:    -3.944      2.223      6.180
REMARK INTER + INTRA:         -13.209
REMARK INTER:                  -8.937
REMARK INTRA:                  -4.272
REMARK UNBOUND:                -4.193
REMARK SMILES CCCCCCCCCCCCCCCCCCCCCCCC(=O)[O-]
REMARK SMILES IDX 13 1 14 2 15 3 16 4 17 5 18 6 19 7 20 8 21 9 22 10 23 11
REMARK SMILES IDX 24 12 25 13 26 14 12 15 11 16 10 17 9 18 8 19 7 20 6 21 5 22
REMARK SMILES IDX 4 23 3 24 2 25 1 26
REMARK H PARENT
REMARK Flexibility Score: inf
ROOT
ATOM      1  C   UNL     1       6.278  34.404  70.787  1.00  0.00     0.000 C 
ENDROOT
BRANCH   1   2
ATOM      2  C   UNL     1       4.831  34.383  71.328  1.00  0.00     0.000 C 
BRANCH   2   3
ATOM      3  C   UNL     1       4.016  35.640  70.974  1.00  0.00     0.000 C 
BRANCH   3   4
ATOM      4  C   UNL     1       2.490  35.486  71.104  1.00  0.00     0.000 C 
BRANCH   4   5
ATOM      5  C   UNL     1       1.660  36.241  70.043  1.00  0.00     0.000 C 
BRANCH   5   6
ATOM      6  C   UNL     1       1.991  35.892  68.582  1.00  0.00     0.000 C 
BRANCH   6   7
ATOM      7  C   UNL     1       1.916  34.387  68.291  1.00  0.00     0.000 C 
BRANCH   7   8
ATOM      8  C   UNL     1       3.190  33.906  67.578  1.00  0.00     0.000 C 
BRANCH   8   9
ATOM      9  C   UNL     1       3.381  32.383  67.673  1.00  0.00     0.000 C 
BRANCH   9  10
ATOM     10  C   UNL     1       3.981  31.945  69.019  1.00  0.00     0.006 C 
BRANCH  10  11
ATOM     11  C   UNL     1       3.210  30.774  69.643  1.00  0.00     0.053 C 
BRANCH  11  12
ATOM     12  C   UNL     1       1.848  31.189  70.111  1.00  0.00     0.041 C 
ATOM     13  O   UNL     1       0.820  30.787  69.504  1.00  0.00    -0.550 OA
ATOM     14  O   UNL     1       1.715  32.049  71.193  1.00  0.00    -0.550 OA
ENDBRANCH  11  12
ENDBRANCH  10  11
ENDBRANCH   9  10
ENDBRANCH   8   9
ENDBRANCH   7   8
ENDBRANCH   6   7
ENDBRANCH   5   6
ENDBRANCH   4   5
ENDBRANCH   3   4
ENDBRANCH   2   3
ENDBRANCH   1   2
BRANCH   1  15
ATOM     15  C   UNL     1       6.393  35.144  69.444  1.00  0.00     0.000 C 
BRANCH  15  16
ATOM     16  C   UNL     1       6.676  34.204  68.258  1.00  0.00     0.000 C 
BRANCH  16  17
ATOM     17  C   UNL     1       8.165  33.904  67.994  1.00  0.00     0.000 C 
BRANCH  17  18
ATOM     18  C   UNL     1       8.448  32.407  67.780  1.00  0.00    -0.000 C 
BRANCH  18  19
ATOM     19  C   UNL     1       7.208  31.627  67.308  1.00  0.00    -0.000 C 
BRANCH  19  20
ATOM     20  C   UNL     1       7.089  30.192  67.862  1.00  0.00    -0.000 C 
BRANCH  20  21
ATOM     21  C   UNL     1       7.798  29.945  69.210  1.00  0.00    -0.000 C 
BRANCH  21  22
ATOM     22  C   UNL     1       6.862  29.876  70.430  1.00  0.00    -0.000 C 
BRANCH  22  23
ATOM     23  C   UNL     1       6.904  31.153  71.285  1.00  0.00    -0.000 C 
BRANCH  23  24
ATOM     24  C   UNL     1       6.321  30.946  72.695  1.00  0.00    -0.000 C 
BRANCH  24  25
ATOM     25  C   UNL     1       6.666  32.056  73.704  1.00  0.00    -0.003 C 
ATOM     26  C   UNL     1       8.120  32.518  73.614  1.00  0.00     0.004 C 
ENDBRANCH  24  25
ENDBRANCH  23  24
ENDBRANCH  22  23
ENDBRANCH  21  22
ENDBRANCH  20  21
ENDBRANCH  19  20
ENDBRANCH  18  19
ENDBRANCH  17  18
ENDBRANCH  16  17
ENDBRANCH  15  16
ENDBRANCH   1  15
TORSDOF 22
ENDMDL
