MODEL 1
REMARK VINA RESULT:    -5.203      0.000      0.000
REMARK INTER + INTRA:          -5.546
REMARK INTER:                  -5.659
REMARK INTRA:                   0.113
REMARK UNBOUND:                 0.113
REMARK SMILES C[C@H]1[C@H](C)CC[C@]2(C(=O)[O-])CC[C@@]3(C)C(=CC[C@@H]4[C@@]5(C)CC[C@@H](O)C(C)(C)[C@@H]5CC[C@@]43C)[C@H]12
REMARK SMILES IDX 7 1 6 2 11 3 33 4 5 5 12 6 15 7 2 8 3 9 13 10 16 11 1 12
REMARK SMILES IDX 4 13 14 14 31 15 17 16 18 17 30 18 32 19 19 20 29 21 28 22
REMARK SMILES IDX 21 23 20 24 25 25 22 26 23 27 26 28 27 29 8 30 9 31 10 32
REMARK SMILES IDX 24 33
REMARK H PARENT 24 34
REMARK Flexibility Score: inf
ROOT
ATOM      1  C   UNL     1      -2.042  31.777  12.410  1.00  0.00     0.017 C 
ATOM      2  C   UNL     1      -0.898  32.211  11.455  1.00  0.00     0.014 C 
ATOM      3  C   UNL     1      -1.440  31.395  13.802  1.00  0.00     0.014 C 
ATOM      4  C   UNL     1      -2.827  30.590  11.732  1.00  0.00     0.030 C 
ATOM      5  C   UNL     1      -1.431  32.753  10.124  1.00  0.00     0.004 C 
ATOM      6  C   UNL     1      -0.867  29.971  13.935  1.00  0.00     0.013 C 
ATOM      7  C   UNL     1      -2.088  29.246  11.972  1.00  0.00    -0.063 C 
ATOM      8  C   UNL     1      -3.278  30.902  10.239  1.00  0.00    -0.003 C 
ATOM      9  C   UNL     1      -2.265  31.720   9.345  1.00  0.00    -0.011 C 
ATOM     10  C   UNL     1      -1.815  28.839  13.420  1.00  0.00    -0.006 C 
ATOM     11  C   UNL     1      -1.450  28.624  10.970  1.00  0.00    -0.027 C 
ATOM     12  C   UNL     1      -4.654  31.609  10.210  1.00  0.00     0.008 C 
ATOM     13  C   UNL     1      -1.360  30.868   8.442  1.00  0.00     0.008 C 
ATOM     14  C   UNL     1      -3.174  28.875  14.214  1.00  0.00     0.017 C 
ATOM     15  C   UNL     1      -1.151  27.360  13.573  1.00  0.00    -0.020 C 
ATOM     16  C   UNL     1      -0.504  27.483  11.103  1.00  0.00     0.032 C 
ATOM     17  C   UNL     1       0.011  27.123  12.532  1.00  0.00     0.006 C 
ATOM     18  C   UNL     1      -2.246  26.240  13.331  1.00  0.00     0.008 C 
ATOM     19  C   UNL     1      -0.568  27.270  15.036  1.00  0.00     0.012 C 
ATOM     20  C   UNL     1       0.690  25.646  12.580  1.00  0.00    -0.025 C 
ATOM     21  C   UNL     1      -1.765  24.888  12.720  1.00  0.00     0.005 C 
ATOM     22  C   UNL     1      -0.323  24.574  13.138  1.00  0.00     0.003 C 
ATOM     23  C   UNL     1       1.949  25.621  13.515  1.00  0.00     0.010 C 
ATOM     24  C   UNL     1       1.214  25.264  11.154  1.00  0.00     0.012 C 
ATOM     25  C   UNL     1       0.162  23.067  13.134  1.00  0.00    -0.006 C 
ATOM     26  C   UNL     1       2.209  24.263  14.231  1.00  0.00     0.033 C 
ATOM     27  C   UNL     1       1.715  23.014  13.460  1.00  0.00     0.120 C 
ATOM     28  C   UNL     1      -0.124  22.357  11.787  1.00  0.00     0.014 C 
ATOM     29  C   UNL     1      -0.629  22.275  14.225  1.00  0.00     0.014 C 
ENDROOT
BRANCH   1  30
ATOM     30  C   UNL     1      -2.973  32.953  12.698  1.00  0.00     0.048 C 
ATOM     31  O   UNL     1      -2.578  34.141  12.541  1.00  0.00    -0.550 OA
ATOM     32  O   UNL     1      -4.206  32.738  13.304  1.00  0.00    -0.550 OA
ENDBRANCH   1  30
BRANCH  27  33
ATOM     33  O   UNL     1       2.050  21.876  14.216  1.00  0.00    -0.393 OA
ATOM     34  H   UNL     1       2.879  22.094  14.720  1.00  0.00     0.210 HD
ENDBRANCH  27  33
TORSDOF 2
ENDMDL
MODEL 2
REMARK VINA RESULT:    -5.068      4.705      6.647
REMARK INTER + INTRA:          -5.400
REMARK INTER:                  -5.523
REMARK INTRA:                   0.124
REMARK UNBOUND:                 0.113
REMARK SMILES C[C@H]1[C@H](C)CC[C@]2(C(=O)[O-])CC[C@@]3(C)C(=CC[C@@H]4[C@@]5(C)CC[C@@H](O)C(C)(C)[C@@H]5CC[C@@]43C)[C@H]12
REMARK SMILES IDX 7 1 6 2 11 3 33 4 5 5 12 6 15 7 2 8 3 9 13 10 16 11 1 12
REMARK SMILES IDX 4 13 14 14 31 15 17 16 18 17 30 18 32 19 19 20 29 21 28 22
REMARK SMILES IDX 21 23 20 24 25 25 22 26 23 27 26 28 27 29 8 30 9 31 10 32
REMARK SMILES IDX 24 33
REMARK H PARENT 24 34
REMARK Flexibility Score: inf
ROOT
ATOM      1  C   UNL     1      -0.978  34.203  12.467  1.00  0.00     0.017 C 
ATOM      2  C   UNL     1      -2.204  34.434  13.389  1.00  0.00     0.014 C 
ATOM      3  C   UNL     1      -1.365  34.551  10.992  1.00  0.00     0.014 C 
ATOM      4  C   UNL     1      -0.502  32.711  12.643  1.00  0.00     0.030 C 
ATOM      5  C   UNL     1      -1.851  34.269  14.872  1.00  0.00     0.004 C 
ATOM      6  C   UNL     1      -2.097  33.452  10.197  1.00  0.00     0.013 C 
ATOM      7  C   UNL     1      -1.365  31.762  11.770  1.00  0.00    -0.063 C 
ATOM      8  C   UNL     1      -0.290  32.292  14.162  1.00  0.00    -0.003 C 
ATOM      9  C   UNL     1      -1.325  32.863  15.210  1.00  0.00    -0.011 C 
ATOM     10  C   UNL     1      -1.425  32.042  10.268  1.00  0.00    -0.006 C 
ATOM     11  C   UNL     1      -2.255  30.930  12.331  1.00  0.00    -0.027 C 
ATOM     12  C   UNL     1       1.142  32.630  14.638  1.00  0.00     0.008 C 
ATOM     13  C   UNL     1      -2.488  31.920  15.556  1.00  0.00     0.008 C 
ATOM     14  C   UNL     1       0.047  32.120   9.715  1.00  0.00     0.017 C 
ATOM     15  C   UNL     1      -2.250  30.922   9.422  1.00  0.00    -0.020 C 
ATOM     16  C   UNL     1      -3.310  30.159  11.621  1.00  0.00     0.032 C 
ATOM     17  C   UNL     1      -3.603  30.523  10.131  1.00  0.00     0.006 C 
ATOM     18  C   UNL     1      -1.384  29.602   9.270  1.00  0.00     0.008 C 
ATOM     19  C   UNL     1      -2.565  31.554   8.012  1.00  0.00     0.012 C 
ATOM     20  C   UNL     1      -4.461  29.364   9.378  1.00  0.00    -0.025 C 
ATOM     21  C   UNL     1      -2.151  28.248   9.182  1.00  0.00     0.005 C 
ATOM     22  C   UNL     1      -3.523  28.430   8.521  1.00  0.00     0.003 C 
ATOM     23  C   UNL     1      -5.521  29.978   8.397  1.00  0.00     0.010 C 
ATOM     24  C   UNL     1      -5.282  28.552  10.435  1.00  0.00     0.012 C 
ATOM     25  C   UNL     1      -4.206  27.185   7.822  1.00  0.00    -0.006 C 
ATOM     26  C   UNL     1      -5.833  29.112   7.142  1.00  0.00     0.033 C 
ATOM     27  C   UNL     1      -5.666  27.585   7.345  1.00  0.00     0.120 C 
ATOM     28  C   UNL     1      -4.271  25.947   8.753  1.00  0.00     0.014 C 
ATOM     29  C   UNL     1      -3.349  26.762   6.586  1.00  0.00     0.014 C 
ENDROOT
BRANCH   1  30
ATOM     30  C   UNL     1       0.145  35.179  12.814  1.00  0.00     0.048 C 
ATOM     31  O   UNL     1      -0.090  36.213  13.498  1.00  0.00    -0.550 OA
ATOM     32  O   UNL     1       1.401  35.036  12.237  1.00  0.00    -0.550 OA
ENDBRANCH   1  30
BRANCH  27  33
ATOM     33  O   UNL     1      -6.014  26.946   6.140  1.00  0.00    -0.393 OA
ATOM     34  H   UNL     1      -5.738  25.994   6.225  1.00  0.00     0.210 HD
ENDBRANCH  27  33
TORSDOF 2
ENDMDL
MODEL 3
REMARK VINA RESULT:    -4.996      3.956      8.496
REMARK INTER + INTRA:          -5.321
REMARK INTER:                  -5.436
REMARK INTRA:                   0.114
REMARK UNBOUND:                 0.113
REMARK SMILES C[C@H]1[C@H](C)CC[C@]2(C(=O)[O-])CC[C@@]3(C)C(=CC[C@@H]4[C@@]5(C)CC[C@@H](O)C(C)(C)[C@@H]5CC[C@@]43C)[C@H]12
REMARK SMILES IDX 7 1 6 2 11 3 33 4 5 5 12 6 15 7 2 8 3 9 13 10 16 11 1 12
REMARK SMILES IDX 4 13 14 14 31 15 17 16 18 17 30 18 32 19 19 20 29 21 28 22
REMARK SMILES IDX 21 23 20 24 25 25 22 26 23 27 26 28 27 29 8 30 9 31 10 32
REMARK SMILES IDX 24 33
REMARK H PARENT 24 34
REMARK Flexibility Score: inf
ROOT
ATOM      1  C   UNL     1      -2.259  31.321   9.880  1.00  0.00     0.017 C 
ATOM      2  C   UNL     1      -1.037  30.385   9.686  1.00  0.00     0.014 C 
ATOM      3  C   UNL     1      -1.886  32.765   9.410  1.00  0.00     0.014 C 
ATOM      4  C   UNL     1      -2.694  31.259  11.393  1.00  0.00     0.030 C 
ATOM      5  C   UNL     1      -1.383  28.919   9.974  1.00  0.00     0.004 C 
ATOM      6  C   UNL     1      -1.126  33.642  10.425  1.00  0.00     0.013 C 
ATOM      7  C   UNL     1      -1.808  32.202  12.250  1.00  0.00    -0.063 C 
ATOM      8  C   UNL     1      -2.891  29.776  11.933  1.00  0.00    -0.003 C 
ATOM      9  C   UNL     1      -1.870  28.688  11.415  1.00  0.00    -0.011 C 
ATOM     10  C   UNL     1      -1.759  33.679  11.854  1.00  0.00    -0.006 C 
ATOM     11  C   UNL     1      -0.895  31.707  13.097  1.00  0.00    -0.027 C 
ATOM     12  C   UNL     1      -4.331  29.275  11.672  1.00  0.00     0.008 C 
ATOM     13  C   UNL     1      -0.680  28.415  12.350  1.00  0.00     0.008 C 
ATOM     14  C   UNL     1      -3.234  34.223  11.774  1.00  0.00     0.017 C 
ATOM     15  C   UNL     1      -0.906  34.608  12.884  1.00  0.00    -0.020 C 
ATOM     16  C   UNL     1       0.180  32.474  13.782  1.00  0.00     0.032 C 
ATOM     17  C   UNL     1       0.459  33.932  13.298  1.00  0.00     0.006 C 
ATOM     18  C   UNL     1      -1.736  34.860  14.211  1.00  0.00     0.008 C 
ATOM     19  C   UNL     1      -0.612  35.966  12.137  1.00  0.00     0.012 C 
ATOM     20  C   UNL     1       1.346  34.771  14.372  1.00  0.00    -0.025 C 
ATOM     21  C   UNL     1      -0.933  35.051  15.533  1.00  0.00     0.005 C 
ATOM     22  C   UNL     1       0.431  35.697  15.263  1.00  0.00     0.003 C 
ATOM     23  C   UNL     1       2.386  35.703  13.657  1.00  0.00     0.010 C 
ATOM     24  C   UNL     1       2.192  33.780  15.240  1.00  0.00     0.012 C 
ATOM     25  C   UNL     1       1.147  36.489  16.433  1.00  0.00    -0.006 C 
ATOM     26  C   UNL     1       2.719  37.021  14.416  1.00  0.00     0.033 C 
ATOM     27  C   UNL     1       2.594  36.935  15.958  1.00  0.00     0.120 C 
ATOM     28  C   UNL     1       1.247  35.656  17.735  1.00  0.00     0.014 C 
ATOM     29  C   UNL     1       0.298  37.754  16.784  1.00  0.00     0.014 C 
ENDROOT
BRANCH   1  30
ATOM     30  C   UNL     1      -3.408  30.900   8.965  1.00  0.00     0.048 C 
ATOM     31  O   UNL     1      -3.183  30.240   7.913  1.00  0.00    -0.550 OA
ATOM     32  O   UNL     1      -4.692  31.385   9.183  1.00  0.00    -0.550 OA
ENDBRANCH   1  30
BRANCH  27  33
ATOM     33  O   UNL     1       2.956  38.185  16.493  1.00  0.00    -0.393 OA
ATOM     34  H   UNL     1       3.946  38.187  16.583  1.00  0.00     0.210 HD
ENDBRANCH  27  33
TORSDOF 2
ENDMDL
MODEL 4
REMARK VINA RESULT:    -4.912      1.531      8.076
REMARK INTER + INTRA:          -5.230
REMARK INTER:                  -5.344
REMARK INTRA:                   0.114
REMARK UNBOUND:                 0.113
REMARK SMILES C[C@H]1[C@H](C)CC[C@]2(C(=O)[O-])CC[C@@]3(C)C(=CC[C@@H]4[C@@]5(C)CC[C@@H](O)C(C)(C)[C@@H]5CC[C@@]43C)[C@H]12
REMARK SMILES IDX 7 1 6 2 11 3 33 4 5 5 12 6 15 7 2 8 3 9 13 10 16 11 1 12
REMARK SMILES IDX 4 13 14 14 31 15 17 16 18 17 30 18 32 19 19 20 29 21 28 22
REMARK SMILES IDX 21 23 20 24 25 25 22 26 23 27 26 28 27 29 8 30 9 31 10 32
REMARK SMILES IDX 24 33
REMARK H PARENT 24 34
REMARK Flexibility Score: inf
ROOT
ATOM      1  C   UNL     1      -1.285  24.145  13.394  1.00  0.00     0.017 C 
ATOM      2  C   UNL     1      -1.104  23.495  11.997  1.00  0.00     0.014 C 
ATOM      3  C   UNL     1      -2.766  24.623  13.556  1.00  0.00     0.014 C 
ATOM      4  C   UNL     1      -0.241  25.317  13.533  1.00  0.00     0.030 C 
ATOM      5  C   UNL     1       0.281  22.858  11.833  1.00  0.00     0.004 C 
ATOM      6  C   UNL     1      -3.117  25.990  12.938  1.00  0.00     0.013 C 
ATOM      7  C   UNL     1      -0.774  26.601  12.843  1.00  0.00    -0.063 C 
ATOM      8  C   UNL     1       1.248  24.882  13.182  1.00  0.00    -0.003 C 
ATOM      9  C   UNL     1       1.430  23.872  11.982  1.00  0.00    -0.011 C 
ATOM     10  C   UNL     1      -2.127  27.143  13.307  1.00  0.00    -0.006 C 
ATOM     11  C   UNL     1      -0.236  27.039  11.695  1.00  0.00    -0.027 C 
ATOM     12  C   UNL     1       1.969  24.315  14.427  1.00  0.00     0.008 C 
ATOM     13  C   UNL     1       1.754  24.522  10.628  1.00  0.00     0.008 C 
ATOM     14  C   UNL     1      -2.080  27.332  14.869  1.00  0.00     0.017 C 
ATOM     15  C   UNL     1      -2.541  28.557  12.614  1.00  0.00    -0.020 C 
ATOM     16  C   UNL     1      -0.798  28.089  10.804  1.00  0.00     0.032 C 
ATOM     17  C   UNL     1      -2.264  28.559  11.061  1.00  0.00     0.006 C 
ATOM     18  C   UNL     1      -1.704  29.745  13.250  1.00  0.00     0.008 C 
ATOM     19  C   UNL     1      -4.084  28.757  12.871  1.00  0.00     0.012 C 
ATOM     20  C   UNL     1      -2.597  29.959  10.301  1.00  0.00    -0.025 C 
ATOM     21  C   UNL     1      -1.380  30.963  12.333  1.00  0.00     0.005 C 
ATOM     22  C   UNL     1      -2.483  31.181  11.291  1.00  0.00     0.003 C 
ATOM     23  C   UNL     1      -4.056  29.967   9.723  1.00  0.00     0.010 C 
ATOM     24  C   UNL     1      -1.650  30.121   9.065  1.00  0.00     0.012 C 
ATOM     25  C   UNL     1      -2.669  32.623  10.664  1.00  0.00    -0.006 C 
ATOM     26  C   UNL     1      -4.737  31.366   9.682  1.00  0.00     0.033 C 
ATOM     27  C   UNL     1      -3.765  32.561   9.518  1.00  0.00     0.120 C 
ATOM     28  C   UNL     1      -1.344  33.198  10.103  1.00  0.00     0.014 C 
ATOM     29  C   UNL     1      -3.138  33.608  11.783  1.00  0.00     0.014 C 
ENDROOT
BRANCH   1  30
ATOM     30  C   UNL     1      -1.089  23.106  14.498  1.00  0.00     0.048 C 
ATOM     31  O   UNL     1      -1.260  21.879  14.263  1.00  0.00    -0.550 OA
ATOM     32  O   UNL     1      -0.894  23.511  15.814  1.00  0.00    -0.550 OA
ENDBRANCH   1  30
BRANCH  27  33
ATOM     33  O   UNL     1      -4.531  33.740   9.465  1.00  0.00    -0.393 OA
ATOM     34  H   UNL     1      -5.484  33.466   9.390  1.00  0.00     0.210 HD
ENDBRANCH  27  33
TORSDOF 2
ENDMDL
MODEL 5
REMARK VINA RESULT:    -4.902      1.466      1.718
REMARK INTER + INTRA:          -5.219
REMARK INTER:                  -5.332
REMARK INTRA:                   0.113
REMARK UNBOUND:                 0.113
REMARK SMILES C[C@H]1[C@H](C)CC[C@]2(C(=O)[O-])CC[C@@]3(C)C(=CC[C@@H]4[C@@]5(C)CC[C@@H](O)C(C)(C)[C@@H]5CC[C@@]43C)[C@H]12
REMARK SMILES IDX 7 1 6 2 11 3 33 4 5 5 12 6 15 7 2 8 3 9 13 10 16 11 1 12
REMARK SMILES IDX 4 13 14 14 31 15 17 16 18 17 30 18 32 19 19 20 29 21 28 22
REMARK SMILES IDX 21 23 20 24 25 25 22 26 23 27 26 28 27 29 8 30 9 31 10 32
REMARK SMILES IDX 24 33
REMARK H PARENT 24 34
REMARK Flexibility Score: inf
ROOT
ATOM      1  C   UNL     1      -2.171  30.618  11.769  1.00  0.00     0.017 C 
ATOM      2  C   UNL     1      -1.191  30.858  10.590  1.00  0.00     0.014 C 
ATOM      3  C   UNL     1      -1.411  30.810  13.122  1.00  0.00     0.014 C 
ATOM      4  C   UNL     1      -2.792  29.179  11.609  1.00  0.00     0.030 C 
ATOM      5  C   UNL     1      -1.906  30.847   9.234  1.00  0.00     0.004 C 
ATOM      6  C   UNL     1      -0.597  29.603  13.629  1.00  0.00     0.013 C 
ATOM      7  C   UNL     1      -1.822  28.106  12.170  1.00  0.00    -0.063 C 
ATOM      8  C   UNL     1      -3.400  28.910  10.165  1.00  0.00    -0.003 C 
ATOM      9  C   UNL     1      -2.609  29.511   8.937  1.00  0.00    -0.011 C 
ATOM     10  C   UNL     1      -1.376  28.247  13.626  1.00  0.00    -0.006 C 
ATOM     11  C   UNL     1      -1.164  27.276  11.347  1.00  0.00    -0.027 C 
ATOM     12  C   UNL     1      -4.873  29.374  10.086  1.00  0.00     0.008 C 
ATOM     13  C   UNL     1      -1.643  28.536   8.245  1.00  0.00     0.008 C 
ATOM     14  C   UNL     1      -2.659  28.362  14.532  1.00  0.00     0.017 C 
ATOM     15  C   UNL     1      -0.462  27.008  14.157  1.00  0.00    -0.020 C 
ATOM     16  C   UNL     1      -0.032  26.384  11.715  1.00  0.00     0.032 C 
ATOM     17  C   UNL     1       0.642  26.596  13.107  1.00  0.00     0.006 C 
ATOM     18  C   UNL     1      -1.367  25.735  14.424  1.00  0.00     0.008 C 
ATOM     19  C   UNL     1       0.235  27.492  15.486  1.00  0.00     0.012 C 
ATOM     20  C   UNL     1       1.563  25.325  13.537  1.00  0.00    -0.025 C 
ATOM     21  C   UNL     1      -0.711  24.335  14.221  1.00  0.00     0.005 C 
ATOM     22  C   UNL     1       0.789  24.376  14.531  1.00  0.00     0.003 C 
ATOM     23  C   UNL     1       2.874  25.784  14.265  1.00  0.00     0.010 C 
ATOM     24  C   UNL     1       2.035  24.563  12.253  1.00  0.00     0.012 C 
ATOM     25  C   UNL     1       1.521  23.034  14.947  1.00  0.00    -0.006 C 
ATOM     26  C   UNL     1       3.412  24.793  15.338  1.00  0.00     0.033 C 
ATOM     27  C   UNL     1       3.080  23.303  15.074  1.00  0.00     0.120 C 
ATOM     28  C   UNL     1       1.259  21.883  13.943  1.00  0.00     0.014 C 
ATOM     29  C   UNL     1       0.959  22.554  16.324  1.00  0.00     0.014 C 
ENDROOT
BRANCH   1  30
ATOM     30  C   UNL     1      -3.263  31.686  11.783  1.00  0.00     0.048 C 
ATOM     31  O   UNL     1      -3.084  32.798  11.213  1.00  0.00    -0.550 OA
ATOM     32  O   UNL     1      -4.397  31.518  12.570  1.00  0.00    -0.550 OA
ENDBRANCH   1  30
BRANCH  27  33
ATOM     33  O   UNL     1       3.658  22.539  16.104  1.00  0.00    -0.393 OA
ATOM     34  H   UNL     1       4.357  21.969  15.687  1.00  0.00     0.210 HD
ENDBRANCH  27  33
TORSDOF 2
ENDMDL
MODEL 6
REMARK VINA RESULT:    -4.894      4.231      7.151
REMARK INTER + INTRA:          -5.210
REMARK INTER:                  -5.332
REMARK INTRA:                   0.122
REMARK UNBOUND:                 0.113
REMARK SMILES C[C@H]1[C@H](C)CC[C@]2(C(=O)[O-])CC[C@@]3(C)C(=CC[C@@H]4[C@@]5(C)CC[C@@H](O)C(C)(C)[C@@H]5CC[C@@]43C)[C@H]12
REMARK SMILES IDX 7 1 6 2 11 3 33 4 5 5 12 6 15 7 2 8 3 9 13 10 16 11 1 12
REMARK SMILES IDX 4 13 14 14 31 15 17 16 18 17 30 18 32 19 19 20 29 21 28 22
REMARK SMILES IDX 21 23 20 24 25 25 22 26 23 27 26 28 27 29 8 30 9 31 10 32
REMARK SMILES IDX 24 33
REMARK H PARENT 24 34
REMARK Flexibility Score: inf
ROOT
ATOM      1  C   UNL     1      -0.406  36.120  14.961  1.00  0.00     0.017 C 
ATOM      2  C   UNL     1      -0.295  35.291  16.268  1.00  0.00     0.014 C 
ATOM      3  C   UNL     1      -1.895  36.140  14.485  1.00  0.00     0.014 C 
ATOM      4  C   UNL     1       0.573  35.496  13.896  1.00  0.00     0.030 C 
ATOM      5  C   UNL     1       1.110  35.365  16.880  1.00  0.00     0.004 C 
ATOM      6  C   UNL     1      -2.375  34.916  13.681  1.00  0.00     0.013 C 
ATOM      7  C   UNL     1      -0.089  34.275  13.203  1.00  0.00    -0.063 C 
ATOM      8  C   UNL     1       2.054  35.294  14.440  1.00  0.00    -0.003 C 
ATOM      9  C   UNL     1       2.203  34.825  15.941  1.00  0.00    -0.011 C 
ATOM     10  C   UNL     1      -1.432  34.500  12.506  1.00  0.00    -0.006 C 
ATOM     11  C   UNL     1       0.331  33.027  13.460  1.00  0.00    -0.027 C 
ATOM     12  C   UNL     1       2.903  36.569  14.228  1.00  0.00     0.008 C 
ATOM     13  C   UNL     1       2.381  33.311  16.134  1.00  0.00     0.008 C 
ATOM     14  C   UNL     1      -1.275  35.695  11.493  1.00  0.00     0.017 C 
ATOM     15  C   UNL     1      -1.983  33.194  11.705  1.00  0.00    -0.020 C 
ATOM     16  C   UNL     1      -0.361  31.768  13.073  1.00  0.00     0.032 C 
ATOM     17  C   UNL     1      -1.828  31.871  12.551  1.00  0.00     0.006 C 
ATOM     18  C   UNL     1      -1.173  32.996  10.357  1.00  0.00     0.008 C 
ATOM     19  C   UNL     1      -3.511  33.450  11.410  1.00  0.00     0.012 C 
ATOM     20  C   UNL     1      -2.303  30.510  11.798  1.00  0.00    -0.025 C 
ATOM     21  C   UNL     1      -0.995  31.537   9.835  1.00  0.00     0.005 C 
ATOM     22  C   UNL     1      -2.187  30.659  10.232  1.00  0.00     0.003 C 
ATOM     23  C   UNL     1      -3.800  30.166  12.118  1.00  0.00     0.010 C 
ATOM     24  C   UNL     1      -1.467  29.298  12.331  1.00  0.00     0.012 C 
ATOM     25  C   UNL     1      -2.508  29.370   9.370  1.00  0.00    -0.006 C 
ATOM     26  C   UNL     1      -4.567  29.438  10.976  1.00  0.00     0.033 C 
ATOM     27  C   UNL     1      -3.684  28.556  10.057  1.00  0.00     0.120 C 
ATOM     28  C   UNL     1      -1.268  28.460   9.185  1.00  0.00     0.014 C 
ATOM     29  C   UNL     1      -2.947  29.813   7.936  1.00  0.00     0.014 C 
ENDROOT
BRANCH   1  30
ATOM     30  C   UNL     1      -0.063  37.585  15.225  1.00  0.00     0.048 C 
ATOM     31  O   UNL     1      -0.068  38.046  16.400  1.00  0.00    -0.550 OA
ATOM     32  O   UNL     1       0.088  38.472  14.164  1.00  0.00    -0.550 OA
ENDBRANCH   1  30
BRANCH  27  33
ATOM     33  O   UNL     1      -4.522  27.946   9.106  1.00  0.00    -0.393 OA
ATOM     34  H   UNL     1      -4.519  26.970   9.298  1.00  0.00     0.210 HD
ENDBRANCH  27  33
TORSDOF 2
ENDMDL
MODEL 7
REMARK VINA RESULT:    -4.870      6.577     12.422
REMARK INTER + INTRA:          -5.184
REMARK INTER:                  -5.296
REMARK INTRA:                   0.112
REMARK UNBOUND:                 0.113
REMARK SMILES C[C@H]1[C@H](C)CC[C@]2(C(=O)[O-])CC[C@@]3(C)C(=CC[C@@H]4[C@@]5(C)CC[C@@H](O)C(C)(C)[C@@H]5CC[C@@]43C)[C@H]12
REMARK SMILES IDX 7 1 6 2 11 3 33 4 5 5 12 6 15 7 2 8 3 9 13 10 16 11 1 12
REMARK SMILES IDX 4 13 14 14 31 15 17 16 18 17 30 18 32 19 19 20 29 21 28 22
REMARK SMILES IDX 21 23 20 24 25 25 22 26 23 27 26 28 27 29 8 30 9 31 10 32
REMARK SMILES IDX 24 33
REMARK H PARENT 24 34
REMARK Flexibility Score: inf
ROOT
ATOM      1  C   UNL     1      -2.337  33.940  10.422  1.00  0.00     0.017 C 
ATOM      2  C   UNL     1      -0.886  33.393  10.449  1.00  0.00     0.014 C 
ATOM      3  C   UNL     1      -2.926  33.779   8.982  1.00  0.00     0.014 C 
ATOM      4  C   UNL     1      -2.310  35.438  10.912  1.00  0.00     0.030 C 
ATOM      5  C   UNL     1      -0.303  33.370  11.867  1.00  0.00     0.004 C 
ATOM      6  C   UNL     1      -2.557  34.874   7.963  1.00  0.00     0.013 C 
ATOM      7  C   UNL     1      -1.910  36.381   9.746  1.00  0.00    -0.063 C 
ATOM      8  C   UNL     1      -1.541  35.637  12.290  1.00  0.00    -0.003 C 
ATOM      9  C   UNL     1      -0.243  34.765  12.514  1.00  0.00    -0.011 C 
ATOM     10  C   UNL     1      -2.763  36.336   8.477  1.00  0.00    -0.006 C 
ATOM     11  C   UNL     1      -0.710  36.978   9.725  1.00  0.00    -0.027 C 
ATOM     12  C   UNL     1      -2.493  35.436  13.492  1.00  0.00     0.008 C 
ATOM     13  C   UNL     1       1.079  35.466  12.164  1.00  0.00     0.008 C 
ATOM     14  C   UNL     1      -4.269  36.557   8.879  1.00  0.00     0.017 C 
ATOM     15  C   UNL     1      -2.342  37.447   7.363  1.00  0.00    -0.020 C 
ATOM     16  C   UNL     1      -0.102  37.692   8.571  1.00  0.00     0.032 C 
ATOM     17  C   UNL     1      -0.778  37.531   7.173  1.00  0.00     0.006 C 
ATOM     18  C   UNL     1      -2.847  38.884   7.804  1.00  0.00     0.008 C 
ATOM     19  C   UNL     1      -3.012  37.008   6.005  1.00  0.00     0.012 C 
ATOM     20  C   UNL     1      -0.271  38.660   6.117  1.00  0.00    -0.025 C 
ATOM     21  C   UNL     1      -2.000  40.111   7.351  1.00  0.00     0.005 C 
ATOM     22  C   UNL     1      -1.309  39.842   6.010  1.00  0.00     0.003 C 
ATOM     23  C   UNL     1      -0.098  38.065   4.676  1.00  0.00     0.010 C 
ATOM     24  C   UNL     1       1.149  39.169   6.538  1.00  0.00     0.012 C 
ATOM     25  C   UNL     1      -0.894  41.073   5.103  1.00  0.00    -0.006 C 
ATOM     26  C   UNL     1      -0.372  39.065   3.515  1.00  0.00     0.033 C 
ATOM     27  C   UNL     1      -0.075  40.549   3.848  1.00  0.00     0.120 C 
ATOM     28  C   UNL     1      -0.063  42.125   5.880  1.00  0.00     0.014 C 
ATOM     29  C   UNL     1      -2.187  41.804   4.616  1.00  0.00     0.014 C 
ENDROOT
BRANCH   1  30
ATOM     30  C   UNL     1      -3.246  33.092  11.311  1.00  0.00     0.048 C 
ATOM     31  O   UNL     1      -2.937  31.902  11.597  1.00  0.00    -0.550 OA
ATOM     32  O   UNL     1      -4.506  33.556  11.671  1.00  0.00    -0.550 OA
ENDBRANCH   1  30
BRANCH  27  33
ATOM     33  O   UNL     1      -0.338  41.314   2.698  1.00  0.00    -0.393 OA
ATOM     34  H   UNL     1      -0.945  40.776   2.122  1.00  0.00     0.210 HD
ENDBRANCH  27  33
TORSDOF 2
ENDMDL
MODEL 8
REMARK VINA RESULT:    -4.736      4.163      6.256
REMARK INTER + INTRA:          -5.038
REMARK INTER:                  -5.153
REMARK INTRA:                   0.115
REMARK UNBOUND:                 0.113
REMARK SMILES C[C@H]1[C@H](C)CC[C@]2(C(=O)[O-])CC[C@@]3(C)C(=CC[C@@H]4[C@@]5(C)CC[C@@H](O)C(C)(C)[C@@H]5CC[C@@]43C)[C@H]12
REMARK SMILES IDX 7 1 6 2 11 3 33 4 5 5 12 6 15 7 2 8 3 9 13 10 16 11 1 12
REMARK SMILES IDX 4 13 14 14 31 15 17 16 18 17 30 18 32 19 19 20 29 21 28 22
REMARK SMILES IDX 21 23 20 24 25 25 22 26 23 27 26 28 27 29 8 30 9 31 10 32
REMARK SMILES IDX 24 33
REMARK H PARENT 24 34
REMARK Flexibility Score: inf
ROOT
ATOM      1  C   UNL     1       0.187  33.609  15.299  1.00  0.00     0.017 C 
ATOM      2  C   UNL     1       1.624  33.644  14.716  1.00  0.00     0.014 C 
ATOM      3  C   UNL     1      -0.209  32.130  15.617  1.00  0.00     0.014 C 
ATOM      4  C   UNL     1      -0.782  34.297  14.264  1.00  0.00     0.030 C 
ATOM      5  C   UNL     1       2.138  35.077  14.533  1.00  0.00     0.004 C 
ATOM      6  C   UNL     1      -0.730  31.290  14.435  1.00  0.00     0.013 C 
ATOM      7  C   UNL     1      -1.186  33.292  13.152  1.00  0.00    -0.063 C 
ATOM      8  C   UNL     1      -0.284  35.730  13.788  1.00  0.00    -0.003 C 
ATOM      9  C   UNL     1       1.270  35.908  13.571  1.00  0.00    -0.011 C 
ATOM     10  C   UNL     1      -1.845  31.983  13.587  1.00  0.00    -0.006 C 
ATOM     11  C   UNL     1      -0.710  33.419  11.904  1.00  0.00    -0.027 C 
ATOM     12  C   UNL     1      -0.787  36.839  14.742  1.00  0.00     0.008 C 
ATOM     13  C   UNL     1       1.750  35.730  12.122  1.00  0.00     0.008 C 
ATOM     14  C   UNL     1      -3.081  32.325  14.501  1.00  0.00     0.017 C 
ATOM     15  C   UNL     1      -2.344  31.054  12.346  1.00  0.00    -0.020 C 
ATOM     16  C   UNL     1      -0.805  32.407  10.818  1.00  0.00     0.032 C 
ATOM     17  C   UNL     1      -1.262  30.965  11.201  1.00  0.00     0.006 C 
ATOM     18  C   UNL     1      -3.666  31.654  11.709  1.00  0.00     0.008 C 
ATOM     19  C   UNL     1      -2.607  29.613  12.931  1.00  0.00     0.012 C 
ATOM     20  C   UNL     1      -1.707  30.100   9.896  1.00  0.00    -0.025 C 
ATOM     21  C   UNL     1      -3.897  31.419  10.185  1.00  0.00     0.005 C 
ATOM     22  C   UNL     1      -3.275  30.094   9.729  1.00  0.00     0.003 C 
ATOM     23  C   UNL     1      -1.250  28.604  10.013  1.00  0.00     0.010 C 
ATOM     24  C   UNL     1      -0.988  30.665   8.625  1.00  0.00     0.012 C 
ATOM     25  C   UNL     1      -3.849  29.386   8.434  1.00  0.00    -0.006 C 
ATOM     26  C   UNL     1      -2.186  27.575   9.316  1.00  0.00     0.033 C 
ATOM     27  C   UNL     1      -2.956  28.121   8.087  1.00  0.00     0.120 C 
ATOM     28  C   UNL     1      -3.912  30.343   7.217  1.00  0.00     0.014 C 
ATOM     29  C   UNL     1      -5.317  28.929   8.712  1.00  0.00     0.014 C 
ENDROOT
BRANCH   1  30
ATOM     30  C   UNL     1       0.138  34.323  16.649  1.00  0.00     0.048 C 
ATOM     31  O   UNL     1       1.189  34.487  17.328  1.00  0.00    -0.550 OA
ATOM     32  O   UNL     1      -1.084  34.645  17.228  1.00  0.00    -0.550 OA
ENDBRANCH   1  30
BRANCH  27  33
ATOM     33  O   UNL     1      -3.724  27.070   7.554  1.00  0.00    -0.393 OA
ATOM     34  H   UNL     1      -3.191  26.661   6.821  1.00  0.00     0.210 HD
ENDBRANCH  27  33
TORSDOF 2
ENDMDL
MODEL 9
REMARK VINA RESULT:    -4.689      3.080      7.237
REMARK INTER + INTRA:          -4.987
REMARK INTER:                  -5.098
REMARK INTRA:                   0.111
REMARK UNBOUND:                 0.113
REMARK SMILES C[C@H]1[C@H](C)CC[C@]2(C(=O)[O-])CC[C@@]3(C)C(=CC[C@@H]4[C@@]5(C)CC[C@@H](O)C(C)(C)[C@@H]5CC[C@@]43C)[C@H]12
REMARK SMILES IDX 7 1 6 2 11 3 33 4 5 5 12 6 15 7 2 8 3 9 13 10 16 11 1 12
REMARK SMILES IDX 4 13 14 14 31 15 17 16 18 17 30 18 32 19 19 20 29 21 28 22
REMARK SMILES IDX 21 23 20 24 25 25 22 26 23 27 26 28 27 29 8 30 9 31 10 32
REMARK SMILES IDX 24 33
REMARK H PARENT 24 34
REMARK Flexibility Score: inf
ROOT
ATOM      1  C   UNL     1       2.673  26.651  16.253  1.00  0.00     0.017 C 
ATOM      2  C   UNL     1       3.189  28.113  16.216  1.00  0.00     0.014 C 
ATOM      3  C   UNL     1       3.035  25.938  14.909  1.00  0.00     0.014 C 
ATOM      4  C   UNL     1       1.123  26.681  16.537  1.00  0.00     0.030 C 
ATOM      5  C   UNL     1       3.012  28.822  17.564  1.00  0.00     0.004 C 
ATOM      6  C   UNL     1       2.081  26.183  13.724  1.00  0.00     0.013 C 
ATOM      7  C   UNL     1       0.339  26.946  15.224  1.00  0.00    -0.063 C 
ATOM      8  C   UNL     1       0.729  27.565  17.798  1.00  0.00    -0.003 C 
ATOM      9  C   UNL     1       1.542  28.902  18.013  1.00  0.00    -0.011 C 
ATOM     10  C   UNL     1       0.567  25.984  14.057  1.00  0.00    -0.006 C 
ATOM     11  C   UNL     1      -0.268  28.123  15.011  1.00  0.00    -0.027 C 
ATOM     12  C   UNL     1       0.782  26.733  19.100  1.00  0.00     0.008 C 
ATOM     13  C   UNL     1       0.875  30.167  17.451  1.00  0.00     0.008 C 
ATOM     14  C   UNL     1       0.317  24.515  14.565  1.00  0.00     0.017 C 
ATOM     15  C   UNL     1      -0.391  26.271  12.772  1.00  0.00    -0.020 C 
ATOM     16  C   UNL     1      -0.831  28.603  13.721  1.00  0.00     0.032 C 
ATOM     17  C   UNL     1      -0.473  27.808  12.427  1.00  0.00     0.006 C 
ATOM     18  C   UNL     1      -1.866  25.768  13.065  1.00  0.00     0.008 C 
ATOM     19  C   UNL     1       0.237  25.493  11.552  1.00  0.00     0.012 C 
ATOM     20  C   UNL     1      -1.458  28.186  11.188  1.00  0.00    -0.025 C 
ATOM     21  C   UNL     1      -3.034  26.536  12.376  1.00  0.00     0.005 C 
ATOM     22  C   UNL     1      -2.599  27.109  11.023  1.00  0.00     0.003 C 
ATOM     23  C   UNL     1      -0.678  28.243   9.828  1.00  0.00     0.010 C 
ATOM     24  C   UNL     1      -2.041  29.623  11.403  1.00  0.00     0.012 C 
ATOM     25  C   UNL     1      -3.702  27.406   9.927  1.00  0.00    -0.006 C 
ATOM     26  C   UNL     1      -1.509  27.837   8.576  1.00  0.00     0.033 C 
ATOM     27  C   UNL     1      -3.028  28.122   8.681  1.00  0.00     0.120 C 
ATOM     28  C   UNL     1      -4.862  28.274  10.477  1.00  0.00     0.014 C 
ATOM     29  C   UNL     1      -4.342  26.054   9.470  1.00  0.00     0.014 C 
ENDROOT
BRANCH   1  30
ATOM     30  C   UNL     1       3.409  25.851  17.328  1.00  0.00     0.048 C 
ATOM     31  O   UNL     1       4.537  26.225  17.749  1.00  0.00    -0.550 OA
ATOM     32  O   UNL     1       2.928  24.609  17.728  1.00  0.00    -0.550 OA
ENDBRANCH   1  30
BRANCH  27  33
ATOM     33  O   UNL     1      -3.628  27.734   7.469  1.00  0.00    -0.393 OA
ATOM     34  H   UNL     1      -4.106  28.530   7.113  1.00  0.00     0.210 HD
ENDBRANCH  27  33
TORSDOF 2
ENDMDL
