MODEL 1
REMARK VINA RESULT:    -7.516      0.000      0.000
REMARK INTER + INTRA:         -15.201
REMARK INTER:                 -12.349
REMARK INTRA:                  -2.852
REMARK UNBOUND:                -2.852
REMARK SMILES C[C@H]1O[C@H](OC[C@H]2O[C@@H](Oc3c(-c4ccc(O)c(O)c4)oc4cc(O)cc(O)c4c3=O)[C@H](O)[C@H](O)[C@@H]2O)[C@H](O)[C@H](O)[C@@H]1O
REMARK SMILES IDX 7 1 36 2 34 3 32 4 9 5 8 6 6 7 5 8 4 9 1 10 2 11 42 12 3 13
REMARK SMILES IDX 40 14 38 15 43 16 41 18 39 20 37 22 35 24 10 26 11 27 12 28
REMARK SMILES IDX 30 29 21 30 29 31 31 32 22 33 27 34 23 35 26 36 24 37 13 38
REMARK SMILES IDX 20 39 14 40 18 41 15 42 16 43 19 44 17 46 28 48 25 50 33 52
REMARK H PARENT 43 17 41 19 39 21 37 23 35 25 19 45 17 47 28 49 25 51 33 53
REMARK Flexibility Score: inf
ROOT
ATOM      1  C   UNL     1     -35.704   6.215  84.281  1.00  0.00     0.180 C 
ATOM      2  C   UNL     1     -34.508   5.285  83.971  1.00  0.00     0.177 C 
ATOM      3  C   UNL     1     -34.837   4.334  82.801  1.00  0.00     0.180 C 
ATOM      4  C   UNL     1     -36.179   3.634  83.038  1.00  0.00     0.214 C 
ATOM      5  C   UNL     1     -37.272   4.670  83.341  1.00  0.00     0.339 C 
ATOM      6  O   UNL     1     -36.935   5.515  84.434  1.00  0.00    -0.332 OA
ENDROOT
BRANCH   1   7
ATOM      7  C   UNL     1     -35.823   7.413  83.308  1.00  0.00     0.198 C 
BRANCH   7   8
ATOM      8  O   UNL     1     -34.548   7.842  82.865  1.00  0.00    -0.347 OA
BRANCH   8   9
ATOM      9  C   UNL     1     -34.202   9.127  83.379  1.00  0.00     0.281 C 
ATOM     10  C   UNL     1     -31.087   8.228  85.122  1.00  0.00     0.041 C 
ATOM     11  C   UNL     1     -32.026   8.422  83.930  1.00  0.00     0.150 C 
ATOM     12  C   UNL     1     -31.368   9.321  82.859  1.00  0.00     0.174 C 
ATOM     13  O   UNL     1     -33.230   9.003  84.406  1.00  0.00    -0.344 OA
ATOM     14  C   UNL     1     -32.347   9.557  81.696  1.00  0.00     0.179 C 
ATOM     15  C   UNL     1     -33.696  10.049  82.247  1.00  0.00     0.202 C 
BRANCH  12  16
ATOM     16  O   UNL     1     -30.194   8.716  82.378  1.00  0.00    -0.388 OA
ATOM     17  H   UNL     1     -29.662   8.458  83.178  1.00  0.00     0.211 HD
ENDBRANCH  12  16
BRANCH  14  18
ATOM     18  O   UNL     1     -32.515   8.365  80.967  1.00  0.00    -0.387 OA
ATOM     19  H   UNL     1     -31.878   8.388  80.209  1.00  0.00     0.211 HD
ENDBRANCH  14  18
BRANCH  15  20
ATOM     20  O   UNL     1     -34.638  10.119  81.208  1.00  0.00    -0.385 OA
ATOM     21  H   UNL     1     -34.186  10.573  80.447  1.00  0.00     0.211 HD
ENDBRANCH  15  20
ENDBRANCH   8   9
ENDBRANCH   7   8
ENDBRANCH   1   7
BRANCH   2  22
ATOM     22  O   UNL     1     -34.196   4.548  85.125  1.00  0.00    -0.387 OA
ATOM     23  H   UNL     1     -34.833   3.786  85.165  1.00  0.00     0.211 HD
ENDBRANCH   2  22
BRANCH   3  24
ATOM     24  O   UNL     1     -33.824   3.371  82.641  1.00  0.00    -0.387 OA
ATOM     25  H   UNL     1     -33.343   3.319  83.511  1.00  0.00     0.211 HD
ENDBRANCH   3  24
BRANCH   5  26
ATOM     26  O   UNL     1     -37.577   5.420  82.162  1.00  0.00    -0.454 OA
BRANCH  26  27
ATOM     27  C   UNL     1     -38.398   4.975  81.111  1.00  0.00     0.214 A 
ATOM     28  C   UNL     1     -37.872   4.950  79.805  1.00  0.00     0.180 A 
ATOM     29  C   UNL     1     -39.721   4.533  81.312  1.00  0.00     0.239 A 
ATOM     30  O   UNL     1     -38.589   4.453  78.805  1.00  0.00    -0.452 OA
ATOM     31  C   UNL     1     -40.458   4.027  80.219  1.00  0.00     0.111 A 
ATOM     32  O   UNL     1     -40.242   4.601  82.457  1.00  0.00    -0.285 OA
ATOM     33  C   UNL     1     -39.826   3.995  78.953  1.00  0.00     0.146 A 
ATOM     34  C   UNL     1     -41.788   3.554  80.336  1.00  0.00     0.134 A 
ATOM     35  C   UNL     1     -40.496   3.479  77.841  1.00  0.00     0.094 A 
ATOM     36  C   UNL     1     -42.447   3.043  79.207  1.00  0.00     0.093 A 
ATOM     37  C   UNL     1     -41.804   2.999  77.966  1.00  0.00     0.123 A 
BRANCH  28  38
ATOM     38  C   UNL     1     -36.503   5.428  79.511  1.00  0.00     0.025 A 
ATOM     39  C   UNL     1     -36.241   6.789  79.280  1.00  0.00     0.062 A 
ATOM     40  C   UNL     1     -35.453   4.501  79.414  1.00  0.00     0.016 A 
ATOM     41  C   UNL     1     -34.942   7.224  78.988  1.00  0.00     0.158 A 
ATOM     42  C   UNL     1     -34.154   4.932  79.126  1.00  0.00     0.051 A 
ATOM     43  C   UNL     1     -33.891   6.293  78.915  1.00  0.00     0.157 A 
BRANCH  41  44
ATOM     44  O   UNL     1     -34.714   8.582  78.766  1.00  0.00    -0.504 OA
ATOM     45  H   UNL     1     -34.614   9.244  79.527  1.00  0.00     0.293 HD
ENDBRANCH  41  44
BRANCH  43  46
ATOM     46  O   UNL     1     -32.595   6.721  78.629  1.00  0.00    -0.504 OA
ATOM     47  H   UNL     1     -32.096   6.384  77.815  1.00  0.00     0.293 HD
ENDBRANCH  43  46
ENDBRANCH  28  38
BRANCH  34  48
ATOM     48  O   UNL     1     -42.457   3.586  81.560  1.00  0.00    -0.507 OA
ATOM     49  H   UNL     1     -43.303   4.130  81.690  1.00  0.00     0.293 HD
ENDBRANCH  34  48
BRANCH  37  50
ATOM     50  O   UNL     1     -42.474   2.468  76.865  1.00  0.00    -0.508 OA
ATOM     51  H   UNL     1     -42.218   2.719  75.918  1.00  0.00     0.293 HD
ENDBRANCH  37  50
ENDBRANCH  26  27
ENDBRANCH   5  26
BRANCH   4  52
ATOM     52  O   UNL     1     -36.073   2.729  84.112  1.00  0.00    -0.384 OA
ATOM     53  H   UNL     1     -36.965   2.685  84.544  1.00  0.00     0.211 HD
ENDBRANCH   4  52
TORSDOF 16
ENDMDL
MODEL 2
REMARK VINA RESULT:    -6.681      1.697      2.599
REMARK INTER + INTRA:         -13.830
REMARK INTER:                 -12.312
REMARK INTRA:                  -1.518
REMARK UNBOUND:                -2.852
REMARK SMILES C[C@H]1O[C@H](OC[C@H]2O[C@@H](Oc3c(-c4ccc(O)c(O)c4)oc4cc(O)cc(O)c4c3=O)[C@H](O)[C@H](O)[C@@H]2O)[C@H](O)[C@H](O)[C@@H]1O
REMARK SMILES IDX 7 1 36 2 34 3 32 4 9 5 8 6 6 7 5 8 4 9 1 10 2 11 42 12 3 13
REMARK SMILES IDX 40 14 38 15 43 16 41 18 39 20 37 22 35 24 10 26 11 27 12 28
REMARK SMILES IDX 30 29 21 30 29 31 31 32 22 33 27 34 23 35 26 36 24 37 13 38
REMARK SMILES IDX 20 39 14 40 18 41 15 42 16 43 19 44 17 46 28 48 25 50 33 52
REMARK H PARENT 43 17 41 19 39 21 37 23 35 25 19 45 17 47 28 49 25 51 33 53
REMARK Flexibility Score: inf
ROOT
ATOM      1  C   UNL     1     -35.761   6.176  84.175  1.00  0.00     0.180 C 
ATOM      2  C   UNL     1     -34.535   5.262  83.941  1.00  0.00     0.177 C 
ATOM      3  C   UNL     1     -34.791   4.282  82.778  1.00  0.00     0.180 C 
ATOM      4  C   UNL     1     -36.130   3.561  82.966  1.00  0.00     0.214 C 
ATOM      5  C   UNL     1     -37.255   4.583  83.194  1.00  0.00     0.339 C 
ATOM      6  O   UNL     1     -36.986   5.456  84.284  1.00  0.00    -0.332 OA
ENDROOT
BRANCH   1   7
ATOM      7  C   UNL     1     -35.854   7.351  83.172  1.00  0.00     0.198 C 
BRANCH   7   8
ATOM      8  O   UNL     1     -37.096   8.023  83.284  1.00  0.00    -0.347 OA
BRANCH   8   9
ATOM      9  C   UNL     1     -36.943   9.442  83.293  1.00  0.00     0.281 C 
ATOM     10  C   UNL     1     -34.343   9.753  80.705  1.00  0.00     0.041 C 
ATOM     11  C   UNL     1     -35.718   9.412  81.284  1.00  0.00     0.150 C 
ATOM     12  C   UNL     1     -36.835  10.125  80.489  1.00  0.00     0.174 C 
ATOM     13  O   UNL     1     -35.735   9.812  82.646  1.00  0.00    -0.344 OA
ATOM     14  C   UNL     1     -38.206   9.822  81.119  1.00  0.00     0.179 C 
ATOM     15  C   UNL     1     -38.159  10.125  82.627  1.00  0.00     0.202 C 
BRANCH  12  16
ATOM     16  O   UNL     1     -36.822   9.695  79.150  1.00  0.00    -0.388 OA
ATOM     17  H   UNL     1     -37.002   8.716  79.166  1.00  0.00     0.211 HD
ENDBRANCH  12  16
BRANCH  14  18
ATOM     18  O   UNL     1     -38.545   8.475  80.895  1.00  0.00    -0.387 OA
ATOM     19  H   UNL     1     -39.482   8.455  80.574  1.00  0.00     0.211 HD
ENDBRANCH  14  18
BRANCH  15  20
ATOM     20  O   UNL     1     -39.354   9.708  83.234  1.00  0.00    -0.385 OA
ATOM     21  H   UNL     1     -39.516  10.329  83.994  1.00  0.00     0.211 HD
ENDBRANCH  15  20
ENDBRANCH   8   9
ENDBRANCH   7   8
ENDBRANCH   1   7
BRANCH   2  22
ATOM     22  O   UNL     1     -34.266   4.554  85.125  1.00  0.00    -0.387 OA
ATOM     23  H   UNL     1     -33.280   4.564  85.252  1.00  0.00     0.211 HD
ENDBRANCH   2  22
BRANCH   3  24
ATOM     24  O   UNL     1     -33.755   3.335  82.686  1.00  0.00    -0.387 OA
ATOM     25  H   UNL     1     -33.926   2.659  83.398  1.00  0.00     0.211 HD
ENDBRANCH   3  24
BRANCH   5  26
ATOM     26  O   UNL     1     -37.516   5.303  81.987  1.00  0.00    -0.454 OA
BRANCH  26  27
ATOM     27  C   UNL     1     -38.365   4.868  80.954  1.00  0.00     0.214 A 
ATOM     28  C   UNL     1     -37.871   4.850  79.635  1.00  0.00     0.180 A 
ATOM     29  C   UNL     1     -39.683   4.429  81.184  1.00  0.00     0.239 A 
ATOM     30  O   UNL     1     -38.615   4.361  78.649  1.00  0.00    -0.452 OA
ATOM     31  C   UNL     1     -40.449   3.932  80.107  1.00  0.00     0.111 A 
ATOM     32  O   UNL     1     -40.176   4.490  82.342  1.00  0.00    -0.285 OA
ATOM     33  C   UNL     1     -39.849   3.907  78.825  1.00  0.00     0.146 A 
ATOM     34  C   UNL     1     -41.777   3.462  80.254  1.00  0.00     0.134 A 
ATOM     35  C   UNL     1     -40.548   3.400  77.727  1.00  0.00     0.094 A 
ATOM     36  C   UNL     1     -42.466   2.961  79.138  1.00  0.00     0.093 A 
ATOM     37  C   UNL     1     -41.854   2.923  77.881  1.00  0.00     0.123 A 
BRANCH  28  38
ATOM     38  C   UNL     1     -36.508   5.325  79.310  1.00  0.00     0.025 A 
ATOM     39  C   UNL     1     -36.302   6.554  78.661  1.00  0.00     0.062 A 
ATOM     40  C   UNL     1     -35.403   4.514  79.611  1.00  0.00     0.016 A 
ATOM     41  C   UNL     1     -35.006   6.984  78.346  1.00  0.00     0.158 A 
ATOM     42  C   UNL     1     -34.107   4.941  79.301  1.00  0.00     0.051 A 
ATOM     43  C   UNL     1     -33.901   6.177  78.671  1.00  0.00     0.157 A 
BRANCH  41  44
ATOM     44  O   UNL     1     -34.834   8.210  77.705  1.00  0.00    -0.504 OA
ATOM     45  H   UNL     1     -34.310   8.970  78.124  1.00  0.00     0.293 HD
ENDBRANCH  41  44
BRANCH  43  46
ATOM     46  O   UNL     1     -32.609   6.601  78.365  1.00  0.00    -0.504 OA
ATOM     47  H   UNL     1     -32.327   6.782  77.409  1.00  0.00     0.293 HD
ENDBRANCH  43  46
ENDBRANCH  28  38
BRANCH  34  48
ATOM     48  O   UNL     1     -42.416   3.488  81.494  1.00  0.00    -0.507 OA
ATOM     49  H   UNL     1     -43.252   4.041  81.651  1.00  0.00     0.293 HD
ENDBRANCH  34  48
BRANCH  37  50
ATOM     50  O   UNL     1     -42.553   2.402  76.793  1.00  0.00    -0.508 OA
ATOM     51  H   UNL     1     -42.887   2.996  76.045  1.00  0.00     0.293 HD
ENDBRANCH  37  50
ENDBRANCH  26  27
ENDBRANCH   5  26
BRANCH   4  52
ATOM     52  O   UNL     1     -36.061   2.681  84.063  1.00  0.00    -0.384 OA
ATOM     53  H   UNL     1     -35.145   2.752  84.435  1.00  0.00     0.211 HD
ENDBRANCH   4  52
TORSDOF 16
ENDMDL
MODEL 3
REMARK VINA RESULT:    -6.361      2.661      7.662
REMARK INTER + INTRA:         -13.303
REMARK INTER:                 -10.343
REMARK INTRA:                  -2.960
REMARK UNBOUND:                -2.852
REMARK SMILES C[C@H]1O[C@H](OC[C@H]2O[C@@H](Oc3c(-c4ccc(O)c(O)c4)oc4cc(O)cc(O)c4c3=O)[C@H](O)[C@H](O)[C@@H]2O)[C@H](O)[C@H](O)[C@@H]1O
REMARK SMILES IDX 7 1 36 2 34 3 32 4 9 5 8 6 6 7 5 8 4 9 1 10 2 11 42 12 3 13
REMARK SMILES IDX 40 14 38 15 43 16 41 18 39 20 37 22 35 24 10 26 11 27 12 28
REMARK SMILES IDX 30 29 21 30 29 31 31 32 22 33 27 34 23 35 26 36 24 37 13 38
REMARK SMILES IDX 20 39 14 40 18 41 15 42 16 43 19 44 17 46 28 48 25 50 33 52
REMARK H PARENT 43 17 41 19 39 21 37 23 35 25 19 45 17 47 28 49 25 51 33 53
REMARK Flexibility Score: inf
ROOT
ATOM      1  C   UNL     1     -40.293   4.911  78.332  1.00  0.00     0.180 C 
ATOM      2  C   UNL     1     -40.867   3.856  79.307  1.00  0.00     0.177 C 
ATOM      3  C   UNL     1     -39.967   3.708  80.551  1.00  0.00     0.180 C 
ATOM      4  C   UNL     1     -38.506   3.506  80.138  1.00  0.00     0.214 C 
ATOM      5  C   UNL     1     -38.070   4.615  79.168  1.00  0.00     0.339 C 
ATOM      6  O   UNL     1     -38.916   4.707  78.029  1.00  0.00    -0.332 OA
ENDROOT
BRANCH   1   7
ATOM      7  C   UNL     1     -40.595   6.369  78.754  1.00  0.00     0.198 C 
BRANCH   7   8
ATOM      8  O   UNL     1     -40.146   7.290  77.776  1.00  0.00    -0.347 OA
BRANCH   8   9
ATOM      9  C   UNL     1     -40.634   8.610  78.013  1.00  0.00     0.281 C 
ATOM     10  C   UNL     1     -38.645   9.426  81.002  1.00  0.00     0.041 C 
ATOM     11  C   UNL     1     -38.900   9.074  79.535  1.00  0.00     0.150 C 
ATOM     12  C   UNL     1     -38.241  10.116  78.602  1.00  0.00     0.174 C 
ATOM     13  O   UNL     1     -40.303   9.029  79.328  1.00  0.00    -0.344 OA
ATOM     14  C   UNL     1     -38.557   9.783  77.134  1.00  0.00     0.179 C 
ATOM     15  C   UNL     1     -40.074   9.594  76.961  1.00  0.00     0.202 C 
BRANCH  12  16
ATOM     16  O   UNL     1     -36.848  10.125  78.799  1.00  0.00    -0.388 OA
ATOM     17  H   UNL     1     -36.585   9.186  78.998  1.00  0.00     0.211 HD
ENDBRANCH  12  16
BRANCH  14  18
ATOM     18  O   UNL     1     -37.867   8.617  76.752  1.00  0.00    -0.387 OA
ATOM     19  H   UNL     1     -37.012   8.601  77.253  1.00  0.00     0.211 HD
ENDBRANCH  14  18
BRANCH  15  20
ATOM     20  O   UNL     1     -40.353   9.142  75.662  1.00  0.00    -0.385 OA
ATOM     21  H   UNL     1     -40.431   8.152  75.719  1.00  0.00     0.211 HD
ENDBRANCH  15  20
ENDBRANCH   8   9
ENDBRANCH   7   8
ENDBRANCH   1   7
BRANCH   2  22
ATOM     22  O   UNL     1     -40.973   2.628  78.633  1.00  0.00    -0.387 OA
ATOM     23  H   UNL     1     -41.012   2.832  77.661  1.00  0.00     0.211 HD
ENDBRANCH   2  22
BRANCH   3  24
ATOM     24  O   UNL     1     -40.387   2.625  81.345  1.00  0.00    -0.387 OA
ATOM     25  H   UNL     1     -39.723   2.541  82.082  1.00  0.00     0.211 HD
ENDBRANCH   3  24
BRANCH   5  26
ATOM     26  O   UNL     1     -37.972   5.861  79.861  1.00  0.00    -0.454 OA
BRANCH  26  27
ATOM     27  C   UNL     1     -36.793   6.387  80.418  1.00  0.00     0.214 A 
ATOM     28  C   UNL     1     -36.562   6.217  81.797  1.00  0.00     0.180 A 
ATOM     29  C   UNL     1     -35.820   7.057  79.650  1.00  0.00     0.239 A 
ATOM     30  O   UNL     1     -35.418   6.622  82.338  1.00  0.00    -0.452 OA
ATOM     31  C   UNL     1     -34.624   7.488  80.265  1.00  0.00     0.111 A 
ATOM     32  O   UNL     1     -36.024   7.280  78.427  1.00  0.00    -0.285 OA
ATOM     33  C   UNL     1     -34.461   7.228  81.647  1.00  0.00     0.146 A 
ATOM     34  C   UNL     1     -33.593   8.160  79.565  1.00  0.00     0.134 A 
ATOM     35  C   UNL     1     -33.286   7.606  82.303  1.00  0.00     0.094 A 
ATOM     36  C   UNL     1     -32.422   8.535  80.242  1.00  0.00     0.093 A 
ATOM     37  C   UNL     1     -32.264   8.255  81.603  1.00  0.00     0.123 A 
BRANCH  28  38
ATOM     38  C   UNL     1     -37.550   5.551  82.674  1.00  0.00     0.025 A 
ATOM     39  C   UNL     1     -37.345   4.241  83.137  1.00  0.00     0.062 A 
ATOM     40  C   UNL     1     -38.736   6.221  83.012  1.00  0.00     0.016 A 
ATOM     41  C   UNL     1     -38.297   3.618  83.954  1.00  0.00     0.158 A 
ATOM     42  C   UNL     1     -39.688   5.604  83.831  1.00  0.00     0.051 A 
ATOM     43  C   UNL     1     -39.473   4.303  84.308  1.00  0.00     0.157 A 
BRANCH  41  44
ATOM     44  O   UNL     1     -38.063   2.317  84.399  1.00  0.00    -0.504 OA
ATOM     45  H   UNL     1     -37.160   2.022  84.752  1.00  0.00     0.293 HD
ENDBRANCH  41  44
BRANCH  43  46
ATOM     46  O   UNL     1     -40.421   3.690  85.125  1.00  0.00    -0.504 OA
ATOM     47  H   UNL     1     -41.257   3.269  84.738  1.00  0.00     0.293 HD
ENDBRANCH  43  46
ENDBRANCH  28  38
BRANCH  34  48
ATOM     48  O   UNL     1     -33.720   8.455  78.208  1.00  0.00    -0.507 OA
ATOM     49  H   UNL     1     -33.935   7.737  77.524  1.00  0.00     0.293 HD
ENDBRANCH  34  48
BRANCH  37  50
ATOM     50  O   UNL     1     -31.083   8.621  82.247  1.00  0.00    -0.508 OA
ATOM     51  H   UNL     1     -30.189   8.234  81.971  1.00  0.00     0.293 HD
ENDBRANCH  37  50
ENDBRANCH  26  27
ENDBRANCH   5  26
BRANCH   4  52
ATOM     52  O   UNL     1     -38.342   2.249  79.524  1.00  0.00    -0.384 OA
ATOM     53  H   UNL     1     -37.470   2.266  79.054  1.00  0.00     0.211 HD
ENDBRANCH   4  52
TORSDOF 16
ENDMDL
MODEL 4
REMARK VINA RESULT:    -6.107     12.539     15.914
REMARK INTER + INTRA:         -12.886
REMARK INTER:                 -10.775
REMARK INTRA:                  -2.110
REMARK UNBOUND:                -2.852
REMARK SMILES C[C@H]1O[C@H](OC[C@H]2O[C@@H](Oc3c(-c4ccc(O)c(O)c4)oc4cc(O)cc(O)c4c3=O)[C@H](O)[C@H](O)[C@@H]2O)[C@H](O)[C@H](O)[C@@H]1O
REMARK SMILES IDX 7 1 36 2 34 3 32 4 9 5 8 6 6 7 5 8 4 9 1 10 2 11 42 12 3 13
REMARK SMILES IDX 40 14 38 15 43 16 41 18 39 20 37 22 35 24 10 26 11 27 12 28
REMARK SMILES IDX 30 29 21 30 29 31 31 32 22 33 27 34 23 35 26 36 24 37 13 38
REMARK SMILES IDX 20 39 14 40 18 41 15 42 16 43 19 44 17 46 28 48 25 50 33 52
REMARK H PARENT 43 17 41 19 39 21 37 23 35 25 19 45 17 47 28 49 25 51 33 53
REMARK Flexibility Score: inf
ROOT
ATOM      1  C   UNL     1     -43.902  -8.328  80.021  1.00  0.00     0.180 C 
ATOM      2  C   UNL     1     -44.813  -8.098  81.248  1.00  0.00     0.177 C 
ATOM      3  C   UNL     1     -43.976  -7.802  82.510  1.00  0.00     0.180 C 
ATOM      4  C   UNL     1     -42.877  -8.855  82.686  1.00  0.00     0.214 C 
ATOM      5  C   UNL     1     -42.055  -8.985  81.394  1.00  0.00     0.339 C 
ATOM      6  O   UNL     1     -42.864  -9.273  80.260  1.00  0.00    -0.332 OA
ENDROOT
BRANCH   1   7
ATOM      7  C   UNL     1     -43.373  -7.016  79.391  1.00  0.00     0.198 C 
BRANCH   7   8
ATOM      8  O   UNL     1     -44.352  -6.413  78.565  1.00  0.00    -0.347 OA
BRANCH   8   9
ATOM      9  C   UNL     1     -44.334  -4.989  78.658  1.00  0.00     0.281 C 
ATOM     10  C   UNL     1     -42.951  -4.216  75.335  1.00  0.00     0.041 C 
ATOM     11  C   UNL     1     -43.966  -4.753  76.346  1.00  0.00     0.150 C 
ATOM     12  C   UNL     1     -45.360  -4.133  76.098  1.00  0.00     0.174 C 
ATOM     13  O   UNL     1     -43.500  -4.439  77.649  1.00  0.00    -0.344 OA
ATOM     14  C   UNL     1     -46.356  -4.635  77.159  1.00  0.00     0.179 C 
ATOM     15  C   UNL     1     -45.767  -4.418  78.563  1.00  0.00     0.202 C 
BRANCH  12  16
ATOM     16  O   UNL     1     -45.819  -4.479  74.814  1.00  0.00    -0.388 OA
ATOM     17  H   UNL     1     -45.177  -4.078  74.168  1.00  0.00     0.211 HD
ENDBRANCH  12  16
BRANCH  14  18
ATOM     18  O   UNL     1     -46.634  -5.997  76.943  1.00  0.00    -0.387 OA
ATOM     19  H   UNL     1     -46.543  -6.168  75.971  1.00  0.00     0.211 HD
ENDBRANCH  14  18
BRANCH  15  20
ATOM     20  O   UNL     1     -46.600  -5.011  79.526  1.00  0.00    -0.385 OA
ATOM     21  H   UNL     1     -46.056  -5.097  80.354  1.00  0.00     0.211 HD
ENDBRANCH  15  20
ENDBRANCH   8   9
ENDBRANCH   7   8
ENDBRANCH   1   7
BRANCH   2  22
ATOM     22  O   UNL     1     -45.604  -9.243  81.446  1.00  0.00    -0.387 OA
ATOM     23  H   UNL     1     -45.039 -10.029  81.220  1.00  0.00     0.211 HD
ENDBRANCH   2  22
BRANCH   3  24
ATOM     24  O   UNL     1     -44.791  -7.775  83.655  1.00  0.00    -0.387 OA
ATOM     25  H   UNL     1     -44.995  -6.817  83.835  1.00  0.00     0.211 HD
ENDBRANCH   3  24
BRANCH   5  26
ATOM     26  O   UNL     1     -41.261  -7.813  81.198  1.00  0.00    -0.454 OA
BRANCH  26  27
ATOM     27  C   UNL     1     -40.041  -7.545  81.845  1.00  0.00     0.214 A 
ATOM     28  C   UNL     1     -40.004  -6.541  82.831  1.00  0.00     0.180 A 
ATOM     29  C   UNL     1     -38.857  -8.255  81.562  1.00  0.00     0.239 A 
ATOM     30  O   UNL     1     -38.892  -6.324  83.524  1.00  0.00    -0.452 OA
ATOM     31  C   UNL     1     -37.689  -7.984  82.309  1.00  0.00     0.111 A 
ATOM     32  O   UNL     1     -38.841  -9.116  80.644  1.00  0.00    -0.285 OA
ATOM     33  C   UNL     1     -37.763  -6.991  83.314  1.00  0.00     0.146 A 
ATOM     34  C   UNL     1     -36.462  -8.658  82.096  1.00  0.00     0.134 A 
ATOM     35  C   UNL     1     -36.647  -6.699  84.103  1.00  0.00     0.094 A 
ATOM     36  C   UNL     1     -35.350  -8.347  82.896  1.00  0.00     0.093 A 
ATOM     37  C   UNL     1     -35.442  -7.378  83.899  1.00  0.00     0.123 A 
BRANCH  28  38
ATOM     38  C   UNL     1     -41.198  -5.732  83.160  1.00  0.00     0.025 A 
ATOM     39  C   UNL     1     -41.798  -4.897  82.202  1.00  0.00     0.062 A 
ATOM     40  C   UNL     1     -41.715  -5.762  84.465  1.00  0.00     0.016 A 
ATOM     41  C   UNL     1     -42.919  -4.125  82.533  1.00  0.00     0.158 A 
ATOM     42  C   UNL     1     -42.837  -4.996  84.799  1.00  0.00     0.051 A 
ATOM     43  C   UNL     1     -43.446  -4.177  83.836  1.00  0.00     0.157 A 
BRANCH  41  44
ATOM     44  O   UNL     1     -43.493  -3.308  81.560  1.00  0.00    -0.504 OA
ATOM     45  H   UNL     1     -44.495  -3.267  81.412  1.00  0.00     0.293 HD
ENDBRANCH  41  44
BRANCH  43  46
ATOM     46  O   UNL     1     -44.565  -3.416  84.170  1.00  0.00    -0.504 OA
ATOM     47  H   UNL     1     -45.032  -3.528  85.061  1.00  0.00     0.293 HD
ENDBRANCH  43  46
ENDBRANCH  28  38
BRANCH  34  48
ATOM     48  O   UNL     1     -36.337  -9.628  81.102  1.00  0.00    -0.507 OA
ATOM     49  H   UNL     1     -35.700  -9.513  80.321  1.00  0.00     0.293 HD
ENDBRANCH  34  48
BRANCH  37  50
ATOM     50  O   UNL     1     -34.329  -7.104  84.692  1.00  0.00    -0.508 OA
ATOM     51  H   UNL     1     -33.827  -6.228  84.615  1.00  0.00     0.293 HD
ENDBRANCH  37  50
ENDBRANCH  26  27
ENDBRANCH   5  26
BRANCH   4  52
ATOM     52  O   UNL     1     -43.444 -10.101  83.014  1.00  0.00    -0.384 OA
ATOM     53  H   UNL     1     -42.719 -10.660  83.393  1.00  0.00     0.211 HD
ENDBRANCH   4  52
TORSDOF 16
ENDMDL
MODEL 5
REMARK VINA RESULT:    -5.727      3.019      8.418
REMARK INTER + INTRA:         -12.262
REMARK INTER:                  -9.921
REMARK INTRA:                  -2.340
REMARK UNBOUND:                -2.852
REMARK SMILES C[C@H]1O[C@H](OC[C@H]2O[C@@H](Oc3c(-c4ccc(O)c(O)c4)oc4cc(O)cc(O)c4c3=O)[C@H](O)[C@H](O)[C@@H]2O)[C@H](O)[C@H](O)[C@@H]1O
REMARK SMILES IDX 7 1 36 2 34 3 32 4 9 5 8 6 6 7 5 8 4 9 1 10 2 11 42 12 3 13
REMARK SMILES IDX 40 14 38 15 43 16 41 18 39 20 37 22 35 24 10 26 11 27 12 28
REMARK SMILES IDX 30 29 21 30 29 31 31 32 22 33 27 34 23 35 26 36 24 37 13 38
REMARK SMILES IDX 20 39 14 40 18 41 15 42 16 43 19 44 17 46 28 48 25 50 33 52
REMARK H PARENT 43 17 41 19 39 21 37 23 35 25 19 45 17 47 28 49 25 51 33 53
REMARK Flexibility Score: inf
ROOT
ATOM      1  C   UNL     1     -38.140   5.018  77.956  1.00  0.00     0.180 C 
ATOM      2  C   UNL     1     -39.614   4.617  78.199  1.00  0.00     0.177 C 
ATOM      3  C   UNL     1     -39.980   4.737  79.692  1.00  0.00     0.180 C 
ATOM      4  C   UNL     1     -38.943   4.016  80.560  1.00  0.00     0.214 C 
ATOM      5  C   UNL     1     -37.528   4.504  80.212  1.00  0.00     0.339 C 
ATOM      6  O   UNL     1     -37.227   4.361  78.830  1.00  0.00    -0.332 OA
ENDROOT
BRANCH   1   7
ATOM      7  C   UNL     1     -37.917   6.549  77.913  1.00  0.00     0.198 C 
BRANCH   7   8
ATOM      8  O   UNL     1     -39.149   7.245  77.844  1.00  0.00    -0.347 OA
BRANCH   8   9
ATOM      9  C   UNL     1     -39.018   8.613  78.229  1.00  0.00     0.281 C 
ATOM     10  C   UNL     1     -41.275  10.125  75.745  1.00  0.00     0.041 C 
ATOM     11  C   UNL     1     -40.877   9.249  76.934  1.00  0.00     0.150 C 
ATOM     12  C   UNL     1     -41.735   9.591  78.174  1.00  0.00     0.174 C 
ATOM     13  O   UNL     1     -39.499   9.464  77.200  1.00  0.00    -0.344 OA
ATOM     14  C   UNL     1     -41.283   8.745  79.377  1.00  0.00     0.179 C 
ATOM     15  C   UNL     1     -39.761   8.877  79.558  1.00  0.00     0.202 C 
BRANCH  12  16
ATOM     16  O   UNL     1     -43.092   9.344  77.902  1.00  0.00    -0.388 OA
ATOM     17  H   UNL     1     -43.430   8.776  78.647  1.00  0.00     0.211 HD
ENDBRANCH  12  16
BRANCH  14  18
ATOM     18  O   UNL     1     -41.641   7.400  79.174  1.00  0.00    -0.387 OA
ATOM     19  H   UNL     1     -40.951   6.993  78.591  1.00  0.00     0.211 HD
ENDBRANCH  14  18
BRANCH  15  20
ATOM     20  O   UNL     1     -39.321   7.993  80.555  1.00  0.00    -0.385 OA
ATOM     21  H   UNL     1     -38.464   7.605  80.231  1.00  0.00     0.211 HD
ENDBRANCH  15  20
ENDBRANCH   8   9
ENDBRANCH   7   8
ENDBRANCH   1   7
BRANCH   2  22
ATOM     22  O   UNL     1     -39.802   3.297  77.756  1.00  0.00    -0.387 OA
ATOM     23  H   UNL     1     -39.133   3.132  77.040  1.00  0.00     0.211 HD
ENDBRANCH   2  22
BRANCH   3  24
ATOM     24  O   UNL     1     -41.256   4.200  79.938  1.00  0.00    -0.387 OA
ATOM     25  H   UNL     1     -41.293   3.328  79.459  1.00  0.00     0.211 HD
ENDBRANCH   3  24
BRANCH   5  26
ATOM     26  O   UNL     1     -37.349   5.849  80.660  1.00  0.00    -0.454 OA
BRANCH  26  27
ATOM     27  C   UNL     1     -36.303   6.294  81.488  1.00  0.00     0.214 A 
ATOM     28  C   UNL     1     -36.370   6.021  82.868  1.00  0.00     0.180 A 
ATOM     29  C   UNL     1     -35.179   6.983  80.992  1.00  0.00     0.239 A 
ATOM     30  O   UNL     1     -35.358   6.346  83.664  1.00  0.00    -0.452 OA
ATOM     31  C   UNL     1     -34.131   7.328  81.873  1.00  0.00     0.111 A 
ATOM     32  O   UNL     1     -35.118   7.297  79.774  1.00  0.00    -0.285 OA
ATOM     33  C   UNL     1     -34.266   6.967  83.235  1.00  0.00     0.146 A 
ATOM     34  C   UNL     1     -32.963   8.012  81.455  1.00  0.00     0.134 A 
ATOM     35  C   UNL     1     -33.248   7.257  84.148  1.00  0.00     0.094 A 
ATOM     36  C   UNL     1     -31.954   8.299  82.388  1.00  0.00     0.093 A 
ATOM     37  C   UNL     1     -32.090   7.919  83.727  1.00  0.00     0.123 A 
BRANCH  28  38
ATOM     38  C   UNL     1     -37.533   5.329  83.467  1.00  0.00     0.025 A 
ATOM     39  C   UNL     1     -37.471   3.968  83.812  1.00  0.00     0.062 A 
ATOM     40  C   UNL     1     -38.734   6.030  83.652  1.00  0.00     0.016 A 
ATOM     41  C   UNL     1     -38.585   3.323  84.364  1.00  0.00     0.158 A 
ATOM     42  C   UNL     1     -39.848   5.391  84.207  1.00  0.00     0.051 A 
ATOM     43  C   UNL     1     -39.779   4.037  84.568  1.00  0.00     0.157 A 
BRANCH  41  44
ATOM     44  O   UNL     1     -38.491   1.973  84.698  1.00  0.00    -0.504 OA
ATOM     45  H   UNL     1     -39.271   1.334  84.587  1.00  0.00     0.293 HD
ENDBRANCH  41  44
BRANCH  43  46
ATOM     46  O   UNL     1     -40.889   3.402  85.122  1.00  0.00    -0.504 OA
ATOM     47  H   UNL     1     -41.829   3.738  84.950  1.00  0.00     0.293 HD
ENDBRANCH  43  46
ENDBRANCH  28  38
BRANCH  34  48
ATOM     48  O   UNL     1     -32.797   8.406  80.128  1.00  0.00    -0.507 OA
ATOM     49  H   UNL     1     -31.969   8.158  79.597  1.00  0.00     0.293 HD
ENDBRANCH  34  48
BRANCH  37  50
ATOM     50  O   UNL     1     -31.064   8.198  84.627  1.00  0.00    -0.508 OA
ATOM     51  H   UNL     1     -31.243   8.297  85.619  1.00  0.00     0.293 HD
ENDBRANCH  37  50
ENDBRANCH  26  27
ENDBRANCH   5  26
BRANCH   4  52
ATOM     52  O   UNL     1     -39.026   2.625  80.364  1.00  0.00    -0.384 OA
ATOM     53  H   UNL     1     -38.929   2.199  81.254  1.00  0.00     0.211 HD
ENDBRANCH   4  52
TORSDOF 16
ENDMDL
MODEL 6
REMARK VINA RESULT:    -5.678     12.692     15.307
REMARK INTER + INTRA:         -12.182
REMARK INTER:                 -10.348
REMARK INTRA:                  -1.834
REMARK UNBOUND:                -2.852
REMARK SMILES C[C@H]1O[C@H](OC[C@H]2O[C@@H](Oc3c(-c4ccc(O)c(O)c4)oc4cc(O)cc(O)c4c3=O)[C@H](O)[C@H](O)[C@@H]2O)[C@H](O)[C@H](O)[C@@H]1O
REMARK SMILES IDX 7 1 36 2 34 3 32 4 9 5 8 6 6 7 5 8 4 9 1 10 2 11 42 12 3 13
REMARK SMILES IDX 40 14 38 15 43 16 41 18 39 20 37 22 35 24 10 26 11 27 12 28
REMARK SMILES IDX 30 29 21 30 29 31 31 32 22 33 27 34 23 35 26 36 24 37 13 38
REMARK SMILES IDX 20 39 14 40 18 41 15 42 16 43 19 44 17 46 28 48 25 50 33 52
REMARK H PARENT 43 17 41 19 39 21 37 23 35 25 19 45 17 47 28 49 25 51 33 53
REMARK Flexibility Score: inf
ROOT
ATOM      1  C   UNL     1     -41.562  -4.985  81.792  1.00  0.00     0.180 C 
ATOM      2  C   UNL     1     -42.164  -5.518  83.113  1.00  0.00     0.177 C 
ATOM      3  C   UNL     1     -43.632  -5.950  82.916  1.00  0.00     0.180 C 
ATOM      4  C   UNL     1     -44.430  -4.841  82.223  1.00  0.00     0.214 C 
ATOM      5  C   UNL     1     -43.719  -4.403  80.933  1.00  0.00     0.339 C 
ATOM      6  O   UNL     1     -42.375  -3.999  81.162  1.00  0.00    -0.332 OA
ENDROOT
BRANCH   1   7
ATOM      7  C   UNL     1     -41.128  -6.104  80.815  1.00  0.00     0.198 C 
BRANCH   7   8
ATOM      8  O   UNL     1     -39.970  -6.771  81.283  1.00  0.00    -0.347 OA
BRANCH   8   9
ATOM      9  C   UNL     1     -40.248  -8.107  81.701  1.00  0.00     0.281 C 
ATOM     10  C   UNL     1     -38.409  -9.923  79.080  1.00  0.00     0.041 C 
ATOM     11  C   UNL     1     -38.595  -8.993  80.280  1.00  0.00     0.150 C 
ATOM     12  C   UNL     1     -37.695  -9.435  81.456  1.00  0.00     0.174 C 
ATOM     13  O   UNL     1     -39.964  -9.022  80.654  1.00  0.00    -0.344 OA
ATOM     14  C   UNL     1     -37.938  -8.528  82.675  1.00  0.00     0.179 C 
ATOM     15  C   UNL     1     -39.445  -8.457  82.975  1.00  0.00     0.202 C 
BRANCH  12  16
ATOM     16  O   UNL     1     -36.343  -9.372  81.078  1.00  0.00    -0.388 OA
ATOM     17  H   UNL     1     -35.816  -9.700  81.856  1.00  0.00     0.211 HD
ENDBRANCH  12  16
BRANCH  14  18
ATOM     18  O   UNL     1     -37.423  -7.243  82.422  1.00  0.00    -0.387 OA
ATOM     19  H   UNL     1     -36.549  -7.178  82.886  1.00  0.00     0.211 HD
ENDBRANCH  14  18
BRANCH  15  20
ATOM     20  O   UNL     1     -39.686  -7.514  83.986  1.00  0.00    -0.385 OA
ATOM     21  H   UNL     1     -39.943  -6.669  83.529  1.00  0.00     0.211 HD
ENDBRANCH  15  20
ENDBRANCH   8   9
ENDBRANCH   7   8
ENDBRANCH   1   7
BRANCH   2  22
ATOM     22  O   UNL     1     -42.078  -4.511  84.089  1.00  0.00    -0.387 OA
ATOM     23  H   UNL     1     -41.112  -4.357  84.265  1.00  0.00     0.211 HD
ENDBRANCH   2  22
BRANCH   3  24
ATOM     24  O   UNL     1     -44.230  -6.261  84.150  1.00  0.00    -0.387 OA
ATOM     25  H   UNL     1     -44.364  -7.248  84.159  1.00  0.00     0.211 HD
ENDBRANCH   3  24
BRANCH   5  26
ATOM     26  O   UNL     1     -43.805  -5.437  79.950  1.00  0.00    -0.454 OA
BRANCH  26  27
ATOM     27  C   UNL     1     -44.567  -5.369  78.770  1.00  0.00     0.214 A 
ATOM     28  C   UNL     1     -45.761  -6.111  78.692  1.00  0.00     0.180 A 
ATOM     29  C   UNL     1     -44.196  -4.573  77.668  1.00  0.00     0.239 A 
ATOM     30  O   UNL     1     -46.549  -6.000  77.629  1.00  0.00    -0.452 OA
ATOM     31  C   UNL     1     -45.052  -4.495  76.548  1.00  0.00     0.111 A 
ATOM     32  O   UNL     1     -43.104  -3.946  77.681  1.00  0.00    -0.285 OA
ATOM     33  C   UNL     1     -46.256  -5.238  76.582  1.00  0.00     0.146 A 
ATOM     34  C   UNL     1     -44.761  -3.711  75.405  1.00  0.00     0.134 A 
ATOM     35  C   UNL     1     -47.156  -5.177  75.515  1.00  0.00     0.094 A 
ATOM     36  C   UNL     1     -45.675  -3.667  74.340  1.00  0.00     0.093 A 
ATOM     37  C   UNL     1     -46.870  -4.390  74.395  1.00  0.00     0.123 A 
BRANCH  28  38
ATOM     38  C   UNL     1     -46.200  -6.994  79.796  1.00  0.00     0.025 A 
ATOM     39  C   UNL     1     -45.384  -8.040  80.258  1.00  0.00     0.062 A 
ATOM     40  C   UNL     1     -47.472  -6.815  80.360  1.00  0.00     0.016 A 
ATOM     41  C   UNL     1     -45.820  -8.877  81.294  1.00  0.00     0.158 A 
ATOM     42  C   UNL     1     -47.909  -7.646  81.397  1.00  0.00     0.051 A 
ATOM     43  C   UNL     1     -47.086  -8.678  81.871  1.00  0.00     0.157 A 
BRANCH  41  44
ATOM     44  O   UNL     1     -44.986  -9.905  81.732  1.00  0.00    -0.504 OA
ATOM     45  H   UNL     1     -45.314 -10.640  82.348  1.00  0.00     0.293 HD
ENDBRANCH  41  44
BRANCH  43  46
ATOM     46  O   UNL     1     -47.523  -9.504  82.905  1.00  0.00    -0.504 OA
ATOM     47  H   UNL     1     -48.425  -9.962  82.868  1.00  0.00     0.293 HD
ENDBRANCH  43  46
ENDBRANCH  28  38
BRANCH  34  48
ATOM     48  O   UNL     1     -43.576  -2.980  75.318  1.00  0.00    -0.507 OA
ATOM     49  H   UNL     1     -43.534  -2.089  74.833  1.00  0.00     0.293 HD
ENDBRANCH  34  48
BRANCH  37  50
ATOM     50  O   UNL     1     -47.769  -4.312  73.333  1.00  0.00    -0.508 OA
ATOM     51  H   UNL     1     -48.744  -4.081  73.481  1.00  0.00     0.293 HD
ENDBRANCH  37  50
ENDBRANCH  26  27
ENDBRANCH   5  26
BRANCH   4  52
ATOM     52  O   UNL     1     -44.577  -3.736  83.082  1.00  0.00    -0.384 OA
ATOM     53  H   UNL     1     -44.073  -2.984  82.678  1.00  0.00     0.211 HD
ENDBRANCH   4  52
TORSDOF 16
ENDMDL
MODEL 7
REMARK VINA RESULT:    -5.587     13.241     16.105
REMARK INTER + INTRA:         -12.032
REMARK INTER:                 -10.336
REMARK INTRA:                  -1.696
REMARK UNBOUND:                -2.852
REMARK SMILES C[C@H]1O[C@H](OC[C@H]2O[C@@H](Oc3c(-c4ccc(O)c(O)c4)oc4cc(O)cc(O)c4c3=O)[C@H](O)[C@H](O)[C@@H]2O)[C@H](O)[C@H](O)[C@@H]1O
REMARK SMILES IDX 7 1 36 2 34 3 32 4 9 5 8 6 6 7 5 8 4 9 1 10 2 11 42 12 3 13
REMARK SMILES IDX 40 14 38 15 43 16 41 18 39 20 37 22 35 24 10 26 11 27 12 28
REMARK SMILES IDX 30 29 21 30 29 31 31 32 22 33 27 34 23 35 26 36 24 37 13 38
REMARK SMILES IDX 20 39 14 40 18 41 15 42 16 43 19 44 17 46 28 48 25 50 33 52
REMARK H PARENT 43 17 41 19 39 21 37 23 35 25 19 45 17 47 28 49 25 51 33 53
REMARK Flexibility Score: inf
ROOT
ATOM      1  C   UNL     1     -44.934  -6.901  79.265  1.00  0.00     0.180 C 
ATOM      2  C   UNL     1     -45.850  -7.251  80.461  1.00  0.00     0.177 C 
ATOM      3  C   UNL     1     -45.017  -7.671  81.690  1.00  0.00     0.180 C 
ATOM      4  C   UNL     1     -43.990  -8.740  81.304  1.00  0.00     0.214 C 
ATOM      5  C   UNL     1     -43.156  -8.267  80.104  1.00  0.00     0.339 C 
ATOM      6  O   UNL     1     -43.962  -7.906  78.989  1.00  0.00    -0.332 OA
ENDROOT
BRANCH   1   7
ATOM      7  C   UNL     1     -44.312  -5.487  79.357  1.00  0.00     0.198 C 
BRANCH   7   8
ATOM      8  O   UNL     1     -44.677  -4.693  78.243  1.00  0.00    -0.347 OA
BRANCH   8   9
ATOM      9  C   UNL     1     -45.300  -5.460  77.214  1.00  0.00     0.281 C 
ATOM     10  C   UNL     1     -47.926  -3.075  76.232  1.00  0.00     0.041 C 
ATOM     11  C   UNL     1     -46.502  -3.596  76.427  1.00  0.00     0.150 C 
ATOM     12  C   UNL     1     -45.714  -3.538  75.098  1.00  0.00     0.174 C 
ATOM     13  O   UNL     1     -46.581  -4.929  76.908  1.00  0.00    -0.344 OA
ATOM     14  C   UNL     1     -44.304  -4.122  75.295  1.00  0.00     0.179 C 
ATOM     15  C   UNL     1     -44.406  -5.509  75.954  1.00  0.00     0.202 C 
BRANCH  12  16
ATOM     16  O   UNL     1     -45.620  -2.208  74.651  1.00  0.00    -0.388 OA
ATOM     17  H   UNL     1     -44.958  -2.207  73.909  1.00  0.00     0.211 HD
ENDBRANCH  12  16
BRANCH  14  18
ATOM     18  O   UNL     1     -43.537  -3.252  76.091  1.00  0.00    -0.387 OA
ATOM     19  H   UNL     1     -42.979  -3.812  76.690  1.00  0.00     0.211 HD
ENDBRANCH  14  18
BRANCH  15  20
ATOM     20  O   UNL     1     -43.124  -5.979  76.275  1.00  0.00    -0.385 OA
ATOM     21  H   UNL     1     -43.192  -6.392  77.178  1.00  0.00     0.211 HD
ENDBRANCH  15  20
ENDBRANCH   8   9
ENDBRANCH   7   8
ENDBRANCH   1   7
BRANCH   2  22
ATOM     22  O   UNL     1     -46.714  -8.291  80.081  1.00  0.00    -0.387 OA
ATOM     23  H   UNL     1     -47.639  -7.926  80.111  1.00  0.00     0.211 HD
ENDBRANCH   2  22
BRANCH   3  24
ATOM     24  O   UNL     1     -45.848  -8.161  82.713  1.00  0.00    -0.387 OA
ATOM     25  H   UNL     1     -46.770  -7.850  82.501  1.00  0.00     0.211 HD
ENDBRANCH   3  24
BRANCH   5  26
ATOM     26  O   UNL     1     -42.286  -7.205  80.499  1.00  0.00    -0.454 OA
BRANCH  26  27
ATOM     27  C   UNL     1     -41.050  -7.371  81.149  1.00  0.00     0.214 A 
ATOM     28  C   UNL     1     -40.899  -6.868  82.455  1.00  0.00     0.180 A 
ATOM     29  C   UNL     1     -39.961  -8.041  80.556  1.00  0.00     0.239 A 
ATOM     30  O   UNL     1     -39.776  -7.086  83.131  1.00  0.00    -0.452 OA
ATOM     31  C   UNL     1     -38.777  -8.238  81.300  1.00  0.00     0.111 A 
ATOM     32  O   UNL     1     -40.042  -8.449  79.367  1.00  0.00    -0.285 OA
ATOM     33  C   UNL     1     -38.738  -7.739  82.624  1.00  0.00     0.146 A 
ATOM     34  C   UNL     1     -37.642  -8.909  80.784  1.00  0.00     0.134 A 
ATOM     35  C   UNL     1     -37.604  -7.929  83.418  1.00  0.00     0.094 A 
ATOM     36  C   UNL     1     -36.510  -9.086  81.595  1.00  0.00     0.093 A 
ATOM     37  C   UNL     1     -36.491  -8.605  82.908  1.00  0.00     0.123 A 
BRANCH  28  38
ATOM     38  C   UNL     1     -41.986  -6.127  83.132  1.00  0.00     0.025 A 
ATOM     39  C   UNL     1     -42.676  -5.091  82.479  1.00  0.00     0.062 A 
ATOM     40  C   UNL     1     -42.304  -6.430  84.465  1.00  0.00     0.016 A 
ATOM     41  C   UNL     1     -43.693  -4.388  83.138  1.00  0.00     0.158 A 
ATOM     42  C   UNL     1     -43.322  -5.733  85.125  1.00  0.00     0.051 A 
ATOM     43  C   UNL     1     -44.022  -4.712  84.466  1.00  0.00     0.157 A 
BRANCH  41  44
ATOM     44  O   UNL     1     -44.360  -3.367  82.463  1.00  0.00    -0.504 OA
ATOM     45  H   UNL     1     -45.204  -2.940  82.828  1.00  0.00     0.293 HD
ENDBRANCH  41  44
BRANCH  43  46
ATOM     46  O   UNL     1     -45.037  -4.020  85.125  1.00  0.00    -0.504 OA
ATOM     47  H   UNL     1     -45.832  -4.504  85.525  1.00  0.00     0.293 HD
ENDBRANCH  43  46
ENDBRANCH  28  38
BRANCH  34  48
ATOM     48  O   UNL     1     -37.628  -9.398  79.478  1.00  0.00    -0.507 OA
ATOM     49  H   UNL     1     -38.454  -9.806  79.053  1.00  0.00     0.293 HD
ENDBRANCH  34  48
BRANCH  37  50
ATOM     50  O   UNL     1     -35.362  -8.813  83.699  1.00  0.00    -0.508 OA
ATOM     51  H   UNL     1     -34.830  -9.674  83.646  1.00  0.00     0.293 HD
ENDBRANCH  37  50
ENDBRANCH  26  27
ENDBRANCH   5  26
BRANCH   4  52
ATOM     52  O   UNL     1     -44.641  -9.947  80.983  1.00  0.00    -0.384 OA
ATOM     53  H   UNL     1     -44.880  -9.902  80.022  1.00  0.00     0.211 HD
ENDBRANCH   4  52
TORSDOF 16
ENDMDL
MODEL 8
REMARK VINA RESULT:    -5.560      2.886      6.899
REMARK INTER + INTRA:         -11.988
REMARK INTER:                 -10.070
REMARK INTRA:                  -1.918
REMARK UNBOUND:                -2.852
REMARK SMILES C[C@H]1O[C@H](OC[C@H]2O[C@@H](Oc3c(-c4ccc(O)c(O)c4)oc4cc(O)cc(O)c4c3=O)[C@H](O)[C@H](O)[C@@H]2O)[C@H](O)[C@H](O)[C@@H]1O
REMARK SMILES IDX 7 1 36 2 34 3 32 4 9 5 8 6 6 7 5 8 4 9 1 10 2 11 42 12 3 13
REMARK SMILES IDX 40 14 38 15 43 16 41 18 39 20 37 22 35 24 10 26 11 27 12 28
REMARK SMILES IDX 30 29 21 30 29 31 31 32 22 33 27 34 23 35 26 36 24 37 13 38
REMARK SMILES IDX 20 39 14 40 18 41 15 42 16 43 19 44 17 46 28 48 25 50 33 52
REMARK H PARENT 43 17 41 19 39 21 37 23 35 25 19 45 17 47 28 49 25 51 33 53
REMARK Flexibility Score: inf
ROOT
ATOM      1  C   UNL     1     -39.243   3.730  78.578  1.00  0.00     0.180 C 
ATOM      2  C   UNL     1     -40.530   3.233  77.880  1.00  0.00     0.177 C 
ATOM      3  C   UNL     1     -41.778   3.926  78.465  1.00  0.00     0.180 C 
ATOM      4  C   UNL     1     -41.775   3.838  79.995  1.00  0.00     0.214 C 
ATOM      5  C   UNL     1     -40.441   4.356  80.553  1.00  0.00     0.339 C 
ATOM      6  O   UNL     1     -39.319   3.680  79.999  1.00  0.00    -0.332 OA
ENDROOT
BRANCH   1   7
ATOM      7  C   UNL     1     -38.753   5.104  78.061  1.00  0.00     0.198 C 
BRANCH   7   8
ATOM      8  O   UNL     1     -37.727   5.626  78.886  1.00  0.00    -0.347 OA
BRANCH   8   9
ATOM      9  C   UNL     1     -36.509   5.829  78.170  1.00  0.00     0.281 C 
ATOM     10  C   UNL     1     -35.519   9.061  79.627  1.00  0.00     0.041 C 
ATOM     11  C   UNL     1     -35.845   7.567  79.611  1.00  0.00     0.150 C 
ATOM     12  C   UNL     1     -34.676   6.747  80.204  1.00  0.00     0.174 C 
ATOM     13  O   UNL     1     -36.098   7.184  78.267  1.00  0.00    -0.344 OA
ATOM     14  C   UNL     1     -34.993   5.244  80.125  1.00  0.00     0.179 C 
ATOM     15  C   UNL     1     -35.407   4.878  78.689  1.00  0.00     0.202 C 
BRANCH  12  16
ATOM     16  O   UNL     1     -34.460   7.118  81.543  1.00  0.00    -0.388 OA
ATOM     17  H   UNL     1     -34.421   6.273  82.066  1.00  0.00     0.211 HD
ENDBRANCH  12  16
BRANCH  14  18
ATOM     18  O   UNL     1     -36.021   4.926  81.032  1.00  0.00    -0.387 OA
ATOM     19  H   UNL     1     -35.634   4.965  81.944  1.00  0.00     0.211 HD
ENDBRANCH  14  18
BRANCH  15  20
ATOM     20  O   UNL     1     -35.843   3.544  78.644  1.00  0.00    -0.385 OA
ATOM     21  H   UNL     1     -36.176   3.387  77.720  1.00  0.00     0.211 HD
ENDBRANCH  15  20
ENDBRANCH   8   9
ENDBRANCH   7   8
ENDBRANCH   1   7
BRANCH   2  22
ATOM     22  O   UNL     1     -40.625   1.840  78.043  1.00  0.00    -0.387 OA
ATOM     23  H   UNL     1     -40.025   1.427  77.366  1.00  0.00     0.211 HD
ENDBRANCH   2  22
BRANCH   3  24
ATOM     24  O   UNL     1     -42.955   3.343  77.962  1.00  0.00    -0.387 OA
ATOM     25  H   UNL     1     -43.421   2.930  78.740  1.00  0.00     0.211 HD
ENDBRANCH   3  24
BRANCH   5  26
ATOM     26  O   UNL     1     -40.352   5.771  80.376  1.00  0.00    -0.454 OA
BRANCH  26  27
ATOM     27  C   UNL     1     -39.517   6.628  81.115  1.00  0.00     0.214 A 
ATOM     28  C   UNL     1     -39.338   7.951  80.667  1.00  0.00     0.180 A 
ATOM     29  C   UNL     1     -38.868   6.225  82.299  1.00  0.00     0.239 A 
ATOM     30  O   UNL     1     -38.630   8.812  81.389  1.00  0.00    -0.452 OA
ATOM     31  C   UNL     1     -38.109   7.165  83.030  1.00  0.00     0.111 A 
ATOM     32  O   UNL     1     -38.957   5.032  82.694  1.00  0.00    -0.285 OA
ATOM     33  C   UNL     1     -38.028   8.485  82.526  1.00  0.00     0.146 A 
ATOM     34  C   UNL     1     -37.434   6.846  84.234  1.00  0.00     0.134 A 
ATOM     35  C   UNL     1     -37.315   9.466  83.221  1.00  0.00     0.094 A 
ATOM     36  C   UNL     1     -36.719   7.843  84.915  1.00  0.00     0.093 A 
ATOM     37  C   UNL     1     -36.663   9.149  84.417  1.00  0.00     0.123 A 
BRANCH  28  38
ATOM     38  C   UNL     1     -39.962   8.438  79.417  1.00  0.00     0.025 A 
ATOM     39  C   UNL     1     -41.354   8.605  79.315  1.00  0.00     0.062 A 
ATOM     40  C   UNL     1     -39.156   8.693  78.296  1.00  0.00     0.016 A 
ATOM     41  C   UNL     1     -41.931   9.052  78.119  1.00  0.00     0.158 A 
ATOM     42  C   UNL     1     -39.728   9.144  77.102  1.00  0.00     0.051 A 
ATOM     43  C   UNL     1     -41.116   9.328  77.008  1.00  0.00     0.157 A 
BRANCH  41  44
ATOM     44  O   UNL     1     -43.314   9.209  78.051  1.00  0.00    -0.504 OA
ATOM     45  H   UNL     1     -43.810   9.884  78.624  1.00  0.00     0.293 HD
ENDBRANCH  41  44
BRANCH  43  46
ATOM     46  O   UNL     1     -41.684   9.778  75.817  1.00  0.00    -0.504 OA
ATOM     47  H   UNL     1     -42.501   9.330  75.421  1.00  0.00     0.293 HD
ENDBRANCH  43  46
ENDBRANCH  28  38
BRANCH  34  48
ATOM     48  O   UNL     1     -37.468   5.553  84.756  1.00  0.00    -0.507 OA
ATOM     49  H   UNL     1     -36.621   5.062  85.018  1.00  0.00     0.293 HD
ENDBRANCH  34  48
BRANCH  37  50
ATOM     50  O   UNL     1     -35.962  10.124  85.125  1.00  0.00    -0.508 OA
ATOM     51  H   UNL     1     -36.443  10.862  85.625  1.00  0.00     0.293 HD
ENDBRANCH  37  50
ENDBRANCH  26  27
ENDBRANCH   5  26
BRANCH   4  52
ATOM     52  O   UNL     1     -41.976   2.506  80.407  1.00  0.00    -0.384 OA
ATOM     53  H   UNL     1     -41.998   1.949  79.588  1.00  0.00     0.211 HD
ENDBRANCH   4  52
TORSDOF 16
ENDMDL
MODEL 9
REMARK VINA RESULT:    -5.291      3.113      7.823
REMARK INTER + INTRA:         -11.546
REMARK INTER:                 -10.047
REMARK INTRA:                  -1.499
REMARK UNBOUND:                -2.852
REMARK SMILES C[C@H]1O[C@H](OC[C@H]2O[C@@H](Oc3c(-c4ccc(O)c(O)c4)oc4cc(O)cc(O)c4c3=O)[C@H](O)[C@H](O)[C@@H]2O)[C@H](O)[C@H](O)[C@@H]1O
REMARK SMILES IDX 7 1 36 2 34 3 32 4 9 5 8 6 6 7 5 8 4 9 1 10 2 11 42 12 3 13
REMARK SMILES IDX 40 14 38 15 43 16 41 18 39 20 37 22 35 24 10 26 11 27 12 28
REMARK SMILES IDX 30 29 21 30 29 31 31 32 22 33 27 34 23 35 26 36 24 37 13 38
REMARK SMILES IDX 20 39 14 40 18 41 15 42 16 43 19 44 17 46 28 48 25 50 33 52
REMARK H PARENT 43 17 41 19 39 21 37 23 35 25 19 45 17 47 28 49 25 51 33 53
REMARK Flexibility Score: inf
ROOT
ATOM      1  C   UNL     1     -41.625   3.946  80.116  1.00  0.00     0.180 C 
ATOM      2  C   UNL     1     -40.931   2.667  79.592  1.00  0.00     0.177 C 
ATOM      3  C   UNL     1     -39.539   2.992  79.013  1.00  0.00     0.180 C 
ATOM      4  C   UNL     1     -39.628   4.155  78.018  1.00  0.00     0.214 C 
ATOM      5  C   UNL     1     -40.342   5.352  78.664  1.00  0.00     0.339 C 
ATOM      6  O   UNL     1     -41.627   5.012  79.170  1.00  0.00    -0.332 OA
ENDROOT
BRANCH   1   7
ATOM      7  C   UNL     1     -41.123   4.394  81.509  1.00  0.00     0.198 C 
BRANCH   7   8
ATOM      8  O   UNL     1     -40.433   3.346  82.167  1.00  0.00    -0.347 OA
BRANCH   8   9
ATOM      9  C   UNL     1     -41.086   2.942  83.370  1.00  0.00     0.281 C 
ATOM     10  C   UNL     1     -39.742  -0.475  83.631  1.00  0.00     0.041 C 
ATOM     11  C   UNL     1     -39.700   1.054  83.594  1.00  0.00     0.150 C 
ATOM     12  C   UNL     1     -38.997   1.609  84.854  1.00  0.00     0.174 C 
ATOM     13  O   UNL     1     -41.034   1.530  83.510  1.00  0.00    -0.344 OA
ATOM     14  C   UNL     1     -39.017   3.147  84.833  1.00  0.00     0.179 C 
ATOM     15  C   UNL     1     -40.454   3.643  84.594  1.00  0.00     0.202 C 
BRANCH  12  16
ATOM     16  O   UNL     1     -37.669   1.151  84.906  1.00  0.00    -0.388 OA
ATOM     17  H   UNL     1     -37.093   1.928  84.670  1.00  0.00     0.211 HD
ENDBRANCH  12  16
BRANCH  14  18
ATOM     18  O   UNL     1     -38.156   3.620  83.825  1.00  0.00    -0.387 OA
ATOM     19  H   UNL     1     -38.529   4.477  83.496  1.00  0.00     0.211 HD
ENDBRANCH  14  18
BRANCH  15  20
ATOM     20  O   UNL     1     -40.455   5.036  84.422  1.00  0.00    -0.385 OA
ATOM     21  H   UNL     1     -40.515   5.199  83.442  1.00  0.00     0.211 HD
ENDBRANCH  15  20
ENDBRANCH   8   9
ENDBRANCH   7   8
ENDBRANCH   1   7
BRANCH   2  22
ATOM     22  O   UNL     1     -41.744   2.082  78.607  1.00  0.00    -0.387 OA
ATOM     23  H   UNL     1     -41.910   1.142  78.887  1.00  0.00     0.211 HD
ENDBRANCH   2  22
BRANCH   3  24
ATOM     24  O   UNL     1     -38.988   1.867  78.374  1.00  0.00    -0.387 OA
ATOM     25  H   UNL     1     -38.531   1.336  79.082  1.00  0.00     0.211 HD
ENDBRANCH   3  24
BRANCH   5  26
ATOM     26  O   UNL     1     -39.510   5.935  79.669  1.00  0.00    -0.454 OA
BRANCH  26  27
ATOM     27  C   UNL     1     -38.154   6.267  79.504  1.00  0.00     0.214 A 
ATOM     28  C   UNL     1     -37.819   7.336  78.651  1.00  0.00     0.180 A 
ATOM     29  C   UNL     1     -37.116   5.589  80.173  1.00  0.00     0.239 A 
ATOM     30  O   UNL     1     -36.556   7.734  78.541  1.00  0.00    -0.452 OA
ATOM     31  C   UNL     1     -35.784   6.031  80.018  1.00  0.00     0.111 A 
ATOM     32  O   UNL     1     -37.377   4.591  80.895  1.00  0.00    -0.285 OA
ATOM     33  C   UNL     1     -35.550   7.146  79.178  1.00  0.00     0.146 A 
ATOM     34  C   UNL     1     -34.684   5.413  80.662  1.00  0.00     0.134 A 
ATOM     35  C   UNL     1     -34.257   7.645  79.008  1.00  0.00     0.094 A 
ATOM     36  C   UNL     1     -33.391   5.926  80.476  1.00  0.00     0.093 A 
ATOM     37  C   UNL     1     -33.176   7.040  79.659  1.00  0.00     0.123 A 
BRANCH  28  38
ATOM     38  C   UNL     1     -38.850   8.076  77.890  1.00  0.00     0.025 A 
ATOM     39  C   UNL     1     -39.899   8.742  78.546  1.00  0.00     0.062 A 
ATOM     40  C   UNL     1     -38.809   8.074  76.487  1.00  0.00     0.016 A 
ATOM     41  C   UNL     1     -40.877   9.425  77.811  1.00  0.00     0.158 A 
ATOM     42  C   UNL     1     -39.781   8.758  75.750  1.00  0.00     0.051 A 
ATOM     43  C   UNL     1     -40.817   9.438  76.406  1.00  0.00     0.157 A 
BRANCH  41  44
ATOM     44  O   UNL     1     -41.905  10.077  78.491  1.00  0.00    -0.504 OA
ATOM     45  H   UNL     1     -42.053  11.077  78.414  1.00  0.00     0.293 HD
ENDBRANCH  41  44
BRANCH  43  46
ATOM     46  O   UNL     1     -41.785  10.121  75.671  1.00  0.00    -0.504 OA
ATOM     47  H   UNL     1     -42.770   9.909  75.772  1.00  0.00     0.293 HD
ENDBRANCH  43  46
ENDBRANCH  28  38
BRANCH  34  48
ATOM     48  O   UNL     1     -34.865   4.299  81.482  1.00  0.00    -0.507 OA
ATOM     49  H   UNL     1     -34.172   3.560  81.537  1.00  0.00     0.293 HD
ENDBRANCH  34  48
BRANCH  37  50
ATOM     50  O   UNL     1     -31.884   7.542  79.507  1.00  0.00    -0.508 OA
ATOM     51  H   UNL     1     -31.471   7.670  78.592  1.00  0.00     0.293 HD
ENDBRANCH  37  50
ENDBRANCH  26  27
ENDBRANCH   5  26
BRANCH   4  52
ATOM     52  O   UNL     1     -40.325   3.755  76.862  1.00  0.00    -0.384 OA
ATOM     53  H   UNL     1     -40.301   2.764  76.837  1.00  0.00     0.211 HD
ENDBRANCH   4  52
TORSDOF 16
ENDMDL
