MODEL 1
REMARK VINA RESULT:    -4.281      0.000      0.000
REMARK INTER + INTRA:         -14.355
REMARK INTER:                  -9.787
REMARK INTRA:                  -4.567
REMARK UNBOUND:                -4.567
REMARK SMILES CCCCCCCCCCCCCCCCCCCCCCCC(=O)[O-]
REMARK SMILES IDX 13 1 14 2 15 3 16 4 17 5 18 6 19 7 20 8 21 9 22 10 23 11
REMARK SMILES IDX 24 12 25 13 26 14 12 15 11 16 10 17 9 18 8 19 7 20 6 21 5 22
REMARK SMILES IDX 4 23 3 24 2 25 1 26
REMARK H PARENT
REMARK Flexibility Score: inf
ROOT
ATOM      1  C   UNL     1      48.677 -40.609  -4.888  1.00  0.00     0.000 C 
ENDROOT
BRANCH   1   2
ATOM      2  C   UNL     1      47.295 -39.947  -4.725  1.00  0.00     0.000 C 
BRANCH   2   3
ATOM      3  C   UNL     1      46.444 -40.624  -3.637  1.00  0.00     0.000 C 
BRANCH   3   4
ATOM      4  C   UNL     1      45.219 -39.786  -3.246  1.00  0.00     0.000 C 
BRANCH   4   5
ATOM      5  C   UNL     1      45.406 -39.152  -1.862  1.00  0.00     0.000 C 
BRANCH   5   6
ATOM      6  C   UNL     1      46.654 -39.710  -1.164  1.00  0.00     0.000 C 
BRANCH   6   7
ATOM      7  C   UNL     1      47.600 -38.578  -0.738  1.00  0.00     0.000 C 
BRANCH   7   8
ATOM      8  C   UNL     1      48.024 -37.678  -1.914  1.00  0.00     0.000 C 
BRANCH   8   9
ATOM      9  C   UNL     1      49.035 -36.569  -1.556  1.00  0.00     0.000 C 
BRANCH   9  10
ATOM     10  C   UNL     1      48.437 -35.364  -0.806  1.00  0.00     0.006 C 
BRANCH  10  11
ATOM     11  C   UNL     1      47.821 -34.323  -1.749  1.00  0.00     0.053 C 
BRANCH  11  12
ATOM     12  C   UNL     1      47.652 -33.013  -1.044  1.00  0.00     0.041 C 
ATOM     13  O   UNL     1      48.313 -32.765  -0.003  1.00  0.00    -0.550 OA
ATOM     14  O   UNL     1      46.789 -32.052  -1.560  1.00  0.00    -0.550 OA
ENDBRANCH  11  12
ENDBRANCH  10  11
ENDBRANCH   9  10
ENDBRANCH   8   9
ENDBRANCH   7   8
ENDBRANCH   6   7
ENDBRANCH   5   6
ENDBRANCH   4   5
ENDBRANCH   3   4
ENDBRANCH   2   3
ENDBRANCH   1   2
BRANCH   1  15
ATOM     15  C   UNL     1      49.069 -41.460  -3.662  1.00  0.00     0.000 C 
BRANCH  15  16
ATOM     16  C   UNL     1      49.951 -40.723  -2.638  1.00  0.00     0.000 C 
BRANCH  16  17
ATOM     17  C   UNL     1      51.453 -40.899  -2.909  1.00  0.00     0.000 C 
BRANCH  17  18
ATOM     18  C   UNL     1      52.222 -39.564  -2.953  1.00  0.00    -0.000 C 
BRANCH  18  19
ATOM     19  C   UNL     1      51.509 -38.419  -3.697  1.00  0.00    -0.000 C 
BRANCH  19  20
ATOM     20  C   UNL     1      51.745 -38.447  -5.218  1.00  0.00    -0.000 C 
BRANCH  20  21
ATOM     21  C   UNL     1      50.866 -37.439  -5.974  1.00  0.00    -0.000 C 
BRANCH  21  22
ATOM     22  C   UNL     1      49.667 -36.957  -5.137  1.00  0.00    -0.000 C 
BRANCH  22  23
ATOM     23  C   UNL     1      49.320 -35.476  -5.403  1.00  0.00    -0.000 C 
BRANCH  23  24
ATOM     24  C   UNL     1      47.807 -35.179  -5.385  1.00  0.00    -0.000 C 
BRANCH  24  25
ATOM     25  C   UNL     1      46.904 -36.424  -5.444  1.00  0.00    -0.003 C 
ATOM     26  C   UNL     1      45.703 -36.333  -4.503  1.00  0.00     0.004 C 
ENDBRANCH  24  25
ENDBRANCH  23  24
ENDBRANCH  22  23
ENDBRANCH  21  22
ENDBRANCH  20  21
ENDBRANCH  19  20
ENDBRANCH  18  19
ENDBRANCH  17  18
ENDBRANCH  16  17
ENDBRANCH  15  16
ENDBRANCH   1  15
TORSDOF 22
ENDMDL
MODEL 2
REMARK VINA RESULT:    -4.246      3.224      6.836
REMARK INTER + INTRA:         -14.274
REMARK INTER:                 -10.275
REMARK INTRA:                  -3.999
REMARK UNBOUND:                -4.567
REMARK SMILES CCCCCCCCCCCCCCCCCCCCCCCC(=O)[O-]
REMARK SMILES IDX 13 1 14 2 15 3 16 4 17 5 18 6 19 7 20 8 21 9 22 10 23 11
REMARK SMILES IDX 24 12 25 13 26 14 12 15 11 16 10 17 9 18 8 19 7 20 6 21 5 22
REMARK SMILES IDX 4 23 3 24 2 25 1 26
REMARK H PARENT
REMARK Flexibility Score: inf
ROOT
ATOM      1  C   UNL     1      48.469 -35.509  -3.196  1.00  0.00     0.000 C 
ENDROOT
BRANCH   1   2
ATOM      2  C   UNL     1      48.929 -36.720  -2.363  1.00  0.00     0.000 C 
BRANCH   2   3
ATOM      3  C   UNL     1      50.155 -37.421  -2.975  1.00  0.00     0.000 C 
BRANCH   3   4
ATOM      4  C   UNL     1      49.909 -37.871  -4.423  1.00  0.00     0.000 C 
BRANCH   4   5
ATOM      5  C   UNL     1      50.941 -38.920  -4.855  1.00  0.00     0.000 C 
BRANCH   5   6
ATOM      6  C   UNL     1      50.256 -40.135  -5.495  1.00  0.00     0.000 C 
BRANCH   6   7
ATOM      7  C   UNL     1      49.384 -40.879  -4.473  1.00  0.00     0.000 C 
BRANCH   7   8
ATOM      8  C   UNL     1      50.132 -41.193  -3.164  1.00  0.00     0.000 C 
BRANCH   8   9
ATOM      9  C   UNL     1      51.254 -42.244  -3.289  1.00  0.00     0.000 C 
BRANCH   9  10
ATOM     10  C   UNL     1      52.461 -42.018  -2.360  1.00  0.00     0.006 C 
BRANCH  10  11
ATOM     11  C   UNL     1      52.782 -40.532  -2.151  1.00  0.00     0.053 C 
BRANCH  11  12
ATOM     12  C   UNL     1      54.258 -40.331  -2.001  1.00  0.00     0.041 C 
ATOM     13  O   UNL     1      54.741 -39.168  -2.001  1.00  0.00    -0.550 OA
ATOM     14  O   UNL     1      55.095 -41.426  -1.824  1.00  0.00    -0.550 OA
ENDBRANCH  11  12
ENDBRANCH  10  11
ENDBRANCH   9  10
ENDBRANCH   8   9
ENDBRANCH   7   8
ENDBRANCH   6   7
ENDBRANCH   5   6
ENDBRANCH   4   5
ENDBRANCH   3   4
ENDBRANCH   2   3
ENDBRANCH   1   2
BRANCH   1  15
ATOM     15  C   UNL     1      46.932 -35.374  -3.237  1.00  0.00     0.000 C 
BRANCH  15  16
ATOM     16  C   UNL     1      46.264 -36.123  -4.404  1.00  0.00     0.000 C 
BRANCH  16  17
ATOM     17  C   UNL     1      45.580 -37.426  -3.964  1.00  0.00     0.000 C 
BRANCH  17  18
ATOM     18  C   UNL     1      46.395 -38.687  -4.313  1.00  0.00    -0.000 C 
BRANCH  18  19
ATOM     19  C   UNL     1      45.766 -40.020  -3.864  1.00  0.00    -0.000 C 
BRANCH  19  20
ATOM     20  C   UNL     1      45.750 -40.196  -2.334  1.00  0.00    -0.000 C 
BRANCH  20  21
ATOM     21  C   UNL     1      47.122 -39.936  -1.693  1.00  0.00    -0.000 C 
BRANCH  21  22
ATOM     22  C   UNL     1      47.010 -39.321  -0.286  1.00  0.00    -0.000 C 
BRANCH  22  23
ATOM     23  C   UNL     1      45.944 -38.207  -0.214  1.00  0.00    -0.000 C 
BRANCH  23  24
ATOM     24  C   UNL     1      46.472 -36.879   0.366  1.00  0.00    -0.000 C 
BRANCH  24  25
ATOM     25  C   UNL     1      47.552 -37.032   1.452  1.00  0.00    -0.003 C 
ATOM     26  C   UNL     1      48.711 -36.050   1.280  1.00  0.00     0.004 C 
ENDBRANCH  24  25
ENDBRANCH  23  24
ENDBRANCH  22  23
ENDBRANCH  21  22
ENDBRANCH  20  21
ENDBRANCH  19  20
ENDBRANCH  18  19
ENDBRANCH  17  18
ENDBRANCH  16  17
ENDBRANCH  15  16
ENDBRANCH   1  15
TORSDOF 22
ENDMDL
MODEL 3
REMARK VINA RESULT:    -4.213      2.069      4.669
REMARK INTER + INTRA:         -14.198
REMARK INTER:                 -10.256
REMARK INTRA:                  -3.942
REMARK UNBOUND:                -4.567
REMARK SMILES CCCCCCCCCCCCCCCCCCCCCCCC(=O)[O-]
REMARK SMILES IDX 13 1 14 2 15 3 16 4 17 5 18 6 19 7 20 8 21 9 22 10 23 11
REMARK SMILES IDX 24 12 25 13 26 14 12 15 11 16 10 17 9 18 8 19 7 20 6 21 5 22
REMARK SMILES IDX 4 23 3 24 2 25 1 26
REMARK H PARENT
REMARK Flexibility Score: inf
ROOT
ATOM      1  C   UNL     1      48.761 -40.538  -2.260  1.00  0.00     0.000 C 
ENDROOT
BRANCH   1   2
ATOM      2  C   UNL     1      49.291 -41.558  -3.285  1.00  0.00     0.000 C 
BRANCH   2   3
ATOM      3  C   UNL     1      50.461 -41.002  -4.115  1.00  0.00     0.000 C 
BRANCH   3   4
ATOM      4  C   UNL     1      51.372 -40.075  -3.297  1.00  0.00     0.000 C 
BRANCH   4   5
ATOM      5  C   UNL     1      51.764 -38.834  -4.107  1.00  0.00     0.000 C 
BRANCH   5   6
ATOM      6  C   UNL     1      50.653 -38.445  -5.092  1.00  0.00     0.000 C 
BRANCH   6   7
ATOM      7  C   UNL     1      50.059 -37.074  -4.739  1.00  0.00     0.000 C 
BRANCH   7   8
ATOM      8  C   UNL     1      49.009 -37.148  -3.616  1.00  0.00     0.000 C 
BRANCH   8   9
ATOM      9  C   UNL     1      49.463 -36.572  -2.258  1.00  0.00     0.000 C 
BRANCH   9  10
ATOM     10  C   UNL     1      48.330 -36.332  -1.244  1.00  0.00     0.006 C 
BRANCH  10  11
ATOM     11  C   UNL     1      48.838 -35.795   0.100  1.00  0.00     0.053 C 
BRANCH  11  12
ATOM     12  C   UNL     1      48.398 -36.685   1.220  1.00  0.00     0.041 C 
ATOM     13  O   UNL     1      47.945 -37.834   0.975  1.00  0.00    -0.550 OA
ATOM     14  O   UNL     1      48.522 -36.259   2.538  1.00  0.00    -0.550 OA
ENDBRANCH  11  12
ENDBRANCH  10  11
ENDBRANCH   9  10
ENDBRANCH   8   9
ENDBRANCH   7   8
ENDBRANCH   6   7
ENDBRANCH   5   6
ENDBRANCH   4   5
ENDBRANCH   3   4
ENDBRANCH   2   3
ENDBRANCH   1   2
BRANCH   1  15
ATOM     15  C   UNL     1      47.292 -40.147  -2.527  1.00  0.00     0.000 C 
BRANCH  15  16
ATOM     16  C   UNL     1      46.774 -40.553  -3.919  1.00  0.00     0.000 C 
BRANCH  16  17
ATOM     17  C   UNL     1      46.681 -39.365  -4.890  1.00  0.00     0.000 C 
BRANCH  17  18
ATOM     18  C   UNL     1      45.340 -38.611  -4.798  1.00  0.00    -0.000 C 
BRANCH  18  19
ATOM     19  C   UNL     1      44.730 -38.190  -6.149  1.00  0.00    -0.000 C 
BRANCH  19  20
ATOM     20  C   UNL     1      44.629 -36.662  -6.316  1.00  0.00    -0.000 C 
BRANCH  20  21
ATOM     21  C   UNL     1      45.873 -36.055  -6.983  1.00  0.00    -0.000 C 
BRANCH  21  22
ATOM     22  C   UNL     1      46.828 -35.402  -5.967  1.00  0.00    -0.000 C 
BRANCH  22  23
ATOM     23  C   UNL     1      46.103 -34.959  -4.678  1.00  0.00    -0.000 C 
BRANCH  23  24
ATOM     24  C   UNL     1      46.895 -33.936  -3.840  1.00  0.00    -0.000 C 
BRANCH  24  25
ATOM     25  C   UNL     1      48.318 -33.646  -4.350  1.00  0.00    -0.003 C 
ATOM     26  C   UNL     1      48.673 -32.160  -4.313  1.00  0.00     0.004 C 
ENDBRANCH  24  25
ENDBRANCH  23  24
ENDBRANCH  22  23
ENDBRANCH  21  22
ENDBRANCH  20  21
ENDBRANCH  19  20
ENDBRANCH  18  19
ENDBRANCH  17  18
ENDBRANCH  16  17
ENDBRANCH  15  16
ENDBRANCH   1  15
TORSDOF 22
ENDMDL
MODEL 4
REMARK VINA RESULT:    -4.205      3.116      6.774
REMARK INTER + INTRA:         -14.181
REMARK INTER:                 -10.731
REMARK INTRA:                  -3.450
REMARK UNBOUND:                -4.567
REMARK SMILES CCCCCCCCCCCCCCCCCCCCCCCC(=O)[O-]
REMARK SMILES IDX 13 1 14 2 15 3 16 4 17 5 18 6 19 7 20 8 21 9 22 10 23 11
REMARK SMILES IDX 24 12 25 13 26 14 12 15 11 16 10 17 9 18 8 19 7 20 6 21 5 22
REMARK SMILES IDX 4 23 3 24 2 25 1 26
REMARK H PARENT
REMARK Flexibility Score: inf
ROOT
ATOM      1  C   UNL     1      49.257 -35.902  -5.800  1.00  0.00     0.000 C 
ENDROOT
BRANCH   1   2
ATOM      2  C   UNL     1      50.607 -35.671  -6.504  1.00  0.00     0.000 C 
BRANCH   2   3
ATOM      3  C   UNL     1      51.532 -36.898  -6.418  1.00  0.00     0.000 C 
BRANCH   3   4
ATOM      4  C   UNL     1      51.007 -37.959  -5.438  1.00  0.00     0.000 C 
BRANCH   4   5
ATOM      5  C   UNL     1      51.082 -39.361  -6.055  1.00  0.00     0.000 C 
BRANCH   5   6
ATOM      6  C   UNL     1      49.955 -40.257  -5.525  1.00  0.00     0.000 C 
BRANCH   6   7
ATOM      7  C   UNL     1      49.351 -39.681  -4.237  1.00  0.00     0.000 C 
BRANCH   7   8
ATOM      8  C   UNL     1      49.716 -40.501  -2.986  1.00  0.00     0.000 C 
BRANCH   8   9
ATOM      9  C   UNL     1      50.372 -41.869  -3.270  1.00  0.00     0.000 C 
BRANCH   9  10
ATOM     10  C   UNL     1      51.870 -41.954  -2.928  1.00  0.00     0.006 C 
BRANCH  10  11
ATOM     11  C   UNL     1      52.395 -40.690  -2.233  1.00  0.00     0.053 C 
BRANCH  11  12
ATOM     12  C   UNL     1      53.865 -40.805  -1.977  1.00  0.00     0.041 C 
ATOM     13  O   UNL     1      54.563 -39.769  -1.822  1.00  0.00    -0.550 OA
ATOM     14  O   UNL     1      54.458 -42.058  -1.873  1.00  0.00    -0.550 OA
ENDBRANCH  11  12
ENDBRANCH  10  11
ENDBRANCH   9  10
ENDBRANCH   8   9
ENDBRANCH   7   8
ENDBRANCH   6   7
ENDBRANCH   5   6
ENDBRANCH   4   5
ENDBRANCH   3   4
ENDBRANCH   2   3
ENDBRANCH   1   2
BRANCH   1  15
ATOM     15  C   UNL     1      48.096 -35.164  -6.499  1.00  0.00     0.000 C 
BRANCH  15  16
ATOM     16  C   UNL     1      46.705 -35.751  -6.201  1.00  0.00     0.000 C 
BRANCH  16  17
ATOM     17  C   UNL     1      46.728 -36.802  -5.081  1.00  0.00     0.000 C 
BRANCH  17  18
ATOM     18  C   UNL     1      45.629 -37.872  -5.229  1.00  0.00    -0.000 C 
BRANCH  18  19
ATOM     19  C   UNL     1      46.036 -39.295  -4.803  1.00  0.00    -0.000 C 
BRANCH  19  20
ATOM     20  C   UNL     1      45.266 -39.800  -3.568  1.00  0.00    -0.000 C 
BRANCH  20  21
ATOM     21  C   UNL     1      46.151 -39.900  -2.317  1.00  0.00    -0.000 C 
BRANCH  21  22
ATOM     22  C   UNL     1      45.791 -38.847  -1.253  1.00  0.00    -0.000 C 
BRANCH  22  23
ATOM     23  C   UNL     1      46.527 -37.508  -1.478  1.00  0.00    -0.000 C 
BRANCH  23  24
ATOM     24  C   UNL     1      48.053 -37.656  -1.637  1.00  0.00    -0.000 C 
BRANCH  24  25
ATOM     25  C   UNL     1      48.799 -36.349  -1.960  1.00  0.00    -0.003 C 
ATOM     26  C   UNL     1      48.975 -35.448  -0.738  1.00  0.00     0.004 C 
ENDBRANCH  24  25
ENDBRANCH  23  24
ENDBRANCH  22  23
ENDBRANCH  21  22
ENDBRANCH  20  21
ENDBRANCH  19  20
ENDBRANCH  18  19
ENDBRANCH  17  18
ENDBRANCH  16  17
ENDBRANCH  15  16
ENDBRANCH   1  15
TORSDOF 22
ENDMDL
MODEL 5
REMARK VINA RESULT:    -4.193      1.279      3.249
REMARK INTER + INTRA:         -14.154
REMARK INTER:                  -9.918
REMARK INTRA:                  -4.236
REMARK UNBOUND:                -4.567
REMARK SMILES CCCCCCCCCCCCCCCCCCCCCCCC(=O)[O-]
REMARK SMILES IDX 13 1 14 2 15 3 16 4 17 5 18 6 19 7 20 8 21 9 22 10 23 11
REMARK SMILES IDX 24 12 25 13 26 14 12 15 11 16 10 17 9 18 8 19 7 20 6 21 5 22
REMARK SMILES IDX 4 23 3 24 2 25 1 26
REMARK H PARENT
REMARK Flexibility Score: inf
ROOT
ATOM      1  C   UNL     1      46.591 -40.622  -3.522  1.00  0.00     0.000 C 
ENDROOT
BRANCH   1   2
ATOM      2  C   UNL     1      45.244 -39.876  -3.571  1.00  0.00     0.000 C 
BRANCH   2   3
ATOM      3  C   UNL     1      45.235 -38.750  -4.619  1.00  0.00     0.000 C 
BRANCH   3   4
ATOM      4  C   UNL     1      44.128 -37.718  -4.361  1.00  0.00     0.000 C 
BRANCH   4   5
ATOM      5  C   UNL     1      44.313 -36.480  -5.246  1.00  0.00     0.000 C 
BRANCH   5   6
ATOM      6  C   UNL     1      45.730 -36.428  -5.833  1.00  0.00     0.000 C 
BRANCH   6   7
ATOM      7  C   UNL     1      46.546 -35.289  -5.206  1.00  0.00     0.000 C 
BRANCH   7   8
ATOM      8  C   UNL     1      45.710 -34.405  -4.261  1.00  0.00     0.000 C 
BRANCH   8   9
ATOM      9  C   UNL     1      46.191 -34.379  -2.795  1.00  0.00     0.000 C 
BRANCH   9  10
ATOM     10  C   UNL     1      47.568 -33.726  -2.575  1.00  0.00     0.006 C 
BRANCH  10  11
ATOM     11  C   UNL     1      47.573 -32.726  -1.412  1.00  0.00     0.053 C 
BRANCH  11  12
ATOM     12  C   UNL     1      47.947 -31.360  -1.896  1.00  0.00     0.041 C 
ATOM     13  O   UNL     1      47.908 -30.377  -1.110  1.00  0.00    -0.550 OA
ATOM     14  O   UNL     1      48.375 -31.179  -3.206  1.00  0.00    -0.550 OA
ENDBRANCH  11  12
ENDBRANCH  10  11
ENDBRANCH   9  10
ENDBRANCH   8   9
ENDBRANCH   7   8
ENDBRANCH   6   7
ENDBRANCH   5   6
ENDBRANCH   4   5
ENDBRANCH   3   4
ENDBRANCH   2   3
ENDBRANCH   1   2
BRANCH   1  15
ATOM     15  C   UNL     1      47.576 -40.129  -4.602  1.00  0.00     0.000 C 
BRANCH  15  16
ATOM     16  C   UNL     1      48.794 -41.047  -4.811  1.00  0.00     0.000 C 
BRANCH  16  17
ATOM     17  C   UNL     1      49.330 -41.635  -3.497  1.00  0.00     0.000 C 
BRANCH  17  18
ATOM     18  C   UNL     1      50.130 -40.619  -2.659  1.00  0.00    -0.000 C 
BRANCH  18  19
ATOM     19  C   UNL     1      51.439 -40.123  -3.303  1.00  0.00    -0.000 C 
BRANCH  19  20
ATOM     20  C   UNL     1      51.528 -38.587  -3.385  1.00  0.00    -0.000 C 
BRANCH  20  21
ATOM     21  C   UNL     1      50.901 -38.025  -4.671  1.00  0.00    -0.000 C 
BRANCH  21  22
ATOM     22  C   UNL     1      49.717 -37.082  -4.388  1.00  0.00    -0.000 C 
BRANCH  22  23
ATOM     23  C   UNL     1      49.455 -36.905  -2.876  1.00  0.00    -0.000 C 
BRANCH  23  24
ATOM     24  C   UNL     1      48.098 -37.469  -2.411  1.00  0.00    -0.000 C 
BRANCH  24  25
ATOM     25  C   UNL     1      47.920 -37.547  -0.884  1.00  0.00    -0.003 C 
ATOM     26  C   UNL     1      47.411 -38.910  -0.414  1.00  0.00     0.004 C 
ENDBRANCH  24  25
ENDBRANCH  23  24
ENDBRANCH  22  23
ENDBRANCH  21  22
ENDBRANCH  20  21
ENDBRANCH  19  20
ENDBRANCH  18  19
ENDBRANCH  17  18
ENDBRANCH  16  17
ENDBRANCH  15  16
ENDBRANCH   1  15
TORSDOF 22
ENDMDL
MODEL 6
REMARK VINA RESULT:    -4.185      3.304      6.491
REMARK INTER + INTRA:         -14.135
REMARK INTER:                 -10.139
REMARK INTRA:                  -3.996
REMARK UNBOUND:                -4.567
REMARK SMILES CCCCCCCCCCCCCCCCCCCCCCCC(=O)[O-]
REMARK SMILES IDX 13 1 14 2 15 3 16 4 17 5 18 6 19 7 20 8 21 9 22 10 23 11
REMARK SMILES IDX 24 12 25 13 26 14 12 15 11 16 10 17 9 18 8 19 7 20 6 21 5 22
REMARK SMILES IDX 4 23 3 24 2 25 1 26
REMARK H PARENT
REMARK Flexibility Score: inf
ROOT
ATOM      1  C   UNL     1      47.622 -36.869  -4.853  1.00  0.00     0.000 C 
ENDROOT
BRANCH   1   2
ATOM      2  C   UNL     1      48.262 -36.633  -3.472  1.00  0.00     0.000 C 
BRANCH   2   3
ATOM      3  C   UNL     1      49.777 -36.899  -3.474  1.00  0.00     0.000 C 
BRANCH   3   4
ATOM      4  C   UNL     1      50.345 -37.040  -4.894  1.00  0.00     0.000 C 
BRANCH   4   5
ATOM      5  C   UNL     1      51.369 -38.180  -4.965  1.00  0.00     0.000 C 
BRANCH   5   6
ATOM      6  C   UNL     1      50.913 -39.271  -5.942  1.00  0.00     0.000 C 
BRANCH   6   7
ATOM      7  C   UNL     1      50.231 -40.428  -5.199  1.00  0.00     0.000 C 
BRANCH   7   8
ATOM      8  C   UNL     1      50.682 -40.544  -3.731  1.00  0.00     0.000 C 
BRANCH   8   9
ATOM      9  C   UNL     1      51.066 -41.967  -3.276  1.00  0.00     0.000 C 
BRANCH   9  10
ATOM     10  C   UNL     1      52.331 -42.049  -2.402  1.00  0.00     0.006 C 
BRANCH  10  11
ATOM     11  C   UNL     1      52.789 -40.678  -1.888  1.00  0.00     0.053 C 
BRANCH  11  12
ATOM     12  C   UNL     1      54.280 -40.564  -1.958  1.00  0.00     0.041 C 
ATOM     13  O   UNL     1      55.000 -41.590  -1.844  1.00  0.00    -0.550 OA
ATOM     14  O   UNL     1      54.873 -39.327  -2.185  1.00  0.00    -0.550 OA
ENDBRANCH  11  12
ENDBRANCH  10  11
ENDBRANCH   9  10
ENDBRANCH   8   9
ENDBRANCH   7   8
ENDBRANCH   6   7
ENDBRANCH   5   6
ENDBRANCH   4   5
ENDBRANCH   3   4
ENDBRANCH   2   3
ENDBRANCH   1   2
BRANCH   1  15
ATOM     15  C   UNL     1      46.546 -37.975  -4.821  1.00  0.00     0.000 C 
BRANCH  15  16
ATOM     16  C   UNL     1      47.092 -39.376  -4.490  1.00  0.00     0.000 C 
BRANCH  16  17
ATOM     17  C   UNL     1      46.193 -40.151  -3.515  1.00  0.00     0.000 C 
BRANCH  17  18
ATOM     18  C   UNL     1      46.935 -40.618  -2.246  1.00  0.00    -0.000 C 
BRANCH  18  19
ATOM     19  C   UNL     1      47.939 -39.605  -1.663  1.00  0.00    -0.000 C 
BRANCH  19  20
ATOM     20  C   UNL     1      47.575 -39.145  -0.239  1.00  0.00    -0.000 C 
BRANCH  20  21
ATOM     21  C   UNL     1      47.098 -37.685  -0.192  1.00  0.00    -0.000 C 
BRANCH  21  22
ATOM     22  C   UNL     1      45.913 -37.481   0.770  1.00  0.00    -0.000 C 
BRANCH  22  23
ATOM     23  C   UNL     1      44.598 -37.165   0.026  1.00  0.00    -0.000 C 
BRANCH  23  24
ATOM     24  C   UNL     1      44.562 -37.690  -1.422  1.00  0.00    -0.000 C 
BRANCH  24  25
ATOM     25  C   UNL     1      44.052 -36.679  -2.465  1.00  0.00    -0.003 C 
ATOM     26  C   UNL     1      44.885 -35.399  -2.509  1.00  0.00     0.004 C 
ENDBRANCH  24  25
ENDBRANCH  23  24
ENDBRANCH  22  23
ENDBRANCH  21  22
ENDBRANCH  20  21
ENDBRANCH  19  20
ENDBRANCH  18  19
ENDBRANCH  17  18
ENDBRANCH  16  17
ENDBRANCH  15  16
ENDBRANCH   1  15
TORSDOF 22
ENDMDL
MODEL 7
REMARK VINA RESULT:    -4.176      3.278      6.086
REMARK INTER + INTRA:         -14.115
REMARK INTER:                 -10.347
REMARK INTRA:                  -3.768
REMARK UNBOUND:                -4.567
REMARK SMILES CCCCCCCCCCCCCCCCCCCCCCCC(=O)[O-]
REMARK SMILES IDX 13 1 14 2 15 3 16 4 17 5 18 6 19 7 20 8 21 9 22 10 23 11
REMARK SMILES IDX 24 12 25 13 26 14 12 15 11 16 10 17 9 18 8 19 7 20 6 21 5 22
REMARK SMILES IDX 4 23 3 24 2 25 1 26
REMARK H PARENT
REMARK Flexibility Score: inf
ROOT
ATOM      1  C   UNL     1      46.741 -40.021  -2.442  1.00  0.00     0.000 C 
ENDROOT
BRANCH   1   2
ATOM      2  C   UNL     1      48.017 -39.439  -1.804  1.00  0.00     0.000 C 
BRANCH   2   3
ATOM      3  C   UNL     1      47.887 -37.937  -1.496  1.00  0.00     0.000 C 
BRANCH   3   4
ATOM      4  C   UNL     1      48.334 -37.058  -2.673  1.00  0.00     0.000 C 
BRANCH   4   5
ATOM      5  C   UNL     1      49.849 -37.158  -2.889  1.00  0.00     0.000 C 
BRANCH   5   6
ATOM      6  C   UNL     1      50.188 -37.244  -4.383  1.00  0.00     0.000 C 
BRANCH   6   7
ATOM      7  C   UNL     1      49.646 -38.542  -4.998  1.00  0.00     0.000 C 
BRANCH   7   8
ATOM      8  C   UNL     1      50.706 -39.658  -5.069  1.00  0.00     0.000 C 
BRANCH   8   9
ATOM      9  C   UNL     1      50.332 -40.961  -4.332  1.00  0.00     0.000 C 
BRANCH   9  10
ATOM     10  C   UNL     1      51.045 -41.171  -2.984  1.00  0.00     0.006 C 
BRANCH  10  11
ATOM     11  C   UNL     1      52.175 -40.162  -2.744  1.00  0.00     0.053 C 
BRANCH  11  12
ATOM     12  C   UNL     1      53.343 -40.829  -2.087  1.00  0.00     0.041 C 
ATOM     13  O   UNL     1      53.256 -42.025  -1.705  1.00  0.00    -0.550 OA
ATOM     14  O   UNL     1      54.540 -40.140  -1.931  1.00  0.00    -0.550 OA
ENDBRANCH  11  12
ENDBRANCH  10  11
ENDBRANCH   9  10
ENDBRANCH   8   9
ENDBRANCH   7   8
ENDBRANCH   6   7
ENDBRANCH   5   6
ENDBRANCH   4   5
ENDBRANCH   3   4
ENDBRANCH   2   3
ENDBRANCH   1   2
BRANCH   1  15
ATOM     15  C   UNL     1      46.929 -40.345  -3.939  1.00  0.00     0.000 C 
BRANCH  15  16
ATOM     16  C   UNL     1      46.007 -39.545  -4.878  1.00  0.00     0.000 C 
BRANCH  16  17
ATOM     17  C   UNL     1      44.816 -38.909  -4.144  1.00  0.00     0.000 C 
BRANCH  17  18
ATOM     18  C   UNL     1      44.316 -37.612  -4.809  1.00  0.00    -0.000 C 
BRANCH  18  19
ATOM     19  C   UNL     1      45.018 -36.322  -4.342  1.00  0.00    -0.000 C 
BRANCH  19  20
ATOM     20  C   UNL     1      46.110 -35.842  -5.317  1.00  0.00    -0.000 C 
BRANCH  20  21
ATOM     21  C   UNL     1      46.724 -34.496  -4.903  1.00  0.00    -0.000 C 
BRANCH  21  22
ATOM     22  C   UNL     1      48.195 -34.359  -5.337  1.00  0.00    -0.000 C 
BRANCH  22  23
ATOM     23  C   UNL     1      49.005 -33.447  -4.391  1.00  0.00    -0.000 C 
BRANCH  23  24
ATOM     24  C   UNL     1      48.671 -31.949  -4.536  1.00  0.00    -0.000 C 
BRANCH  24  25
ATOM     25  C   UNL     1      48.341 -31.229  -3.216  1.00  0.00    -0.003 C 
ATOM     26  C   UNL     1      46.885 -30.772  -3.135  1.00  0.00     0.004 C 
ENDBRANCH  24  25
ENDBRANCH  23  24
ENDBRANCH  22  23
ENDBRANCH  21  22
ENDBRANCH  20  21
ENDBRANCH  19  20
ENDBRANCH  18  19
ENDBRANCH  17  18
ENDBRANCH  16  17
ENDBRANCH  15  16
ENDBRANCH   1  15
TORSDOF 22
ENDMDL
MODEL 8
REMARK VINA RESULT:    -4.160      3.193      6.690
REMARK INTER + INTRA:         -14.078
REMARK INTER:                  -9.694
REMARK INTRA:                  -4.384
REMARK UNBOUND:                -4.567
REMARK SMILES CCCCCCCCCCCCCCCCCCCCCCCC(=O)[O-]
REMARK SMILES IDX 13 1 14 2 15 3 16 4 17 5 18 6 19 7 20 8 21 9 22 10 23 11
REMARK SMILES IDX 24 12 25 13 26 14 12 15 11 16 10 17 9 18 8 19 7 20 6 21 5 22
REMARK SMILES IDX 4 23 3 24 2 25 1 26
REMARK H PARENT
REMARK Flexibility Score: inf
ROOT
ATOM      1  C   UNL     1      46.677 -36.188  -4.722  1.00  0.00     0.000 C 
ENDROOT
BRANCH   1   2
ATOM      2  C   UNL     1      46.221 -36.231  -3.251  1.00  0.00     0.000 C 
BRANCH   2   3
ATOM      3  C   UNL     1      47.405 -36.233  -2.269  1.00  0.00     0.000 C 
BRANCH   3   4
ATOM      4  C   UNL     1      48.755 -36.058  -2.980  1.00  0.00     0.000 C 
BRANCH   4   5
ATOM      5  C   UNL     1      49.712 -37.205  -2.633  1.00  0.00     0.000 C 
BRANCH   5   6
ATOM      6  C   UNL     1      50.567 -37.596  -3.846  1.00  0.00     0.000 C 
BRANCH   6   7
ATOM      7  C   UNL     1      49.732 -38.348  -4.891  1.00  0.00     0.000 C 
BRANCH   7   8
ATOM      8  C   UNL     1      50.368 -39.686  -5.314  1.00  0.00     0.000 C 
BRANCH   8   9
ATOM      9  C   UNL     1      49.624 -40.946  -4.825  1.00  0.00     0.000 C 
BRANCH   9  10
ATOM     10  C   UNL     1      50.398 -41.801  -3.805  1.00  0.00     0.006 C 
BRANCH  10  11
ATOM     11  C   UNL     1      50.814 -41.009  -2.558  1.00  0.00     0.053 C 
BRANCH  11  12
ATOM     12  C   UNL     1      52.304 -41.005  -2.413  1.00  0.00     0.041 C 
ATOM     13  O   UNL     1      52.959 -39.954  -2.641  1.00  0.00    -0.550 OA
ATOM     14  O   UNL     1      52.965 -42.152  -1.991  1.00  0.00    -0.550 OA
ENDBRANCH  11  12
ENDBRANCH  10  11
ENDBRANCH   9  10
ENDBRANCH   8   9
ENDBRANCH   7   8
ENDBRANCH   6   7
ENDBRANCH   5   6
ENDBRANCH   4   5
ENDBRANCH   3   4
ENDBRANCH   2   3
ENDBRANCH   1   2
BRANCH   1  15
ATOM     15  C   UNL     1      45.869 -37.152  -5.616  1.00  0.00     0.000 C 
BRANCH  15  16
ATOM     16  C   UNL     1      45.328 -38.391  -4.879  1.00  0.00     0.000 C 
BRANCH  16  17
ATOM     17  C   UNL     1      46.336 -39.550  -4.842  1.00  0.00     0.000 C 
BRANCH  17  18
ATOM     18  C   UNL     1      46.211 -40.423  -3.578  1.00  0.00    -0.000 C 
BRANCH  18  19
ATOM     19  C   UNL     1      47.074 -39.974  -2.383  1.00  0.00    -0.000 C 
BRANCH  19  20
ATOM     20  C   UNL     1      46.425 -40.283  -1.020  1.00  0.00    -0.000 C 
BRANCH  20  21
ATOM     21  C   UNL     1      44.952 -39.852  -0.954  1.00  0.00    -0.000 C 
BRANCH  21  22
ATOM     22  C   UNL     1      44.785 -38.371  -0.570  1.00  0.00    -0.000 C 
BRANCH  22  23
ATOM     23  C   UNL     1      44.831 -38.150   0.958  1.00  0.00    -0.000 C 
BRANCH  23  24
ATOM     24  C   UNL     1      45.501 -36.826   1.374  1.00  0.00    -0.000 C 
BRANCH  24  25
ATOM     25  C   UNL     1      46.882 -36.981   2.037  1.00  0.00    -0.003 C 
ATOM     26  C   UNL     1      47.934 -37.563   1.093  1.00  0.00     0.004 C 
ENDBRANCH  24  25
ENDBRANCH  23  24
ENDBRANCH  22  23
ENDBRANCH  21  22
ENDBRANCH  20  21
ENDBRANCH  19  20
ENDBRANCH  18  19
ENDBRANCH  17  18
ENDBRANCH  16  17
ENDBRANCH  15  16
ENDBRANCH   1  15
TORSDOF 22
ENDMDL
MODEL 9
REMARK VINA RESULT:    -4.120      1.530      3.780
REMARK INTER + INTRA:         -13.987
REMARK INTER:                  -9.397
REMARK INTRA:                  -4.590
REMARK UNBOUND:                -4.567
REMARK SMILES CCCCCCCCCCCCCCCCCCCCCCCC(=O)[O-]
REMARK SMILES IDX 13 1 14 2 15 3 16 4 17 5 18 6 19 7 20 8 21 9 22 10 23 11
REMARK SMILES IDX 24 12 25 13 26 14 12 15 11 16 10 17 9 18 8 19 7 20 6 21 5 22
REMARK SMILES IDX 4 23 3 24 2 25 1 26
REMARK H PARENT
REMARK Flexibility Score: inf
ROOT
ATOM      1  C   UNL     1      49.336 -40.686  -2.892  1.00  0.00     0.000 C 
ENDROOT
BRANCH   1   2
ATOM      2  C   UNL     1      48.181 -41.229  -3.754  1.00  0.00     0.000 C 
BRANCH   2   3
ATOM      3  C   UNL     1      46.897 -40.394  -3.608  1.00  0.00     0.000 C 
BRANCH   3   4
ATOM      4  C   UNL     1      46.568 -39.598  -4.880  1.00  0.00     0.000 C 
BRANCH   4   5
ATOM      5  C   UNL     1      45.408 -38.625  -4.635  1.00  0.00     0.000 C 
BRANCH   5   6
ATOM      6  C   UNL     1      45.259 -37.640  -5.801  1.00  0.00     0.000 C 
BRANCH   6   7
ATOM      7  C   UNL     1      45.399 -36.189  -5.319  1.00  0.00     0.000 C 
BRANCH   7   8
ATOM      8  C   UNL     1      45.173 -36.038  -3.803  1.00  0.00     0.000 C 
BRANCH   8   9
ATOM      9  C   UNL     1      45.818 -34.790  -3.167  1.00  0.00     0.000 C 
BRANCH   9  10
ATOM     10  C   UNL     1      46.797 -34.029  -4.080  1.00  0.00     0.006 C 
BRANCH  10  11
ATOM     11  C   UNL     1      47.955 -33.386  -3.306  1.00  0.00     0.053 C 
BRANCH  11  12
ATOM     12  C   UNL     1      47.813 -31.895  -3.293  1.00  0.00     0.041 C 
ATOM     13  O   UNL     1      48.770 -31.165  -3.661  1.00  0.00    -0.550 OA
ATOM     14  O   UNL     1      46.609 -31.314  -2.910  1.00  0.00    -0.550 OA
ENDBRANCH  11  12
ENDBRANCH  10  11
ENDBRANCH   9  10
ENDBRANCH   8   9
ENDBRANCH   7   8
ENDBRANCH   6   7
ENDBRANCH   5   6
ENDBRANCH   4   5
ENDBRANCH   3   4
ENDBRANCH   2   3
ENDBRANCH   1   2
BRANCH   1  15
ATOM     15  C   UNL     1      50.545 -40.242  -3.741  1.00  0.00     0.000 C 
BRANCH  15  16
ATOM     16  C   UNL     1      50.269 -40.194  -5.255  1.00  0.00     0.000 C 
BRANCH  16  17
ATOM     17  C   UNL     1      51.000 -39.040  -5.958  1.00  0.00     0.000 C 
BRANCH  17  18
ATOM     18  C   UNL     1      50.980 -37.727  -5.151  1.00  0.00    -0.000 C 
BRANCH  18  19
ATOM     19  C   UNL     1      49.677 -36.912  -5.256  1.00  0.00    -0.000 C 
BRANCH  19  20
ATOM     20  C   UNL     1      48.793 -37.021  -3.999  1.00  0.00    -0.000 C 
BRANCH  20  21
ATOM     21  C   UNL     1      49.589 -36.839  -2.697  1.00  0.00    -0.000 C 
BRANCH  21  22
ATOM     22  C   UNL     1      48.679 -36.632  -1.472  1.00  0.00    -0.000 C 
BRANCH  22  23
ATOM     23  C   UNL     1      47.535 -37.666  -1.409  1.00  0.00    -0.000 C 
BRANCH  23  24
ATOM     24  C   UNL     1      47.434 -38.398  -0.056  1.00  0.00    -0.000 C 
BRANCH  24  25
ATOM     25  C   UNL     1      46.839 -39.816  -0.131  1.00  0.00    -0.003 C 
ATOM     26  C   UNL     1      45.338 -39.847   0.153  1.00  0.00     0.004 C 
ENDBRANCH  24  25
ENDBRANCH  23  24
ENDBRANCH  22  23
ENDBRANCH  21  22
ENDBRANCH  20  21
ENDBRANCH  19  20
ENDBRANCH  18  19
ENDBRANCH  17  18
ENDBRANCH  16  17
ENDBRANCH  15  16
ENDBRANCH   1  15
TORSDOF 22
ENDMDL
