MODEL 1
REMARK VINA RESULT:    -4.721      0.000      0.000
REMARK INTER + INTRA:         -13.700
REMARK INTER:                 -10.793
REMARK INTRA:                  -2.907
REMARK UNBOUND:                -2.907
REMARK SMILES CCCCCCCCCCCCCCCCCCCCCCCC(=O)[O-]
REMARK SMILES IDX 13 1 14 2 15 3 16 4 17 5 18 6 19 7 20 8 21 9 22 10 23 11
REMARK SMILES IDX 24 12 25 13 26 14 12 15 11 16 10 17 9 18 8 19 7 20 6 21 5 22
REMARK SMILES IDX 4 23 3 24 2 25 1 26
REMARK H PARENT
REMARK Flexibility Score: inf
ROOT
ATOM      1  C   UNL     1      59.484  -3.469  20.302  1.00  0.00     0.000 C 
ENDROOT
BRANCH   1   2
ATOM      2  C   UNL     1      58.103  -4.010  20.706  1.00  0.00     0.000 C 
BRANCH   2   3
ATOM      3  C   UNL     1      57.050  -2.899  20.874  1.00  0.00     0.000 C 
BRANCH   3   4
ATOM      4  C   UNL     1      57.611  -1.516  21.264  1.00  0.00     0.000 C 
BRANCH   4   5
ATOM      5  C   UNL     1      57.325  -0.387  20.254  1.00  0.00     0.000 C 
BRANCH   5   6
ATOM      6  C   UNL     1      58.136  -0.463  18.945  1.00  0.00     0.000 C 
BRANCH   6   7
ATOM      7  C   UNL     1      57.330  -0.873  17.701  1.00  0.00     0.000 C 
BRANCH   7   8
ATOM      8  C   UNL     1      55.817  -0.674  17.877  1.00  0.00     0.000 C 
BRANCH   8   9
ATOM      9  C   UNL     1      55.052  -1.136  16.630  1.00  0.00     0.000 C 
BRANCH   9  10
ATOM     10  C   UNL     1      55.969  -1.403  15.423  1.00  0.00     0.006 C 
BRANCH  10  11
ATOM     11  C   UNL     1      55.212  -1.740  14.125  1.00  0.00     0.053 C 
BRANCH  11  12
ATOM     12  C   UNL     1      55.285  -3.195  13.776  1.00  0.00     0.041 C 
ATOM     13  O   UNL     1      56.280  -3.884  14.123  1.00  0.00    -0.550 OA
ATOM     14  O   UNL     1      54.237  -3.801  13.093  1.00  0.00    -0.550 OA
ENDBRANCH  11  12
ENDBRANCH  10  11
ENDBRANCH   9  10
ENDBRANCH   8   9
ENDBRANCH   7   8
ENDBRANCH   6   7
ENDBRANCH   5   6
ENDBRANCH   4   5
ENDBRANCH   3   4
ENDBRANCH   2   3
ENDBRANCH   1   2
BRANCH   1  15
ATOM     15  C   UNL     1      60.601  -3.901  21.270  1.00  0.00     0.000 C 
BRANCH  15  16
ATOM     16  C   UNL     1      60.870  -2.929  22.436  1.00  0.00     0.000 C 
BRANCH  16  17
ATOM     17  C   UNL     1      60.747  -3.546  23.845  1.00  0.00     0.000 C 
BRANCH  17  18
ATOM     18  C   UNL     1      60.258  -5.005  23.874  1.00  0.00    -0.000 C 
BRANCH  18  19
ATOM     19  C   UNL     1      60.907  -5.828  24.997  1.00  0.00    -0.000 C 
BRANCH  19  20
ATOM     20  C   UNL     1      61.783  -4.944  25.891  1.00  0.00    -0.000 C 
BRANCH  20  21
ATOM     21  C   UNL     1      63.242  -5.416  25.874  1.00  0.00    -0.000 C 
BRANCH  21  22
ATOM     22  C   UNL     1      63.412  -6.649  24.974  1.00  0.00    -0.000 C 
BRANCH  22  23
ATOM     23  C   UNL     1      64.342  -6.389  23.778  1.00  0.00    -0.000 C 
BRANCH  23  24
ATOM     24  C   UNL     1      64.123  -5.003  23.147  1.00  0.00    -0.000 C 
BRANCH  24  25
ATOM     25  C   UNL     1      63.958  -5.069  21.621  1.00  0.00    -0.003 C 
ATOM     26  C   UNL     1      64.376  -3.776  20.921  1.00  0.00     0.004 C 
ENDBRANCH  24  25
ENDBRANCH  23  24
ENDBRANCH  22  23
ENDBRANCH  21  22
ENDBRANCH  20  21
ENDBRANCH  19  20
ENDBRANCH  18  19
ENDBRANCH  17  18
ENDBRANCH  16  17
ENDBRANCH  15  16
ENDBRANCH   1  15
TORSDOF 22
ENDMDL
MODEL 2
REMARK VINA RESULT:    -4.706      2.489      4.733
REMARK INTER + INTRA:         -13.664
REMARK INTER:                 -10.809
REMARK INTRA:                  -2.855
REMARK UNBOUND:                -2.907
REMARK SMILES CCCCCCCCCCCCCCCCCCCCCCCC(=O)[O-]
REMARK SMILES IDX 13 1 14 2 15 3 16 4 17 5 18 6 19 7 20 8 21 9 22 10 23 11
REMARK SMILES IDX 24 12 25 13 26 14 12 15 11 16 10 17 9 18 8 19 7 20 6 21 5 22
REMARK SMILES IDX 4 23 3 24 2 25 1 26
REMARK H PARENT
REMARK Flexibility Score: inf
ROOT
ATOM      1  C   UNL     1      58.763   0.678  19.601  1.00  0.00     0.000 C 
ENDROOT
BRANCH   1   2
ATOM      2  C   UNL     1      58.737  -0.705  18.929  1.00  0.00     0.000 C 
BRANCH   2   3
ATOM      3  C   UNL     1      57.636  -0.831  17.860  1.00  0.00     0.000 C 
BRANCH   3   4
ATOM      4  C   UNL     1      56.234  -0.362  18.302  1.00  0.00     0.000 C 
BRANCH   4   5
ATOM      5  C   UNL     1      55.269  -0.014  17.151  1.00  0.00     0.000 C 
BRANCH   5   6
ATOM      6  C   UNL     1      55.868  -0.146  15.737  1.00  0.00     0.000 C 
BRANCH   6   7
ATOM      7  C   UNL     1      55.199  -1.204  14.842  1.00  0.00     0.000 C 
BRANCH   7   8
ATOM      8  C   UNL     1      56.143  -2.357  14.472  1.00  0.00     0.000 C 
BRANCH   8   9
ATOM      9  C   UNL     1      55.419  -3.414  13.628  1.00  0.00     0.000 C 
BRANCH   9  10
ATOM     10  C   UNL     1      54.083  -2.913  13.050  1.00  0.00     0.006 C 
BRANCH  10  11
ATOM     11  C   UNL     1      53.147  -4.039  12.571  1.00  0.00     0.053 C 
BRANCH  11  12
ATOM     12  C   UNL     1      52.957  -4.037  11.085  1.00  0.00     0.041 C 
ATOM     13  O   UNL     1      51.945  -4.584  10.572  1.00  0.00    -0.550 OA
ATOM     14  O   UNL     1      53.882  -3.403  10.265  1.00  0.00    -0.550 OA
ENDBRANCH  11  12
ENDBRANCH  10  11
ENDBRANCH   9  10
ENDBRANCH   8   9
ENDBRANCH   7   8
ENDBRANCH   6   7
ENDBRANCH   5   6
ENDBRANCH   4   5
ENDBRANCH   3   4
ENDBRANCH   2   3
ENDBRANCH   1   2
BRANCH   1  15
ATOM     15  C   UNL     1      58.872   0.594  21.134  1.00  0.00     0.000 C 
BRANCH  15  16
ATOM     16  C   UNL     1      57.532   0.687  21.892  1.00  0.00     0.000 C 
BRANCH  16  17
ATOM     17  C   UNL     1      57.056  -0.627  22.544  1.00  0.00     0.000 C 
BRANCH  17  18
ATOM     18  C   UNL     1      55.868  -1.308  21.840  1.00  0.00    -0.000 C 
BRANCH  18  19
ATOM     19  C   UNL     1      56.275  -2.579  21.080  1.00  0.00    -0.000 C 
BRANCH  19  20
ATOM     20  C   UNL     1      57.742  -2.935  21.349  1.00  0.00    -0.000 C 
BRANCH  20  21
ATOM     21  C   UNL     1      58.082  -4.325  20.797  1.00  0.00    -0.000 C 
BRANCH  21  22
ATOM     22  C   UNL     1      59.361  -4.284  19.950  1.00  0.00    -0.000 C 
BRANCH  22  23
ATOM     23  C   UNL     1      60.499  -3.502  20.627  1.00  0.00    -0.000 C 
BRANCH  23  24
ATOM     24  C   UNL     1      60.882  -4.082  21.999  1.00  0.00    -0.000 C 
BRANCH  24  25
ATOM     25  C   UNL     1      61.699  -3.095  22.848  1.00  0.00    -0.003 C 
ATOM     26  C   UNL     1      60.860  -1.933  23.379  1.00  0.00     0.004 C 
ENDBRANCH  24  25
ENDBRANCH  23  24
ENDBRANCH  22  23
ENDBRANCH  21  22
ENDBRANCH  20  21
ENDBRANCH  19  20
ENDBRANCH  18  19
ENDBRANCH  17  18
ENDBRANCH  16  17
ENDBRANCH  15  16
ENDBRANCH   1  15
TORSDOF 22
ENDMDL
MODEL 3
REMARK VINA RESULT:    -4.693      4.363     12.184
REMARK INTER + INTRA:         -13.634
REMARK INTER:                 -12.330
REMARK INTRA:                  -1.304
REMARK UNBOUND:                -2.907
REMARK SMILES CCCCCCCCCCCCCCCCCCCCCCCC(=O)[O-]
REMARK SMILES IDX 13 1 14 2 15 3 16 4 17 5 18 6 19 7 20 8 21 9 22 10 23 11
REMARK SMILES IDX 24 12 25 13 26 14 12 15 11 16 10 17 9 18 8 19 7 20 6 21 5 22
REMARK SMILES IDX 4 23 3 24 2 25 1 26
REMARK H PARENT
REMARK Flexibility Score: inf
ROOT
ATOM      1  C   UNL     1      56.891  -3.030  14.391  1.00  0.00     0.000 C 
ENDROOT
BRANCH   1   2
ATOM      2  C   UNL     1      56.348  -1.672  14.868  1.00  0.00     0.000 C 
BRANCH   2   3
ATOM      3  C   UNL     1      57.229  -1.023  15.951  1.00  0.00     0.000 C 
BRANCH   3   4
ATOM      4  C   UNL     1      56.549   0.097  16.766  1.00  0.00     0.000 C 
BRANCH   4   5
ATOM      5  C   UNL     1      55.840  -0.371  18.053  1.00  0.00     0.000 C 
BRANCH   5   6
ATOM      6  C   UNL     1      56.707  -1.225  19.000  1.00  0.00     0.000 C 
BRANCH   6   7
ATOM      7  C   UNL     1      56.057  -1.557  20.355  1.00  0.00     0.000 C 
BRANCH   7   8
ATOM      8  C   UNL     1      57.004  -2.307  21.303  1.00  0.00     0.000 C 
BRANCH   8   9
ATOM      9  C   UNL     1      57.610  -3.538  20.617  1.00  0.00     0.000 C 
BRANCH   9  10
ATOM     10  C   UNL     1      58.928  -4.001  21.262  1.00  0.00     0.006 C 
BRANCH  10  11
ATOM     11  C   UNL     1      60.145  -3.929  20.319  1.00  0.00     0.053 C 
BRANCH  11  12
ATOM     12  C   UNL     1      61.439  -4.186  21.027  1.00  0.00     0.041 C 
ATOM     13  O   UNL     1      62.453  -4.564  20.383  1.00  0.00    -0.550 OA
ATOM     14  O   UNL     1      61.537  -3.976  22.398  1.00  0.00    -0.550 OA
ENDBRANCH  11  12
ENDBRANCH  10  11
ENDBRANCH   9  10
ENDBRANCH   8   9
ENDBRANCH   7   8
ENDBRANCH   6   7
ENDBRANCH   5   6
ENDBRANCH   4   5
ENDBRANCH   3   4
ENDBRANCH   2   3
ENDBRANCH   1   2
BRANCH   1  15
ATOM     15  C   UNL     1      55.795  -3.936  13.800  1.00  0.00     0.000 C 
BRANCH  15  16
ATOM     16  C   UNL     1      54.670  -3.199  13.048  1.00  0.00     0.000 C 
BRANCH  16  17
ATOM     17  C   UNL     1      53.285  -3.875  13.114  1.00  0.00     0.000 C 
BRANCH  17  18
ATOM     18  C   UNL     1      52.455  -3.781  11.821  1.00  0.00    -0.000 C 
BRANCH  18  19
ATOM     19  C   UNL     1      53.075  -2.835  10.782  1.00  0.00    -0.000 C 
BRANCH  19  20
ATOM     20  C   UNL     1      52.047  -2.437   9.716  1.00  0.00    -0.000 C 
BRANCH  20  21
ATOM     21  C   UNL     1      52.602  -2.658   8.305  1.00  0.00    -0.000 C 
BRANCH  21  22
ATOM     22  C   UNL     1      53.289  -4.027   8.189  1.00  0.00    -0.000 C 
BRANCH  22  23
ATOM     23  C   UNL     1      53.891  -4.275   6.797  1.00  0.00    -0.000 C 
BRANCH  23  24
ATOM     24  C   UNL     1      55.426  -4.371   6.823  1.00  0.00    -0.000 C 
BRANCH  24  25
ATOM     25  C   UNL     1      55.992  -4.355   8.252  1.00  0.00    -0.003 C 
ATOM     26  C   UNL     1      57.501  -4.596   8.296  1.00  0.00     0.004 C 
ENDBRANCH  24  25
ENDBRANCH  23  24
ENDBRANCH  22  23
ENDBRANCH  21  22
ENDBRANCH  20  21
ENDBRANCH  19  20
ENDBRANCH  18  19
ENDBRANCH  17  18
ENDBRANCH  16  17
ENDBRANCH  15  16
ENDBRANCH   1  15
TORSDOF 22
ENDMDL
MODEL 4
REMARK VINA RESULT:    -4.663      3.186      7.547
REMARK INTER + INTRA:         -13.566
REMARK INTER:                 -11.212
REMARK INTRA:                  -2.354
REMARK UNBOUND:                -2.907
REMARK SMILES CCCCCCCCCCCCCCCCCCCCCCCC(=O)[O-]
REMARK SMILES IDX 13 1 14 2 15 3 16 4 17 5 18 6 19 7 20 8 21 9 22 10 23 11
REMARK SMILES IDX 24 12 25 13 26 14 12 15 11 16 10 17 9 18 8 19 7 20 6 21 5 22
REMARK SMILES IDX 4 23 3 24 2 25 1 26
REMARK H PARENT
REMARK Flexibility Score: inf
ROOT
ATOM      1  C   UNL     1      56.207  -3.381  13.965  1.00  0.00     0.000 C 
ENDROOT
BRANCH   1   2
ATOM      2  C   UNL     1      54.815  -3.754  13.428  1.00  0.00     0.000 C 
BRANCH   2   3
ATOM      3  C   UNL     1      53.888  -2.534  13.271  1.00  0.00     0.000 C 
BRANCH   3   4
ATOM      4  C   UNL     1      53.043  -2.513  11.981  1.00  0.00     0.000 C 
BRANCH   4   5
ATOM      5  C   UNL     1      51.988  -1.391  11.910  1.00  0.00     0.000 C 
BRANCH   5   6
ATOM      6  C   UNL     1      52.560   0.033  11.763  1.00  0.00     0.000 C 
BRANCH   6   7
ATOM      7  C   UNL     1      51.905   1.095  12.662  1.00  0.00     0.000 C 
BRANCH   7   8
ATOM      8  C   UNL     1      52.919   1.845  13.538  1.00  0.00     0.000 C 
BRANCH   8   9
ATOM      9  C   UNL     1      54.336   1.288  13.340  1.00  0.00     0.000 C 
BRANCH   9  10
ATOM     10  C   UNL     1      55.353   1.857  14.344  1.00  0.00     0.006 C 
BRANCH  10  11
ATOM     11  C   UNL     1      56.822   1.594  13.964  1.00  0.00     0.053 C 
BRANCH  11  12
ATOM     12  C   UNL     1      57.391   2.665  13.084  1.00  0.00     0.041 C 
ATOM     13  O   UNL     1      57.103   2.702  11.859  1.00  0.00    -0.550 OA
ATOM     14  O   UNL     1      58.217   3.643  13.624  1.00  0.00    -0.550 OA
ENDBRANCH  11  12
ENDBRANCH  10  11
ENDBRANCH   9  10
ENDBRANCH   8   9
ENDBRANCH   7   8
ENDBRANCH   6   7
ENDBRANCH   5   6
ENDBRANCH   4   5
ENDBRANCH   3   4
ENDBRANCH   2   3
ENDBRANCH   1   2
BRANCH   1  15
ATOM     15  C   UNL     1      56.241  -1.989  14.621  1.00  0.00     0.000 C 
BRANCH  15  16
ATOM     16  C   UNL     1      57.579  -1.609  15.285  1.00  0.00     0.000 C 
BRANCH  16  17
ATOM     17  C   UNL     1      57.468  -1.087  16.732  1.00  0.00     0.000 C 
BRANCH  17  18
ATOM     18  C   UNL     1      56.091  -0.513  17.112  1.00  0.00    -0.000 C 
BRANCH  18  19
ATOM     19  C   UNL     1      55.643  -0.924  18.522  1.00  0.00    -0.000 C 
BRANCH  19  20
ATOM     20  C   UNL     1      56.849  -1.272  19.403  1.00  0.00    -0.000 C 
BRANCH  20  21
ATOM     21  C   UNL     1      56.439  -2.188  20.562  1.00  0.00    -0.000 C 
BRANCH  21  22
ATOM     22  C   UNL     1      57.502  -3.267  20.816  1.00  0.00    -0.000 C 
BRANCH  22  23
ATOM     23  C   UNL     1      58.830  -2.973  20.100  1.00  0.00    -0.000 C 
BRANCH  23  24
ATOM     24  C   UNL     1      59.764  -4.194  20.058  1.00  0.00    -0.000 C 
BRANCH  24  25
ATOM     25  C   UNL     1      61.073  -3.961  20.829  1.00  0.00    -0.003 C 
ATOM     26  C   UNL     1      60.869  -3.909  22.344  1.00  0.00     0.004 C 
ENDBRANCH  24  25
ENDBRANCH  23  24
ENDBRANCH  22  23
ENDBRANCH  21  22
ENDBRANCH  20  21
ENDBRANCH  19  20
ENDBRANCH  18  19
ENDBRANCH  17  18
ENDBRANCH  16  17
ENDBRANCH  15  16
ENDBRANCH   1  15
TORSDOF 22
ENDMDL
MODEL 5
REMARK VINA RESULT:    -4.649      3.471      9.578
REMARK INTER + INTRA:         -13.535
REMARK INTER:                 -10.996
REMARK INTRA:                  -2.538
REMARK UNBOUND:                -2.907
REMARK SMILES CCCCCCCCCCCCCCCCCCCCCCCC(=O)[O-]
REMARK SMILES IDX 13 1 14 2 15 3 16 4 17 5 18 6 19 7 20 8 21 9 22 10 23 11
REMARK SMILES IDX 24 12 25 13 26 14 12 15 11 16 10 17 9 18 8 19 7 20 6 21 5 22
REMARK SMILES IDX 4 23 3 24 2 25 1 26
REMARK H PARENT
REMARK Flexibility Score: inf
ROOT
ATOM      1  C   UNL     1      60.172  -3.491  20.549  1.00  0.00     0.000 C 
ENDROOT
BRANCH   1   2
ATOM      2  C   UNL     1      60.147  -4.009  21.996  1.00  0.00     0.000 C 
BRANCH   2   3
ATOM      3  C   UNL     1      60.229  -2.878  23.038  1.00  0.00     0.000 C 
BRANCH   3   4
ATOM      4  C   UNL     1      60.643  -3.321  24.457  1.00  0.00     0.000 C 
BRANCH   4   5
ATOM      5  C   UNL     1      60.516  -4.832  24.732  1.00  0.00     0.000 C 
BRANCH   5   6
ATOM      6  C   UNL     1      61.408  -5.365  25.871  1.00  0.00     0.000 C 
BRANCH   6   7
ATOM      7  C   UNL     1      61.712  -6.872  25.811  1.00  0.00     0.000 C 
BRANCH   7   8
ATOM      8  C   UNL     1      62.969  -7.196  24.991  1.00  0.00     0.000 C 
BRANCH   8   9
ATOM      9  C   UNL     1      63.902  -5.979  24.909  1.00  0.00     0.000 C 
BRANCH   9  10
ATOM     10  C   UNL     1      64.520  -5.786  23.513  1.00  0.00     0.006 C 
BRANCH  10  11
ATOM     11  C   UNL     1      63.537  -5.234  22.464  1.00  0.00     0.053 C 
BRANCH  11  12
ATOM     12  C   UNL     1      63.933  -3.881  21.957  1.00  0.00     0.041 C 
ATOM     13  O   UNL     1      63.560  -2.840  22.561  1.00  0.00    -0.550 OA
ATOM     14  O   UNL     1      64.743  -3.768  20.834  1.00  0.00    -0.550 OA
ENDBRANCH  11  12
ENDBRANCH  10  11
ENDBRANCH   9  10
ENDBRANCH   8   9
ENDBRANCH   7   8
ENDBRANCH   6   7
ENDBRANCH   5   6
ENDBRANCH   4   5
ENDBRANCH   3   4
ENDBRANCH   2   3
ENDBRANCH   1   2
BRANCH   1  15
ATOM     15  C   UNL     1      58.798  -3.579  19.859  1.00  0.00     0.000 C 
BRANCH  15  16
ATOM     16  C   UNL     1      57.611  -3.870  20.799  1.00  0.00     0.000 C 
BRANCH  16  17
ATOM     17  C   UNL     1      56.539  -2.764  20.862  1.00  0.00     0.000 C 
BRANCH  17  18
ATOM     18  C   UNL     1      57.019  -1.427  21.454  1.00  0.00    -0.000 C 
BRANCH  18  19
ATOM     19  C   UNL     1      57.256  -0.351  20.382  1.00  0.00    -0.000 C 
BRANCH  19  20
ATOM     20  C   UNL     1      56.467  -0.664  19.105  1.00  0.00    -0.000 C 
BRANCH  20  21
ATOM     21  C   UNL     1      57.196  -0.136  17.864  1.00  0.00    -0.000 C 
BRANCH  21  22
ATOM     22  C   UNL     1      57.611  -1.287  16.936  1.00  0.00    -0.000 C 
BRANCH  22  23
ATOM     23  C   UNL     1      57.418  -0.952  15.448  1.00  0.00    -0.000 C 
BRANCH  23  24
ATOM     24  C   UNL     1      57.198  -2.203  14.582  1.00  0.00    -0.000 C 
BRANCH  24  25
ATOM     25  C   UNL     1      55.729  -2.381  14.165  1.00  0.00    -0.003 C 
ATOM     26  C   UNL     1      55.380  -3.829  13.822  1.00  0.00     0.004 C 
ENDBRANCH  24  25
ENDBRANCH  23  24
ENDBRANCH  22  23
ENDBRANCH  21  22
ENDBRANCH  20  21
ENDBRANCH  19  20
ENDBRANCH  18  19
ENDBRANCH  17  18
ENDBRANCH  16  17
ENDBRANCH  15  16
ENDBRANCH   1  15
TORSDOF 22
ENDMDL
MODEL 6
REMARK VINA RESULT:    -4.622      4.508     11.574
REMARK INTER + INTRA:         -13.473
REMARK INTER:                 -10.477
REMARK INTRA:                  -2.997
REMARK UNBOUND:                -2.907
REMARK SMILES CCCCCCCCCCCCCCCCCCCCCCCC(=O)[O-]
REMARK SMILES IDX 13 1 14 2 15 3 16 4 17 5 18 6 19 7 20 8 21 9 22 10 23 11
REMARK SMILES IDX 24 12 25 13 26 14 12 15 11 16 10 17 9 18 8 19 7 20 6 21 5 22
REMARK SMILES IDX 4 23 3 24 2 25 1 26
REMARK H PARENT
REMARK Flexibility Score: inf
ROOT
ATOM      1  C   UNL     1      56.742  -2.429  14.993  1.00  0.00     0.000 C 
ENDROOT
BRANCH   1   2
ATOM      2  C   UNL     1      57.595  -1.155  14.879  1.00  0.00     0.000 C 
BRANCH   2   3
ATOM      3  C   UNL     1      56.998   0.037  15.651  1.00  0.00     0.000 C 
BRANCH   3   4
ATOM      4  C   UNL     1      55.484   0.255  15.454  1.00  0.00     0.000 C 
BRANCH   4   5
ATOM      5  C   UNL     1      54.592  -0.295  16.585  1.00  0.00     0.000 C 
BRANCH   5   6
ATOM      6  C   UNL     1      54.334   0.686  17.746  1.00  0.00     0.000 C 
BRANCH   6   7
ATOM      7  C   UNL     1      55.286   0.540  18.946  1.00  0.00     0.000 C 
BRANCH   7   8
ATOM      8  C   UNL     1      55.916  -0.857  19.043  1.00  0.00     0.000 C 
BRANCH   8   9
ATOM      9  C   UNL     1      57.382  -0.771  19.487  1.00  0.00     0.000 C 
BRANCH   9  10
ATOM     10  C   UNL     1      58.301  -1.745  18.728  1.00  0.00     0.006 C 
BRANCH  10  11
ATOM     11  C   UNL     1      59.049  -2.736  19.639  1.00  0.00     0.053 C 
BRANCH  11  12
ATOM     12  C   UNL     1      58.266  -3.101  20.863  1.00  0.00     0.041 C 
ATOM     13  O   UNL     1      57.352  -3.965  20.800  1.00  0.00    -0.550 OA
ATOM     14  O   UNL     1      58.566  -2.508  22.084  1.00  0.00    -0.550 OA
ENDBRANCH  11  12
ENDBRANCH  10  11
ENDBRANCH   9  10
ENDBRANCH   8   9
ENDBRANCH   7   8
ENDBRANCH   6   7
ENDBRANCH   5   6
ENDBRANCH   4   5
ENDBRANCH   3   4
ENDBRANCH   2   3
ENDBRANCH   1   2
BRANCH   1  15
ATOM     15  C   UNL     1      56.917  -3.374  13.790  1.00  0.00     0.000 C 
BRANCH  15  16
ATOM     16  C   UNL     1      55.684  -3.503  12.873  1.00  0.00     0.000 C 
BRANCH  16  17
ATOM     17  C   UNL     1      54.461  -2.665  13.298  1.00  0.00     0.000 C 
BRANCH  17  18
ATOM     18  C   UNL     1      53.134  -3.442  13.366  1.00  0.00    -0.000 C 
BRANCH  18  19
ATOM     19  C   UNL     1      52.885  -4.308  12.123  1.00  0.00    -0.000 C 
BRANCH  19  20
ATOM     20  C   UNL     1      51.638  -3.838  11.365  1.00  0.00    -0.000 C 
BRANCH  20  21
ATOM     21  C   UNL     1      51.993  -3.397   9.940  1.00  0.00    -0.000 C 
BRANCH  21  22
ATOM     22  C   UNL     1      52.792  -2.086   9.950  1.00  0.00    -0.000 C 
BRANCH  22  23
ATOM     23  C   UNL     1      51.953  -0.874   9.512  1.00  0.00    -0.000 C 
BRANCH  23  24
ATOM     24  C   UNL     1      52.030   0.293  10.510  1.00  0.00    -0.000 C 
BRANCH  24  25
ATOM     25  C   UNL     1      52.052  -0.182  11.971  1.00  0.00    -0.003 C 
ATOM     26  C   UNL     1      52.707   0.827  12.915  1.00  0.00     0.004 C 
ENDBRANCH  24  25
ENDBRANCH  23  24
ENDBRANCH  22  23
ENDBRANCH  21  22
ENDBRANCH  20  21
ENDBRANCH  19  20
ENDBRANCH  18  19
ENDBRANCH  17  18
ENDBRANCH  16  17
ENDBRANCH  15  16
ENDBRANCH   1  15
TORSDOF 22
ENDMDL
MODEL 7
REMARK VINA RESULT:    -4.594      4.200     11.374
REMARK INTER + INTRA:         -13.409
REMARK INTER:                 -10.404
REMARK INTRA:                  -3.005
REMARK UNBOUND:                -2.907
REMARK SMILES CCCCCCCCCCCCCCCCCCCCCCCC(=O)[O-]
REMARK SMILES IDX 13 1 14 2 15 3 16 4 17 5 18 6 19 7 20 8 21 9 22 10 23 11
REMARK SMILES IDX 24 12 25 13 26 14 12 15 11 16 10 17 9 18 8 19 7 20 6 21 5 22
REMARK SMILES IDX 4 23 3 24 2 25 1 26
REMARK H PARENT
REMARK Flexibility Score: inf
ROOT
ATOM      1  C   UNL     1      54.248  -3.193  13.380  1.00  0.00     0.000 C 
ENDROOT
BRANCH   1   2
ATOM      2  C   UNL     1      55.453  -4.073  13.752  1.00  0.00     0.000 C 
BRANCH   2   3
ATOM      3  C   UNL     1      56.712  -3.252  14.088  1.00  0.00     0.000 C 
BRANCH   3   4
ATOM      4  C   UNL     1      56.446  -1.864  14.705  1.00  0.00     0.000 C 
BRANCH   4   5
ATOM      5  C   UNL     1      57.631  -1.258  15.484  1.00  0.00     0.000 C 
BRANCH   5   6
ATOM      6  C   UNL     1      57.242  -0.474  16.753  1.00  0.00     0.000 C 
BRANCH   6   7
ATOM      7  C   UNL     1      55.851  -0.802  17.323  1.00  0.00     0.000 C 
BRANCH   7   8
ATOM      8  C   UNL     1      55.855  -0.974  18.848  1.00  0.00     0.000 C 
BRANCH   8   9
ATOM      9  C   UNL     1      57.289  -1.026  19.394  1.00  0.00     0.000 C 
BRANCH   9  10
ATOM     10  C   UNL     1      57.614  -2.348  20.111  1.00  0.00     0.006 C 
BRANCH  10  11
ATOM     11  C   UNL     1      58.970  -2.959  19.712  1.00  0.00     0.053 C 
BRANCH  11  12
ATOM     12  C   UNL     1      59.897  -3.118  20.878  1.00  0.00     0.041 C 
ATOM     13  O   UNL     1      60.715  -4.076  20.915  1.00  0.00    -0.550 OA
ATOM     14  O   UNL     1      59.882  -2.190  21.912  1.00  0.00    -0.550 OA
ENDBRANCH  11  12
ENDBRANCH  10  11
ENDBRANCH   9  10
ENDBRANCH   8   9
ENDBRANCH   7   8
ENDBRANCH   6   7
ENDBRANCH   5   6
ENDBRANCH   4   5
ENDBRANCH   3   4
ENDBRANCH   2   3
ENDBRANCH   1   2
BRANCH   1  15
ATOM     15  C   UNL     1      53.287  -3.883  12.395  1.00  0.00     0.000 C 
BRANCH  15  16
ATOM     16  C   UNL     1      51.790  -3.604  12.636  1.00  0.00     0.000 C 
BRANCH  16  17
ATOM     17  C   UNL     1      51.219  -2.388  11.880  1.00  0.00     0.000 C 
BRANCH  17  18
ATOM     18  C   UNL     1      51.852  -2.125  10.501  1.00  0.00    -0.000 C 
BRANCH  18  19
ATOM     19  C   UNL     1      52.489  -0.731  10.394  1.00  0.00    -0.000 C 
BRANCH  19  20
ATOM     20  C   UNL     1      52.170   0.116  11.630  1.00  0.00    -0.000 C 
BRANCH  20  21
ATOM     21  C   UNL     1      53.450   0.682  12.257  1.00  0.00    -0.000 C 
BRANCH  21  22
ATOM     22  C   UNL     1      53.514   0.368  13.759  1.00  0.00    -0.000 C 
BRANCH  22  23
ATOM     23  C   UNL     1      54.612   1.162  14.486  1.00  0.00    -0.000 C 
BRANCH  23  24
ATOM     24  C   UNL     1      55.423   2.060  13.536  1.00  0.00    -0.000 C 
BRANCH  24  25
ATOM     25  C   UNL     1      56.939   1.879  13.706  1.00  0.00    -0.003 C 
ATOM     26  C   UNL     1      57.565   2.935  14.618  1.00  0.00     0.004 C 
ENDBRANCH  24  25
ENDBRANCH  23  24
ENDBRANCH  22  23
ENDBRANCH  21  22
ENDBRANCH  20  21
ENDBRANCH  19  20
ENDBRANCH  18  19
ENDBRANCH  17  18
ENDBRANCH  16  17
ENDBRANCH  15  16
ENDBRANCH   1  15
TORSDOF 22
ENDMDL
MODEL 8
REMARK VINA RESULT:    -4.579      8.098     10.380
REMARK INTER + INTRA:         -13.374
REMARK INTER:                 -10.132
REMARK INTRA:                  -3.242
REMARK UNBOUND:                -2.907
REMARK SMILES CCCCCCCCCCCCCCCCCCCCCCCC(=O)[O-]
REMARK SMILES IDX 13 1 14 2 15 3 16 4 17 5 18 6 19 7 20 8 21 9 22 10 23 11
REMARK SMILES IDX 24 12 25 13 26 14 12 15 11 16 10 17 9 18 8 19 7 20 6 21 5 22
REMARK SMILES IDX 4 23 3 24 2 25 1 26
REMARK H PARENT
REMARK Flexibility Score: inf
ROOT
ATOM      1  C   UNL     1      55.847   2.500  12.211  1.00  0.00     0.000 C 
ENDROOT
BRANCH   1   2
ATOM      2  C   UNL     1      54.954   3.742  12.361  1.00  0.00     0.000 C 
BRANCH   2   3
ATOM      3  C   UNL     1      53.640   3.449  13.109  1.00  0.00     0.000 C 
BRANCH   3   4
ATOM      4  C   UNL     1      53.339   1.955  13.346  1.00  0.00     0.000 C 
BRANCH   4   5
ATOM      5  C   UNL     1      52.011   1.453  12.743  1.00  0.00     0.000 C 
BRANCH   5   6
ATOM      6  C   UNL     1      52.060   1.133  11.235  1.00  0.00     0.000 C 
BRANCH   6   7
ATOM      7  C   UNL     1      52.006  -0.364  10.885  1.00  0.00     0.000 C 
BRANCH   7   8
ATOM      8  C   UNL     1      52.538  -1.261  12.012  1.00  0.00     0.000 C 
BRANCH   8   9
ATOM      9  C   UNL     1      51.749  -2.576  12.089  1.00  0.00     0.000 C 
BRANCH   9  10
ATOM     10  C   UNL     1      52.140  -3.580  10.990  1.00  0.00     0.006 C 
BRANCH  10  11
ATOM     11  C   UNL     1      53.588  -3.426  10.489  1.00  0.00     0.053 C 
BRANCH  11  12
ATOM     12  C   UNL     1      53.695  -3.511   8.997  1.00  0.00     0.041 C 
ATOM     13  O   UNL     1      53.102  -2.672   8.268  1.00  0.00    -0.550 OA
ATOM     14  O   UNL     1      54.476  -4.498   8.410  1.00  0.00    -0.550 OA
ENDBRANCH  11  12
ENDBRANCH  10  11
ENDBRANCH   9  10
ENDBRANCH   8   9
ENDBRANCH   7   8
ENDBRANCH   6   7
ENDBRANCH   5   6
ENDBRANCH   4   5
ENDBRANCH   3   4
ENDBRANCH   2   3
ENDBRANCH   1   2
BRANCH   1  15
ATOM     15  C   UNL     1      57.331   2.794  12.497  1.00  0.00     0.000 C 
BRANCH  15  16
ATOM     16  C   UNL     1      57.593   3.977  13.450  1.00  0.00     0.000 C 
BRANCH  16  17
ATOM     17  C   UNL     1      58.533   3.670  14.633  1.00  0.00     0.000 C 
BRANCH  17  18
ATOM     18  C   UNL     1      57.823   3.264  15.938  1.00  0.00    -0.000 C 
BRANCH  18  19
ATOM     19  C   UNL     1      56.296   3.400  15.852  1.00  0.00    -0.000 C 
BRANCH  19  20
ATOM     20  C   UNL     1      55.604   2.086  16.235  1.00  0.00    -0.000 C 
BRANCH  20  21
ATOM     21  C   UNL     1      56.539   0.890  16.026  1.00  0.00    -0.000 C 
BRANCH  21  22
ATOM     22  C   UNL     1      56.057   0.009  14.865  1.00  0.00    -0.000 C 
BRANCH  22  23
ATOM     23  C   UNL     1      56.046  -1.488  15.218  1.00  0.00    -0.000 C 
BRANCH  23  24
ATOM     24  C   UNL     1      57.210  -2.258  14.572  1.00  0.00    -0.000 C 
BRANCH  24  25
ATOM     25  C   UNL     1      56.740  -3.508  13.811  1.00  0.00    -0.003 C 
ATOM     26  C   UNL     1      55.217  -3.632  13.758  1.00  0.00     0.004 C 
ENDBRANCH  24  25
ENDBRANCH  23  24
ENDBRANCH  22  23
ENDBRANCH  21  22
ENDBRANCH  20  21
ENDBRANCH  19  20
ENDBRANCH  18  19
ENDBRANCH  17  18
ENDBRANCH  16  17
ENDBRANCH  15  16
ENDBRANCH   1  15
TORSDOF 22
ENDMDL
MODEL 9
REMARK VINA RESULT:    -4.555      7.395     11.448
REMARK INTER + INTRA:         -13.320
REMARK INTER:                  -9.445
REMARK INTRA:                  -3.875
REMARK UNBOUND:                -2.907
REMARK SMILES CCCCCCCCCCCCCCCCCCCCCCCC(=O)[O-]
REMARK SMILES IDX 13 1 14 2 15 3 16 4 17 5 18 6 19 7 20 8 21 9 22 10 23 11
REMARK SMILES IDX 24 12 25 13 26 14 12 15 11 16 10 17 9 18 8 19 7 20 6 21 5 22
REMARK SMILES IDX 4 23 3 24 2 25 1 26
REMARK H PARENT
REMARK Flexibility Score: inf
ROOT
ATOM      1  C   UNL     1      57.519  -1.317  15.265  1.00  0.00     0.000 C 
ENDROOT
BRANCH   1   2
ATOM      2  C   UNL     1      57.249  -0.767  16.675  1.00  0.00     0.000 C 
BRANCH   2   3
ATOM      3  C   UNL     1      55.827  -1.078  17.177  1.00  0.00     0.000 C 
BRANCH   3   4
ATOM      4  C   UNL     1      55.158   0.046  17.993  1.00  0.00     0.000 C 
BRANCH   4   5
ATOM      5  C   UNL     1      53.857   0.609  17.386  1.00  0.00     0.000 C 
BRANCH   5   6
ATOM      6  C   UNL     1      53.998   1.180  15.961  1.00  0.00     0.000 C 
BRANCH   6   7
ATOM      7  C   UNL     1      54.233   2.699  15.887  1.00  0.00     0.000 C 
BRANCH   7   8
ATOM      8  C   UNL     1      55.214   3.098  14.776  1.00  0.00     0.000 C 
BRANCH   8   9
ATOM      9  C   UNL     1      55.854   1.860  14.134  1.00  0.00     0.000 C 
BRANCH   9  10
ATOM     10  C   UNL     1      57.363   2.024  13.878  1.00  0.00     0.006 C 
BRANCH  10  11
ATOM     11  C   UNL     1      57.807   3.484  13.673  1.00  0.00     0.053 C 
BRANCH  11  12
ATOM     12  C   UNL     1      58.809   3.932  14.693  1.00  0.00     0.041 C 
ATOM     13  O   UNL     1      59.793   4.640  14.350  1.00  0.00    -0.550 OA
ATOM     14  O   UNL     1      58.642   3.592  16.030  1.00  0.00    -0.550 OA
ENDBRANCH  11  12
ENDBRANCH  10  11
ENDBRANCH   9  10
ENDBRANCH   8   9
ENDBRANCH   7   8
ENDBRANCH   6   7
ENDBRANCH   5   6
ENDBRANCH   4   5
ENDBRANCH   3   4
ENDBRANCH   2   3
ENDBRANCH   1   2
BRANCH   1  15
ATOM     15  C   UNL     1      56.229  -1.695  14.515  1.00  0.00     0.000 C 
BRANCH  15  16
ATOM     16  C   UNL     1      56.126  -3.174  14.092  1.00  0.00     0.000 C 
BRANCH  16  17
ATOM     17  C   UNL     1      54.828  -3.555  13.352  1.00  0.00     0.000 C 
BRANCH  17  18
ATOM     18  C   UNL     1      53.737  -2.469  13.352  1.00  0.00    -0.000 C 
BRANCH  18  19
ATOM     19  C   UNL     1      53.050  -2.313  11.987  1.00  0.00    -0.000 C 
BRANCH  19  20
ATOM     20  C   UNL     1      52.220  -1.026  11.932  1.00  0.00    -0.000 C 
BRANCH  20  21
ATOM     21  C   UNL     1      52.993   0.155  12.530  1.00  0.00    -0.000 C 
BRANCH  21  22
ATOM     22  C   UNL     1      52.063   1.348  12.792  1.00  0.00    -0.000 C 
BRANCH  22  23
ATOM     23  C   UNL     1      52.054   2.361  11.635  1.00  0.00    -0.000 C 
BRANCH  23  24
ATOM     24  C   UNL     1      52.928   3.594  11.919  1.00  0.00    -0.000 C 
BRANCH  24  25
ATOM     25  C   UNL     1      54.300   3.514  11.231  1.00  0.00    -0.003 C 
ATOM     26  C   UNL     1      54.242   2.825   9.867  1.00  0.00     0.004 C 
ENDBRANCH  24  25
ENDBRANCH  23  24
ENDBRANCH  22  23
ENDBRANCH  21  22
ENDBRANCH  20  21
ENDBRANCH  19  20
ENDBRANCH  18  19
ENDBRANCH  17  18
ENDBRANCH  16  17
ENDBRANCH  15  16
ENDBRANCH   1  15
TORSDOF 22
ENDMDL
