MODEL 1
REMARK VINA RESULT:    -7.072      0.000      0.000
REMARK INTER + INTRA:          -8.848
REMARK INTER:                  -8.519
REMARK INTRA:                  -0.329
REMARK UNBOUND:                -0.329
REMARK SMILES O=c1c(O)c(-c2ccc(O)c(O)c2)oc2cc(O)cc(O)c12
REMARK SMILES IDX 5 1 3 2 2 3 1 4 22 5 20 6 19 7 17 8 16 9 15 10 14 11 6 12
REMARK SMILES IDX 7 13 8 14 9 15 13 16 11 17 10 18 12 20 4 22 21 24 18 26
REMARK H PARENT 10 19 12 21 4 23 21 25 18 27
REMARK Flexibility Score: inf
ROOT
ATOM      1  C   UNL     1       9.731  11.519 -16.045  1.00  0.00     0.180 A 
ATOM      2  C   UNL     1      10.364  10.311 -16.395  1.00  0.00     0.208 A 
ATOM      3  C   UNL     1      10.019   9.139 -15.704  1.00  0.00     0.238 A 
ATOM      4  O   UNL     1      10.571   8.049 -16.016  1.00  0.00    -0.285 OA
ATOM      5  C   UNL     1       9.069   9.198 -14.664  1.00  0.00     0.111 A 
ATOM      6  C   UNL     1       8.669   8.064 -13.915  1.00  0.00     0.134 A 
ATOM      7  C   UNL     1       7.723   8.207 -12.889  1.00  0.00     0.093 A 
ATOM      8  C   UNL     1       7.170   9.455 -12.598  1.00  0.00     0.123 A 
ATOM      9  C   UNL     1       7.560  10.579 -13.335  1.00  0.00     0.094 A 
ATOM     10  C   UNL     1       8.501  10.458 -14.362  1.00  0.00     0.146 A 
ATOM     11  O   UNL     1       8.850  11.539 -15.050  1.00  0.00    -0.452 OA
ENDROOT
BRANCH   1  12
ATOM     12  C   UNL     1      10.026  12.793 -16.741  1.00  0.00     0.025 A 
ATOM     13  C   UNL     1      10.937  13.696 -16.171  1.00  0.00     0.016 A 
ATOM     14  C   UNL     1      11.216  14.912 -16.798  1.00  0.00     0.051 A 
ATOM     15  C   UNL     1      10.576  15.251 -17.998  1.00  0.00     0.157 A 
ATOM     16  C   UNL     1       9.370  13.145 -17.934  1.00  0.00     0.062 A 
ATOM     17  C   UNL     1       9.645  14.364 -18.564  1.00  0.00     0.158 A 
BRANCH  15  18
ATOM     18  O   UNL     1      10.856  16.465 -18.624  1.00  0.00    -0.504 OA
ATOM     19  H   UNL     1      10.118  17.069 -18.966  1.00  0.00     0.293 HD
ENDBRANCH  15  18
BRANCH  17  20
ATOM     20  O   UNL     1       8.980  14.678 -19.750  1.00  0.00    -0.504 OA
ATOM     21  H   UNL     1       8.899  15.630 -20.085  1.00  0.00     0.293 HD
ENDBRANCH  17  20
ENDBRANCH   1  12
BRANCH   2  22
ATOM     22  O   UNL     1      11.338  10.289 -17.397  1.00  0.00    -0.502 OA
ATOM     23  H   UNL     1      11.239  10.807 -18.262  1.00  0.00     0.293 HD
ENDBRANCH   2  22
BRANCH   6  24
ATOM     24  O   UNL     1       9.203   6.803 -14.182  1.00  0.00    -0.507 OA
ATOM     25  H   UNL     1       9.216   6.417 -15.120  1.00  0.00     0.293 HD
ENDBRANCH   6  24
BRANCH   8  26
ATOM     26  O   UNL     1       6.233   9.569 -11.574  1.00  0.00    -0.508 OA
ATOM     27  H   UNL     1       5.497  10.266 -11.603  1.00  0.00     0.293 HD
ENDBRANCH   8  26
TORSDOF 6
ENDMDL
MODEL 2
REMARK VINA RESULT:    -6.980      3.543      6.510
REMARK INTER + INTRA:          -8.737
REMARK INTER:                  -8.526
REMARK INTRA:                  -0.211
REMARK UNBOUND:                -0.329
REMARK SMILES O=c1c(O)c(-c2ccc(O)c(O)c2)oc2cc(O)cc(O)c12
REMARK SMILES IDX 5 1 3 2 2 3 1 4 22 5 20 6 19 7 17 8 16 9 15 10 14 11 6 12
REMARK SMILES IDX 7 13 8 14 9 15 13 16 11 17 10 18 12 20 4 22 21 24 18 26
REMARK H PARENT 10 19 12 21 4 23 21 25 18 27
REMARK Flexibility Score: inf
ROOT
ATOM      1  C   UNL     1       8.305  16.043 -19.043  1.00  0.00     0.180 A 
ATOM      2  C   UNL     1       8.418  15.698 -20.403  1.00  0.00     0.208 A 
ATOM      3  C   UNL     1       8.791  14.388 -20.742  1.00  0.00     0.238 A 
ATOM      4  O   UNL     1       8.885  14.064 -21.958  1.00  0.00    -0.285 OA
ATOM      5  C   UNL     1       9.067  13.457 -19.721  1.00  0.00     0.111 A 
ATOM      6  C   UNL     1       9.454  12.118 -19.977  1.00  0.00     0.134 A 
ATOM      7  C   UNL     1       9.720  11.253 -18.905  1.00  0.00     0.093 A 
ATOM      8  C   UNL     1       9.606  11.697 -17.587  1.00  0.00     0.123 A 
ATOM      9  C   UNL     1       9.224  13.018 -17.327  1.00  0.00     0.094 A 
ATOM     10  C   UNL     1       8.953  13.895 -18.381  1.00  0.00     0.146 A 
ATOM     11  O   UNL     1       8.586  15.142 -18.107  1.00  0.00    -0.452 OA
ENDROOT
BRANCH   1  12
ATOM     12  C   UNL     1       7.897  17.398 -18.606  1.00  0.00     0.025 A 
ATOM     13  C   UNL     1       6.624  17.588 -18.044  1.00  0.00     0.016 A 
ATOM     14  C   UNL     1       6.209  18.860 -17.643  1.00  0.00     0.051 A 
ATOM     15  C   UNL     1       7.055  19.964 -17.812  1.00  0.00     0.157 A 
ATOM     16  C   UNL     1       8.735  18.512 -18.792  1.00  0.00     0.062 A 
ATOM     17  C   UNL     1       8.321  19.788 -18.394  1.00  0.00     0.158 A 
BRANCH  15  18
ATOM     18  O   UNL     1       6.640  21.233 -17.410  1.00  0.00    -0.504 OA
ATOM     19  H   UNL     1       5.734  21.603 -17.673  1.00  0.00     0.293 HD
ENDBRANCH  15  18
BRANCH  17  20
ATOM     20  O   UNL     1       9.181  20.870 -18.589  1.00  0.00    -0.504 OA
ATOM     21  H   UNL     1       8.912  21.819 -18.359  1.00  0.00     0.293 HD
ENDBRANCH  17  20
ENDBRANCH   1  12
BRANCH   2  22
ATOM     22  O   UNL     1       8.187  16.655 -21.395  1.00  0.00    -0.502 OA
ATOM     23  H   UNL     1       8.063  16.407 -22.370  1.00  0.00     0.293 HD
ENDBRANCH   2  22
BRANCH   6  24
ATOM     24  O   UNL     1       9.577  11.645 -21.285  1.00  0.00    -0.507 OA
ATOM     25  H   UNL     1       9.301  10.703 -21.538  1.00  0.00     0.293 HD
ENDBRANCH   6  24
BRANCH   8  26
ATOM     26  O   UNL     1       9.876  10.818 -16.541  1.00  0.00    -0.508 OA
ATOM     27  H   UNL     1      10.805  10.735 -16.144  1.00  0.00     0.293 HD
ENDBRANCH   8  26
TORSDOF 6
ENDMDL
MODEL 3
REMARK VINA RESULT:    -6.805      2.848      7.471
REMARK INTER + INTRA:          -8.526
REMARK INTER:                  -8.338
REMARK INTRA:                  -0.188
REMARK UNBOUND:                -0.329
REMARK SMILES O=c1c(O)c(-c2ccc(O)c(O)c2)oc2cc(O)cc(O)c12
REMARK SMILES IDX 5 1 3 2 2 3 1 4 22 5 20 6 19 7 17 8 16 9 15 10 14 11 6 12
REMARK SMILES IDX 7 13 8 14 9 15 13 16 11 17 10 18 12 20 4 22 21 24 18 26
REMARK H PARENT 10 19 12 21 4 23 21 25 18 27
REMARK Flexibility Score: inf
ROOT
ATOM      1  C   UNL     1       7.480   8.261 -14.824  1.00  0.00     0.180 A 
ATOM      2  C   UNL     1       7.081   8.658 -13.533  1.00  0.00     0.208 A 
ATOM      3  C   UNL     1       7.410   9.948 -13.088  1.00  0.00     0.238 A 
ATOM      4  O   UNL     1       7.048  10.318 -11.938  1.00  0.00    -0.285 OA
ATOM      5  C   UNL     1       8.148  10.807 -13.927  1.00  0.00     0.111 A 
ATOM      6  C   UNL     1       8.525  12.120 -13.552  1.00  0.00     0.134 A 
ATOM      7  C   UNL     1       9.267  12.911 -14.441  1.00  0.00     0.093 A 
ATOM      8  C   UNL     1       9.640  12.418 -15.693  1.00  0.00     0.123 A 
ATOM      9  C   UNL     1       9.271  11.122 -16.069  1.00  0.00     0.094 A 
ATOM     10  C   UNL     1       8.530  10.318 -15.199  1.00  0.00     0.146 A 
ATOM     11  O   UNL     1       8.188   9.093 -15.582  1.00  0.00    -0.452 OA
ENDROOT
BRANCH   1  12
ATOM     12  C   UNL     1       7.154   6.925 -15.372  1.00  0.00     0.025 A 
ATOM     13  C   UNL     1       6.229   6.817 -16.423  1.00  0.00     0.016 A 
ATOM     14  C   UNL     1       5.890   5.566 -16.943  1.00  0.00     0.051 A 
ATOM     15  C   UNL     1       6.459   4.402 -16.410  1.00  0.00     0.157 A 
ATOM     16  C   UNL     1       7.708   5.753 -14.826  1.00  0.00     0.062 A 
ATOM     17  C   UNL     1       7.369   4.497 -15.343  1.00  0.00     0.158 A 
BRANCH  15  18
ATOM     18  O   UNL     1       6.121   3.153 -16.931  1.00  0.00    -0.504 OA
ATOM     19  H   UNL     1       6.825   2.450 -17.122  1.00  0.00     0.293 HD
ENDBRANCH  15  18
BRANCH  17  20
ATOM     20  O   UNL     1       7.942   3.356 -14.781  1.00  0.00    -0.504 OA
ATOM     21  H   UNL     1       8.039   3.241 -13.780  1.00  0.00     0.293 HD
ENDBRANCH  17  20
ENDBRANCH   1  12
BRANCH   2  22
ATOM     22  O   UNL     1       6.393   7.769 -12.703  1.00  0.00    -0.502 OA
ATOM     23  H   UNL     1       5.971   6.916 -13.051  1.00  0.00     0.293 HD
ENDBRANCH   2  22
BRANCH   6  24
ATOM     24  O   UNL     1       8.167  12.642 -12.308  1.00  0.00    -0.507 OA
ATOM     25  H   UNL     1       8.743  12.501 -11.486  1.00  0.00     0.293 HD
ENDBRANCH   6  24
BRANCH   8  26
ATOM     26  O   UNL     1      10.379  13.223 -16.556  1.00  0.00    -0.508 OA
ATOM     27  H   UNL     1      10.305  13.129 -17.563  1.00  0.00     0.293 HD
ENDBRANCH   8  26
TORSDOF 6
ENDMDL
MODEL 4
REMARK VINA RESULT:    -6.712      1.677      7.264
REMARK INTER + INTRA:          -8.415
REMARK INTER:                  -8.084
REMARK INTRA:                  -0.332
REMARK UNBOUND:                -0.329
REMARK SMILES O=c1c(O)c(-c2ccc(O)c(O)c2)oc2cc(O)cc(O)c12
REMARK SMILES IDX 5 1 3 2 2 3 1 4 22 5 20 6 19 7 17 8 16 9 15 10 14 11 6 12
REMARK SMILES IDX 7 13 8 14 9 15 13 16 11 17 10 18 12 20 4 22 21 24 18 26
REMARK H PARENT 10 19 12 21 4 23 21 25 18 27
REMARK Flexibility Score: inf
ROOT
ATOM      1  C   UNL     1       9.930  12.288 -16.990  1.00  0.00     0.180 A 
ATOM      2  C   UNL     1      10.689  13.385 -16.538  1.00  0.00     0.208 A 
ATOM      3  C   UNL     1      10.691  14.567 -17.296  1.00  0.00     0.238 A 
ATOM      4  O   UNL     1      11.358  15.560 -16.896  1.00  0.00    -0.285 OA
ATOM      5  C   UNL     1       9.957  14.624 -18.499  1.00  0.00     0.111 A 
ATOM      6  C   UNL     1       9.911  15.775 -19.324  1.00  0.00     0.134 A 
ATOM      7  C   UNL     1       9.164  15.750 -20.510  1.00  0.00     0.093 A 
ATOM      8  C   UNL     1       8.464  14.603 -20.889  1.00  0.00     0.123 A 
ATOM      9  C   UNL     1       8.506  13.463 -20.078  1.00  0.00     0.094 A 
ATOM     10  C   UNL     1       9.243  13.467 -18.890  1.00  0.00     0.146 A 
ATOM     11  O   UNL     1       9.262  12.374 -18.136  1.00  0.00    -0.452 OA
ENDROOT
BRANCH   1  12
ATOM     12  C   UNL     1       9.861  11.015 -16.236  1.00  0.00     0.025 A 
ATOM     13  C   UNL     1      10.707   9.954 -16.595  1.00  0.00     0.016 A 
ATOM     14  C   UNL     1      10.645   8.737 -15.912  1.00  0.00     0.051 A 
ATOM     15  C   UNL     1       9.726   8.558 -14.869  1.00  0.00     0.157 A 
ATOM     16  C   UNL     1       8.925  10.825 -15.203  1.00  0.00     0.062 A 
ATOM     17  C   UNL     1       8.859   9.607 -14.518  1.00  0.00     0.158 A 
BRANCH  15  18
ATOM     18  O   UNL     1       9.666   7.344 -14.187  1.00  0.00    -0.504 OA
ATOM     19  H   UNL     1       9.696   6.457 -14.678  1.00  0.00     0.293 HD
ENDBRANCH  15  18
BRANCH  17  20
ATOM     20  O   UNL     1       7.923   9.456 -13.495  1.00  0.00    -0.504 OA
ATOM     21  H   UNL     1       6.942   9.290 -13.684  1.00  0.00     0.293 HD
ENDBRANCH  17  20
ENDBRANCH   1  12
BRANCH   2  22
ATOM     22  O   UNL     1      11.447  13.285 -15.369  1.00  0.00    -0.502 OA
ATOM     23  H   UNL     1      12.279  13.842 -15.212  1.00  0.00     0.293 HD
ENDBRANCH   2  22
BRANCH   6  24
ATOM     24  O   UNL     1      10.599  16.937 -18.973  1.00  0.00    -0.507 OA
ATOM     25  H   UNL     1      10.807  17.659 -19.653  1.00  0.00     0.293 HD
ENDBRANCH   6  24
BRANCH   8  26
ATOM     26  O   UNL     1       7.731  14.604 -22.072  1.00  0.00    -0.508 OA
ATOM     27  H   UNL     1       6.720  14.530 -22.071  1.00  0.00     0.293 HD
ENDBRANCH   8  26
TORSDOF 6
ENDMDL
MODEL 5
REMARK VINA RESULT:    -6.569      1.843      7.353
REMARK INTER + INTRA:          -8.243
REMARK INTER:                  -7.920
REMARK INTRA:                  -0.323
REMARK UNBOUND:                -0.329
REMARK SMILES O=c1c(O)c(-c2ccc(O)c(O)c2)oc2cc(O)cc(O)c12
REMARK SMILES IDX 5 1 3 2 2 3 1 4 22 5 20 6 19 7 17 8 16 9 15 10 14 11 6 12
REMARK SMILES IDX 7 13 8 14 9 15 13 16 11 17 10 18 12 20 4 22 21 24 18 26
REMARK H PARENT 10 19 12 21 4 23 21 25 18 27
REMARK Flexibility Score: inf
ROOT
ATOM      1  C   UNL     1       9.860  12.493 -17.140  1.00  0.00     0.180 A 
ATOM      2  C   UNL     1      10.549  13.617 -16.645  1.00  0.00     0.208 A 
ATOM      3  C   UNL     1      10.540  14.803 -17.396  1.00  0.00     0.238 A 
ATOM      4  O   UNL     1      11.144  15.820 -16.958  1.00  0.00    -0.285 OA
ATOM      5  C   UNL     1       9.866  14.838 -18.634  1.00  0.00     0.111 A 
ATOM      6  C   UNL     1       9.813  15.992 -19.454  1.00  0.00     0.134 A 
ATOM      7  C   UNL     1       9.129  15.944 -20.678  1.00  0.00     0.093 A 
ATOM      8  C   UNL     1       8.498  14.771 -21.097  1.00  0.00     0.123 A 
ATOM      9  C   UNL     1       8.546  13.629 -20.290  1.00  0.00     0.094 A 
ATOM     10  C   UNL     1       9.221  13.655 -19.067  1.00  0.00     0.146 A 
ATOM     11  O   UNL     1       9.247  12.559 -18.318  1.00  0.00    -0.452 OA
ENDROOT
BRANCH   1  12
ATOM     12  C   UNL     1       9.806  11.213 -16.397  1.00  0.00     0.025 A 
ATOM     13  C   UNL     1       8.817  11.024 -15.420  1.00  0.00     0.016 A 
ATOM     14  C   UNL     1       8.758   9.833 -14.692  1.00  0.00     0.051 A 
ATOM     15  C   UNL     1       9.699   8.819 -14.919  1.00  0.00     0.157 A 
ATOM     16  C   UNL     1      10.761  10.202 -16.608  1.00  0.00     0.062 A 
ATOM     17  C   UNL     1      10.708   9.009 -15.879  1.00  0.00     0.158 A 
BRANCH  15  18
ATOM     18  O   UNL     1       9.639   7.631 -14.193  1.00  0.00    -0.504 OA
ATOM     19  H   UNL     1      10.448   7.266 -13.704  1.00  0.00     0.293 HD
ENDBRANCH  15  18
BRANCH  17  20
ATOM     20  O   UNL     1      11.668   8.025 -16.119  1.00  0.00    -0.504 OA
ATOM     21  H   UNL     1      11.511   7.052 -15.886  1.00  0.00     0.293 HD
ENDBRANCH  17  20
ENDBRANCH   1  12
BRANCH   2  22
ATOM     22  O   UNL     1      11.250  13.541 -15.439  1.00  0.00    -0.502 OA
ATOM     23  H   UNL     1      11.030  14.131 -14.645  1.00  0.00     0.293 HD
ENDBRANCH   2  22
BRANCH   6  24
ATOM     24  O   UNL     1      10.434  17.179 -19.064  1.00  0.00    -0.507 OA
ATOM     25  H   UNL     1      10.911  17.775 -19.730  1.00  0.00     0.293 HD
ENDBRANCH   6  24
BRANCH   8  26
ATOM     26  O   UNL     1       7.826  14.751 -22.316  1.00  0.00    -0.508 OA
ATOM     27  H   UNL     1       6.842  14.988 -22.384  1.00  0.00     0.293 HD
ENDBRANCH   8  26
TORSDOF 6
ENDMDL
MODEL 6
REMARK VINA RESULT:    -6.444      1.987      7.201
REMARK INTER + INTRA:          -8.092
REMARK INTER:                  -7.771
REMARK INTRA:                  -0.322
REMARK UNBOUND:                -0.329
REMARK SMILES O=c1c(O)c(-c2ccc(O)c(O)c2)oc2cc(O)cc(O)c12
REMARK SMILES IDX 5 1 3 2 2 3 1 4 22 5 20 6 19 7 17 8 16 9 15 10 14 11 6 12
REMARK SMILES IDX 7 13 8 14 9 15 13 16 11 17 10 18 12 20 4 22 21 24 18 26
REMARK H PARENT 10 19 12 21 4 23 21 25 18 27
REMARK Flexibility Score: inf
ROOT
ATOM      1  C   UNL     1       9.142  11.780 -17.875  1.00  0.00     0.180 A 
ATOM      2  C   UNL     1       8.390  11.474 -19.025  1.00  0.00     0.208 A 
ATOM      3  C   UNL     1       8.170  12.480 -19.980  1.00  0.00     0.238 A 
ATOM      4  O   UNL     1       7.507  12.215 -21.019  1.00  0.00    -0.285 OA
ATOM      5  C   UNL     1       8.684  13.774 -19.758  1.00  0.00     0.111 A 
ATOM      6  C   UNL     1       8.503  14.845 -20.667  1.00  0.00     0.134 A 
ATOM      7  C   UNL     1       9.038  16.107 -20.371  1.00  0.00     0.093 A 
ATOM      8  C   UNL     1       9.749  16.320 -19.188  1.00  0.00     0.123 A 
ATOM      9  C   UNL     1       9.931  15.266 -18.286  1.00  0.00     0.094 A 
ATOM     10  C   UNL     1       9.407  14.000 -18.563  1.00  0.00     0.146 A 
ATOM     11  O   UNL     1       9.599  13.015 -17.693  1.00  0.00    -0.452 OA
ENDROOT
BRANCH   1  12
ATOM     12  C   UNL     1       9.434  10.768 -16.834  1.00  0.00     0.025 A 
ATOM     13  C   UNL     1      10.542   9.920 -16.987  1.00  0.00     0.016 A 
ATOM     14  C   UNL     1      10.826   8.944 -16.028  1.00  0.00     0.051 A 
ATOM     15  C   UNL     1       9.996   8.793 -14.909  1.00  0.00     0.157 A 
ATOM     16  C   UNL     1       8.592  10.599 -15.720  1.00  0.00     0.062 A 
ATOM     17  C   UNL     1       8.872   9.622 -14.758  1.00  0.00     0.158 A 
BRANCH  15  18
ATOM     18  O   UNL     1      10.281   7.820 -13.952  1.00  0.00    -0.504 OA
ATOM     19  H   UNL     1      10.550   8.067 -13.007  1.00  0.00     0.293 HD
ENDBRANCH  15  18
BRANCH  17  20
ATOM     20  O   UNL     1       8.019   9.486 -13.663  1.00  0.00    -0.504 OA
ATOM     21  H   UNL     1       7.461   8.654 -13.515  1.00  0.00     0.293 HD
ENDBRANCH  17  20
ENDBRANCH   1  12
BRANCH   2  22
ATOM     22  O   UNL     1       7.850  10.197 -19.197  1.00  0.00    -0.502 OA
ATOM     23  H   UNL     1       7.988   9.454 -18.522  1.00  0.00     0.293 HD
ENDBRANCH   2  22
BRANCH   6  24
ATOM     24  O   UNL     1       7.797  14.664 -21.858  1.00  0.00    -0.507 OA
ATOM     25  H   UNL     1       8.200  14.170 -22.646  1.00  0.00     0.293 HD
ENDBRANCH   6  24
BRANCH   8  26
ATOM     26  O   UNL     1      10.269  17.583 -18.917  1.00  0.00    -0.508 OA
ATOM     27  H   UNL     1       9.799  18.427 -19.222  1.00  0.00     0.293 HD
ENDBRANCH   8  26
TORSDOF 6
ENDMDL
MODEL 7
REMARK VINA RESULT:    -6.352      1.180      2.942
REMARK INTER + INTRA:          -7.981
REMARK INTER:                  -7.657
REMARK INTRA:                  -0.324
REMARK UNBOUND:                -0.329
REMARK SMILES O=c1c(O)c(-c2ccc(O)c(O)c2)oc2cc(O)cc(O)c12
REMARK SMILES IDX 5 1 3 2 2 3 1 4 22 5 20 6 19 7 17 8 16 9 15 10 14 11 6 12
REMARK SMILES IDX 7 13 8 14 9 15 13 16 11 17 10 18 12 20 4 22 21 24 18 26
REMARK H PARENT 10 19 12 21 4 23 21 25 18 27
REMARK Flexibility Score: inf
ROOT
ATOM      1  C   UNL     1       8.870  12.383 -15.522  1.00  0.00     0.180 A 
ATOM      2  C   UNL     1       7.874  12.775 -14.607  1.00  0.00     0.208 A 
ATOM      3  C   UNL     1       7.328  11.811 -13.745  1.00  0.00     0.238 A 
ATOM      4  O   UNL     1       6.443  12.152 -12.914  1.00  0.00    -0.285 OA
ATOM      5  C   UNL     1       7.768  10.474 -13.827  1.00  0.00     0.111 A 
ATOM      6  C   UNL     1       7.266   9.441 -12.999  1.00  0.00     0.134 A 
ATOM      7  C   UNL     1       7.749   8.133 -13.148  1.00  0.00     0.093 A 
ATOM      8  C   UNL     1       8.721   7.837 -14.105  1.00  0.00     0.123 A 
ATOM      9  C   UNL     1       9.222   8.853 -14.926  1.00  0.00     0.094 A 
ATOM     10  C   UNL     1       8.755  10.164 -14.793  1.00  0.00     0.146 A 
ATOM     11  O   UNL     1       9.250  11.111 -15.581  1.00  0.00    -0.452 OA
ENDROOT
BRANCH   1  12
ATOM     12  C   UNL     1       9.508  13.345 -16.450  1.00  0.00     0.025 A 
ATOM     13  C   UNL     1      10.627  14.078 -16.023  1.00  0.00     0.016 A 
ATOM     14  C   UNL     1      11.234  15.005 -16.873  1.00  0.00     0.051 A 
ATOM     15  C   UNL     1      10.721  15.226 -18.158  1.00  0.00     0.157 A 
ATOM     16  C   UNL     1       8.984  13.584 -17.733  1.00  0.00     0.062 A 
ATOM     17  C   UNL     1       9.588  14.514 -18.587  1.00  0.00     0.158 A 
BRANCH  15  18
ATOM     18  O   UNL     1      11.328  16.151 -19.006  1.00  0.00    -0.504 OA
ATOM     19  H   UNL     1      10.793  16.682 -19.684  1.00  0.00     0.293 HD
ENDBRANCH  15  18
BRANCH  17  20
ATOM     20  O   UNL     1       9.044  14.721 -19.855  1.00  0.00    -0.504 OA
ATOM     21  H   UNL     1       8.809  15.645 -20.195  1.00  0.00     0.293 HD
ENDBRANCH  17  20
ENDBRANCH   1  12
BRANCH   2  22
ATOM     22  O   UNL     1       7.421  14.096 -14.580  1.00  0.00    -0.502 OA
ATOM     23  H   UNL     1       8.030  14.875 -14.356  1.00  0.00     0.293 HD
ENDBRANCH   2  22
BRANCH   6  24
ATOM     24  O   UNL     1       6.294   9.705 -12.032  1.00  0.00    -0.507 OA
ATOM     25  H   UNL     1       6.105   9.058 -11.276  1.00  0.00     0.293 HD
ENDBRANCH   6  24
BRANCH   8  26
ATOM     26  O   UNL     1       9.183   6.530 -14.233  1.00  0.00    -0.508 OA
ATOM     27  H   UNL     1      10.055   6.318 -14.707  1.00  0.00     0.293 HD
ENDBRANCH   8  26
TORSDOF 6
ENDMDL
MODEL 8
REMARK VINA RESULT:    -6.307      1.913      2.901
REMARK INTER + INTRA:          -7.927
REMARK INTER:                  -7.883
REMARK INTRA:                  -0.044
REMARK UNBOUND:                -0.329
REMARK SMILES O=c1c(O)c(-c2ccc(O)c(O)c2)oc2cc(O)cc(O)c12
REMARK SMILES IDX 5 1 3 2 2 3 1 4 22 5 20 6 19 7 17 8 16 9 15 10 14 11 6 12
REMARK SMILES IDX 7 13 8 14 9 15 13 16 11 17 10 18 12 20 4 22 21 24 18 26
REMARK H PARENT 10 19 12 21 4 23 21 25 18 27
REMARK Flexibility Score: inf
ROOT
ATOM      1  C   UNL     1       9.042  12.523 -18.291  1.00  0.00     0.180 A 
ATOM      2  C   UNL     1       9.572  11.295 -18.731  1.00  0.00     0.208 A 
ATOM      3  C   UNL     1       9.624  10.218 -17.832  1.00  0.00     0.238 A 
ATOM      4  O   UNL     1      10.086   9.110 -18.218  1.00  0.00    -0.285 OA
ATOM      5  C   UNL     1       9.169  10.392 -16.509  1.00  0.00     0.111 A 
ATOM      6  C   UNL     1       9.191   9.359 -15.540  1.00  0.00     0.134 A 
ATOM      7  C   UNL     1       8.727   9.614 -14.241  1.00  0.00     0.093 A 
ATOM      8  C   UNL     1       8.244  10.876 -13.892  1.00  0.00     0.123 A 
ATOM      9  C   UNL     1       8.219  11.901 -14.845  1.00  0.00     0.094 A 
ATOM     10  C   UNL     1       8.675  11.667 -16.145  1.00  0.00     0.146 A 
ATOM     11  O   UNL     1       8.635  12.655 -17.032  1.00  0.00    -0.452 OA
ENDROOT
BRANCH   1  12
ATOM     12  C   UNL     1       8.935  13.699 -19.185  1.00  0.00     0.025 A 
ATOM     13  C   UNL     1       8.259  13.577 -20.409  1.00  0.00     0.016 A 
ATOM     14  C   UNL     1       8.163  14.667 -21.277  1.00  0.00     0.051 A 
ATOM     15  C   UNL     1       8.755  15.892 -20.941  1.00  0.00     0.157 A 
ATOM     16  C   UNL     1       9.546  14.924 -18.860  1.00  0.00     0.062 A 
ATOM     17  C   UNL     1       9.454  16.018 -19.729  1.00  0.00     0.158 A 
BRANCH  15  18
ATOM     18  O   UNL     1       8.657  16.979 -21.808  1.00  0.00    -0.504 OA
ATOM     19  H   UNL     1       7.823  17.554 -21.846  1.00  0.00     0.293 HD
ENDBRANCH  15  18
BRANCH  17  20
ATOM     20  O   UNL     1      10.067  17.219 -19.372  1.00  0.00    -0.504 OA
ATOM     21  H   UNL     1      10.302  17.927 -20.057  1.00  0.00     0.293 HD
ENDBRANCH  17  20
ENDBRANCH   1  12
BRANCH   2  22
ATOM     22  O   UNL     1      10.062  11.164 -20.033  1.00  0.00    -0.502 OA
ATOM     23  H   UNL     1       9.494  10.808 -20.793  1.00  0.00     0.293 HD
ENDBRANCH   2  22
BRANCH   6  24
ATOM     24  O   UNL     1       9.668   8.087 -15.859  1.00  0.00    -0.507 OA
ATOM     25  H   UNL     1      10.537   7.954 -16.364  1.00  0.00     0.293 HD
ENDBRANCH   6  24
BRANCH   8  26
ATOM     26  O   UNL     1       7.791  11.103 -12.595  1.00  0.00    -0.508 OA
ATOM     27  H   UNL     1       6.818  10.967 -12.341  1.00  0.00     0.293 HD
ENDBRANCH   8  26
TORSDOF 6
ENDMDL
MODEL 9
REMARK VINA RESULT:    -5.957      1.681      3.023
REMARK INTER + INTRA:          -7.505
REMARK INTER:                  -7.180
REMARK INTRA:                  -0.325
REMARK UNBOUND:                -0.329
REMARK SMILES O=c1c(O)c(-c2ccc(O)c(O)c2)oc2cc(O)cc(O)c12
REMARK SMILES IDX 5 1 3 2 2 3 1 4 22 5 20 6 19 7 17 8 16 9 15 10 14 11 6 12
REMARK SMILES IDX 7 13 8 14 9 15 13 16 11 17 10 18 12 20 4 22 21 24 18 26
REMARK H PARENT 10 19 12 21 4 23 21 25 18 27
REMARK Flexibility Score: inf
ROOT
ATOM      1  C   UNL     1       8.677  11.394 -15.271  1.00  0.00     0.180 A 
ATOM      2  C   UNL     1       8.203  11.509 -13.950  1.00  0.00     0.208 A 
ATOM      3  C   UNL     1       7.657  10.377 -13.324  1.00  0.00     0.238 A 
ATOM      4  O   UNL     1       7.239  10.465 -12.138  1.00  0.00    -0.285 OA
ATOM      5  C   UNL     1       7.573   9.162 -14.034  1.00  0.00     0.111 A 
ATOM      6  C   UNL     1       7.032   7.977 -13.479  1.00  0.00     0.134 A 
ATOM      7  C   UNL     1       6.976   6.808 -14.253  1.00  0.00     0.093 A 
ATOM      8  C   UNL     1       7.448   6.800 -15.567  1.00  0.00     0.123 A 
ATOM      9  C   UNL     1       7.984   7.968 -16.121  1.00  0.00     0.094 A 
ATOM     10  C   UNL     1       8.051   9.143 -15.366  1.00  0.00     0.146 A 
ATOM     11  O   UNL     1       8.569  10.236 -15.914  1.00  0.00    -0.452 OA
ENDROOT
BRANCH   1  12
ATOM     12  C   UNL     1       9.285  12.537 -15.991  1.00  0.00     0.025 A 
ATOM     13  C   UNL     1      10.660  12.784 -15.857  1.00  0.00     0.016 A 
ATOM     14  C   UNL     1      11.252  13.868 -16.511  1.00  0.00     0.051 A 
ATOM     15  C   UNL     1      10.474  14.730 -17.295  1.00  0.00     0.157 A 
ATOM     16  C   UNL     1       8.504  13.417 -16.762  1.00  0.00     0.062 A 
ATOM     17  C   UNL     1       9.092  14.505 -17.416  1.00  0.00     0.158 A 
BRANCH  15  18
ATOM     18  O   UNL     1      11.066  15.810 -17.948  1.00  0.00    -0.504 OA
ATOM     19  H   UNL     1      10.960  16.759 -17.607  1.00  0.00     0.293 HD
ENDBRANCH  15  18
BRANCH  17  20
ATOM     20  O   UNL     1       8.288  15.353 -18.178  1.00  0.00    -0.504 OA
ATOM     21  H   UNL     1       8.536  16.320 -18.347  1.00  0.00     0.293 HD
ENDBRANCH  17  20
ENDBRANCH   1  12
BRANCH   2  22
ATOM     22  O   UNL     1       8.252  12.738 -13.287  1.00  0.00    -0.502 OA
ATOM     23  H   UNL     1       8.204  12.812 -12.277  1.00  0.00     0.293 HD
ENDBRANCH   2  22
BRANCH   6  24
ATOM     24  O   UNL     1       6.552   7.952 -12.168  1.00  0.00    -0.507 OA
ATOM     25  H   UNL     1       5.854   8.613 -11.844  1.00  0.00     0.293 HD
ENDBRANCH   6  24
BRANCH   8  26
ATOM     26  O   UNL     1       7.380   5.627 -16.314  1.00  0.00    -0.508 OA
ATOM     27  H   UNL     1       8.193   5.037 -16.451  1.00  0.00     0.293 HD
ENDBRANCH   8  26
TORSDOF 6
ENDMDL
