MODEL 1
REMARK VINA RESULT:    22.231      0.000      0.000
REMARK INTER + INTRA:          29.160
REMARK INTER:                  29.379
REMARK INTRA:                  -0.219
REMARK UNBOUND:                -0.219
REMARK SMILES CC[C@@H](C=C[C@@H](C)[C@H]1CC[C@H]2[C@H]3CC=C4C[C@H](O)CC[C@]4(C)[C@H]3CC[C@]12C)C(C)C
REMARK SMILES IDX 6 1 7 2 5 3 4 4 3 5 2 6 1 7 28 8 29 9 30 10 8 11 9 12 26 13
REMARK SMILES IDX 10 14 11 15 25 16 27 17 12 18 24 19 23 20 13 21 21 22 14 23
REMARK SMILES IDX 15 24 20 25 22 26 16 27 19 28 17 29 18 30
REMARK H PARENT 18 31
REMARK Flexibility Score: inf
ROOT
ATOM      1  C   UNL     1      14.256 -30.634  13.825  1.00  0.00     0.012 C 
ATOM      2  C   UNL     1      13.722 -29.321  13.233  1.00  0.00     0.012 C 
ENDROOT
BRANCH   1   3
ATOM      3  C   UNL     1      15.701 -30.794  13.396  1.00  0.00    -0.028 C 
ATOM      4  C   UNL     1      16.499 -31.720  13.958  1.00  0.00    -0.027 C 
BRANCH   4   5
ATOM      5  C   UNL     1      17.958 -31.911  13.582  1.00  0.00     0.014 C 
BRANCH   5   6
ATOM      6  C   UNL     1      18.517 -33.289  14.018  1.00  0.00     0.004 C 
ATOM      7  C   UNL     1      17.662 -33.943  15.104  1.00  0.00     0.004 C 
ENDBRANCH   5   6
BRANCH   5   8
ATOM      8  C   UNL     1      18.870 -30.727  14.026  1.00  0.00    -0.011 C 
ATOM      9  C   UNL     1      19.604 -31.051  15.336  1.00  0.00     0.008 C 
ATOM     10  C   UNL     1      19.879 -30.269  12.961  1.00  0.00     0.008 C 
ENDBRANCH   5   8
ENDBRANCH   4   5
ENDBRANCH   1   3
BRANCH   1  11
ATOM     11  C   UNL     1      13.425 -31.879  13.375  1.00  0.00     0.002 C 
ATOM     12  C   UNL     1      14.065 -33.208  13.871  1.00  0.00     0.005 C 
ATOM     13  C   UNL     1      11.934 -31.991  13.828  1.00  0.00    -0.026 C 
ATOM     14  C   UNL     1      12.922 -34.202  14.127  1.00  0.00     0.005 C 
ATOM     15  C   UNL     1      11.703 -33.494  13.570  1.00  0.00    -0.001 C 
ATOM     16  C   UNL     1      10.910 -31.231  12.955  1.00  0.00     0.007 C 
ATOM     17  C   UNL     1      11.788 -31.556  15.318  1.00  0.00     0.012 C 
ATOM     18  C   UNL     1      10.294 -34.053  13.876  1.00  0.00     0.000 C 
ATOM     19  C   UNL     1       9.459 -31.678  13.257  1.00  0.00     0.005 C 
ATOM     20  C   UNL     1       9.218 -33.217  13.114  1.00  0.00     0.003 C 
ATOM     21  C   UNL     1       9.998 -34.302  15.375  1.00  0.00     0.031 C 
ATOM     22  C   UNL     1       7.749 -33.674  13.472  1.00  0.00    -0.008 C 
ATOM     23  C   UNL     1       8.590 -34.009  15.818  1.00  0.00    -0.027 C 
ATOM     24  C   UNL     1       7.556 -33.797  14.978  1.00  0.00    -0.065 C 
ATOM     25  C   UNL     1       7.436 -35.081  12.875  1.00  0.00     0.014 C 
ATOM     26  C   UNL     1       6.735 -32.649  12.879  1.00  0.00     0.016 C 
ATOM     27  C   UNL     1       6.181 -34.218  15.445  1.00  0.00     0.063 C 
ATOM     28  C   UNL     1       6.071 -35.659  13.334  1.00  0.00     0.033 C 
ATOM     29  C   UNL     1       5.875 -35.616  14.867  1.00  0.00     0.118 C 
BRANCH  29  30
ATOM     30  O   UNL     1       6.706 -36.580  15.464  1.00  0.00    -0.393 OA
ATOM     31  H   UNL     1       7.074 -36.170  16.292  1.00  0.00     0.210 HD
ENDBRANCH  29  30
ENDBRANCH   1  11
TORSDOF 6
ENDMDL
MODEL 2
REMARK VINA RESULT:    24.228      1.699      2.522
REMARK INTER + INTRA:          31.798
REMARK INTER:                  32.293
REMARK INTRA:                  -0.495
REMARK UNBOUND:                -0.219
REMARK SMILES CC[C@@H](C=C[C@@H](C)[C@H]1CC[C@H]2[C@H]3CC=C4C[C@H](O)CC[C@]4(C)[C@H]3CC[C@]12C)C(C)C
REMARK SMILES IDX 6 1 7 2 5 3 4 4 3 5 2 6 1 7 28 8 29 9 30 10 8 11 9 12 26 13
REMARK SMILES IDX 10 14 11 15 25 16 27 17 12 18 24 19 23 20 13 21 21 22 14 23
REMARK SMILES IDX 15 24 20 25 22 26 16 27 19 28 17 29 18 30
REMARK H PARENT 18 31
REMARK Flexibility Score: inf
ROOT
ATOM      1  C   UNL     1      14.016 -29.851  14.597  1.00  0.00     0.012 C 
ATOM      2  C   UNL     1      14.432 -28.507  13.981  1.00  0.00     0.012 C 
ENDROOT
BRANCH   1   3
ATOM      3  C   UNL     1      14.908 -30.932  14.022  1.00  0.00    -0.028 C 
ATOM      4  C   UNL     1      16.216 -30.996  14.328  1.00  0.00    -0.027 C 
BRANCH   4   5
ATOM      5  C   UNL     1      17.161 -32.045  13.766  1.00  0.00     0.014 C 
BRANCH   5   6
ATOM      6  C   UNL     1      17.337 -33.263  14.706  1.00  0.00     0.004 C 
ATOM      7  C   UNL     1      16.367 -33.229  15.887  1.00  0.00     0.004 C 
ENDBRANCH   5   6
BRANCH   5   8
ATOM      8  C   UNL     1      18.524 -31.454  13.289  1.00  0.00    -0.011 C 
ATOM      9  C   UNL     1      18.970 -30.291  14.188  1.00  0.00     0.008 C 
ATOM     10  C   UNL     1      19.656 -32.486  13.169  1.00  0.00     0.008 C 
ENDBRANCH   5   8
ENDBRANCH   4   5
ENDBRANCH   1   3
BRANCH   1  11
ATOM     11  C   UNL     1      12.516 -30.198  14.328  1.00  0.00     0.002 C 
ATOM     12  C   UNL     1      12.296 -30.710  12.875  1.00  0.00     0.005 C 
ATOM     13  C   UNL     1      11.824 -31.283  15.215  1.00  0.00    -0.026 C 
ATOM     14  C   UNL     1      11.141 -31.723  12.913  1.00  0.00     0.005 C 
ATOM     15  C   UNL     1      10.604 -31.596  14.325  1.00  0.00    -0.001 C 
ATOM     16  C   UNL     1      11.267 -30.786  16.568  1.00  0.00     0.007 C 
ATOM     17  C   UNL     1      12.788 -32.486  15.446  1.00  0.00     0.012 C 
ATOM     18  C   UNL     1       9.599 -32.647  14.852  1.00  0.00     0.000 C 
ATOM     19  C   UNL     1      10.308 -31.820  17.205  1.00  0.00     0.005 C 
ATOM     20  C   UNL     1       9.118 -32.246  16.282  1.00  0.00     0.003 C 
ATOM     21  C   UNL     1      10.047 -34.120  14.694  1.00  0.00     0.031 C 
ATOM     22  C   UNL     1       8.171 -33.338  16.918  1.00  0.00    -0.008 C 
ATOM     23  C   UNL     1       9.655 -35.044  15.815  1.00  0.00    -0.027 C 
ATOM     24  C   UNL     1       8.762 -34.736  16.778  1.00  0.00    -0.065 C 
ATOM     25  C   UNL     1       6.789 -33.374  16.194  1.00  0.00     0.014 C 
ATOM     26  C   UNL     1       7.933 -32.999  18.420  1.00  0.00     0.016 C 
ATOM     27  C   UNL     1       7.947 -35.868  17.362  1.00  0.00     0.063 C 
ATOM     28  C   UNL     1       5.876 -34.540  16.659  1.00  0.00     0.033 C 
ATOM     29  C   UNL     1       6.585 -35.915  16.638  1.00  0.00     0.118 C 
BRANCH  29  30
ATOM     30  O   UNL     1       6.758 -36.322  15.304  1.00  0.00    -0.393 OA
ATOM     31  H   UNL     1       7.653 -36.750  15.247  1.00  0.00     0.210 HD
ENDBRANCH  29  30
ENDBRANCH   1  11
TORSDOF 6
ENDMDL
