MODEL 1
REMARK VINA RESULT:    16.761      0.000      0.000
REMARK INTER + INTRA:          27.236
REMARK INTER:                  23.130
REMARK INTRA:                   4.106
REMARK UNBOUND:                 4.106
REMARK SMILES CC[C@@H](CC[C@H](C)[C@H]1CC[C@H]2[C@@H]3CC=C4C[C@@H](O)CC[C@@]4(C)[C@@H]3CC[C@@]12C)C(C)C
REMARK SMILES IDX 5 1 4 2 3 3 2 4 1 5 28 6 29 7 30 8 6 9 7 10 8 11 9 12 26 13
REMARK SMILES IDX 10 14 11 15 25 16 27 17 12 18 24 19 23 20 13 21 21 22 14 23
REMARK SMILES IDX 15 24 20 25 22 26 16 27 19 28 17 29 18 30
REMARK H PARENT 18 31
REMARK Flexibility Score: inf
ROOT
ATOM      1  C   UNL     1      10.893  23.236  -3.349  1.00  0.00     0.004 C 
ENDROOT
BRANCH   1   2
ATOM      2  C   UNL     1      11.185  22.293  -4.544  1.00  0.00     0.004 C 
BRANCH   2   3
ATOM      3  C   UNL     1      11.481  20.818  -4.111  1.00  0.00    -0.009 C 
BRANCH   3   4
ATOM      4  C   UNL     1      12.470  20.168  -5.125  1.00  0.00     0.000 C 
ATOM      5  C   UNL     1      13.874  19.963  -4.542  1.00  0.00     0.004 C 
ENDBRANCH   3   4
BRANCH   3   6
ATOM      6  C   UNL     1      10.164  19.967  -3.966  1.00  0.00    -0.014 C 
ATOM      7  C   UNL     1       9.428  20.258  -2.640  1.00  0.00     0.007 C 
ATOM      8  C   UNL     1       9.181  20.213  -5.125  1.00  0.00     0.007 C 
ENDBRANCH   3   6
ENDBRANCH   2   3
ENDBRANCH   1   2
BRANCH   1   9
ATOM      9  C   UNL     1      12.138  24.011  -2.831  1.00  0.00    -0.011 C 
ATOM     10  C   UNL     1      12.844  24.640  -4.049  1.00  0.00     0.008 C 
BRANCH   9  11
ATOM     11  C   UNL     1      13.084  23.114  -1.953  1.00  0.00    -0.002 C 
ATOM     12  C   UNL     1      13.972  23.850  -0.966  1.00  0.00     0.005 C 
ATOM     13  C   UNL     1      12.481  21.892  -1.170  1.00  0.00    -0.026 C 
ATOM     14  C   UNL     1      14.593  22.739  -0.142  1.00  0.00     0.005 C 
ATOM     15  C   UNL     1      13.542  21.606  -0.048  1.00  0.00    -0.001 C 
ATOM     16  C   UNL     1      11.024  22.104  -0.619  1.00  0.00     0.007 C 
ATOM     17  C   UNL     1      12.426  20.678  -2.140  1.00  0.00     0.012 C 
ATOM     18  C   UNL     1      12.991  21.484   1.398  1.00  0.00     0.000 C 
ATOM     19  C   UNL     1      10.824  22.655   0.812  1.00  0.00     0.005 C 
ATOM     20  C   UNL     1      12.055  22.649   1.756  1.00  0.00     0.003 C 
ATOM     21  C   UNL     1      12.304  20.139   1.686  1.00  0.00     0.031 C 
ATOM     22  C   UNL     1      11.686  22.628   3.296  1.00  0.00    -0.008 C 
ATOM     23  C   UNL     1      11.764  20.099   3.092  1.00  0.00    -0.027 C 
ATOM     24  C   UNL     1      11.424  21.201   3.804  1.00  0.00    -0.065 C 
ATOM     25  C   UNL     1      12.881  23.195   4.132  1.00  0.00     0.014 C 
ATOM     26  C   UNL     1      10.449  23.537   3.559  1.00  0.00     0.016 C 
ATOM     27  C   UNL     1      11.162  21.046   5.286  1.00  0.00     0.063 C 
ATOM     28  C   UNL     1      12.701  23.041   5.659  1.00  0.00     0.033 C 
ATOM     29  C   UNL     1      12.362  21.596   6.077  1.00  0.00     0.118 C 
BRANCH  29  30
ATOM     30  O   UNL     1      13.488  20.780   5.876  1.00  0.00    -0.393 OA
ATOM     31  H   UNL     1      14.238  21.384   5.625  1.00  0.00     0.210 HD
ENDBRANCH  29  30
ENDBRANCH   9  11
ENDBRANCH   1   9
TORSDOF 7
ENDMDL
MODEL 2
REMARK VINA RESULT:    17.225      0.944      1.707
REMARK INTER + INTRA:          27.876
REMARK INTER:                  25.372
REMARK INTRA:                   2.504
REMARK UNBOUND:                 4.106
REMARK SMILES CC[C@@H](CC[C@H](C)[C@H]1CC[C@H]2[C@@H]3CC=C4C[C@@H](O)CC[C@@]4(C)[C@@H]3CC[C@@]12C)C(C)C
REMARK SMILES IDX 5 1 4 2 3 3 2 4 1 5 28 6 29 7 30 8 6 9 7 10 8 11 9 12 26 13
REMARK SMILES IDX 10 14 11 15 25 16 27 17 12 18 24 19 23 20 13 21 21 22 14 23
REMARK SMILES IDX 15 24 20 25 22 26 16 27 19 28 17 29 18 30
REMARK H PARENT 18 31
REMARK Flexibility Score: inf
ROOT
ATOM      1  C   UNL     1      11.762  24.624  -3.718  1.00  0.00     0.004 C 
ENDROOT
BRANCH   1   2
ATOM      2  C   UNL     1      12.740  23.587  -4.325  1.00  0.00     0.004 C 
BRANCH   2   3
ATOM      3  C   UNL     1      12.019  22.451  -5.125  1.00  0.00    -0.009 C 
BRANCH   3   4
ATOM      4  C   UNL     1      10.533  22.355  -4.664  1.00  0.00     0.000 C 
ATOM      5  C   UNL     1       9.942  20.951  -4.846  1.00  0.00     0.004 C 
ENDBRANCH   3   4
BRANCH   3   6
ATOM      6  C   UNL     1      12.755  21.066  -4.984  1.00  0.00    -0.014 C 
ATOM      7  C   UNL     1      13.487  20.933  -3.630  1.00  0.00     0.007 C 
ATOM      8  C   UNL     1      11.788  19.875  -5.125  1.00  0.00     0.007 C 
ENDBRANCH   3   6
ENDBRANCH   2   3
ENDBRANCH   1   2
BRANCH   1   9
ATOM      9  C   UNL     1      11.732  24.637  -2.163  1.00  0.00    -0.011 C 
ATOM     10  C   UNL     1      12.136  26.050  -1.694  1.00  0.00     0.008 C 
BRANCH   9  11
ATOM     11  C   UNL     1      12.609  23.494  -1.534  1.00  0.00    -0.002 C 
ATOM     12  C   UNL     1      13.699  23.942  -0.578  1.00  0.00     0.005 C 
ATOM     13  C   UNL     1      11.902  22.270  -0.847  1.00  0.00    -0.026 C 
ATOM     14  C   UNL     1      14.216  22.644   0.013  1.00  0.00     0.005 C 
ATOM     15  C   UNL     1      13.013  21.673   0.088  1.00  0.00    -0.001 C 
ATOM     16  C   UNL     1      10.562  22.605  -0.096  1.00  0.00     0.007 C 
ATOM     17  C   UNL     1      11.554  21.232  -1.951  1.00  0.00     0.012 C 
ATOM     18  C   UNL     1      12.602  21.419   1.563  1.00  0.00     0.000 C 
ATOM     19  C   UNL     1      10.601  22.963   1.408  1.00  0.00     0.005 C 
ATOM     20  C   UNL     1      11.906  22.642   2.183  1.00  0.00     0.003 C 
ATOM     21  C   UNL     1      11.742  20.160   1.758  1.00  0.00     0.031 C 
ATOM     22  C   UNL     1      11.698  22.448   3.741  1.00  0.00    -0.008 C 
ATOM     23  C   UNL     1      11.350  19.991   3.203  1.00  0.00    -0.027 C 
ATOM     24  C   UNL     1      11.266  21.014   4.089  1.00  0.00    -0.065 C 
ATOM     25  C   UNL     1      13.048  22.708   4.488  1.00  0.00     0.014 C 
ATOM     26  C   UNL     1      10.656  23.476   4.271  1.00  0.00     0.016 C 
ATOM     27  C   UNL     1      11.136  20.682   5.558  1.00  0.00     0.063 C 
ATOM     28  C   UNL     1      13.004  22.358   5.993  1.00  0.00     0.033 C 
ATOM     29  C   UNL     1      12.484  20.931   6.259  1.00  0.00     0.118 C 
BRANCH  29  30
ATOM     30  O   UNL     1      13.439  20.001   5.816  1.00  0.00    -0.393 OA
ATOM     31  H   UNL     1      13.454  20.058   4.823  1.00  0.00     0.210 HD
ENDBRANCH  29  30
ENDBRANCH   9  11
ENDBRANCH   1   9
TORSDOF 7
ENDMDL
MODEL 3
REMARK VINA RESULT:    18.734      0.983      2.082
REMARK INTER + INTRA:          29.959
REMARK INTER:                  27.909
REMARK INTRA:                   2.050
REMARK UNBOUND:                 4.106
REMARK SMILES CC[C@@H](CC[C@H](C)[C@H]1CC[C@H]2[C@@H]3CC=C4C[C@@H](O)CC[C@@]4(C)[C@@H]3CC[C@@]12C)C(C)C
REMARK SMILES IDX 5 1 4 2 3 3 2 4 1 5 28 6 29 7 30 8 6 9 7 10 8 11 9 12 26 13
REMARK SMILES IDX 10 14 11 15 25 16 27 17 12 18 24 19 23 20 13 21 21 22 14 23
REMARK SMILES IDX 15 24 20 25 22 26 16 27 19 28 17 29 18 30
REMARK H PARENT 18 31
REMARK Flexibility Score: inf
ROOT
ATOM      1  C   UNL     1      12.883  25.149  -3.497  1.00  0.00     0.004 C 
ENDROOT
BRANCH   1   2
ATOM      2  C   UNL     1      13.158  24.050  -4.554  1.00  0.00     0.004 C 
BRANCH   2   3
ATOM      3  C   UNL     1      11.854  23.399  -5.125  1.00  0.00    -0.009 C 
BRANCH   3   4
ATOM      4  C   UNL     1      10.663  24.391  -4.957  1.00  0.00     0.000 C 
ATOM      5  C   UNL     1      11.082  25.858  -5.107  1.00  0.00     0.004 C 
ENDBRANCH   3   4
BRANCH   3   6
ATOM      6  C   UNL     1      11.542  22.008  -4.455  1.00  0.00    -0.014 C 
ATOM      7  C   UNL     1      10.214  21.405  -4.962  1.00  0.00     0.007 C 
ATOM      8  C   UNL     1      12.661  20.979  -4.703  1.00  0.00     0.007 C 
ENDBRANCH   3   6
ENDBRANCH   2   3
ENDBRANCH   1   2
BRANCH   1   9
ATOM      9  C   UNL     1      12.202  24.627  -2.199  1.00  0.00    -0.011 C 
ATOM     10  C   UNL     1      11.965  25.837  -1.271  1.00  0.00     0.008 C 
BRANCH   9  11
ATOM     11  C   UNL     1      13.012  23.466  -1.518  1.00  0.00    -0.002 C 
ATOM     12  C   UNL     1      14.040  23.888  -0.485  1.00  0.00     0.005 C 
ATOM     13  C   UNL     1      12.238  22.250  -0.892  1.00  0.00    -0.026 C 
ATOM     14  C   UNL     1      14.492  22.578   0.131  1.00  0.00     0.005 C 
ATOM     15  C   UNL     1      13.270  21.628   0.115  1.00  0.00    -0.001 C 
ATOM     16  C   UNL     1      10.854  22.605  -0.235  1.00  0.00     0.007 C 
ATOM     17  C   UNL     1      11.951  21.226  -2.025  1.00  0.00     0.012 C 
ATOM     18  C   UNL     1      12.752  21.373   1.555  1.00  0.00     0.000 C 
ATOM     19  C   UNL     1      10.793  22.953   1.271  1.00  0.00     0.005 C 
ATOM     20  C   UNL     1      12.035  22.604   2.133  1.00  0.00     0.003 C 
ATOM     21  C   UNL     1      11.858  20.127   1.680  1.00  0.00     0.031 C 
ATOM     22  C   UNL     1      11.714  22.404   3.672  1.00  0.00    -0.008 C 
ATOM     23  C   UNL     1      11.363  19.957   3.093  1.00  0.00    -0.027 C 
ATOM     24  C   UNL     1      11.234  20.976   3.978  1.00  0.00    -0.065 C 
ATOM     25  C   UNL     1      13.013  22.636   4.514  1.00  0.00     0.014 C 
ATOM     26  C   UNL     1      10.655  23.447   4.134  1.00  0.00     0.016 C 
ATOM     27  C   UNL     1      10.995  20.638   5.432  1.00  0.00     0.063 C 
ATOM     28  C   UNL     1      12.857  22.278   6.009  1.00  0.00     0.033 C 
ATOM     29  C   UNL     1      12.294  20.859   6.228  1.00  0.00     0.118 C 
BRANCH  29  30
ATOM     30  O   UNL     1      13.262  19.914   5.846  1.00  0.00    -0.393 OA
ATOM     31  H   UNL     1      12.768  19.121   5.505  1.00  0.00     0.210 HD
ENDBRANCH  29  30
ENDBRANCH   9  11
ENDBRANCH   1   9
TORSDOF 7
ENDMDL
MODEL 4
REMARK VINA RESULT:    19.108      1.359      3.188
REMARK INTER + INTRA:          30.475
REMARK INTER:                  27.569
REMARK INTRA:                   2.906
REMARK UNBOUND:                 4.106
REMARK SMILES CC[C@@H](CC[C@H](C)[C@H]1CC[C@H]2[C@@H]3CC=C4C[C@@H](O)CC[C@@]4(C)[C@@H]3CC[C@@]12C)C(C)C
REMARK SMILES IDX 5 1 4 2 3 3 2 4 1 5 28 6 29 7 30 8 6 9 7 10 8 11 9 12 26 13
REMARK SMILES IDX 10 14 11 15 25 16 27 17 12 18 24 19 23 20 13 21 21 22 14 23
REMARK SMILES IDX 15 24 20 25 22 26 16 27 19 28 17 29 18 30
REMARK H PARENT 18 31
REMARK Flexibility Score: inf
ROOT
ATOM      1  C   UNL     1      10.820  23.614  -2.967  1.00  0.00     0.004 C 
ENDROOT
BRANCH   1   2
ATOM      2  C   UNL     1      11.042  24.749  -1.935  1.00  0.00     0.004 C 
BRANCH   2   3
ATOM      3  C   UNL     1      11.967  25.894  -2.466  1.00  0.00    -0.009 C 
BRANCH   3   4
ATOM      4  C   UNL     1      12.467  25.538  -3.898  1.00  0.00     0.000 C 
ATOM      5  C   UNL     1      11.466  25.927  -4.993  1.00  0.00     0.004 C 
ENDBRANCH   3   4
BRANCH   3   6
ATOM      6  C   UNL     1      13.172  26.183  -1.493  1.00  0.00    -0.014 C 
ATOM      7  C   UNL     1      12.763  26.055  -0.009  1.00  0.00     0.007 C 
ATOM      8  C   UNL     1      14.363  25.239  -1.745  1.00  0.00     0.007 C 
ENDBRANCH   3   6
ENDBRANCH   2   3
ENDBRANCH   1   2
BRANCH   1   9
ATOM      9  C   UNL     1      12.131  23.051  -3.587  1.00  0.00    -0.011 C 
ATOM     10  C   UNL     1      11.765  22.353  -4.913  1.00  0.00     0.008 C 
BRANCH   9  11
ATOM     11  C   UNL     1      12.920  22.127  -2.590  1.00  0.00    -0.002 C 
ATOM     12  C   UNL     1      13.979  22.811  -1.744  1.00  0.00     0.005 C 
ATOM     13  C   UNL     1      12.123  21.187  -1.615  1.00  0.00    -0.026 C 
ATOM     14  C   UNL     1      14.404  21.737  -0.761  1.00  0.00     0.005 C 
ATOM     15  C   UNL     1      13.156  20.868  -0.475  1.00  0.00    -0.001 C 
ATOM     16  C   UNL     1      10.763  21.770  -1.085  1.00  0.00     0.007 C 
ATOM     17  C   UNL     1      11.786  19.875  -2.378  1.00  0.00     0.012 C 
ATOM     18  C   UNL     1      12.657  21.082   0.979  1.00  0.00     0.000 C 
ATOM     19  C   UNL     1      10.740  22.564   0.243  1.00  0.00     0.005 C 
ATOM     20  C   UNL     1      11.987  22.454   1.159  1.00  0.00     0.003 C 
ATOM     21  C   UNL     1      11.731  19.965   1.486  1.00  0.00     0.031 C 
ATOM     22  C   UNL     1      11.689  22.744   2.688  1.00  0.00    -0.008 C 
ATOM     23  C   UNL     1      11.257  20.251   2.888  1.00  0.00    -0.027 C 
ATOM     24  C   UNL     1      11.174  21.494   3.420  1.00  0.00    -0.065 C 
ATOM     25  C   UNL     1      13.009  23.180   3.407  1.00  0.00     0.014 C 
ATOM     26  C   UNL     1      10.669  23.913   2.818  1.00  0.00     0.016 C 
ATOM     27  C   UNL     1      10.953  21.625   4.910  1.00  0.00     0.063 C 
ATOM     28  C   UNL     1      12.871  23.301   4.941  1.00  0.00     0.033 C 
ATOM     29  C   UNL     1      12.272  22.035   5.588  1.00  0.00     0.118 C 
BRANCH  29  30
ATOM     30  O   UNL     1      13.205  20.988   5.505  1.00  0.00    -0.393 OA
ATOM     31  H   UNL     1      13.630  21.054   4.608  1.00  0.00     0.210 HD
ENDBRANCH  29  30
ENDBRANCH   9  11
ENDBRANCH   1   9
TORSDOF 7
ENDMDL
