MODEL 1
REMARK VINA RESULT:     6.011      0.000      0.000
REMARK INTER + INTRA:           7.707
REMARK INTER:                   7.417
REMARK INTRA:                   0.290
REMARK UNBOUND:                 0.290
REMARK SMILES Oc1cc(O)c2cc(O)c(-c3cc(O)c(O)c(O)c3)[o+]c2c1
REMARK SMILES IDX 10 1 20 2 21 3 22 4 2 5 3 6 4 7 6 8 7 9 8 10 11 11 12 12
REMARK SMILES IDX 13 13 19 14 15 15 17 16 14 17 16 19 18 21 9 23 1 25 5 27
REMARK H PARENT 14 18 16 20 18 22 9 24 1 26 5 28
REMARK Flexibility Score: inf
ROOT
ATOM      1  C   UNL     1       7.390  99.177   2.637  1.00  0.00     0.402 A 
ATOM      2  O   UNL     1       6.330  98.419   2.368  1.00  0.00    -0.202 OA
ATOM      3  C   UNL     1       5.186  98.903   1.898  1.00  0.00     0.368 A 
ATOM      4  C   UNL     1       4.129  98.025   1.644  1.00  0.00     0.162 A 
ATOM      5  C   UNL     1       2.917  98.505   1.147  1.00  0.00     0.128 A 
ATOM      6  C   UNL     1       2.758  99.874   0.902  1.00  0.00     0.093 A 
ATOM      7  C   UNL     1       3.801 100.774   1.149  1.00  0.00     0.136 A 
ATOM      8  C   UNL     1       5.035 100.290   1.656  1.00  0.00     0.125 A 
ATOM      9  C   UNL     1       6.130 101.120   1.946  1.00  0.00     0.078 A 
ATOM     10  C   UNL     1       7.313 100.570   2.448  1.00  0.00     0.223 A 
ENDROOT
BRANCH   1  11
ATOM     11  C   UNL     1       8.613  98.518   3.147  1.00  0.00     0.091 A 
ATOM     12  C   UNL     1       9.865  99.153   3.092  1.00  0.00     0.068 A 
ATOM     13  C   UNL     1      11.016  98.503   3.560  1.00  0.00     0.162 A 
ATOM     14  C   UNL     1       8.534  97.207   3.644  1.00  0.00     0.068 A 
ATOM     15  C   UNL     1      10.923  97.200   4.077  1.00  0.00     0.200 A 
ATOM     16  C   UNL     1       9.676  96.552   4.115  1.00  0.00     0.162 A 
BRANCH  13  17
ATOM     17  O   UNL     1      12.252  99.146   3.505  1.00  0.00    -0.504 OA
ATOM     18  H   UNL     1      12.544  99.796   4.226  1.00  0.00     0.293 HD
ENDBRANCH  13  17
BRANCH  15  19
ATOM     19  O   UNL     1      12.057  96.540   4.551  1.00  0.00    -0.502 OA
ATOM     20  H   UNL     1      12.029  95.578   4.867  1.00  0.00     0.293 HD
ENDBRANCH  15  19
BRANCH  16  21
ATOM     21  O   UNL     1       9.552  95.256   4.615  1.00  0.00    -0.504 OA
ATOM     22  H   UNL     1      10.359  94.685   4.838  1.00  0.00     0.293 HD
ENDBRANCH  16  21
ENDBRANCH   1  11
BRANCH  10  23
ATOM     23  O   UNL     1       8.384 101.399   2.782  1.00  0.00    -0.500 OA
ATOM     24  H   UNL     1       9.141 101.581   2.133  1.00  0.00     0.294 HD
ENDBRANCH  10  23
BRANCH   5  25
ATOM     25  O   UNL     1       1.875  97.614   0.900  1.00  0.00    -0.507 OA
ATOM     26  H   UNL     1       1.145  97.825   0.229  1.00  0.00     0.293 HD
ENDBRANCH   5  25
BRANCH   7  27
ATOM     27  O   UNL     1       3.565 102.125   0.875  1.00  0.00    -0.507 OA
ATOM     28  H   UNL     1       4.272 102.778   0.573  1.00  0.00     0.293 HD
ENDBRANCH   7  27
TORSDOF 7
ENDMDL
