MODEL 1
REMARK VINA RESULT:   155.222      0.000      0.000
REMARK INTER + INTRA:         171.126
REMARK INTER:                 168.833
REMARK INTRA:                   2.293
REMARK UNBOUND:                 2.293
REMARK SMILES CC1(C)CC[C@@]2(C(=O)[O-])CC[C@]3(C)C(=CC[C@H]4[C@]5(C)CC[C@H](O)C(C)(C)[C@H]5CC[C@]43C)[C@@H]2C1
REMARK SMILES IDX 6 1 5 2 10 3 32 4 4 5 11 6 14 7 33 8 2 9 12 10 15 11 1 12
REMARK SMILES IDX 3 13 13 14 30 15 16 16 17 17 29 18 31 19 18 20 28 21 27 22
REMARK SMILES IDX 20 23 19 24 24 25 21 26 22 27 25 28 26 29 7 30 8 31 9 32
REMARK SMILES IDX 23 33
REMARK H PARENT 23 34
REMARK Flexibility Score: inf
ROOT
ATOM      1  C   UNL     1     -38.170  28.773 -21.508  1.00  0.00     0.017 C 
ATOM      2  C   UNL     1     -37.003  27.737 -21.659  1.00  0.00     0.014 C 
ATOM      3  C   UNL     1     -37.932  30.031 -22.424  1.00  0.00     0.014 C 
ATOM      4  C   UNL     1     -39.541  28.133 -21.926  1.00  0.00     0.028 C 
ATOM      5  C   UNL     1     -37.359  26.544 -22.556  1.00  0.00     0.007 C 
ATOM      6  C   UNL     1     -39.220  30.655 -23.037  1.00  0.00     0.013 C 
ATOM      7  C   UNL     1     -40.665  29.124 -21.630  1.00  0.00    -0.064 C 
ATOM      8  C   UNL     1     -39.687  26.686 -21.413  1.00  0.00     0.015 C 
ATOM      9  C   UNL     1     -38.588  25.741 -22.018  1.00  0.00    -0.035 C 
ATOM     10  C   UNL     1     -40.506  30.571 -22.127  1.00  0.00    -0.006 C 
ATOM     11  C   UNL     1     -41.790  28.791 -20.967  1.00  0.00    -0.027 C 
ATOM     12  C   UNL     1     -38.122  24.743 -20.934  1.00  0.00     0.011 C 
ATOM     13  C   UNL     1     -39.189  24.932 -23.192  1.00  0.00     0.011 C 
ATOM     14  C   UNL     1     -40.249  31.492 -20.879  1.00  0.00     0.017 C 
ATOM     15  C   UNL     1     -41.857  30.975 -22.926  1.00  0.00    -0.020 C 
ATOM     16  C   UNL     1     -42.864  29.816 -20.757  1.00  0.00     0.032 C 
ATOM     17  C   UNL     1     -43.174  30.576 -22.077  1.00  0.00     0.006 C 
ATOM     18  C   UNL     1     -41.794  32.493 -23.371  1.00  0.00     0.008 C 
ATOM     19  C   UNL     1     -41.932  30.140 -24.257  1.00  0.00     0.012 C 
ATOM     20  C   UNL     1     -44.329  31.660 -21.931  1.00  0.00    -0.025 C 
ATOM     21  C   UNL     1     -43.105  33.309 -23.442  1.00  0.00     0.005 C 
ATOM     22  C   UNL     1     -44.393  32.480 -23.273  1.00  0.00     0.003 C 
ATOM     23  C   UNL     1     -45.687  30.915 -21.715  1.00  0.00     0.010 C 
ATOM     24  C   UNL     1     -44.069  32.560 -20.689  1.00  0.00     0.012 C 
ATOM     25  C   UNL     1     -45.723  33.300 -23.585  1.00  0.00    -0.006 C 
ATOM     26  C   UNL     1     -46.913  31.814 -21.863  1.00  0.00     0.033 C 
ATOM     27  C   UNL     1     -46.981  32.431 -23.265  1.00  0.00     0.120 C 
ATOM     28  C   UNL     1     -45.843  34.658 -22.831  1.00  0.00     0.014 C 
ATOM     29  C   UNL     1     -45.757  33.659 -25.102  1.00  0.00     0.014 C 
ENDROOT
BRANCH   1  30
ATOM     30  C   UNL     1     -38.153  29.220 -20.044  1.00  0.00     0.048 C 
ATOM     31  O   UNL     1     -37.125  29.087 -19.330  1.00  0.00    -0.550 OA
ATOM     32  O   UNL     1     -39.255  29.872 -19.501  1.00  0.00    -0.550 OA
ENDBRANCH   1  30
BRANCH  27  33
ATOM     33  O   UNL     1     -47.125  31.388 -24.206  1.00  0.00    -0.393 OA
ATOM     34  H   UNL     1     -46.334  30.797 -24.125  1.00  0.00     0.210 HD
ENDBRANCH  27  33
TORSDOF 2
ENDMDL
MODEL 2
REMARK VINA RESULT:   157.371      5.057      8.969
REMARK INTER + INTRA:         173.464
REMARK INTER:                 173.377
REMARK INTRA:                   0.087
REMARK UNBOUND:                 2.293
REMARK SMILES CC1(C)CC[C@@]2(C(=O)[O-])CC[C@]3(C)C(=CC[C@H]4[C@]5(C)CC[C@H](O)C(C)(C)[C@H]5CC[C@]43C)[C@@H]2C1
REMARK SMILES IDX 6 1 5 2 10 3 32 4 4 5 11 6 14 7 33 8 2 9 12 10 15 11 1 12
REMARK SMILES IDX 3 13 13 14 30 15 16 16 17 17 29 18 31 19 18 20 28 21 27 22
REMARK SMILES IDX 20 23 19 24 24 25 21 26 22 27 25 28 26 29 7 30 8 31 9 32
REMARK SMILES IDX 23 33
REMARK H PARENT 23 34
REMARK Flexibility Score: inf
ROOT
ATOM      1  C   UNL     1     -41.014  29.864 -20.494  1.00  0.00     0.017 C 
ATOM      2  C   UNL     1     -41.395  31.091 -21.393  1.00  0.00     0.014 C 
ATOM      3  C   UNL     1     -39.838  30.226 -19.512  1.00  0.00     0.014 C 
ATOM      4  C   UNL     1     -42.238  29.408 -19.624  1.00  0.00     0.028 C 
ATOM      5  C   UNL     1     -42.662  31.819 -20.925  1.00  0.00     0.007 C 
ATOM      6  C   UNL     1     -39.918  29.552 -18.110  1.00  0.00     0.013 C 
ATOM      7  C   UNL     1     -41.869  28.130 -18.874  1.00  0.00    -0.064 C 
ATOM      8  C   UNL     1     -43.558  29.434 -20.422  1.00  0.00     0.015 C 
ATOM      9  C   UNL     1     -43.914  30.883 -20.909  1.00  0.00    -0.035 C 
ATOM     10  C   UNL     1     -40.541  28.103 -18.097  1.00  0.00    -0.006 C 
ATOM     11  C   UNL     1     -42.651  27.033 -18.851  1.00  0.00    -0.027 C 
ATOM     12  C   UNL     1     -44.523  30.808 -22.329  1.00  0.00     0.011 C 
ATOM     13  C   UNL     1     -44.970  31.505 -19.964  1.00  0.00     0.011 C 
ATOM     14  C   UNL     1     -39.543  27.163 -18.866  1.00  0.00     0.017 C 
ATOM     15  C   UNL     1     -40.854  27.578 -16.596  1.00  0.00    -0.020 C 
ATOM     16  C   UNL     1     -42.233  25.834 -18.053  1.00  0.00     0.032 C 
ATOM     17  C   UNL     1     -41.774  26.249 -16.626  1.00  0.00     0.006 C 
ATOM     18  C   UNL     1     -39.506  27.428 -15.779  1.00  0.00     0.008 C 
ATOM     19  C   UNL     1     -41.697  28.669 -15.838  1.00  0.00     0.012 C 
ATOM     20  C   UNL     1     -41.345  25.018 -15.714  1.00  0.00    -0.025 C 
ATOM     21  C   UNL     1     -39.398  26.319 -14.707  1.00  0.00     0.005 C 
ATOM     22  C   UNL     1     -40.719  25.595 -14.390  1.00  0.00     0.003 C 
ATOM     23  C   UNL     1     -42.623  24.188 -15.364  1.00  0.00     0.010 C 
ATOM     24  C   UNL     1     -40.364  24.091 -16.488  1.00  0.00     0.012 C 
ATOM     25  C   UNL     1     -40.629  24.631 -13.124  1.00  0.00    -0.006 C 
ATOM     26  C   UNL     1     -42.405  23.162 -14.254  1.00  0.00     0.033 C 
ATOM     27  C   UNL     1     -41.965  23.840 -12.952  1.00  0.00     0.120 C 
ATOM     28  C   UNL     1     -39.445  23.619 -13.160  1.00  0.00     0.014 C 
ATOM     29  C   UNL     1     -40.407  25.490 -11.843  1.00  0.00     0.014 C 
ENDROOT
BRANCH   1  30
ATOM     30  C   UNL     1     -40.534  28.769 -21.452  1.00  0.00     0.048 C 
ATOM     31  O   UNL     1     -41.344  27.976 -21.998  1.00  0.00    -0.550 OA
ATOM     32  O   UNL     1     -39.192  28.694 -21.807  1.00  0.00    -0.550 OA
ENDBRANCH   1  30
BRANCH  27  33
ATOM     33  O   UNL     1     -43.003  24.694 -12.519  1.00  0.00    -0.393 OA
ATOM     34  H   UNL     1     -43.293  25.234 -13.296  1.00  0.00     0.210 HD
ENDBRANCH  27  33
TORSDOF 2
ENDMDL
MODEL 3
REMARK VINA RESULT:   157.845     12.018     15.565
REMARK INTER + INTRA:         173.980
REMARK INTER:                 172.094
REMARK INTRA:                   1.885
REMARK UNBOUND:                 2.293
REMARK SMILES CC1(C)CC[C@@]2(C(=O)[O-])CC[C@]3(C)C(=CC[C@H]4[C@]5(C)CC[C@H](O)C(C)(C)[C@H]5CC[C@]43C)[C@@H]2C1
REMARK SMILES IDX 6 1 5 2 10 3 32 4 4 5 11 6 14 7 33 8 2 9 12 10 15 11 1 12
REMARK SMILES IDX 3 13 13 14 30 15 16 16 17 17 29 18 31 19 18 20 28 21 27 22
REMARK SMILES IDX 20 23 19 24 24 25 21 26 22 27 25 28 26 29 7 30 8 31 9 32
REMARK SMILES IDX 23 33
REMARK H PARENT 23 34
REMARK Flexibility Score: inf
ROOT
ATOM      1  C   UNL     1     -29.194  22.150 -14.120  1.00  0.00     0.017 C 
ATOM      2  C   UNL     1     -29.184  20.875 -13.207  1.00  0.00     0.014 C 
ATOM      3  C   UNL     1     -30.610  22.366 -14.774  1.00  0.00     0.014 C 
ATOM      4  C   UNL     1     -28.855  23.435 -13.286  1.00  0.00     0.028 C 
ATOM      5  C   UNL     1     -29.287  21.196 -11.710  1.00  0.00     0.007 C 
ATOM      6  C   UNL     1     -31.038  23.853 -14.945  1.00  0.00     0.013 C 
ATOM      7  C   UNL     1     -28.735  24.627 -14.233  1.00  0.00    -0.064 C 
ATOM      8  C   UNL     1     -27.717  23.187 -12.275  1.00  0.00     0.015 C 
ATOM      9  C   UNL     1     -28.110  22.098 -11.214  1.00  0.00    -0.035 C 
ATOM     10  C   UNL     1     -29.862  24.859 -15.254  1.00  0.00    -0.006 C 
ATOM     11  C   UNL     1     -27.699  25.489 -14.211  1.00  0.00    -0.027 C 
ATOM     12  C   UNL     1     -26.876  21.218 -10.906  1.00  0.00     0.011 C 
ATOM     13  C   UNL     1     -28.551  22.787  -9.900  1.00  0.00     0.011 C 
ATOM     14  C   UNL     1     -29.312  24.502 -16.682  1.00  0.00     0.017 C 
ATOM     15  C   UNL     1     -30.327  26.408 -15.139  1.00  0.00    -0.020 C 
ATOM     16  C   UNL     1     -27.682  26.659 -15.149  1.00  0.00     0.032 C 
ATOM     17  C   UNL     1     -29.050  27.398 -15.141  1.00  0.00     0.006 C 
ATOM     18  C   UNL     1     -31.416  26.732 -16.242  1.00  0.00     0.008 C 
ATOM     19  C   UNL     1     -31.040  26.626 -13.754  1.00  0.00     0.012 C 
ATOM     20  C   UNL     1     -29.090  28.672 -16.094  1.00  0.00    -0.025 C 
ATOM     21  C   UNL     1     -31.470  28.154 -16.847  1.00  0.00     0.005 C 
ATOM     22  C   UNL     1     -30.575  29.191 -16.142  1.00  0.00     0.003 C 
ATOM     23  C   UNL     1     -28.173  29.780 -15.482  1.00  0.00     0.010 C 
ATOM     24  C   UNL     1     -28.535  28.309 -17.502  1.00  0.00     0.012 C 
ATOM     25  C   UNL     1     -30.828  30.687 -16.630  1.00  0.00    -0.006 C 
ATOM     26  C   UNL     1     -28.355  31.154 -16.126  1.00  0.00     0.033 C 
ATOM     27  C   UNL     1     -29.795  31.653 -15.967  1.00  0.00     0.120 C 
ATOM     28  C   UNL     1     -30.783  30.884 -18.175  1.00  0.00     0.014 C 
ATOM     29  C   UNL     1     -32.256  31.131 -16.192  1.00  0.00     0.014 C 
ENDROOT
BRANCH   1  30
ATOM     30  C   UNL     1     -28.175  21.884 -15.231  1.00  0.00     0.048 C 
ATOM     31  O   UNL     1     -28.115  22.617 -16.253  1.00  0.00    -0.550 OA
ATOM     32  O   UNL     1     -27.229  20.876 -15.083  1.00  0.00    -0.550 OA
ENDBRANCH   1  30
BRANCH  27  33
ATOM     33  O   UNL     1     -30.065  31.810 -14.589  1.00  0.00    -0.393 OA
ATOM     34  H   UNL     1     -29.201  31.785 -14.108  1.00  0.00     0.210 HD
ENDBRANCH  27  33
TORSDOF 2
ENDMDL
