MODEL 1
REMARK VINA RESULT:    -4.248      0.000      0.000
REMARK INTER + INTRA:          -8.243
REMARK INTER:                  -7.227
REMARK INTRA:                  -1.015
REMARK UNBOUND:                -1.015
REMARK SMILES CCCCCCCCCCCCCC(=O)[O-]
REMARK SMILES IDX 8 1 9 2 10 3 11 4 12 5 13 6 14 7 15 8 16 9 7 10 6 11 5 12
REMARK SMILES IDX 4 13 3 14 2 15 1 16
REMARK H PARENT
REMARK Flexibility Score: inf
ROOT
ATOM      1  C   UNL     1      15.434  12.017  18.499  1.00  0.00     0.000 C 
ENDROOT
BRANCH   1   2
ATOM      2  C   UNL     1      15.439  12.334  16.991  1.00  0.00     0.000 C 
BRANCH   2   3
ATOM      3  C   UNL     1      14.279  11.713  16.191  1.00  0.00     0.000 C 
BRANCH   3   4
ATOM      4  C   UNL     1      14.592  11.572  14.694  1.00  0.00     0.000 C 
BRANCH   4   5
ATOM      5  C   UNL     1      13.324  11.229  13.898  1.00  0.00     0.006 C 
BRANCH   5   6
ATOM      6  C   UNL     1      13.098  12.191  12.723  1.00  0.00     0.053 C 
BRANCH   6   7
ATOM      7  C   UNL     1      12.372  11.528  11.593  1.00  0.00     0.041 C 
ATOM      8  O   UNL     1      12.329  10.272  11.518  1.00  0.00    -0.550 OA
ATOM      9  O   UNL     1      11.714  12.297  10.641  1.00  0.00    -0.550 OA
ENDBRANCH   6   7
ENDBRANCH   5   6
ENDBRANCH   4   5
ENDBRANCH   3   4
ENDBRANCH   2   3
ENDBRANCH   1   2
BRANCH   1  10
ATOM     10  C   UNL     1      16.824  11.963  19.158  1.00  0.00     0.000 C 
BRANCH  10  11
ATOM     11  C   UNL     1      17.954  12.535  18.276  1.00  0.00    -0.000 C 
BRANCH  11  12
ATOM     12  C   UNL     1      19.132  11.561  18.124  1.00  0.00    -0.000 C 
BRANCH  12  13
ATOM     13  C   UNL     1      19.685  11.584  16.693  1.00  0.00    -0.000 C 
BRANCH  13  14
ATOM     14  C   UNL     1      18.907  12.581  15.821  1.00  0.00    -0.000 C 
BRANCH  14  15
ATOM     15  C   UNL     1      18.253  11.913  14.601  1.00  0.00    -0.003 C 
ATOM     16  C   UNL     1      18.492  12.684  13.304  1.00  0.00     0.004 C 
ENDBRANCH  14  15
ENDBRANCH  13  14
ENDBRANCH  12  13
ENDBRANCH  11  12
ENDBRANCH  10  11
ENDBRANCH   1  10
TORSDOF 12
ENDMDL
MODEL 2
REMARK VINA RESULT:    -4.137      2.505      5.369
REMARK INTER + INTRA:          -8.054
REMARK INTER:                  -7.025
REMARK INTRA:                  -1.030
REMARK UNBOUND:                -1.015
REMARK SMILES CCCCCCCCCCCCCC(=O)[O-]
REMARK SMILES IDX 8 1 9 2 10 3 11 4 12 5 13 6 14 7 15 8 16 9 7 10 6 11 5 12
REMARK SMILES IDX 4 13 3 14 2 15 1 16
REMARK H PARENT
REMARK Flexibility Score: inf
ROOT
ATOM      1  C   UNL     1      16.601  11.906  18.882  1.00  0.00     0.000 C 
ENDROOT
BRANCH   1   2
ATOM      2  C   UNL     1      17.877  12.526  18.281  1.00  0.00     0.000 C 
BRANCH   2   3
ATOM      3  C   UNL     1      19.071  11.561  18.151  1.00  0.00     0.000 C 
BRANCH   3   4
ATOM      4  C   UNL     1      19.829  11.723  16.825  1.00  0.00     0.000 C 
BRANCH   4   5
ATOM      5  C   UNL     1      19.066  12.649  15.866  1.00  0.00     0.006 C 
BRANCH   5   6
ATOM      6  C   UNL     1      18.543  11.903  14.630  1.00  0.00     0.053 C 
BRANCH   6   7
ATOM      7  C   UNL     1      18.372  12.821  13.458  1.00  0.00     0.041 C 
ATOM      8  O   UNL     1      17.220  13.087  13.025  1.00  0.00    -0.550 OA
ATOM      9  O   UNL     1      19.483  13.408  12.866  1.00  0.00    -0.550 OA
ENDBRANCH   6   7
ENDBRANCH   5   6
ENDBRANCH   4   5
ENDBRANCH   3   4
ENDBRANCH   2   3
ENDBRANCH   1   2
BRANCH   1  10
ATOM     10  C   UNL     1      15.303  12.209  18.109  1.00  0.00     0.000 C 
BRANCH  10  11
ATOM     11  C   UNL     1      15.437  12.042  16.580  1.00  0.00    -0.000 C 
BRANCH  11  12
ATOM     12  C   UNL     1      14.097  11.708  15.907  1.00  0.00    -0.000 C 
BRANCH  12  13
ATOM     13  C   UNL     1      14.256  11.610  14.384  1.00  0.00    -0.000 C 
BRANCH  13  14
ATOM     14  C   UNL     1      12.903  11.344  13.707  1.00  0.00    -0.000 C 
BRANCH  14  15
ATOM     15  C   UNL     1      12.760  12.080  12.365  1.00  0.00    -0.003 C 
ATOM     16  C   UNL     1      13.767  13.217  12.203  1.00  0.00     0.004 C 
ENDBRANCH  14  15
ENDBRANCH  13  14
ENDBRANCH  12  13
ENDBRANCH  11  12
ENDBRANCH  10  11
ENDBRANCH   1  10
TORSDOF 12
ENDMDL
MODEL 3
REMARK VINA RESULT:    -4.085      1.229      3.090
REMARK INTER + INTRA:          -7.966
REMARK INTER:                  -7.033
REMARK INTRA:                  -0.933
REMARK UNBOUND:                -1.015
REMARK SMILES CCCCCCCCCCCCCC(=O)[O-]
REMARK SMILES IDX 8 1 9 2 10 3 11 4 12 5 13 6 14 7 15 8 16 9 7 10 6 11 5 12
REMARK SMILES IDX 4 13 3 14 2 15 1 16
REMARK H PARENT
REMARK Flexibility Score: inf
ROOT
ATOM      1  C   UNL     1      16.216  11.812  15.652  1.00  0.00     0.000 C 
ENDROOT
BRANCH   1   2
ATOM      2  C   UNL     1      14.709  11.633  15.385  1.00  0.00     0.000 C 
BRANCH   2   3
ATOM      3  C   UNL     1      14.250  12.016  13.965  1.00  0.00     0.000 C 
BRANCH   3   4
ATOM      4  C   UNL     1      12.966  11.292  13.536  1.00  0.00     0.000 C 
BRANCH   4   5
ATOM      5  C   UNL     1      12.269  12.041  12.391  1.00  0.00     0.006 C 
BRANCH   5   6
ATOM      6  C   UNL     1      13.215  13.016  11.675  1.00  0.00     0.053 C 
BRANCH   6   7
ATOM      7  C   UNL     1      12.808  13.239  10.250  1.00  0.00     0.041 C 
ATOM      8  O   UNL     1      13.021  12.349   9.385  1.00  0.00    -0.550 OA
ATOM      9  O   UNL     1      12.165  14.415   9.885  1.00  0.00    -0.550 OA
ENDBRANCH   6   7
ENDBRANCH   5   6
ENDBRANCH   4   5
ENDBRANCH   3   4
ENDBRANCH   2   3
ENDBRANCH   1   2
BRANCH   1  10
ATOM     10  C   UNL     1      17.085  11.996  14.394  1.00  0.00     0.000 C 
BRANCH  10  11
ATOM     11  C   UNL     1      18.595  12.116  14.693  1.00  0.00    -0.000 C 
BRANCH  11  12
ATOM     12  C   UNL     1      18.877  12.865  16.004  1.00  0.00    -0.000 C 
BRANCH  12  13
ATOM     13  C   UNL     1      19.794  12.045  16.920  1.00  0.00    -0.000 C 
BRANCH  13  14
ATOM     14  C   UNL     1      19.012  11.478  18.115  1.00  0.00    -0.000 C 
BRANCH  14  15
ATOM     15  C   UNL     1      17.990  12.477  18.679  1.00  0.00    -0.003 C 
ATOM     16  C   UNL     1      16.773  11.793  19.300  1.00  0.00     0.004 C 
ENDBRANCH  14  15
ENDBRANCH  13  14
ENDBRANCH  12  13
ENDBRANCH  11  12
ENDBRANCH  10  11
ENDBRANCH   1  10
TORSDOF 12
ENDMDL
MODEL 4
REMARK VINA RESULT:    -4.054      3.906      7.633
REMARK INTER + INTRA:          -7.913
REMARK INTER:                  -7.250
REMARK INTRA:                  -0.663
REMARK UNBOUND:                -1.015
REMARK SMILES CCCCCCCCCCCCCC(=O)[O-]
REMARK SMILES IDX 8 1 9 2 10 3 11 4 12 5 13 6 14 7 15 8 16 9 7 10 6 11 5 12
REMARK SMILES IDX 4 13 3 14 2 15 1 16
REMARK H PARENT
REMARK Flexibility Score: inf
ROOT
ATOM      1  C   UNL     1      13.967  11.974  14.041  1.00  0.00     0.000 C 
ENDROOT
BRANCH   1   2
ATOM      2  C   UNL     1      14.888  11.173  14.982  1.00  0.00     0.000 C 
BRANCH   2   3
ATOM      3  C   UNL     1      16.118  11.942  15.499  1.00  0.00     0.000 C 
BRANCH   3   4
ATOM      4  C   UNL     1      17.214  12.103  14.435  1.00  0.00     0.000 C 
BRANCH   4   5
ATOM      5  C   UNL     1      18.603  11.833  15.033  1.00  0.00     0.006 C 
BRANCH   5   6
ATOM      6  C   UNL     1      18.886  12.705  16.263  1.00  0.00     0.053 C 
BRANCH   6   7
ATOM      7  C   UNL     1      19.164  11.877  17.480  1.00  0.00     0.041 C 
ATOM      8  O   UNL     1      20.288  11.329  17.630  1.00  0.00    -0.550 OA
ATOM      9  O   UNL     1      18.194  11.738  18.465  1.00  0.00    -0.550 OA
ENDBRANCH   6   7
ENDBRANCH   5   6
ENDBRANCH   4   5
ENDBRANCH   3   4
ENDBRANCH   2   3
ENDBRANCH   1   2
BRANCH   1  10
ATOM     10  C   UNL     1      12.872  11.148  13.341  1.00  0.00     0.000 C 
BRANCH  10  11
ATOM     11  C   UNL     1      12.448  11.714  11.969  1.00  0.00    -0.000 C 
BRANCH  11  12
ATOM     12  C   UNL     1      13.227  12.983  11.590  1.00  0.00    -0.000 C 
BRANCH  12  13
ATOM     13  C   UNL     1      12.793  13.505  10.215  1.00  0.00    -0.000 C 
BRANCH  13  14
ATOM     14  C   UNL     1      12.024  14.828  10.348  1.00  0.00    -0.000 C 
BRANCH  14  15
ATOM     15  C   UNL     1      10.562  14.620  10.773  1.00  0.00    -0.003 C 
ATOM     16  C   UNL     1      10.290  15.081  12.204  1.00  0.00     0.004 C 
ENDBRANCH  14  15
ENDBRANCH  13  14
ENDBRANCH  12  13
ENDBRANCH  11  12
ENDBRANCH  10  11
ENDBRANCH   1  10
TORSDOF 12
ENDMDL
MODEL 5
REMARK VINA RESULT:    -3.986      3.753      8.002
REMARK INTER + INTRA:          -7.797
REMARK INTER:                  -6.093
REMARK INTRA:                  -1.705
REMARK UNBOUND:                -1.015
REMARK SMILES CCCCCCCCCCCCCC(=O)[O-]
REMARK SMILES IDX 8 1 9 2 10 3 11 4 12 5 13 6 14 7 15 8 16 9 7 10 6 11 5 12
REMARK SMILES IDX 4 13 3 14 2 15 1 16
REMARK H PARENT
REMARK Flexibility Score: inf
ROOT
ATOM      1  C   UNL     1      11.619  10.892   9.977  1.00  0.00     0.000 C 
ENDROOT
BRANCH   1   2
ATOM      2  C   UNL     1      11.963  10.108  11.258  1.00  0.00     0.000 C 
BRANCH   2   3
ATOM      3  C   UNL     1      11.241  10.589  12.530  1.00  0.00     0.000 C 
BRANCH   3   4
ATOM      4  C   UNL     1      11.743  11.955  13.022  1.00  0.00     0.000 C 
BRANCH   4   5
ATOM      5  C   UNL     1      13.268  11.946  13.204  1.00  0.00     0.006 C 
BRANCH   5   6
ATOM      6  C   UNL     1      13.713  11.002  14.330  1.00  0.00     0.053 C 
BRANCH   6   7
ATOM      7  C   UNL     1      14.752  11.633  15.206  1.00  0.00     0.041 C 
ATOM      8  O   UNL     1      15.911  11.845  14.762  1.00  0.00    -0.550 OA
ATOM      9  O   UNL     1      14.430  12.017  16.502  1.00  0.00    -0.550 OA
ENDBRANCH   6   7
ENDBRANCH   5   6
ENDBRANCH   4   5
ENDBRANCH   3   4
ENDBRANCH   2   3
ENDBRANCH   1   2
BRANCH   1  10
ATOM     10  C   UNL     1      12.756  11.773   9.427  1.00  0.00     0.000 C 
BRANCH  10  11
ATOM     11  C   UNL     1      12.316  13.212   9.081  1.00  0.00    -0.000 C 
BRANCH  11  12
ATOM     12  C   UNL     1      12.580  14.198  10.229  1.00  0.00    -0.000 C 
BRANCH  12  13
ATOM     13  C   UNL     1      11.385  15.138  10.432  1.00  0.00    -0.000 C 
BRANCH  13  14
ATOM     14  C   UNL     1      10.072  14.455  10.019  1.00  0.00    -0.000 C 
BRANCH  14  15
ATOM     15  C   UNL     1       9.174  14.126  11.222  1.00  0.00    -0.003 C 
ATOM     16  C   UNL     1       9.602  14.853  12.496  1.00  0.00     0.004 C 
ENDBRANCH  14  15
ENDBRANCH  13  14
ENDBRANCH  12  13
ENDBRANCH  11  12
ENDBRANCH  10  11
ENDBRANCH   1  10
TORSDOF 12
ENDMDL
MODEL 6
REMARK VINA RESULT:    -3.977      6.371      8.447
REMARK INTER + INTRA:          -7.782
REMARK INTER:                  -5.612
REMARK INTRA:                  -2.170
REMARK UNBOUND:                -1.015
REMARK SMILES CCCCCCCCCCCCCC(=O)[O-]
REMARK SMILES IDX 8 1 9 2 10 3 11 4 12 5 13 6 14 7 15 8 16 9 7 10 6 11 5 12
REMARK SMILES IDX 4 13 3 14 2 15 1 16
REMARK H PARENT
REMARK Flexibility Score: inf
ROOT
ATOM      1  C   UNL     1      12.718  13.956  10.481  1.00  0.00     0.000 C 
ENDROOT
BRANCH   1   2
ATOM      2  C   UNL     1      11.850  13.965  11.754  1.00  0.00     0.000 C 
BRANCH   2   3
ATOM      3  C   UNL     1      10.839  15.123  11.845  1.00  0.00     0.000 C 
BRANCH   3   4
ATOM      4  C   UNL     1       9.499  14.699  12.465  1.00  0.00     0.000 C 
BRANCH   4   5
ATOM      5  C   UNL     1       9.419  13.172  12.610  1.00  0.00     0.006 C 
BRANCH   5   6
ATOM      6  C   UNL     1       9.047  12.742  14.035  1.00  0.00     0.053 C 
BRANCH   6   7
ATOM      7  C   UNL     1      10.067  11.814  14.620  1.00  0.00     0.041 C 
ATOM      8  O   UNL     1      10.947  11.296  13.885  1.00  0.00    -0.550 OA
ATOM      9  O   UNL     1      10.064  11.547  15.984  1.00  0.00    -0.550 OA
ENDBRANCH   6   7
ENDBRANCH   5   6
ENDBRANCH   4   5
ENDBRANCH   3   4
ENDBRANCH   2   3
ENDBRANCH   1   2
BRANCH   1  10
ATOM     10  C   UNL     1      12.779  12.606   9.743  1.00  0.00     0.000 C 
BRANCH  10  11
ATOM     11  C   UNL     1      12.279  11.413  10.587  1.00  0.00    -0.000 C 
BRANCH  11  12
ATOM     12  C   UNL     1      10.910  10.896  10.120  1.00  0.00    -0.000 C 
BRANCH  12  13
ATOM     13  C   UNL     1      10.404  11.693   8.911  1.00  0.00    -0.000 C 
BRANCH  13  14
ATOM     14  C   UNL     1       8.991  12.238   9.166  1.00  0.00    -0.000 C 
BRANCH  14  15
ATOM     15  C   UNL     1       8.888  13.751   8.916  1.00  0.00    -0.003 C 
ATOM     16  C   UNL     1       9.981  14.272   7.985  1.00  0.00     0.004 C 
ENDBRANCH  14  15
ENDBRANCH  13  14
ENDBRANCH  12  13
ENDBRANCH  11  12
ENDBRANCH  10  11
ENDBRANCH   1  10
TORSDOF 12
ENDMDL
MODEL 7
REMARK VINA RESULT:    -3.971      4.981      8.066
REMARK INTER + INTRA:          -7.772
REMARK INTER:                  -5.887
REMARK INTRA:                  -1.885
REMARK UNBOUND:                -1.015
REMARK SMILES CCCCCCCCCCCCCC(=O)[O-]
REMARK SMILES IDX 8 1 9 2 10 3 11 4 12 5 13 6 14 7 15 8 16 9 7 10 6 11 5 12
REMARK SMILES IDX 4 13 3 14 2 15 1 16
REMARK H PARENT
REMARK Flexibility Score: inf
ROOT
ATOM      1  C   UNL     1       9.472  13.294  13.085  1.00  0.00     0.000 C 
ENDROOT
BRANCH   1   2
ATOM      2  C   UNL     1       9.001  11.917  12.577  1.00  0.00     0.000 C 
BRANCH   2   3
ATOM      3  C   UNL     1       9.474  11.550  11.158  1.00  0.00     0.000 C 
BRANCH   3   4
ATOM      4  C   UNL     1      10.332  10.277  11.124  1.00  0.00     0.000 C 
BRANCH   4   5
ATOM      5  C   UNL     1      11.818  10.611  11.318  1.00  0.00     0.006 C 
BRANCH   5   6
ATOM      6  C   UNL     1      12.269  10.433  12.774  1.00  0.00     0.053 C 
BRANCH   6   7
ATOM      7  C   UNL     1      13.117  11.578  13.238  1.00  0.00     0.041 C 
ATOM      8  O   UNL     1      13.708  11.520  14.348  1.00  0.00    -0.550 OA
ATOM      9  O   UNL     1      13.280  12.696  12.429  1.00  0.00    -0.550 OA
ENDBRANCH   6   7
ENDBRANCH   5   6
ENDBRANCH   4   5
ENDBRANCH   3   4
ENDBRANCH   2   3
ENDBRANCH   1   2
BRANCH   1  10
ATOM     10  C   UNL     1       9.446  14.420  12.034  1.00  0.00     0.000 C 
BRANCH  10  11
ATOM     11  C   UNL     1      10.832  15.043  11.757  1.00  0.00    -0.000 C 
BRANCH  11  12
ATOM     12  C   UNL     1      11.275  14.863  10.297  1.00  0.00    -0.000 C 
BRANCH  12  13
ATOM     13  C   UNL     1      10.063  14.739   9.365  1.00  0.00    -0.000 C 
BRANCH  13  14
ATOM     14  C   UNL     1      10.381  13.829   8.169  1.00  0.00    -0.000 C 
BRANCH  14  15
ATOM     15  C   UNL     1      11.593  12.919   8.427  1.00  0.00    -0.003 C 
ATOM     16  C   UNL     1      11.470  11.560   7.741  1.00  0.00     0.004 C 
ENDBRANCH  14  15
ENDBRANCH  13  14
ENDBRANCH  12  13
ENDBRANCH  11  12
ENDBRANCH  10  11
ENDBRANCH   1  10
TORSDOF 12
ENDMDL
MODEL 8
REMARK VINA RESULT:    -3.947      5.498      8.427
REMARK INTER + INTRA:          -7.732
REMARK INTER:                  -5.756
REMARK INTRA:                  -1.976
REMARK UNBOUND:                -1.015
REMARK SMILES CCCCCCCCCCCCCC(=O)[O-]
REMARK SMILES IDX 8 1 9 2 10 3 11 4 12 5 13 6 14 7 15 8 16 9 7 10 6 11 5 12
REMARK SMILES IDX 4 13 3 14 2 15 1 16
REMARK H PARENT
REMARK Flexibility Score: inf
ROOT
ATOM      1  C   UNL     1      11.300  14.664  11.326  1.00  0.00     0.000 C 
ENDROOT
BRANCH   1   2
ATOM      2  C   UNL     1      10.072  14.994  12.195  1.00  0.00     0.000 C 
BRANCH   2   3
ATOM      3  C   UNL     1       9.371  13.775  12.823  1.00  0.00     0.000 C 
BRANCH   3   4
ATOM      4  C   UNL     1       9.291  12.574  11.869  1.00  0.00     0.000 C 
BRANCH   4   5
ATOM      5  C   UNL     1       9.896  11.319  12.515  1.00  0.00     0.006 C 
BRANCH   5   6
ATOM      6  C   UNL     1      10.932  11.662  13.594  1.00  0.00     0.053 C 
BRANCH   6   7
ATOM      7  C   UNL     1      12.292  11.136  13.248  1.00  0.00     0.041 C 
ATOM      8  O   UNL     1      12.415  10.198  12.417  1.00  0.00    -0.550 OA
ATOM      9  O   UNL     1      13.424  11.704  13.819  1.00  0.00    -0.550 OA
ENDBRANCH   6   7
ENDBRANCH   5   6
ENDBRANCH   4   5
ENDBRANCH   3   4
ENDBRANCH   2   3
ENDBRANCH   1   2
BRANCH   1  10
ATOM     10  C   UNL     1      11.260  15.237   9.897  1.00  0.00     0.000 C 
BRANCH  10  11
ATOM     11  C   UNL     1       9.924  14.990   9.164  1.00  0.00    -0.000 C 
BRANCH  11  12
ATOM     12  C   UNL     1      10.096  14.135   7.900  1.00  0.00    -0.000 C 
BRANCH  12  13
ATOM     13  C   UNL     1       9.778  12.661   8.184  1.00  0.00    -0.000 C 
BRANCH  13  14
ATOM     14  C   UNL     1      11.002  11.774   7.913  1.00  0.00    -0.000 C 
BRANCH  14  15
ATOM     15  C   UNL     1      11.708  11.332   9.205  1.00  0.00    -0.003 C 
ATOM     16  C   UNL     1      13.036  12.054   9.430  1.00  0.00     0.004 C 
ENDBRANCH  14  15
ENDBRANCH  13  14
ENDBRANCH  12  13
ENDBRANCH  11  12
ENDBRANCH  10  11
ENDBRANCH   1  10
TORSDOF 12
ENDMDL
MODEL 9
REMARK VINA RESULT:    -3.828      6.225      7.914
REMARK INTER + INTRA:          -7.529
REMARK INTER:                  -6.030
REMARK INTRA:                  -1.499
REMARK UNBOUND:                -1.015
REMARK SMILES CCCCCCCCCCCCCC(=O)[O-]
REMARK SMILES IDX 8 1 9 2 10 3 11 4 12 5 13 6 14 7 15 8 16 9 7 10 6 11 5 12
REMARK SMILES IDX 4 13 3 14 2 15 1 16
REMARK H PARENT
REMARK Flexibility Score: inf
ROOT
ATOM      1  C   UNL     1       9.255  14.257  12.771  1.00  0.00     0.000 C 
ENDROOT
BRANCH   1   2
ATOM      2  C   UNL     1       8.999  12.884  12.119  1.00  0.00     0.000 C 
BRANCH   2   3
ATOM      3  C   UNL     1       8.982  11.693  13.095  1.00  0.00     0.000 C 
BRANCH   3   4
ATOM      4  C   UNL     1       9.844  11.931  14.344  1.00  0.00     0.000 C 
BRANCH   4   5
ATOM      5  C   UNL     1       9.246  11.219  15.567  1.00  0.00     0.006 C 
BRANCH   5   6
ATOM      6  C   UNL     1       9.210  12.125  16.806  1.00  0.00     0.053 C 
BRANCH   6   7
ATOM      7  C   UNL     1      10.150  11.647  17.871  1.00  0.00     0.041 C 
ATOM      8  O   UNL     1       9.928  10.562  18.470  1.00  0.00    -0.550 OA
ATOM      9  O   UNL     1      11.287  12.383  18.178  1.00  0.00    -0.550 OA
ENDBRANCH   6   7
ENDBRANCH   5   6
ENDBRANCH   4   5
ENDBRANCH   3   4
ENDBRANCH   2   3
ENDBRANCH   1   2
BRANCH   1  10
ATOM     10  C   UNL     1      10.390  15.080  12.133  1.00  0.00     0.000 C 
BRANCH  10  11
ATOM     11  C   UNL     1      10.697  14.688  10.671  1.00  0.00    -0.000 C 
BRANCH  11  12
ATOM     12  C   UNL     1      12.191  14.800  10.334  1.00  0.00    -0.000 C 
BRANCH  12  13
ATOM     13  C   UNL     1      12.975  13.613  10.909  1.00  0.00    -0.000 C 
BRANCH  13  14
ATOM     14  C   UNL     1      12.377  12.280  10.436  1.00  0.00    -0.000 C 
BRANCH  14  15
ATOM     15  C   UNL     1      12.353  11.217  11.546  1.00  0.00    -0.003 C 
ATOM     16  C   UNL     1      11.624   9.941  11.129  1.00  0.00     0.004 C 
ENDBRANCH  14  15
ENDBRANCH  13  14
ENDBRANCH  12  13
ENDBRANCH  11  12
ENDBRANCH  10  11
ENDBRANCH   1  10
TORSDOF 12
ENDMDL
