MODEL 1
REMARK VINA RESULT:    -5.305      0.000      0.000
REMARK INTER + INTRA:         -11.446
REMARK INTER:                  -9.647
REMARK INTRA:                  -1.799
REMARK UNBOUND:                -1.799
REMARK SMILES CCCCCCCCCCCCCCCC(=O)[O-]
REMARK SMILES IDX 9 1 10 2 11 3 12 4 13 5 14 6 15 7 16 8 17 9 18 10 8 11 7 12
REMARK SMILES IDX 6 13 5 14 4 15 3 16 2 17 1 18
REMARK H PARENT
REMARK Flexibility Score: inf
ROOT
ATOM      1  C   UNL     1       5.541  23.416  -7.761  1.00  0.00     0.000 C 
ENDROOT
BRANCH   1   2
ATOM      2  C   UNL     1       4.868  22.528  -8.824  1.00  0.00     0.000 C 
BRANCH   2   3
ATOM      3  C   UNL     1       5.761  22.282 -10.053  1.00  0.00     0.000 C 
BRANCH   3   4
ATOM      4  C   UNL     1       7.012  23.180 -10.076  1.00  0.00     0.000 C 
BRANCH   4   5
ATOM      5  C   UNL     1       8.343  22.459  -9.800  1.00  0.00     0.000 C 
BRANCH   5   6
ATOM      6  C   UNL     1       9.455  23.410  -9.325  1.00  0.00     0.006 C 
BRANCH   6   7
ATOM      7  C   UNL     1      10.750  23.235 -10.127  1.00  0.00     0.053 C 
BRANCH   7   8
ATOM      8  C   UNL     1      11.731  24.332  -9.845  1.00  0.00     0.041 C 
ATOM      9  O   UNL     1      12.057  25.139 -10.755  1.00  0.00    -0.550 OA
ATOM     10  O   UNL     1      12.255  24.487  -8.567  1.00  0.00    -0.550 OA
ENDBRANCH   7   8
ENDBRANCH   6   7
ENDBRANCH   5   6
ENDBRANCH   4   5
ENDBRANCH   3   4
ENDBRANCH   2   3
ENDBRANCH   1   2
BRANCH   1  11
ATOM     11  C   UNL     1       5.221  23.053  -6.299  1.00  0.00     0.000 C 
BRANCH  11  12
ATOM     12  C   UNL     1       6.475  22.966  -5.413  1.00  0.00    -0.000 C 
BRANCH  12  13
ATOM     13  C   UNL     1       7.765  22.800  -6.234  1.00  0.00    -0.000 C 
BRANCH  13  14
ATOM     14  C   UNL     1       8.774  21.855  -5.558  1.00  0.00    -0.000 C 
BRANCH  14  15
ATOM     15  C   UNL     1      10.041  21.639  -6.404  1.00  0.00    -0.000 C 
BRANCH  15  16
ATOM     16  C   UNL     1      10.021  20.307  -7.172  1.00  0.00    -0.000 C 
BRANCH  16  17
ATOM     17  C   UNL     1      11.303  20.079  -7.987  1.00  0.00    -0.003 C 
ATOM     18  C   UNL     1      12.395  21.102  -7.674  1.00  0.00     0.004 C 
ENDBRANCH  16  17
ENDBRANCH  15  16
ENDBRANCH  14  15
ENDBRANCH  13  14
ENDBRANCH  12  13
ENDBRANCH  11  12
ENDBRANCH   1  11
TORSDOF 14
ENDMDL
MODEL 2
REMARK VINA RESULT:    -5.242      2.721      4.962
REMARK INTER + INTRA:         -11.332
REMARK INTER:                  -9.686
REMARK INTRA:                  -1.645
REMARK UNBOUND:                -1.799
REMARK SMILES CCCCCCCCCCCCCCCC(=O)[O-]
REMARK SMILES IDX 9 1 10 2 11 3 12 4 13 5 14 6 15 7 16 8 17 9 18 10 8 11 7 12
REMARK SMILES IDX 6 13 5 14 4 15 3 16 2 17 1 18
REMARK H PARENT
REMARK Flexibility Score: inf
ROOT
ATOM      1  C   UNL     1      11.015  23.319 -10.483  1.00  0.00     0.000 C 
ENDROOT
BRANCH   1   2
ATOM      2  C   UNL     1       9.815  22.829  -9.650  1.00  0.00     0.000 C 
BRANCH   2   3
ATOM      3  C   UNL     1       8.555  22.589 -10.499  1.00  0.00     0.000 C 
BRANCH   3   4
ATOM      4  C   UNL     1       7.356  22.095  -9.667  1.00  0.00     0.000 C 
BRANCH   4   5
ATOM      5  C   UNL     1       6.225  23.120  -9.473  1.00  0.00     0.000 C 
BRANCH   5   6
ATOM      6  C   UNL     1       6.655  24.338  -8.635  1.00  0.00     0.006 C 
BRANCH   6   7
ATOM      7  C   UNL     1       7.266  23.928  -7.289  1.00  0.00     0.053 C 
BRANCH   7   8
ATOM      8  C   UNL     1       6.285  24.074  -6.167  1.00  0.00     0.041 C 
ATOM      9  O   UNL     1       5.310  23.282  -6.071  1.00  0.00    -0.550 OA
ATOM     10  O   UNL     1       6.468  25.059  -5.204  1.00  0.00    -0.550 OA
ENDBRANCH   7   8
ENDBRANCH   6   7
ENDBRANCH   5   6
ENDBRANCH   4   5
ENDBRANCH   3   4
ENDBRANCH   2   3
ENDBRANCH   1   2
BRANCH   1  11
ATOM     11  C   UNL     1      11.778  24.522  -9.897  1.00  0.00     0.000 C 
BRANCH  11  12
ATOM     12  C   UNL     1      11.947  24.440  -8.370  1.00  0.00    -0.000 C 
BRANCH  12  13
ATOM     13  C   UNL     1      13.367  24.012  -7.958  1.00  0.00    -0.000 C 
BRANCH  13  14
ATOM     14  C   UNL     1      13.358  22.918  -6.875  1.00  0.00    -0.000 C 
BRANCH  14  15
ATOM     15  C   UNL     1      12.147  21.977  -6.996  1.00  0.00    -0.000 C 
BRANCH  15  16
ATOM     16  C   UNL     1      12.394  20.815  -7.974  1.00  0.00    -0.000 C 
BRANCH  16  17
ATOM     17  C   UNL     1      11.348  19.699  -7.837  1.00  0.00    -0.003 C 
ATOM     18  C   UNL     1      10.028  20.192  -7.243  1.00  0.00     0.004 C 
ENDBRANCH  16  17
ENDBRANCH  15  16
ENDBRANCH  14  15
ENDBRANCH  13  14
ENDBRANCH  12  13
ENDBRANCH  11  12
ENDBRANCH   1  11
TORSDOF 14
ENDMDL
MODEL 3
REMARK VINA RESULT:    -5.201      1.374      4.355
REMARK INTER + INTRA:         -11.255
REMARK INTER:                  -9.590
REMARK INTRA:                  -1.665
REMARK UNBOUND:                -1.799
REMARK SMILES CCCCCCCCCCCCCCCC(=O)[O-]
REMARK SMILES IDX 9 1 10 2 11 3 12 4 13 5 14 6 15 7 16 8 17 9 18 10 8 11 7 12
REMARK SMILES IDX 6 13 5 14 4 15 3 16 2 17 1 18
REMARK H PARENT
REMARK Flexibility Score: inf
ROOT
ATOM      1  C   UNL     1       7.024  22.105  -9.881  1.00  0.00     0.000 C 
ENDROOT
BRANCH   1   2
ATOM      2  C   UNL     1       8.513  22.463  -9.718  1.00  0.00     0.000 C 
BRANCH   2   3
ATOM      3  C   UNL     1       8.800  23.269  -8.440  1.00  0.00     0.000 C 
BRANCH   3   4
ATOM      4  C   UNL     1       9.516  22.441  -7.356  1.00  0.00     0.000 C 
BRANCH   4   5
ATOM      5  C   UNL     1      10.312  21.231  -7.875  1.00  0.00     0.000 C 
BRANCH   5   6
ATOM      6  C   UNL     1      11.746  21.592  -8.301  1.00  0.00     0.006 C 
BRANCH   6   7
ATOM      7  C   UNL     1      12.415  22.564  -7.321  1.00  0.00     0.053 C 
BRANCH   7   8
ATOM      8  C   UNL     1      12.772  23.860  -7.982  1.00  0.00     0.041 C 
ATOM      9  O   UNL     1      13.685  24.585  -7.503  1.00  0.00    -0.550 OA
ATOM     10  O   UNL     1      12.124  24.250  -9.148  1.00  0.00    -0.550 OA
ENDBRANCH   7   8
ENDBRANCH   6   7
ENDBRANCH   5   6
ENDBRANCH   4   5
ENDBRANCH   3   4
ENDBRANCH   2   3
ENDBRANCH   1   2
BRANCH   1  11
ATOM     11  C   UNL     1       6.149  23.198 -10.525  1.00  0.00     0.000 C 
BRANCH  11  12
ATOM     12  C   UNL     1       4.868  23.490  -9.726  1.00  0.00    -0.000 C 
BRANCH  12  13
ATOM     13  C   UNL     1       4.296  22.232  -9.050  1.00  0.00    -0.000 C 
BRANCH  13  14
ATOM     14  C   UNL     1       3.891  22.486  -7.587  1.00  0.00    -0.000 C 
BRANCH  14  15
ATOM     15  C   UNL     1       4.807  23.505  -6.887  1.00  0.00    -0.000 C 
BRANCH  15  16
ATOM     16  C   UNL     1       5.810  22.840  -5.930  1.00  0.00    -0.000 C 
BRANCH  16  17
ATOM     17  C   UNL     1       6.889  23.817  -5.438  1.00  0.00    -0.003 C 
ATOM     18  C   UNL     1       6.431  25.275  -5.476  1.00  0.00     0.004 C 
ENDBRANCH  16  17
ENDBRANCH  15  16
ENDBRANCH  14  15
ENDBRANCH  13  14
ENDBRANCH  12  13
ENDBRANCH  11  12
ENDBRANCH   1  11
TORSDOF 14
ENDMDL
MODEL 4
REMARK VINA RESULT:    -5.182      2.644      5.583
REMARK INTER + INTRA:         -11.221
REMARK INTER:                  -9.447
REMARK INTRA:                  -1.774
REMARK UNBOUND:                -1.799
REMARK SMILES CCCCCCCCCCCCCCCC(=O)[O-]
REMARK SMILES IDX 9 1 10 2 11 3 12 4 13 5 14 6 15 7 16 8 17 9 18 10 8 11 7 12
REMARK SMILES IDX 6 13 5 14 4 15 3 16 2 17 1 18
REMARK H PARENT
REMARK Flexibility Score: inf
ROOT
ATOM      1  C   UNL     1       4.586  23.420  -6.612  1.00  0.00     0.000 C 
ENDROOT
BRANCH   1   2
ATOM      2  C   UNL     1       5.803  22.881  -5.836  1.00  0.00     0.000 C 
BRANCH   2   3
ATOM      3  C   UNL     1       7.115  23.593  -6.209  1.00  0.00     0.000 C 
BRANCH   3   4
ATOM      4  C   UNL     1       6.967  24.526  -7.425  1.00  0.00     0.000 C 
BRANCH   4   5
ATOM      5  C   UNL     1       7.962  24.273  -8.572  1.00  0.00     0.000 C 
BRANCH   5   6
ATOM      6  C   UNL     1       8.525  22.840  -8.572  1.00  0.00     0.006 C 
BRANCH   6   7
ATOM      7  C   UNL     1      10.052  22.818  -8.431  1.00  0.00     0.053 C 
BRANCH   7   8
ATOM      8  C   UNL     1      10.512  21.698  -7.548  1.00  0.00     0.041 C 
ATOM      9  O   UNL     1      11.250  20.788  -8.012  1.00  0.00    -0.550 OA
ATOM     10  O   UNL     1      10.156  21.678  -6.205  1.00  0.00    -0.550 OA
ENDBRANCH   7   8
ENDBRANCH   6   7
ENDBRANCH   5   6
ENDBRANCH   4   5
ENDBRANCH   3   4
ENDBRANCH   2   3
ENDBRANCH   1   2
BRANCH   1  11
ATOM     11  C   UNL     1       3.886  22.401  -7.532  1.00  0.00     0.000 C 
BRANCH  11  12
ATOM     12  C   UNL     1       3.868  22.837  -9.006  1.00  0.00    -0.000 C 
BRANCH  12  13
ATOM     13  C   UNL     1       5.120  22.374  -9.772  1.00  0.00    -0.000 C 
BRANCH  13  14
ATOM     14  C   UNL     1       5.431  23.271 -10.984  1.00  0.00    -0.000 C 
BRANCH  14  15
ATOM     15  C   UNL     1       4.824  24.678 -10.849  1.00  0.00    -0.000 C 
BRANCH  15  16
ATOM     16  C   UNL     1       3.849  25.015 -11.989  1.00  0.00    -0.000 C 
BRANCH  16  17
ATOM     17  C   UNL     1       4.170  26.359 -12.661  1.00  0.00    -0.003 C 
ATOM     18  C   UNL     1       4.690  27.405 -11.675  1.00  0.00     0.004 C 
ENDBRANCH  16  17
ENDBRANCH  15  16
ENDBRANCH  14  15
ENDBRANCH  13  14
ENDBRANCH  12  13
ENDBRANCH  11  12
ENDBRANCH   1  11
TORSDOF 14
ENDMDL
MODEL 5
REMARK VINA RESULT:    -5.129      1.423      4.633
REMARK INTER + INTRA:         -11.125
REMARK INTER:                  -9.716
REMARK INTRA:                  -1.409
REMARK UNBOUND:                -1.799
REMARK SMILES CCCCCCCCCCCCCCCC(=O)[O-]
REMARK SMILES IDX 9 1 10 2 11 3 12 4 13 5 14 6 15 7 16 8 17 9 18 10 8 11 7 12
REMARK SMILES IDX 6 13 5 14 4 15 3 16 2 17 1 18
REMARK H PARENT
REMARK Flexibility Score: inf
ROOT
ATOM      1  C   UNL     1       7.251  23.146  -5.385  1.00  0.00     0.000 C 
ENDROOT
BRANCH   1   2
ATOM      2  C   UNL     1       8.018  21.822  -5.215  1.00  0.00     0.000 C 
BRANCH   2   3
ATOM      3  C   UNL     1       9.392  21.832  -5.907  1.00  0.00     0.000 C 
BRANCH   3   4
ATOM      4  C   UNL     1       9.531  20.738  -6.982  1.00  0.00     0.000 C 
BRANCH   4   5
ATOM      5  C   UNL     1      10.795  20.833  -7.856  1.00  0.00     0.000 C 
BRANCH   5   6
ATOM      6  C   UNL     1      11.464  22.218  -7.795  1.00  0.00     0.006 C 
BRANCH   6   7
ATOM      7  C   UNL     1      11.121  23.081  -9.016  1.00  0.00     0.053 C 
BRANCH   7   8
ATOM      8  C   UNL     1      12.039  24.259  -9.139  1.00  0.00     0.041 C 
ATOM      9  O   UNL     1      12.016  24.974 -10.176  1.00  0.00    -0.550 OA
ATOM     10  O   UNL     1      12.892  24.589  -8.093  1.00  0.00    -0.550 OA
ENDBRANCH   7   8
ENDBRANCH   6   7
ENDBRANCH   5   6
ENDBRANCH   4   5
ENDBRANCH   3   4
ENDBRANCH   2   3
ENDBRANCH   1   2
BRANCH   1  11
ATOM     11  C   UNL     1       5.791  23.008  -5.858  1.00  0.00     0.000 C 
BRANCH  11  12
ATOM     12  C   UNL     1       5.625  23.239  -7.369  1.00  0.00    -0.000 C 
BRANCH  12  13
ATOM     13  C   UNL     1       6.873  23.874  -8.008  1.00  0.00    -0.000 C 
BRANCH  13  14
ATOM     14  C   UNL     1       7.217  23.247  -9.371  1.00  0.00    -0.000 C 
BRANCH  14  15
ATOM     15  C   UNL     1       6.027  22.497  -9.994  1.00  0.00    -0.000 C 
BRANCH  15  16
ATOM     16  C   UNL     1       5.417  23.244 -11.192  1.00  0.00    -0.000 C 
BRANCH  16  17
ATOM     17  C   UNL     1       4.841  24.614 -10.800  1.00  0.00    -0.003 C 
ATOM     18  C   UNL     1       4.225  25.359 -11.984  1.00  0.00     0.004 C 
ENDBRANCH  16  17
ENDBRANCH  15  16
ENDBRANCH  14  15
ENDBRANCH  13  14
ENDBRANCH  12  13
ENDBRANCH  11  12
ENDBRANCH   1  11
TORSDOF 14
ENDMDL
MODEL 6
REMARK VINA RESULT:    -5.083      2.849      4.495
REMARK INTER + INTRA:         -11.042
REMARK INTER:                  -9.301
REMARK INTRA:                  -1.740
REMARK UNBOUND:                -1.799
REMARK SMILES CCCCCCCCCCCCCCCC(=O)[O-]
REMARK SMILES IDX 9 1 10 2 11 3 12 4 13 5 14 6 15 7 16 8 17 9 18 10 8 11 7 12
REMARK SMILES IDX 6 13 5 14 4 15 3 16 2 17 1 18
REMARK H PARENT
REMARK Flexibility Score: inf
ROOT
ATOM      1  C   UNL     1       7.443  22.897  -5.242  1.00  0.00     0.000 C 
ENDROOT
BRANCH   1   2
ATOM      2  C   UNL     1       6.552  23.195  -6.463  1.00  0.00     0.000 C 
BRANCH   2   3
ATOM      3  C   UNL     1       6.871  24.548  -7.122  1.00  0.00     0.000 C 
BRANCH   3   4
ATOM      4  C   UNL     1       7.384  24.405  -8.567  1.00  0.00     0.000 C 
BRANCH   4   5
ATOM      5  C   UNL     1       7.304  22.985  -9.155  1.00  0.00     0.000 C 
BRANCH   5   6
ATOM      6  C   UNL     1       6.445  22.910 -10.429  1.00  0.00     0.006 C 
BRANCH   6   7
ATOM      7  C   UNL     1       5.083  23.593 -10.250  1.00  0.00     0.053 C 
BRANCH   7   8
ATOM      8  C   UNL     1       4.764  24.502 -11.397  1.00  0.00     0.041 C 
ATOM      9  O   UNL     1       4.687  25.747 -11.217  1.00  0.00    -0.550 OA
ATOM     10  O   UNL     1       4.590  23.980 -12.673  1.00  0.00    -0.550 OA
ENDBRANCH   7   8
ENDBRANCH   6   7
ENDBRANCH   5   6
ENDBRANCH   4   5
ENDBRANCH   3   4
ENDBRANCH   2   3
ENDBRANCH   1   2
BRANCH   1  11
ATOM     11  C   UNL     1       8.253  21.588  -5.321  1.00  0.00     0.000 C 
BRANCH  11  12
ATOM     12  C   UNL     1       9.635  21.775  -5.968  1.00  0.00    -0.000 C 
BRANCH  12  13
ATOM     13  C   UNL     1       9.871  20.807  -7.140  1.00  0.00    -0.000 C 
BRANCH  13  14
ATOM     14  C   UNL     1      11.080  21.213  -8.003  1.00  0.00    -0.000 C 
BRANCH  14  15
ATOM     15  C   UNL     1      11.902  22.349  -7.370  1.00  0.00    -0.000 C 
BRANCH  15  16
ATOM     16  C   UNL     1      12.117  23.531  -8.329  1.00  0.00    -0.000 C 
BRANCH  16  17
ATOM     17  C   UNL     1      10.906  23.773  -9.244  1.00  0.00    -0.003 C 
ATOM     18  C   UNL     1      11.288  23.866 -10.722  1.00  0.00     0.004 C 
ENDBRANCH  16  17
ENDBRANCH  15  16
ENDBRANCH  14  15
ENDBRANCH  13  14
ENDBRANCH  12  13
ENDBRANCH  11  12
ENDBRANCH   1  11
TORSDOF 14
ENDMDL
MODEL 7
REMARK VINA RESULT:    -5.044      1.946      4.392
REMARK INTER + INTRA:         -10.972
REMARK INTER:                  -9.184
REMARK INTRA:                  -1.788
REMARK UNBOUND:                -1.799
REMARK SMILES CCCCCCCCCCCCCCCC(=O)[O-]
REMARK SMILES IDX 9 1 10 2 11 3 12 4 13 5 14 6 15 7 16 8 17 9 18 10 8 11 7 12
REMARK SMILES IDX 6 13 5 14 4 15 3 16 2 17 1 18
REMARK H PARENT
REMARK Flexibility Score: inf
ROOT
ATOM      1  C   UNL     1       9.350  22.269  -7.049  1.00  0.00     0.000 C 
ENDROOT
BRANCH   1   2
ATOM      2  C   UNL     1       9.782  21.499  -8.311  1.00  0.00     0.000 C 
BRANCH   2   3
ATOM      3  C   UNL     1      10.195  22.426  -9.467  1.00  0.00     0.000 C 
BRANCH   3   4
ATOM      4  C   UNL     1      10.502  23.863  -9.004  1.00  0.00     0.000 C 
BRANCH   4   5
ATOM      5  C   UNL     1      11.890  24.398  -9.399  1.00  0.00     0.000 C 
BRANCH   5   6
ATOM      6  C   UNL     1      12.872  24.453  -8.215  1.00  0.00     0.006 C 
BRANCH   6   7
ATOM      7  C   UNL     1      13.012  23.096  -7.515  1.00  0.00     0.053 C 
BRANCH   7   8
ATOM      8  C   UNL     1      14.024  23.142  -6.412  1.00  0.00     0.041 C 
ATOM      9  O   UNL     1      15.122  23.735  -6.584  1.00  0.00    -0.550 OA
ATOM     10  O   UNL     1      13.739  22.565  -5.180  1.00  0.00    -0.550 OA
ENDBRANCH   7   8
ENDBRANCH   6   7
ENDBRANCH   5   6
ENDBRANCH   4   5
ENDBRANCH   3   4
ENDBRANCH   2   3
ENDBRANCH   1   2
BRANCH   1  11
ATOM     11  C   UNL     1       8.914  21.394  -5.859  1.00  0.00     0.000 C 
BRANCH  11  12
ATOM     12  C   UNL     1       8.038  22.150  -4.846  1.00  0.00    -0.000 C 
BRANCH  12  13
ATOM     13  C   UNL     1       7.257  23.307  -5.492  1.00  0.00    -0.000 C 
BRANCH  13  14
ATOM     14  C   UNL     1       5.806  22.918  -5.830  1.00  0.00    -0.000 C 
BRANCH  14  15
ATOM     15  C   UNL     1       5.427  23.256  -7.283  1.00  0.00    -0.000 C 
BRANCH  15  16
ATOM     16  C   UNL     1       6.532  24.034  -8.018  1.00  0.00    -0.000 C 
BRANCH  16  17
ATOM     17  C   UNL     1       6.437  23.888  -9.544  1.00  0.00    -0.003 C 
ATOM     18  C   UNL     1       6.557  22.437 -10.010  1.00  0.00     0.004 C 
ENDBRANCH  16  17
ENDBRANCH  15  16
ENDBRANCH  14  15
ENDBRANCH  13  14
ENDBRANCH  12  13
ENDBRANCH  11  12
ENDBRANCH   1  11
TORSDOF 14
ENDMDL
MODEL 8
REMARK VINA RESULT:    -4.966      2.973      6.191
REMARK INTER + INTRA:         -10.828
REMARK INTER:                  -9.967
REMARK INTRA:                  -0.861
REMARK UNBOUND:                -1.799
REMARK SMILES CCCCCCCCCCCCCCCC(=O)[O-]
REMARK SMILES IDX 9 1 10 2 11 3 12 4 13 5 14 6 15 7 16 8 17 9 18 10 8 11 7 12
REMARK SMILES IDX 6 13 5 14 4 15 3 16 2 17 1 18
REMARK H PARENT
REMARK Flexibility Score: inf
ROOT
ATOM      1  C   UNL     1       9.297  22.201  -8.545  1.00  0.00     0.000 C 
ENDROOT
BRANCH   1   2
ATOM      2  C   UNL     1       9.934  22.871  -9.777  1.00  0.00     0.000 C 
BRANCH   2   3
ATOM      3  C   UNL     1      11.068  23.844  -9.412  1.00  0.00     0.000 C 
BRANCH   3   4
ATOM      4  C   UNL     1      11.958  23.325  -8.267  1.00  0.00     0.000 C 
BRANCH   4   5
ATOM      5  C   UNL     1      13.205  24.177  -7.969  1.00  0.00     0.000 C 
BRANCH   5   6
ATOM      6  C   UNL     1      14.251  23.434  -7.118  1.00  0.00     0.006 C 
BRANCH   6   7
ATOM      7  C   UNL     1      13.603  22.487  -6.100  1.00  0.00     0.053 C 
BRANCH   7   8
ATOM      8  C   UNL     1      14.004  22.822  -4.696  1.00  0.00     0.041 C 
ATOM      9  O   UNL     1      15.109  23.382  -4.470  1.00  0.00    -0.550 OA
ATOM     10  O   UNL     1      13.140  22.552  -3.641  1.00  0.00    -0.550 OA
ENDBRANCH   7   8
ENDBRANCH   6   7
ENDBRANCH   5   6
ENDBRANCH   4   5
ENDBRANCH   3   4
ENDBRANCH   2   3
ENDBRANCH   1   2
BRANCH   1  11
ATOM     11  C   UNL     1       8.383  23.107  -7.699  1.00  0.00     0.000 C 
BRANCH  11  12
ATOM     12  C   UNL     1       7.568  24.097  -8.547  1.00  0.00    -0.000 C 
BRANCH  12  13
ATOM     13  C   UNL     1       6.152  23.580  -8.856  1.00  0.00    -0.000 C 
BRANCH  13  14
ATOM     14  C   UNL     1       6.109  22.711 -10.126  1.00  0.00    -0.000 C 
BRANCH  14  15
ATOM     15  C   UNL     1       5.376  23.400 -11.289  1.00  0.00    -0.000 C 
BRANCH  15  16
ATOM     16  C   UNL     1       4.851  24.796 -10.915  1.00  0.00    -0.000 C 
BRANCH  16  17
ATOM     17  C   UNL     1       4.026  25.436 -12.042  1.00  0.00    -0.003 C 
ATOM     18  C   UNL     1       4.294  26.933 -12.197  1.00  0.00     0.004 C 
ENDBRANCH  16  17
ENDBRANCH  15  16
ENDBRANCH  14  15
ENDBRANCH  13  14
ENDBRANCH  12  13
ENDBRANCH  11  12
ENDBRANCH   1  11
TORSDOF 14
ENDMDL
MODEL 9
REMARK VINA RESULT:    -4.845      3.094      6.422
REMARK INTER + INTRA:         -10.609
REMARK INTER:                  -9.530
REMARK INTRA:                  -1.079
REMARK UNBOUND:                -1.799
REMARK SMILES CCCCCCCCCCCCCCCC(=O)[O-]
REMARK SMILES IDX 9 1 10 2 11 3 12 4 13 5 14 6 15 7 16 8 17 9 18 10 8 11 7 12
REMARK SMILES IDX 6 13 5 14 4 15 3 16 2 17 1 18
REMARK H PARENT
REMARK Flexibility Score: inf
ROOT
ATOM      1  C   UNL     1      10.596  20.999  -7.989  1.00  0.00     0.000 C 
ENDROOT
BRANCH   1   2
ATOM      2  C   UNL     1      12.127  21.078  -7.843  1.00  0.00     0.000 C 
BRANCH   2   3
ATOM      3  C   UNL     1      12.579  22.151  -6.837  1.00  0.00     0.000 C 
BRANCH   3   4
ATOM      4  C   UNL     1      13.200  23.386  -7.516  1.00  0.00     0.000 C 
BRANCH   4   5
ATOM      5  C   UNL     1      14.667  23.670  -7.147  1.00  0.00     0.000 C 
BRANCH   5   6
ATOM      6  C   UNL     1      15.113  22.952  -5.861  1.00  0.00     0.006 C 
BRANCH   6   7
ATOM      7  C   UNL     1      15.154  23.897  -4.654  1.00  0.00     0.053 C 
BRANCH   7   8
ATOM      8  C   UNL     1      14.493  23.293  -3.453  1.00  0.00     0.041 C 
ATOM      9  O   UNL     1      15.038  23.377  -2.321  1.00  0.00    -0.550 OA
ATOM     10  O   UNL     1      13.257  22.669  -3.578  1.00  0.00    -0.550 OA
ENDBRANCH   7   8
ENDBRANCH   6   7
ENDBRANCH   5   6
ENDBRANCH   4   5
ENDBRANCH   3   4
ENDBRANCH   2   3
ENDBRANCH   1   2
BRANCH   1  11
ATOM     11  C   UNL     1       9.798  21.976  -7.105  1.00  0.00     0.000 C 
BRANCH  11  12
ATOM     12  C   UNL     1       8.720  22.747  -7.884  1.00  0.00    -0.000 C 
BRANCH  12  13
ATOM     13  C   UNL     1       8.867  22.588  -9.407  1.00  0.00    -0.000 C 
BRANCH  13  14
ATOM     14  C   UNL     1       7.508  22.464 -10.118  1.00  0.00    -0.000 C 
BRANCH  14  15
ATOM     15  C   UNL     1       6.372  23.159  -9.347  1.00  0.00    -0.000 C 
BRANCH  15  16
ATOM     16  C   UNL     1       4.989  22.570  -9.671  1.00  0.00    -0.000 C 
BRANCH  16  17
ATOM     17  C   UNL     1       4.074  22.505  -8.438  1.00  0.00    -0.003 C 
ATOM     18  C   UNL     1       4.789  22.905  -7.147  1.00  0.00     0.004 C 
ENDBRANCH  16  17
ENDBRANCH  15  16
ENDBRANCH  14  15
ENDBRANCH  13  14
ENDBRANCH  12  13
ENDBRANCH  11  12
ENDBRANCH   1  11
TORSDOF 14
ENDMDL
