MODEL 1
REMARK VINA RESULT:    -4.947      0.000      0.000
REMARK INTER + INTRA:          -7.852
REMARK INTER:                  -7.260
REMARK INTRA:                  -0.592
REMARK UNBOUND:                -0.592
REMARK SMILES O=c1c(O[C@H]2O[C@@H](CO)[C@@H](O)[C@H](O)[C@@H]2O)c(-c2ccc(O)c(O)c2)oc2cc(O)cc(O)c12
REMARK SMILES IDX 4 1 3 2 16 3 25 4 2 5 26 6 1 7 33 8 27 9 31 10 28 11 30 12
REMARK SMILES IDX 17 13 18 14 19 15 20 16 24 17 22 18 21 19 23 21 32 23 29 25
REMARK SMILES IDX 5 27 14 28 6 29 12 30 7 31 10 32 15 33 13 35 8 37 9 38 11 40
REMARK H PARENT 21 20 23 22 32 24 29 26 15 34 13 36 9 39 11 41
REMARK Flexibility Score: inf
ROOT
ATOM      1  O   UNL     1     -10.088 -11.430  -5.393  1.00  0.00    -0.454 OA
ENDROOT
BRANCH   1   2
ATOM      2  C   UNL     1     -10.160 -10.028  -5.441  1.00  0.00     0.214 A 
ATOM      3  C   UNL     1      -8.975  -9.294  -5.661  1.00  0.00     0.180 A 
ATOM      4  O   UNL     1      -9.011  -7.964  -5.672  1.00  0.00    -0.452 OA
ATOM      5  C   UNL     1     -11.367  -9.324  -5.275  1.00  0.00     0.239 A 
ATOM      6  C   UNL     1     -10.124  -7.262  -5.514  1.00  0.00     0.146 A 
ATOM      7  O   UNL     1     -12.444  -9.955  -5.103  1.00  0.00    -0.285 OA
ATOM      8  C   UNL     1     -11.365  -7.913  -5.320  1.00  0.00     0.111 A 
ATOM      9  C   UNL     1     -10.056  -5.864  -5.542  1.00  0.00     0.094 A 
ATOM     10  C   UNL     1     -12.539  -7.133  -5.186  1.00  0.00     0.134 A 
ATOM     11  C   UNL     1     -11.214  -5.101  -5.401  1.00  0.00     0.123 A 
ATOM     12  C   UNL     1     -12.454  -5.735  -5.239  1.00  0.00     0.093 A 
BRANCH   3  13
ATOM     13  C   UNL     1      -7.663  -9.962  -5.826  1.00  0.00     0.025 A 
ATOM     14  C   UNL     1      -6.770  -9.998  -4.744  1.00  0.00     0.016 A 
ATOM     15  C   UNL     1      -5.549 -10.670  -4.855  1.00  0.00     0.051 A 
ATOM     16  C   UNL     1      -5.202 -11.312  -6.049  1.00  0.00     0.157 A 
ATOM     17  C   UNL     1      -7.289 -10.567  -7.039  1.00  0.00     0.062 A 
ATOM     18  C   UNL     1      -6.077 -11.256  -7.147  1.00  0.00     0.158 A 
BRANCH  16  19
ATOM     19  O   UNL     1      -3.998 -12.006  -6.150  1.00  0.00    -0.504 OA
ATOM     20  H   UNL     1      -3.458 -12.262  -5.331  1.00  0.00     0.293 HD
ENDBRANCH  16  19
BRANCH  18  21
ATOM     21  O   UNL     1      -5.762 -11.880  -8.353  1.00  0.00    -0.504 OA
ATOM     22  H   UNL     1      -5.081 -11.494  -8.994  1.00  0.00     0.293 HD
ENDBRANCH  18  21
ENDBRANCH   3  13
BRANCH  10  23
ATOM     23  O   UNL     1     -13.786  -7.734  -5.001  1.00  0.00    -0.507 OA
ATOM     24  H   UNL     1     -13.876  -8.707  -4.736  1.00  0.00     0.293 HD
ENDBRANCH  10  23
BRANCH  11  25
ATOM     25  O   UNL     1     -11.126  -3.708  -5.422  1.00  0.00    -0.508 OA
ATOM     26  H   UNL     1     -10.897  -3.206  -6.270  1.00  0.00     0.293 HD
ENDBRANCH  11  25
ENDBRANCH   1   2
BRANCH   1  27
ATOM     27  C   UNL     1     -10.113 -12.307  -6.520  1.00  0.00     0.339 C 
ATOM     28  C   UNL     1     -11.311 -11.951  -7.416  1.00  0.00     0.214 C 
ATOM     29  O   UNL     1     -10.110 -13.675  -6.126  1.00  0.00    -0.332 OA
ATOM     30  C   UNL     1     -12.624 -12.325  -6.723  1.00  0.00     0.180 C 
ATOM     31  C   UNL     1     -11.300 -14.104  -5.473  1.00  0.00     0.179 C 
ATOM     32  C   UNL     1     -12.575 -13.801  -6.300  1.00  0.00     0.177 C 
BRANCH  28  33
ATOM     33  O   UNL     1     -11.197 -12.631  -8.646  1.00  0.00    -0.384 OA
ATOM     34  H   UNL     1     -10.999 -13.582  -8.433  1.00  0.00     0.211 HD
ENDBRANCH  28  33
BRANCH  30  35
ATOM     35  O   UNL     1     -13.699 -12.105  -7.601  1.00  0.00    -0.387 OA
ATOM     36  H   UNL     1     -14.214 -11.339  -7.237  1.00  0.00     0.211 HD
ENDBRANCH  30  35
BRANCH  31  37
ATOM     37  C   UNL     1     -11.360 -13.623  -4.001  1.00  0.00     0.191 C 
BRANCH  37  38
ATOM     38  O   UNL     1     -10.090 -13.680  -3.402  1.00  0.00    -0.394 OA
ATOM     39  H   UNL     1      -9.954 -14.621  -3.110  1.00  0.00     0.210 HD
ENDBRANCH  37  38
ENDBRANCH  31  37
BRANCH  32  40
ATOM     40  O   UNL     1     -13.733 -14.125  -5.571  1.00  0.00    -0.387 OA
ATOM     41  H   UNL     1     -14.503 -13.783  -6.097  1.00  0.00     0.211 HD
ENDBRANCH  32  40
ENDBRANCH   1  27
TORSDOF 12
ENDMDL
MODEL 2
REMARK VINA RESULT:    -3.331      1.946      5.759
REMARK INTER + INTRA:          -5.481
REMARK INTER:                  -5.304
REMARK INTRA:                  -0.177
REMARK UNBOUND:                -0.592
REMARK SMILES O=c1c(O[C@H]2O[C@@H](CO)[C@@H](O)[C@H](O)[C@@H]2O)c(-c2ccc(O)c(O)c2)oc2cc(O)cc(O)c12
REMARK SMILES IDX 4 1 3 2 16 3 25 4 2 5 26 6 1 7 33 8 27 9 31 10 28 11 30 12
REMARK SMILES IDX 17 13 18 14 19 15 20 16 24 17 22 18 21 19 23 21 32 23 29 25
REMARK SMILES IDX 5 27 14 28 6 29 12 30 7 31 10 32 15 33 13 35 8 37 9 38 11 40
REMARK H PARENT 21 20 23 22 32 24 29 26 15 34 13 36 9 39 11 41
REMARK Flexibility Score: inf
ROOT
ATOM      1  O   UNL     1      -9.557  -8.407  -6.406  1.00  0.00    -0.454 OA
ENDROOT
BRANCH   1   2
ATOM      2  C   UNL     1     -10.085  -9.489  -5.682  1.00  0.00     0.214 A 
ATOM      3  C   UNL     1      -9.251 -10.591  -5.400  1.00  0.00     0.180 A 
ATOM      4  O   UNL     1      -9.739 -11.643  -4.749  1.00  0.00    -0.452 OA
ATOM      5  C   UNL     1     -11.417  -9.519  -5.227  1.00  0.00     0.239 A 
ATOM      6  C   UNL     1     -10.987 -11.716  -4.309  1.00  0.00     0.146 A 
ATOM      7  O   UNL     1     -12.177  -8.537  -5.441  1.00  0.00    -0.285 OA
ATOM      8  C   UNL     1     -11.887 -10.645  -4.516  1.00  0.00     0.111 A 
ATOM      9  C   UNL     1     -11.404 -12.868  -3.633  1.00  0.00     0.094 A 
ATOM     10  C   UNL     1     -13.204 -10.742  -4.005  1.00  0.00     0.134 A 
ATOM     11  C   UNL     1     -12.704 -12.963  -3.139  1.00  0.00     0.123 A 
ATOM     12  C   UNL     1     -13.596 -11.895  -3.312  1.00  0.00     0.093 A 
BRANCH   3  13
ATOM     13  C   UNL     1      -7.844 -10.642  -5.862  1.00  0.00     0.025 A 
ATOM     14  C   UNL     1      -6.859  -9.946  -5.145  1.00  0.00     0.016 A 
ATOM     15  C   UNL     1      -5.516 -10.023  -5.526  1.00  0.00     0.051 A 
ATOM     16  C   UNL     1      -5.140 -10.792  -6.634  1.00  0.00     0.157 A 
ATOM     17  C   UNL     1      -7.468 -11.373  -7.003  1.00  0.00     0.062 A 
ATOM     18  C   UNL     1      -6.123 -11.467  -7.377  1.00  0.00     0.158 A 
BRANCH  16  19
ATOM     19  O   UNL     1      -3.799 -10.890  -6.998  1.00  0.00    -0.504 OA
ATOM     20  H   UNL     1      -3.166 -11.534  -6.537  1.00  0.00     0.293 HD
ENDBRANCH  16  19
BRANCH  18  21
ATOM     21  O   UNL     1      -5.785 -12.238  -8.488  1.00  0.00    -0.504 OA
ATOM     22  H   UNL     1      -4.854 -12.613  -8.617  1.00  0.00     0.293 HD
ENDBRANCH  18  21
ENDBRANCH   3  13
BRANCH  10  23
ATOM     23  O   UNL     1     -14.123  -9.704  -4.180  1.00  0.00    -0.507 OA
ATOM     24  H   UNL     1     -14.745  -9.411  -3.437  1.00  0.00     0.293 HD
ENDBRANCH  10  23
BRANCH  11  25
ATOM     25  O   UNL     1     -13.106 -14.124  -2.477  1.00  0.00    -0.508 OA
ATOM     26  H   UNL     1     -13.161 -15.013  -2.957  1.00  0.00     0.293 HD
ENDBRANCH  11  25
ENDBRANCH   1   2
BRANCH   1  27
ATOM     27  C   UNL     1      -8.942  -7.247  -5.846  1.00  0.00     0.339 C 
ATOM     28  C   UNL     1      -9.842  -6.679  -4.736  1.00  0.00     0.214 C 
ATOM     29  O   UNL     1      -8.626  -6.282  -6.844  1.00  0.00    -0.332 OA
ATOM     30  C   UNL     1     -11.114  -6.076  -5.338  1.00  0.00     0.180 C 
ATOM     31  C   UNL     1      -9.758  -5.671  -7.454  1.00  0.00     0.179 C 
ATOM     32  C   UNL     1     -10.732  -5.053  -6.419  1.00  0.00     0.177 C 
BRANCH  28  33
ATOM     33  O   UNL     1      -9.134  -5.700  -4.011  1.00  0.00    -0.384 OA
ATOM     34  H   UNL     1      -8.869  -4.994  -4.660  1.00  0.00     0.211 HD
ENDBRANCH  28  33
BRANCH  30  35
ATOM     35  O   UNL     1     -11.866  -5.457  -4.325  1.00  0.00    -0.387 OA
ATOM     36  H   UNL     1     -12.494  -4.833  -4.776  1.00  0.00     0.211 HD
ENDBRANCH  30  35
BRANCH  31  37
ATOM     37  C   UNL     1     -10.431  -6.604  -8.492  1.00  0.00     0.191 C 
BRANCH  37  38
ATOM     38  O   UNL     1     -10.824  -5.885  -9.633  1.00  0.00    -0.394 OA
ATOM     39  H   UNL     1     -10.613  -4.930  -9.455  1.00  0.00     0.210 HD
ENDBRANCH  37  38
ENDBRANCH  31  37
BRANCH  32  40
ATOM     40  O   UNL     1     -11.892  -4.572  -7.049  1.00  0.00    -0.387 OA
ATOM     41  H   UNL     1     -12.661  -5.027  -6.613  1.00  0.00     0.211 HD
ENDBRANCH  32  40
ENDBRANCH   1  27
TORSDOF 12
ENDMDL
MODEL 3
REMARK VINA RESULT:    -3.247      1.474      5.953
REMARK INTER + INTRA:          -5.357
REMARK INTER:                  -5.386
REMARK INTRA:                   0.029
REMARK UNBOUND:                -0.592
REMARK SMILES O=c1c(O[C@H]2O[C@@H](CO)[C@@H](O)[C@H](O)[C@@H]2O)c(-c2ccc(O)c(O)c2)oc2cc(O)cc(O)c12
REMARK SMILES IDX 4 1 3 2 16 3 25 4 2 5 26 6 1 7 33 8 27 9 31 10 28 11 30 12
REMARK SMILES IDX 17 13 18 14 19 15 20 16 24 17 22 18 21 19 23 21 32 23 29 25
REMARK SMILES IDX 5 27 14 28 6 29 12 30 7 31 10 32 15 33 13 35 8 37 9 38 11 40
REMARK H PARENT 21 20 23 22 32 24 29 26 15 34 13 36 9 39 11 41
REMARK Flexibility Score: inf
ROOT
ATOM      1  O   UNL     1     -11.383 -10.444  -5.874  1.00  0.00    -0.454 OA
ENDROOT
BRANCH   1   2
ATOM      2  C   UNL     1      -9.986 -10.385  -6.004  1.00  0.00     0.214 A 
ATOM      3  C   UNL     1      -9.335  -9.150  -5.803  1.00  0.00     0.180 A 
ATOM      4  O   UNL     1      -8.018  -9.060  -5.958  1.00  0.00    -0.452 OA
ATOM      5  C   UNL     1      -9.207 -11.511  -6.330  1.00  0.00     0.239 A 
ATOM      6  C   UNL     1      -7.247 -10.093  -6.270  1.00  0.00     0.146 A 
ATOM      7  O   UNL     1      -9.758 -12.633  -6.490  1.00  0.00    -0.285 OA
ATOM      8  C   UNL     1      -7.807 -11.378  -6.460  1.00  0.00     0.111 A 
ATOM      9  C   UNL     1      -5.869  -9.895  -6.410  1.00  0.00     0.094 A 
ATOM     10  C   UNL     1      -6.952 -12.465  -6.761  1.00  0.00     0.134 A 
ATOM     11  C   UNL     1      -5.032 -10.967  -6.716  1.00  0.00     0.123 A 
ATOM     12  C   UNL     1      -5.571 -12.251  -6.875  1.00  0.00     0.093 A 
BRANCH   3  13
ATOM     13  C   UNL     1     -10.089  -7.916  -5.476  1.00  0.00     0.025 A 
ATOM     14  C   UNL     1     -11.432  -7.807  -5.868  1.00  0.00     0.016 A 
ATOM     15  C   UNL     1     -12.182  -6.678  -5.523  1.00  0.00     0.051 A 
ATOM     16  C   UNL     1     -11.598  -5.641  -4.788  1.00  0.00     0.157 A 
ATOM     17  C   UNL     1      -9.494  -6.850  -4.779  1.00  0.00     0.062 A 
ATOM     18  C   UNL     1     -10.245  -5.727  -4.418  1.00  0.00     0.158 A 
BRANCH  16  19
ATOM     19  O   UNL     1     -12.353  -4.528  -4.421  1.00  0.00    -0.504 OA
ATOM     20  H   UNL     1     -11.930  -3.619  -4.276  1.00  0.00     0.293 HD
ENDBRANCH  16  19
BRANCH  18  21
ATOM     21  O   UNL     1      -9.631  -4.711  -3.688  1.00  0.00    -0.504 OA
ATOM     22  H   UNL     1      -8.757  -4.293  -3.982  1.00  0.00     0.293 HD
ENDBRANCH  18  21
ENDBRANCH   3  13
BRANCH  10  23
ATOM     23  O   UNL     1      -7.461 -13.753  -6.948  1.00  0.00    -0.507 OA
ATOM     24  H   UNL     1      -7.852 -14.288  -6.184  1.00  0.00     0.293 HD
ENDBRANCH  10  23
BRANCH  11  25
ATOM     25  O   UNL     1      -3.661 -10.749  -6.862  1.00  0.00    -0.508 OA
ATOM     26  H   UNL     1      -3.064 -11.427  -7.319  1.00  0.00     0.293 HD
ENDBRANCH  11  25
ENDBRANCH   1   2
BRANCH   1  27
ATOM     27  C   UNL     1     -12.107 -10.510  -4.644  1.00  0.00     0.339 C 
ATOM     28  C   UNL     1     -11.627 -11.728  -3.837  1.00  0.00     0.214 C 
ATOM     29  O   UNL     1     -13.514 -10.513  -4.858  1.00  0.00    -0.332 OA
ATOM     30  C   UNL     1     -12.077 -13.026  -4.513  1.00  0.00     0.180 C 
ATOM     31  C   UNL     1     -14.014 -11.689  -5.484  1.00  0.00     0.179 C 
ATOM     32  C   UNL     1     -13.595 -12.984  -4.740  1.00  0.00     0.177 C 
BRANCH  28  33
ATOM     33  O   UNL     1     -12.143 -11.656  -2.527  1.00  0.00    -0.384 OA
ATOM     34  H   UNL     1     -12.845 -10.952  -2.530  1.00  0.00     0.211 HD
ENDBRANCH  28  33
BRANCH  30  35
ATOM     35  O   UNL     1     -11.736 -14.121  -3.702  1.00  0.00    -0.387 OA
ATOM     36  H   UNL     1     -11.890 -13.841  -2.762  1.00  0.00     0.211 HD
ENDBRANCH  30  35
BRANCH  31  37
ATOM     37  C   UNL     1     -13.728 -11.703  -7.007  1.00  0.00     0.191 C 
BRANCH  37  38
ATOM     38  O   UNL     1     -12.728 -12.639  -7.320  1.00  0.00    -0.394 OA
ATOM     39  H   UNL     1     -12.484 -13.093  -6.470  1.00  0.00     0.210 HD
ENDBRANCH  37  38
ENDBRANCH  31  37
BRANCH  32  40
ATOM     40  O   UNL     1     -14.002 -14.124  -5.454  1.00  0.00    -0.387 OA
ATOM     41  H   UNL     1     -14.324 -13.804  -6.338  1.00  0.00     0.211 HD
ENDBRANCH  32  40
ENDBRANCH   1  27
TORSDOF 12
ENDMDL
MODEL 4
REMARK VINA RESULT:    -3.104      1.752      5.415
REMARK INTER + INTRA:          -5.148
REMARK INTER:                  -3.932
REMARK INTRA:                  -1.216
REMARK UNBOUND:                -0.592
REMARK SMILES O=c1c(O[C@H]2O[C@@H](CO)[C@@H](O)[C@H](O)[C@@H]2O)c(-c2ccc(O)c(O)c2)oc2cc(O)cc(O)c12
REMARK SMILES IDX 4 1 3 2 16 3 25 4 2 5 26 6 1 7 33 8 27 9 31 10 28 11 30 12
REMARK SMILES IDX 17 13 18 14 19 15 20 16 24 17 22 18 21 19 23 21 32 23 29 25
REMARK SMILES IDX 5 27 14 28 6 29 12 30 7 31 10 32 15 33 13 35 8 37 9 38 11 40
REMARK H PARENT 21 20 23 22 32 24 29 26 15 34 13 36 9 39 11 41
REMARK Flexibility Score: inf
ROOT
ATOM      1  O   UNL     1      -9.756 -10.280  -6.131  1.00  0.00    -0.454 OA
ENDROOT
BRANCH   1   2
ATOM      2  C   UNL     1     -10.456  -9.074  -5.962  1.00  0.00     0.214 A 
ATOM      3  C   UNL     1     -11.761  -9.113  -5.429  1.00  0.00     0.180 A 
ATOM      4  O   UNL     1     -12.458  -7.989  -5.296  1.00  0.00    -0.452 OA
ATOM      5  C   UNL     1      -9.907  -7.825  -6.307  1.00  0.00     0.239 A 
ATOM      6  C   UNL     1     -11.983  -6.793  -5.614  1.00  0.00     0.146 A 
ATOM      7  O   UNL     1      -8.733  -7.757  -6.761  1.00  0.00    -0.285 OA
ATOM      8  C   UNL     1     -10.671  -6.651  -6.125  1.00  0.00     0.111 A 
ATOM      9  C   UNL     1     -12.796  -5.668  -5.436  1.00  0.00     0.094 A 
ATOM     10  C   UNL     1     -10.184  -5.356  -6.424  1.00  0.00     0.134 A 
ATOM     11  C   UNL     1     -12.315  -4.396  -5.740  1.00  0.00     0.123 A 
ATOM     12  C   UNL     1     -11.006  -4.241  -6.218  1.00  0.00     0.093 A 
BRANCH   3  13
ATOM     13  C   UNL     1     -12.414 -10.392  -5.061  1.00  0.00     0.025 A 
ATOM     14  C   UNL     1     -13.052 -11.149  -6.056  1.00  0.00     0.016 A 
ATOM     15  C   UNL     1     -13.626 -12.386  -5.746  1.00  0.00     0.051 A 
ATOM     16  C   UNL     1     -13.576 -12.879  -4.437  1.00  0.00     0.157 A 
ATOM     17  C   UNL     1     -12.409 -10.870  -3.739  1.00  0.00     0.062 A 
ATOM     18  C   UNL     1     -12.967 -12.114  -3.429  1.00  0.00     0.158 A 
BRANCH  16  19
ATOM     19  O   UNL     1     -14.125 -14.124  -4.134  1.00  0.00    -0.504 OA
ATOM     20  H   UNL     1     -14.445 -14.354  -3.201  1.00  0.00     0.293 HD
ENDBRANCH  16  19
BRANCH  18  21
ATOM     21  O   UNL     1     -12.902 -12.573  -2.114  1.00  0.00    -0.504 OA
ATOM     22  H   UNL     1     -13.356 -12.085  -1.353  1.00  0.00     0.293 HD
ENDBRANCH  18  21
ENDBRANCH   3  13
BRANCH  10  23
ATOM     23  O   UNL     1      -8.892  -5.170  -6.923  1.00  0.00    -0.507 OA
ATOM     24  H   UNL     1      -8.201  -5.908  -6.904  1.00  0.00     0.293 HD
ENDBRANCH  10  23
BRANCH  11  25
ATOM     25  O   UNL     1     -13.144  -3.287  -5.566  1.00  0.00    -0.508 OA
ATOM     26  H   UNL     1     -14.149  -3.384  -5.501  1.00  0.00     0.293 HD
ENDBRANCH  11  25
ENDBRANCH   1   2
BRANCH   1  27
ATOM     27  C   UNL     1      -8.834 -10.849  -5.200  1.00  0.00     0.339 C 
ATOM     28  C   UNL     1      -7.444 -10.229  -5.416  1.00  0.00     0.214 C 
ATOM     29  O   UNL     1      -8.818 -12.270  -5.273  1.00  0.00    -0.332 OA
ATOM     30  C   UNL     1      -6.850 -10.703  -6.746  1.00  0.00     0.180 C 
ATOM     31  C   UNL     1      -8.278 -12.794  -6.481  1.00  0.00     0.179 C 
ATOM     32  C   UNL     1      -6.864 -12.238  -6.792  1.00  0.00     0.177 C 
BRANCH  28  33
ATOM     33  O   UNL     1      -6.597 -10.587  -4.348  1.00  0.00    -0.384 OA
ATOM     34  H   UNL     1      -5.824  -9.960  -4.369  1.00  0.00     0.211 HD
ENDBRANCH  28  33
BRANCH  30  35
ATOM     35  O   UNL     1      -5.535 -10.224  -6.871  1.00  0.00    -0.387 OA
ATOM     36  H   UNL     1      -5.305 -10.268  -7.836  1.00  0.00     0.211 HD
ENDBRANCH  30  35
BRANCH  31  37
ATOM     37  C   UNL     1      -9.281 -12.690  -7.658  1.00  0.00     0.191 C 
BRANCH  37  38
ATOM     38  O   UNL     1      -9.112 -13.756  -8.557  1.00  0.00    -0.394 OA
ATOM     39  H   UNL     1      -9.878 -13.721  -9.190  1.00  0.00     0.210 HD
ENDBRANCH  37  38
ENDBRANCH  31  37
BRANCH  32  40
ATOM     40  O   UNL     1      -6.419 -12.680  -8.050  1.00  0.00    -0.387 OA
ATOM     41  H   UNL     1      -5.768 -12.002  -8.373  1.00  0.00     0.211 HD
ENDBRANCH  32  40
ENDBRANCH   1  27
TORSDOF 12
ENDMDL
MODEL 5
REMARK VINA RESULT:    -2.900      1.333      2.474
REMARK INTER + INTRA:          -4.848
REMARK INTER:                  -3.451
REMARK INTRA:                  -1.397
REMARK UNBOUND:                -0.592
REMARK SMILES O=c1c(O[C@H]2O[C@@H](CO)[C@@H](O)[C@H](O)[C@@H]2O)c(-c2ccc(O)c(O)c2)oc2cc(O)cc(O)c12
REMARK SMILES IDX 4 1 3 2 16 3 25 4 2 5 26 6 1 7 33 8 27 9 31 10 28 11 30 12
REMARK SMILES IDX 17 13 18 14 19 15 20 16 24 17 22 18 21 19 23 21 32 23 29 25
REMARK SMILES IDX 5 27 14 28 6 29 12 30 7 31 10 32 15 33 13 35 8 37 9 38 11 40
REMARK H PARENT 21 20 23 22 32 24 29 26 15 34 13 36 9 39 11 41
REMARK Flexibility Score: inf
ROOT
ATOM      1  O   UNL     1     -10.582 -10.327  -6.350  1.00  0.00    -0.454 OA
ENDROOT
BRANCH   1   2
ATOM      2  C   UNL     1     -10.401  -9.028  -5.844  1.00  0.00     0.214 A 
ATOM      3  C   UNL     1      -9.093  -8.588  -5.553  1.00  0.00     0.180 A 
ATOM      4  O   UNL     1      -8.899  -7.378  -5.037  1.00  0.00    -0.452 OA
ATOM      5  C   UNL     1     -11.474  -8.149  -5.613  1.00  0.00     0.239 A 
ATOM      6  C   UNL     1      -9.881  -6.521  -4.797  1.00  0.00     0.146 A 
ATOM      7  O   UNL     1     -12.651  -8.506  -5.889  1.00  0.00    -0.285 OA
ATOM      8  C   UNL     1     -11.223  -6.862  -5.088  1.00  0.00     0.111 A 
ATOM      9  C   UNL     1      -9.574  -5.269  -4.252  1.00  0.00     0.094 A 
ATOM     10  C   UNL     1     -12.244  -5.911  -4.850  1.00  0.00     0.134 A 
ATOM     11  C   UNL     1     -10.584  -4.339  -4.011  1.00  0.00     0.123 A 
ATOM     12  C   UNL     1     -11.913  -4.655  -4.324  1.00  0.00     0.093 A 
BRANCH   3  13
ATOM     13  C   UNL     1      -7.913  -9.464  -5.751  1.00  0.00     0.025 A 
ATOM     14  C   UNL     1      -7.077  -9.746  -4.661  1.00  0.00     0.016 A 
ATOM     15  C   UNL     1      -5.990 -10.614  -4.808  1.00  0.00     0.051 A 
ATOM     16  C   UNL     1      -5.722 -11.206  -6.047  1.00  0.00     0.157 A 
ATOM     17  C   UNL     1      -7.612 -10.023  -7.005  1.00  0.00     0.062 A 
ATOM     18  C   UNL     1      -6.536 -10.905  -7.152  1.00  0.00     0.158 A 
BRANCH  16  19
ATOM     19  O   UNL     1      -4.655 -12.093  -6.186  1.00  0.00    -0.504 OA
ATOM     20  H   UNL     1      -4.801 -13.083  -6.342  1.00  0.00     0.293 HD
ENDBRANCH  16  19
BRANCH  18  21
ATOM     21  O   UNL     1      -6.296 -11.474  -8.402  1.00  0.00    -0.504 OA
ATOM     22  H   UNL     1      -6.795 -11.177  -9.230  1.00  0.00     0.293 HD
ENDBRANCH  18  21
ENDBRANCH   3  13
BRANCH  10  23
ATOM     23  O   UNL     1     -13.581  -6.203  -5.130  1.00  0.00    -0.507 OA
ATOM     24  H   UNL     1     -14.142  -5.613  -5.731  1.00  0.00     0.293 HD
ENDBRANCH  10  23
BRANCH  11  25
ATOM     25  O   UNL     1     -10.259  -3.099  -3.458  1.00  0.00    -0.508 OA
ATOM     26  H   UNL     1      -9.450  -2.578  -3.768  1.00  0.00     0.293 HD
ENDBRANCH  11  25
ENDBRANCH   1   2
BRANCH   1  27
ATOM     27  C   UNL     1     -10.932 -11.481  -5.585  1.00  0.00     0.339 C 
ATOM     28  C   UNL     1      -9.791 -12.508  -5.661  1.00  0.00     0.214 C 
ATOM     29  O   UNL     1     -12.186 -12.021  -5.987  1.00  0.00    -0.332 OA
ATOM     30  C   UNL     1      -9.704 -13.104  -7.070  1.00  0.00     0.180 C 
ATOM     31  C   UNL     1     -12.189 -12.598  -7.289  1.00  0.00     0.179 C 
ATOM     32  C   UNL     1     -11.077 -13.662  -7.473  1.00  0.00     0.177 C 
BRANCH  28  33
ATOM     33  O   UNL     1     -10.011 -13.527  -4.713  1.00  0.00    -0.384 OA
ATOM     34  H   UNL     1      -9.141 -13.992  -4.581  1.00  0.00     0.211 HD
ENDBRANCH  28  33
BRANCH  30  35
ATOM     35  O   UNL     1      -8.738 -14.125  -7.090  1.00  0.00    -0.387 OA
ATOM     36  H   UNL     1      -8.891 -14.647  -7.921  1.00  0.00     0.211 HD
ENDBRANCH  30  35
BRANCH  31  37
ATOM     37  C   UNL     1     -12.235 -11.519  -8.401  1.00  0.00     0.191 C 
BRANCH  37  38
ATOM     38  O   UNL     1     -12.833 -12.026  -9.567  1.00  0.00    -0.394 OA
ATOM     39  H   UNL     1     -13.816 -11.967  -9.434  1.00  0.00     0.210 HD
ENDBRANCH  37  38
ENDBRANCH  31  37
BRANCH  32  40
ATOM     40  O   UNL     1     -11.034 -14.116  -8.802  1.00  0.00    -0.387 OA
ATOM     41  H   UNL     1     -10.564 -14.992  -8.787  1.00  0.00     0.211 HD
ENDBRANCH  32  40
ENDBRANCH   1  27
TORSDOF 12
ENDMDL
MODEL 6
REMARK VINA RESULT:    -2.745      1.420      5.729
REMARK INTER + INTRA:          -4.620
REMARK INTER:                  -4.690
REMARK INTRA:                   0.070
REMARK UNBOUND:                -0.592
REMARK SMILES O=c1c(O[C@H]2O[C@@H](CO)[C@@H](O)[C@H](O)[C@@H]2O)c(-c2ccc(O)c(O)c2)oc2cc(O)cc(O)c12
REMARK SMILES IDX 4 1 3 2 16 3 25 4 2 5 26 6 1 7 33 8 27 9 31 10 28 11 30 12
REMARK SMILES IDX 17 13 18 14 19 15 20 16 24 17 22 18 21 19 23 21 32 23 29 25
REMARK SMILES IDX 5 27 14 28 6 29 12 30 7 31 10 32 15 33 13 35 8 37 9 38 11 40
REMARK H PARENT 21 20 23 22 32 24 29 26 15 34 13 36 9 39 11 41
REMARK Flexibility Score: inf
ROOT
ATOM      1  O   UNL     1     -10.064 -11.886  -6.827  1.00  0.00    -0.454 OA
ENDROOT
BRANCH   1   2
ATOM      2  C   UNL     1      -8.731 -11.517  -6.580  1.00  0.00     0.214 A 
ATOM      3  C   UNL     1      -8.469 -10.251  -6.016  1.00  0.00     0.180 A 
ATOM      4  O   UNL     1      -7.214  -9.864  -5.809  1.00  0.00    -0.452 OA
ATOM      5  C   UNL     1      -7.645 -12.360  -6.876  1.00  0.00     0.239 A 
ATOM      6  C   UNL     1      -6.161 -10.623  -6.079  1.00  0.00     0.146 A 
ATOM      7  O   UNL     1      -7.850 -13.507  -7.357  1.00  0.00    -0.285 OA
ATOM      8  C   UNL     1      -6.328 -11.921  -6.617  1.00  0.00     0.111 A 
ATOM      9  C   UNL     1      -4.879 -10.124  -5.824  1.00  0.00     0.094 A 
ATOM     10  C   UNL     1      -5.184 -12.717  -6.863  1.00  0.00     0.134 A 
ATOM     11  C   UNL     1      -3.755 -10.909  -6.077  1.00  0.00     0.123 A 
ATOM     12  C   UNL     1      -3.909 -12.208  -6.581  1.00  0.00     0.093 A 
BRANCH   3  13
ATOM     13  C   UNL     1      -9.559  -9.300  -5.694  1.00  0.00     0.025 A 
ATOM     14  C   UNL     1      -9.255  -7.942  -5.512  1.00  0.00     0.016 A 
ATOM     15  C   UNL     1     -10.272  -7.015  -5.264  1.00  0.00     0.051 A 
ATOM     16  C   UNL     1     -11.605  -7.433  -5.190  1.00  0.00     0.157 A 
ATOM     17  C   UNL     1     -10.894  -9.722  -5.571  1.00  0.00     0.062 A 
ATOM     18  C   UNL     1     -11.916  -8.795  -5.340  1.00  0.00     0.158 A 
BRANCH  16  19
ATOM     19  O   UNL     1     -12.621  -6.505  -4.970  1.00  0.00    -0.504 OA
ATOM     20  H   UNL     1     -12.951  -6.285  -4.037  1.00  0.00     0.293 HD
ENDBRANCH  16  19
BRANCH  18  21
ATOM     21  O   UNL     1     -13.233  -9.247  -5.268  1.00  0.00    -0.504 OA
ATOM     22  H   UNL     1     -13.527 -10.113  -5.700  1.00  0.00     0.293 HD
ENDBRANCH  18  21
ENDBRANCH   3  13
BRANCH  10  23
ATOM     23  O   UNL     1      -5.303 -14.007  -7.386  1.00  0.00    -0.507 OA
ATOM     24  H   UNL     1      -6.070 -14.270  -7.991  1.00  0.00     0.293 HD
ENDBRANCH  10  23
BRANCH  11  25
ATOM     25  O   UNL     1      -2.483 -10.390  -5.826  1.00  0.00    -0.508 OA
ATOM     26  H   UNL     1      -2.242  -9.997  -4.926  1.00  0.00     0.293 HD
ENDBRANCH  11  25
ENDBRANCH   1   2
BRANCH   1  27
ATOM     27  C   UNL     1     -10.498 -13.124  -7.390  1.00  0.00     0.339 C 
ATOM     28  C   UNL     1     -11.767 -12.887  -8.226  1.00  0.00     0.214 C 
ATOM     29  O   UNL     1     -10.677 -14.125  -6.393  1.00  0.00    -0.332 OA
ATOM     30  C   UNL     1     -12.950 -12.548  -7.313  1.00  0.00     0.180 C 
ATOM     31  C   UNL     1     -11.761 -13.884  -5.502  1.00  0.00     0.179 C 
ATOM     32  C   UNL     1     -13.100 -13.640  -6.245  1.00  0.00     0.177 C 
BRANCH  28  33
ATOM     33  O   UNL     1     -12.053 -14.039  -8.986  1.00  0.00    -0.384 OA
ATOM     34  H   UNL     1     -12.475 -13.730  -9.832  1.00  0.00     0.211 HD
ENDBRANCH  28  33
BRANCH  30  35
ATOM     35  O   UNL     1     -14.123 -12.453  -8.081  1.00  0.00    -0.387 OA
ATOM     36  H   UNL     1     -13.877 -12.696  -9.012  1.00  0.00     0.211 HD
ENDBRANCH  30  35
BRANCH  31  37
ATOM     37  C   UNL     1     -11.411 -12.811  -4.441  1.00  0.00     0.191 C 
BRANCH  37  38
ATOM     38  O   UNL     1     -10.138 -13.042  -3.894  1.00  0.00    -0.394 OA
ATOM     39  H   UNL     1     -10.271 -13.606  -3.086  1.00  0.00     0.210 HD
ENDBRANCH  37  38
ENDBRANCH  31  37
BRANCH  32  40
ATOM     40  O   UNL     1     -14.115 -13.285  -5.340  1.00  0.00    -0.387 OA
ATOM     41  H   UNL     1     -13.719 -13.351  -4.431  1.00  0.00     0.211 HD
ENDBRANCH  32  40
ENDBRANCH   1  27
TORSDOF 12
ENDMDL
MODEL 7
REMARK VINA RESULT:    -2.559      1.364      2.330
REMARK INTER + INTRA:          -4.348
REMARK INTER:                  -3.947
REMARK INTRA:                  -0.401
REMARK UNBOUND:                -0.592
REMARK SMILES O=c1c(O[C@H]2O[C@@H](CO)[C@@H](O)[C@H](O)[C@@H]2O)c(-c2ccc(O)c(O)c2)oc2cc(O)cc(O)c12
REMARK SMILES IDX 4 1 3 2 16 3 25 4 2 5 26 6 1 7 33 8 27 9 31 10 28 11 30 12
REMARK SMILES IDX 17 13 18 14 19 15 20 16 24 17 22 18 21 19 23 21 32 23 29 25
REMARK SMILES IDX 5 27 14 28 6 29 12 30 7 31 10 32 15 33 13 35 8 37 9 38 11 40
REMARK H PARENT 21 20 23 22 32 24 29 26 15 34 13 36 9 39 11 41
REMARK Flexibility Score: inf
ROOT
ATOM      1  O   UNL     1     -10.819 -10.332  -5.638  1.00  0.00    -0.454 OA
ENDROOT
BRANCH   1   2
ATOM      2  C   UNL     1     -10.737  -8.929  -5.656  1.00  0.00     0.214 A 
ATOM      3  C   UNL     1      -9.466  -8.324  -5.744  1.00  0.00     0.180 A 
ATOM      4  O   UNL     1      -9.358  -6.999  -5.723  1.00  0.00    -0.452 OA
ATOM      5  C   UNL     1     -11.873  -8.102  -5.587  1.00  0.00     0.239 A 
ATOM      6  C   UNL     1     -10.401  -6.183  -5.652  1.00  0.00     0.146 A 
ATOM      7  O   UNL     1     -13.023  -8.615  -5.533  1.00  0.00    -0.285 OA
ATOM      8  C   UNL     1     -11.717  -6.699  -5.594  1.00  0.00     0.111 A 
ATOM      9  C   UNL     1     -10.183  -4.801  -5.638  1.00  0.00     0.094 A 
ATOM     10  C   UNL     1     -12.809  -5.799  -5.551  1.00  0.00     0.134 A 
ATOM     11  C   UNL     1     -11.261  -3.919  -5.587  1.00  0.00     0.123 A 
ATOM     12  C   UNL     1     -12.571  -4.418  -5.559  1.00  0.00     0.093 A 
BRANCH   3  13
ATOM     13  C   UNL     1      -8.222  -9.129  -5.801  1.00  0.00     0.025 A 
ATOM     14  C   UNL     1      -7.412  -9.223  -4.659  1.00  0.00     0.016 A 
ATOM     15  C   UNL     1      -6.263 -10.020  -4.669  1.00  0.00     0.051 A 
ATOM     16  C   UNL     1      -5.906 -10.729  -5.821  1.00  0.00     0.157 A 
ATOM     17  C   UNL     1      -7.833  -9.804  -6.971  1.00  0.00     0.062 A 
ATOM     18  C   UNL     1      -6.694 -10.616  -6.979  1.00  0.00     0.158 A 
BRANCH  16  19
ATOM     19  O   UNL     1      -4.776 -11.545  -5.822  1.00  0.00    -0.504 OA
ATOM     20  H   UNL     1      -4.827 -12.528  -5.581  1.00  0.00     0.293 HD
ENDBRANCH  16  19
BRANCH  18  21
ATOM     21  O   UNL     1      -6.365 -11.305  -8.146  1.00  0.00    -0.504 OA
ATOM     22  H   UNL     1      -6.163 -12.297  -8.143  1.00  0.00     0.293 HD
ENDBRANCH  18  21
ENDBRANCH   3  13
BRANCH  10  23
ATOM     23  O   UNL     1     -14.125  -6.265  -5.501  1.00  0.00    -0.507 OA
ATOM     24  H   UNL     1     -14.423  -7.080  -6.020  1.00  0.00     0.293 HD
ENDBRANCH  10  23
BRANCH  11  25
ATOM     25  O   UNL     1     -11.024  -2.543  -5.562  1.00  0.00    -0.508 OA
ATOM     26  H   UNL     1     -11.715  -1.883  -5.894  1.00  0.00     0.293 HD
ENDBRANCH  11  25
ENDBRANCH   1   2
BRANCH   1  27
ATOM     27  C   UNL     1     -12.003 -11.096  -5.406  1.00  0.00     0.339 C 
ATOM     28  C   UNL     1     -12.296 -11.136  -3.897  1.00  0.00     0.214 C 
ATOM     29  O   UNL     1     -11.916 -12.395  -5.983  1.00  0.00    -0.332 OA
ATOM     30  C   UNL     1     -11.249 -11.988  -3.174  1.00  0.00     0.180 C 
ATOM     31  C   UNL     1     -10.963 -13.253  -5.364  1.00  0.00     0.179 C 
ATOM     32  C   UNL     1     -11.174 -13.373  -3.833  1.00  0.00     0.177 C 
BRANCH  28  33
ATOM     33  O   UNL     1     -13.586 -11.661  -3.682  1.00  0.00    -0.384 OA
ATOM     34  H   UNL     1     -13.470 -12.607  -3.396  1.00  0.00     0.211 HD
ENDBRANCH  28  33
BRANCH  30  35
ATOM     35  O   UNL     1     -11.599 -12.112  -1.818  1.00  0.00    -0.387 OA
ATOM     36  H   UNL     1     -11.709 -13.083  -1.639  1.00  0.00     0.211 HD
ENDBRANCH  30  35
BRANCH  31  37
ATOM     37  C   UNL     1      -9.512 -12.907  -5.787  1.00  0.00     0.191 C 
BRANCH  37  38
ATOM     38  O   UNL     1      -8.817 -12.289  -4.734  1.00  0.00    -0.394 OA
ATOM     39  H   UNL     1      -8.647 -11.351  -5.015  1.00  0.00     0.210 HD
ENDBRANCH  37  38
ENDBRANCH  31  37
BRANCH  32  40
ATOM     40  O   UNL     1     -10.143 -14.125  -3.244  1.00  0.00    -0.387 OA
ATOM     41  H   UNL     1      -9.354 -14.039  -3.841  1.00  0.00     0.211 HD
ENDBRANCH  32  40
ENDBRANCH   1  27
TORSDOF 12
ENDMDL
