MODEL 1
REMARK VINA RESULT:    -3.809      0.000      0.000
REMARK INTER + INTRA:         -13.943
REMARK INTER:                 -10.043
REMARK INTRA:                  -3.900
REMARK UNBOUND:                -3.900
REMARK SMILES CCCCCCCCCCCCCCCCCCCCCCCCCCCCCC(=O)[O-]
REMARK SMILES IDX 16 1 17 2 18 3 19 4 20 5 21 6 22 7 23 8 24 9 25 10 26 11
REMARK SMILES IDX 27 12 28 13 29 14 30 15 31 16 32 17 15 18 14 19 13 20 12 21
REMARK SMILES IDX 11 22 10 23 9 24 8 25 7 26 6 27 5 28 4 29 3 30 2 31 1 32
REMARK H PARENT
REMARK Flexibility Score: inf
ROOT
ATOM      1  C   UNL     1      27.028  62.154  81.148  1.00  0.00     0.000 C 
ENDROOT
BRANCH   1   2
ATOM      2  C   UNL     1      26.797  61.314  82.418  1.00  0.00     0.000 C 
BRANCH   2   3
ATOM      3  C   UNL     1      27.998  60.418  82.769  1.00  0.00     0.000 C 
BRANCH   3   4
ATOM      4  C   UNL     1      27.610  58.936  82.919  1.00  0.00     0.000 C 
BRANCH   4   5
ATOM      5  C   UNL     1      27.427  58.233  81.563  1.00  0.00     0.000 C 
BRANCH   5   6
ATOM      6  C   UNL     1      28.655  58.383  80.650  1.00  0.00     0.000 C 
BRANCH   6   7
ATOM      7  C   UNL     1      29.817  57.468  81.062  1.00  0.00     0.000 C 
BRANCH   7   8
ATOM      8  C   UNL     1      31.015  58.295  81.555  1.00  0.00     0.000 C 
BRANCH   8   9
ATOM      9  C   UNL     1      31.931  57.518  82.520  1.00  0.00     0.000 C 
BRANCH   9  10
ATOM     10  C   UNL     1      31.277  57.121  83.857  1.00  0.00     0.000 C 
BRANCH  10  11
ATOM     11  C   UNL     1      30.636  58.313  84.589  1.00  0.00     0.000 C 
BRANCH  11  12
ATOM     12  C   UNL     1      30.157  57.951  86.003  1.00  0.00     0.000 C 
BRANCH  12  13
ATOM     13  C   UNL     1      29.021  58.862  86.494  1.00  0.00     0.006 C 
BRANCH  13  14
ATOM     14  C   UNL     1      28.287  58.235  87.684  1.00  0.00     0.053 C 
BRANCH  14  15
ATOM     15  C   UNL     1      27.106  59.068  88.080  1.00  0.00     0.041 C 
ATOM     16  O   UNL     1      26.727  59.099  89.282  1.00  0.00    -0.550 OA
ATOM     17  O   UNL     1      26.413  59.795  87.121  1.00  0.00    -0.550 OA
ENDBRANCH  14  15
ENDBRANCH  13  14
ENDBRANCH  12  13
ENDBRANCH  11  12
ENDBRANCH  10  11
ENDBRANCH   9  10
ENDBRANCH   8   9
ENDBRANCH   7   8
ENDBRANCH   6   7
ENDBRANCH   5   6
ENDBRANCH   4   5
ENDBRANCH   3   4
ENDBRANCH   2   3
ENDBRANCH   1   2
BRANCH   1  18
ATOM     18  C   UNL     1      26.116  61.805  79.957  1.00  0.00     0.000 C 
BRANCH  18  19
ATOM     19  C   UNL     1      26.787  60.982  78.840  1.00  0.00     0.000 C 
BRANCH  19  20
ATOM     20  C   UNL     1      28.262  61.364  78.587  1.00  0.00     0.000 C 
BRANCH  20  21
ATOM     21  C   UNL     1      28.965  60.387  77.630  1.00  0.00     0.000 C 
BRANCH  21  22
ATOM     22  C   UNL     1      28.027  59.260  77.145  1.00  0.00     0.000 C 
BRANCH  22  23
ATOM     23  C   UNL     1      28.333  58.774  75.715  1.00  0.00     0.000 C 
BRANCH  23  24
ATOM     24  C   UNL     1      27.426  59.368  74.622  1.00  0.00    -0.000 C 
BRANCH  24  25
ATOM     25  C   UNL     1      26.141  60.041  75.140  1.00  0.00    -0.000 C 
BRANCH  25  26
ATOM     26  C   UNL     1      25.418  60.858  74.059  1.00  0.00    -0.000 C 
BRANCH  26  27
ATOM     27  C   UNL     1      25.340  62.340  74.447  1.00  0.00    -0.000 C 
BRANCH  27  28
ATOM     28  C   UNL     1      25.341  62.509  75.974  1.00  0.00    -0.000 C 
BRANCH  28  29
ATOM     29  C   UNL     1      25.666  63.945  76.419  1.00  0.00    -0.000 C 
BRANCH  29  30
ATOM     30  C   UNL     1      25.560  65.014  75.312  1.00  0.00    -0.000 C 
BRANCH  30  31
ATOM     31  C   UNL     1      26.594  66.150  75.401  1.00  0.00    -0.003 C 
ATOM     32  C   UNL     1      25.979  67.483  75.826  1.00  0.00     0.004 C 
ENDBRANCH  30  31
ENDBRANCH  29  30
ENDBRANCH  28  29
ENDBRANCH  27  28
ENDBRANCH  26  27
ENDBRANCH  25  26
ENDBRANCH  24  25
ENDBRANCH  23  24
ENDBRANCH  22  23
ENDBRANCH  21  22
ENDBRANCH  20  21
ENDBRANCH  19  20
ENDBRANCH  18  19
ENDBRANCH   1  18
TORSDOF 28
ENDMDL
MODEL 2
REMARK VINA RESULT:    -3.784      1.842      3.559
REMARK INTER + INTRA:         -13.877
REMARK INTER:                  -9.252
REMARK INTRA:                  -4.625
REMARK UNBOUND:                -3.900
REMARK SMILES CCCCCCCCCCCCCCCCCCCCCCCCCCCCCC(=O)[O-]
REMARK SMILES IDX 16 1 17 2 18 3 19 4 20 5 21 6 22 7 23 8 24 9 25 10 26 11
REMARK SMILES IDX 27 12 28 13 29 14 30 15 31 16 32 17 15 18 14 19 13 20 12 21
REMARK SMILES IDX 11 22 10 23 9 24 8 25 7 26 6 27 5 28 4 29 3 30 2 31 1 32
REMARK H PARENT
REMARK Flexibility Score: inf
ROOT
ATOM      1  C   UNL     1      29.088  58.822  79.334  1.00  0.00     0.000 C 
ENDROOT
BRANCH   1   2
ATOM      2  C   UNL     1      29.475  58.825  80.825  1.00  0.00     0.000 C 
BRANCH   2   3
ATOM      3  C   UNL     1      28.388  58.214  81.726  1.00  0.00     0.000 C 
BRANCH   3   4
ATOM      4  C   UNL     1      27.098  57.876  80.957  1.00  0.00     0.000 C 
BRANCH   4   5
ATOM      5  C   UNL     1      25.834  58.046  81.818  1.00  0.00     0.000 C 
BRANCH   5   6
ATOM      6  C   UNL     1      24.904  59.148  81.287  1.00  0.00     0.000 C 
BRANCH   6   7
ATOM      7  C   UNL     1      25.493  59.893  80.080  1.00  0.00     0.000 C 
BRANCH   7   8
ATOM      8  C   UNL     1      25.056  61.366  80.080  1.00  0.00     0.000 C 
BRANCH   8   9
ATOM      9  C   UNL     1      25.689  62.185  81.221  1.00  0.00     0.000 C 
BRANCH   9  10
ATOM     10  C   UNL     1      27.230  62.201  81.231  1.00  0.00     0.000 C 
BRANCH  10  11
ATOM     11  C   UNL     1      27.824  61.816  82.596  1.00  0.00     0.000 C 
BRANCH  11  12
ATOM     12  C   UNL     1      26.762  61.305  83.581  1.00  0.00     0.000 C 
BRANCH  12  13
ATOM     13  C   UNL     1      27.310  60.232  84.537  1.00  0.00     0.006 C 
BRANCH  13  14
ATOM     14  C   UNL     1      26.793  60.450  85.963  1.00  0.00     0.053 C 
BRANCH  14  15
ATOM     15  C   UNL     1      27.929  60.497  86.939  1.00  0.00     0.041 C 
ATOM     16  O   UNL     1      28.270  61.592  87.462  1.00  0.00    -0.550 OA
ATOM     17  O   UNL     1      28.623  59.337  87.257  1.00  0.00    -0.550 OA
ENDBRANCH  14  15
ENDBRANCH  13  14
ENDBRANCH  12  13
ENDBRANCH  11  12
ENDBRANCH  10  11
ENDBRANCH   9  10
ENDBRANCH   8   9
ENDBRANCH   7   8
ENDBRANCH   6   7
ENDBRANCH   5   6
ENDBRANCH   4   5
ENDBRANCH   3   4
ENDBRANCH   2   3
ENDBRANCH   1   2
BRANCH   1  18
ATOM     18  C   UNL     1      28.869  60.214  78.712  1.00  0.00     0.000 C 
BRANCH  18  19
ATOM     19  C   UNL     1      29.121  60.296  77.194  1.00  0.00     0.000 C 
BRANCH  19  20
ATOM     20  C   UNL     1      29.928  59.105  76.632  1.00  0.00     0.000 C 
BRANCH  20  21
ATOM     21  C   UNL     1      29.752  58.941  75.113  1.00  0.00     0.000 C 
BRANCH  21  22
ATOM     22  C   UNL     1      28.662  57.907  74.755  1.00  0.00     0.000 C 
BRANCH  22  23
ATOM     23  C   UNL     1      27.475  58.507  73.977  1.00  0.00     0.000 C 
BRANCH  23  24
ATOM     24  C   UNL     1      26.373  59.127  74.856  1.00  0.00    -0.000 C 
BRANCH  24  25
ATOM     25  C   UNL     1      25.439  60.111  74.127  1.00  0.00    -0.000 C 
BRANCH  25  26
ATOM     26  C   UNL     1      25.483  61.527  74.721  1.00  0.00    -0.000 C 
BRANCH  26  27
ATOM     27  C   UNL     1      25.794  61.486  76.222  1.00  0.00    -0.000 C 
BRANCH  27  28
ATOM     28  C   UNL     1      26.277  62.858  76.719  1.00  0.00    -0.000 C 
BRANCH  28  29
ATOM     29  C   UNL     1      25.569  64.032  76.020  1.00  0.00    -0.000 C 
BRANCH  29  30
ATOM     30  C   UNL     1      26.495  64.973  75.222  1.00  0.00    -0.000 C 
BRANCH  30  31
ATOM     31  C   UNL     1      26.325  66.471  75.532  1.00  0.00    -0.003 C 
ATOM     32  C   UNL     1      25.017  66.784  76.258  1.00  0.00     0.004 C 
ENDBRANCH  30  31
ENDBRANCH  29  30
ENDBRANCH  28  29
ENDBRANCH  27  28
ENDBRANCH  26  27
ENDBRANCH  25  26
ENDBRANCH  24  25
ENDBRANCH  23  24
ENDBRANCH  22  23
ENDBRANCH  21  22
ENDBRANCH  20  21
ENDBRANCH  19  20
ENDBRANCH  18  19
ENDBRANCH   1  18
TORSDOF 28
ENDMDL
MODEL 3
REMARK VINA RESULT:    -3.749      3.726      9.672
REMARK INTER + INTRA:         -13.784
REMARK INTER:                  -8.702
REMARK INTRA:                  -5.083
REMARK UNBOUND:                -3.900
REMARK SMILES CCCCCCCCCCCCCCCCCCCCCCCCCCCCCC(=O)[O-]
REMARK SMILES IDX 16 1 17 2 18 3 19 4 20 5 21 6 22 7 23 8 24 9 25 10 26 11
REMARK SMILES IDX 27 12 28 13 29 14 30 15 31 16 32 17 15 18 14 19 13 20 12 21
REMARK SMILES IDX 11 22 10 23 9 24 8 25 7 26 6 27 5 28 4 29 3 30 2 31 1 32
REMARK H PARENT
REMARK Flexibility Score: inf
ROOT
ATOM      1  C   UNL     1      27.994  60.245  82.981  1.00  0.00     0.000 C 
ENDROOT
BRANCH   1   2
ATOM      2  C   UNL     1      27.619  61.722  82.757  1.00  0.00     0.000 C 
BRANCH   2   3
ATOM      3  C   UNL     1      27.224  62.024  81.301  1.00  0.00     0.000 C 
BRANCH   3   4
ATOM      4  C   UNL     1      25.753  62.453  81.160  1.00  0.00     0.000 C 
BRANCH   4   5
ATOM      5  C   UNL     1      24.977  61.584  80.155  1.00  0.00     0.000 C 
BRANCH   5   6
ATOM      6  C   UNL     1      25.625  61.574  78.761  1.00  0.00     0.000 C 
BRANCH   6   7
ATOM      7  C   UNL     1      24.875  60.680  77.762  1.00  0.00     0.000 C 
BRANCH   7   8
ATOM      8  C   UNL     1      25.858  59.973  76.817  1.00  0.00     0.000 C 
BRANCH   8   9
ATOM      9  C   UNL     1      26.425  60.901  75.726  1.00  0.00     0.000 C 
BRANCH   9  10
ATOM     10  C   UNL     1      25.406  61.343  74.658  1.00  0.00     0.000 C 
BRANCH  10  11
ATOM     11  C   UNL     1      25.375  62.867  74.453  1.00  0.00     0.000 C 
BRANCH  11  12
ATOM     12  C   UNL     1      25.982  63.636  75.637  1.00  0.00     0.000 C 
BRANCH  12  13
ATOM     13  C   UNL     1      24.965  64.560  76.326  1.00  0.00     0.006 C 
BRANCH  13  14
ATOM     14  C   UNL     1      24.723  65.827  75.498  1.00  0.00     0.053 C 
BRANCH  14  15
ATOM     15  C   UNL     1      25.290  67.030  76.189  1.00  0.00     0.041 C 
ATOM     16  O   UNL     1      26.461  67.416  75.931  1.00  0.00    -0.550 OA
ATOM     17  O   UNL     1      24.532  67.714  77.131  1.00  0.00    -0.550 OA
ENDBRANCH  14  15
ENDBRANCH  13  14
ENDBRANCH  12  13
ENDBRANCH  11  12
ENDBRANCH  10  11
ENDBRANCH   9  10
ENDBRANCH   8   9
ENDBRANCH   7   8
ENDBRANCH   6   7
ENDBRANCH   5   6
ENDBRANCH   4   5
ENDBRANCH   3   4
ENDBRANCH   2   3
ENDBRANCH   1   2
BRANCH   1  18
ATOM     18  C   UNL     1      26.801  59.276  83.099  1.00  0.00     0.000 C 
BRANCH  18  19
ATOM     19  C   UNL     1      26.879  58.033  82.192  1.00  0.00     0.000 C 
BRANCH  19  20
ATOM     20  C   UNL     1      26.424  58.294  80.738  1.00  0.00     0.000 C 
BRANCH  20  21
ATOM     21  C   UNL     1      27.520  57.963  79.711  1.00  0.00     0.000 C 
BRANCH  21  22
ATOM     22  C   UNL     1      28.398  59.188  79.374  1.00  0.00     0.000 C 
BRANCH  22  23
ATOM     23  C   UNL     1      29.851  59.061  79.872  1.00  0.00     0.000 C 
BRANCH  23  24
ATOM     24  C   UNL     1      30.147  57.790  80.689  1.00  0.00    -0.000 C 
BRANCH  24  25
ATOM     25  C   UNL     1      31.003  58.013  81.950  1.00  0.00    -0.000 C 
BRANCH  25  26
ATOM     26  C   UNL     1      30.462  57.267  83.178  1.00  0.00    -0.000 C 
BRANCH  26  27
ATOM     27  C   UNL     1      30.568  58.131  84.441  1.00  0.00    -0.000 C 
BRANCH  27  28
ATOM     28  C   UNL     1      29.487  57.745  85.462  1.00  0.00    -0.000 C 
BRANCH  28  29
ATOM     29  C   UNL     1      29.316  58.791  86.578  1.00  0.00    -0.000 C 
BRANCH  29  30
ATOM     30  C   UNL     1      28.024  58.658  87.409  1.00  0.00    -0.000 C 
BRANCH  30  31
ATOM     31  C   UNL     1      27.239  59.967  87.608  1.00  0.00    -0.003 C 
ATOM     32  C   UNL     1      27.758  61.110  86.736  1.00  0.00     0.004 C 
ENDBRANCH  30  31
ENDBRANCH  29  30
ENDBRANCH  28  29
ENDBRANCH  27  28
ENDBRANCH  26  27
ENDBRANCH  25  26
ENDBRANCH  24  25
ENDBRANCH  23  24
ENDBRANCH  22  23
ENDBRANCH  21  22
ENDBRANCH  20  21
ENDBRANCH  19  20
ENDBRANCH  18  19
ENDBRANCH   1  18
TORSDOF 28
ENDMDL
MODEL 4
REMARK VINA RESULT:    -3.741      4.119     10.058
REMARK INTER + INTRA:         -13.764
REMARK INTER:                  -8.505
REMARK INTRA:                  -5.260
REMARK UNBOUND:                -3.900
REMARK SMILES CCCCCCCCCCCCCCCCCCCCCCCCCCCCCC(=O)[O-]
REMARK SMILES IDX 16 1 17 2 18 3 19 4 20 5 21 6 22 7 23 8 24 9 25 10 26 11
REMARK SMILES IDX 27 12 28 13 29 14 30 15 31 16 32 17 15 18 14 19 13 20 12 21
REMARK SMILES IDX 11 22 10 23 9 24 8 25 7 26 6 27 5 28 4 29 3 30 2 31 1 32
REMARK H PARENT
REMARK Flexibility Score: inf
ROOT
ATOM      1  C   UNL     1      27.234  62.179  81.207  1.00  0.00     0.000 C 
ENDROOT
BRANCH   1   2
ATOM      2  C   UNL     1      26.047  61.834  80.288  1.00  0.00     0.000 C 
BRANCH   2   3
ATOM      3  C   UNL     1      25.429  60.460  80.600  1.00  0.00     0.000 C 
BRANCH   3   4
ATOM      4  C   UNL     1      25.694  59.423  79.493  1.00  0.00     0.000 C 
BRANCH   4   5
ATOM      5  C   UNL     1      26.831  58.451  79.854  1.00  0.00     0.000 C 
BRANCH   5   6
ATOM      6  C   UNL     1      27.988  58.497  78.842  1.00  0.00     0.000 C 
BRANCH   6   7
ATOM      7  C   UNL     1      28.668  59.873  78.779  1.00  0.00     0.000 C 
BRANCH   7   8
ATOM      8  C   UNL     1      28.648  60.427  77.346  1.00  0.00     0.000 C 
BRANCH   8   9
ATOM      9  C   UNL     1      27.595  59.749  76.449  1.00  0.00     0.000 C 
BRANCH   9  10
ATOM     10  C   UNL     1      26.482  60.683  75.936  1.00  0.00     0.000 C 
BRANCH  10  11
ATOM     11  C   UNL     1      26.476  62.051  76.638  1.00  0.00     0.000 C 
BRANCH  11  12
ATOM     12  C   UNL     1      25.064  62.644  76.767  1.00  0.00     0.000 C 
BRANCH  12  13
ATOM     13  C   UNL     1      24.982  64.092  76.259  1.00  0.00     0.006 C 
BRANCH  13  14
ATOM     14  C   UNL     1      26.305  64.527  75.620  1.00  0.00     0.053 C 
BRANCH  14  15
ATOM     15  C   UNL     1      26.082  65.633  74.634  1.00  0.00     0.041 C 
ATOM     16  O   UNL     1      25.950  65.373  73.408  1.00  0.00    -0.550 OA
ATOM     17  O   UNL     1      26.039  66.953  75.065  1.00  0.00    -0.550 OA
ENDBRANCH  14  15
ENDBRANCH  13  14
ENDBRANCH  12  13
ENDBRANCH  11  12
ENDBRANCH  10  11
ENDBRANCH   9  10
ENDBRANCH   8   9
ENDBRANCH   7   8
ENDBRANCH   6   7
ENDBRANCH   5   6
ENDBRANCH   4   5
ENDBRANCH   3   4
ENDBRANCH   2   3
ENDBRANCH   1   2
BRANCH   1  18
ATOM     18  C   UNL     1      27.611  61.088  82.227  1.00  0.00     0.000 C 
BRANCH  18  19
ATOM     19  C   UNL     1      27.317  61.442  83.698  1.00  0.00     0.000 C 
BRANCH  19  20
ATOM     20  C   UNL     1      25.816  61.397  84.060  1.00  0.00     0.000 C 
BRANCH  20  21
ATOM     21  C   UNL     1      25.457  60.176  84.923  1.00  0.00     0.000 C 
BRANCH  21  22
ATOM     22  C   UNL     1      25.182  58.916  84.074  1.00  0.00     0.000 C 
BRANCH  22  23
ATOM     23  C   UNL     1      26.140  57.747  84.375  1.00  0.00     0.000 C 
BRANCH  23  24
ATOM     24  C   UNL     1      27.333  57.623  83.410  1.00  0.00    -0.000 C 
BRANCH  24  25
ATOM     25  C   UNL     1      28.683  57.311  84.084  1.00  0.00    -0.000 C 
BRANCH  25  26
ATOM     26  C   UNL     1      29.516  58.571  84.361  1.00  0.00    -0.000 C 
BRANCH  26  27
ATOM     27  C   UNL     1      29.914  58.655  85.840  1.00  0.00    -0.000 C 
BRANCH  27  28
ATOM     28  C   UNL     1      28.708  59.042  86.711  1.00  0.00    -0.000 C 
BRANCH  28  29
ATOM     29  C   UNL     1      28.431  58.028  87.835  1.00  0.00    -0.000 C 
BRANCH  29  30
ATOM     30  C   UNL     1      26.961  57.577  87.963  1.00  0.00    -0.000 C 
BRANCH  30  31
ATOM     31  C   UNL     1      25.952  58.710  88.220  1.00  0.00    -0.003 C 
ATOM     32  C   UNL     1      24.508  58.297  87.935  1.00  0.00     0.004 C 
ENDBRANCH  30  31
ENDBRANCH  29  30
ENDBRANCH  28  29
ENDBRANCH  27  28
ENDBRANCH  26  27
ENDBRANCH  25  26
ENDBRANCH  24  25
ENDBRANCH  23  24
ENDBRANCH  22  23
ENDBRANCH  21  22
ENDBRANCH  20  21
ENDBRANCH  19  20
ENDBRANCH  18  19
ENDBRANCH   1  18
TORSDOF 28
ENDMDL
MODEL 5
REMARK VINA RESULT:    -3.716      3.964      8.933
REMARK INTER + INTRA:         -13.698
REMARK INTER:                  -9.481
REMARK INTRA:                  -4.217
REMARK UNBOUND:                -3.900
REMARK SMILES CCCCCCCCCCCCCCCCCCCCCCCCCCCCCC(=O)[O-]
REMARK SMILES IDX 16 1 17 2 18 3 19 4 20 5 21 6 22 7 23 8 24 9 25 10 26 11
REMARK SMILES IDX 27 12 28 13 29 14 30 15 31 16 32 17 15 18 14 19 13 20 12 21
REMARK SMILES IDX 11 22 10 23 9 24 8 25 7 26 6 27 5 28 4 29 3 30 2 31 1 32
REMARK H PARENT
REMARK Flexibility Score: inf
ROOT
ATOM      1  C   UNL     1      27.924  60.921  87.122  1.00  0.00     0.000 C 
ENDROOT
BRANCH   1   2
ATOM      2  C   UNL     1      26.993  61.379  85.983  1.00  0.00     0.000 C 
BRANCH   2   3
ATOM      3  C   UNL     1      27.354  60.749  84.626  1.00  0.00     0.000 C 
BRANCH   3   4
ATOM      4  C   UNL     1      26.310  59.724  84.149  1.00  0.00     0.000 C 
BRANCH   4   5
ATOM      5  C   UNL     1      26.736  59.002  82.859  1.00  0.00     0.000 C 
BRANCH   5   6
ATOM      6  C   UNL     1      26.284  59.745  81.591  1.00  0.00     0.000 C 
BRANCH   6   7
ATOM      7  C   UNL     1      27.340  60.733  81.073  1.00  0.00     0.000 C 
BRANCH   7   8
ATOM      8  C   UNL     1      26.732  62.131  80.883  1.00  0.00     0.000 C 
BRANCH   8   9
ATOM      9  C   UNL     1      25.277  62.096  80.380  1.00  0.00     0.000 C 
BRANCH   9  10
ATOM     10  C   UNL     1      25.076  62.607  78.940  1.00  0.00     0.000 C 
BRANCH  10  11
ATOM     11  C   UNL     1      25.638  61.647  77.879  1.00  0.00     0.000 C 
BRANCH  11  12
ATOM     12  C   UNL     1      26.376  62.380  76.748  1.00  0.00     0.000 C 
BRANCH  12  13
ATOM     13  C   UNL     1      25.558  63.545  76.167  1.00  0.00     0.006 C 
BRANCH  13  14
ATOM     14  C   UNL     1      25.637  63.564  74.636  1.00  0.00     0.053 C 
BRANCH  14  15
ATOM     15  C   UNL     1      26.212  64.858  74.149  1.00  0.00     0.041 C 
ATOM     16  O   UNL     1      25.834  65.346  73.050  1.00  0.00    -0.550 OA
ATOM     17  O   UNL     1      27.178  65.517  74.898  1.00  0.00    -0.550 OA
ENDBRANCH  14  15
ENDBRANCH  13  14
ENDBRANCH  12  13
ENDBRANCH  11  12
ENDBRANCH  10  11
ENDBRANCH   9  10
ENDBRANCH   8   9
ENDBRANCH   7   8
ENDBRANCH   6   7
ENDBRANCH   5   6
ENDBRANCH   4   5
ENDBRANCH   3   4
ENDBRANCH   2   3
ENDBRANCH   1   2
BRANCH   1  18
ATOM     18  C   UNL     1      27.567  59.563  87.755  1.00  0.00     0.000 C 
BRANCH  18  19
ATOM     19  C   UNL     1      28.565  58.425  87.462  1.00  0.00     0.000 C 
BRANCH  19  20
ATOM     20  C   UNL     1      27.985  57.303  86.571  1.00  0.00     0.000 C 
BRANCH  20  21
ATOM     21  C   UNL     1      28.804  57.092  85.287  1.00  0.00     0.000 C 
BRANCH  21  22
ATOM     22  C   UNL     1      29.923  58.143  85.122  1.00  0.00     0.000 C 
BRANCH  22  23
ATOM     23  C   UNL     1      30.710  58.006  83.805  1.00  0.00     0.000 C 
BRANCH  23  24
ATOM     24  C   UNL     1      30.230  58.923  82.665  1.00  0.00    -0.000 C 
BRANCH  24  25
ATOM     25  C   UNL     1      30.603  58.446  81.248  1.00  0.00    -0.000 C 
BRANCH  25  26
ATOM     26  C   UNL     1      29.659  57.357  80.718  1.00  0.00    -0.000 C 
BRANCH  26  27
ATOM     27  C   UNL     1      28.821  57.877  79.544  1.00  0.00    -0.000 C 
BRANCH  27  28
ATOM     28  C   UNL     1      29.692  58.667  78.555  1.00  0.00    -0.000 C 
BRANCH  28  29
ATOM     29  C   UNL     1      28.864  59.483  77.546  1.00  0.00    -0.000 C 
BRANCH  29  30
ATOM     30  C   UNL     1      29.423  59.509  76.108  1.00  0.00    -0.000 C 
BRANCH  30  31
ATOM     31  C   UNL     1      30.616  58.570  75.856  1.00  0.00    -0.003 C 
ATOM     32  C   UNL     1      30.782  58.202  74.382  1.00  0.00     0.004 C 
ENDBRANCH  30  31
ENDBRANCH  29  30
ENDBRANCH  28  29
ENDBRANCH  27  28
ENDBRANCH  26  27
ENDBRANCH  25  26
ENDBRANCH  24  25
ENDBRANCH  23  24
ENDBRANCH  22  23
ENDBRANCH  21  22
ENDBRANCH  20  21
ENDBRANCH  19  20
ENDBRANCH  18  19
ENDBRANCH   1  18
TORSDOF 28
ENDMDL
MODEL 6
REMARK VINA RESULT:    -3.707      3.001      5.027
REMARK INTER + INTRA:         -13.674
REMARK INTER:                  -7.463
REMARK INTRA:                  -6.211
REMARK UNBOUND:                -3.900
REMARK SMILES CCCCCCCCCCCCCCCCCCCCCCCCCCCCCC(=O)[O-]
REMARK SMILES IDX 16 1 17 2 18 3 19 4 20 5 21 6 22 7 23 8 24 9 25 10 26 11
REMARK SMILES IDX 27 12 28 13 29 14 30 15 31 16 32 17 15 18 14 19 13 20 12 21
REMARK SMILES IDX 11 22 10 23 9 24 8 25 7 26 6 27 5 28 4 29 3 30 2 31 1 32
REMARK H PARENT
REMARK Flexibility Score: inf
ROOT
ATOM      1  C   UNL     1      27.742  61.375  82.693  1.00  0.00     0.000 C 
ENDROOT
BRANCH   1   2
ATOM      2  C   UNL     1      28.398  59.981  82.688  1.00  0.00     0.000 C 
BRANCH   2   3
ATOM      3  C   UNL     1      27.443  58.873  82.211  1.00  0.00     0.000 C 
BRANCH   3   4
ATOM      4  C   UNL     1      27.316  57.720  83.223  1.00  0.00     0.000 C 
BRANCH   4   5
ATOM      5  C   UNL     1      25.976  57.741  83.979  1.00  0.00     0.000 C 
BRANCH   5   6
ATOM      6  C   UNL     1      25.066  58.897  83.532  1.00  0.00     0.000 C 
BRANCH   6   7
ATOM      7  C   UNL     1      24.873  59.958  84.626  1.00  0.00     0.000 C 
BRANCH   7   8
ATOM      8  C   UNL     1      25.740  59.640  85.854  1.00  0.00     0.000 C 
BRANCH   8   9
ATOM      9  C   UNL     1      26.914  60.621  86.037  1.00  0.00     0.000 C 
BRANCH   9  10
ATOM     10  C   UNL     1      28.160  60.021  86.715  1.00  0.00     0.000 C 
BRANCH  10  11
ATOM     11  C   UNL     1      27.972  58.550  87.121  1.00  0.00     0.000 C 
BRANCH  11  12
ATOM     12  C   UNL     1      29.159  57.666  86.707  1.00  0.00     0.000 C 
BRANCH  12  13
ATOM     13  C   UNL     1      30.084  58.355  85.692  1.00  0.00     0.006 C 
BRANCH  13  14
ATOM     14  C   UNL     1      31.442  57.648  85.616  1.00  0.00     0.053 C 
BRANCH  14  15
ATOM     15  C   UNL     1      31.800  57.336  84.195  1.00  0.00     0.041 C 
ATOM     16  O   UNL     1      33.009  57.249  83.850  1.00  0.00    -0.550 OA
ATOM     17  O   UNL     1      30.800  57.159  83.247  1.00  0.00    -0.550 OA
ENDBRANCH  14  15
ENDBRANCH  13  14
ENDBRANCH  12  13
ENDBRANCH  11  12
ENDBRANCH  10  11
ENDBRANCH   9  10
ENDBRANCH   8   9
ENDBRANCH   7   8
ENDBRANCH   6   7
ENDBRANCH   5   6
ENDBRANCH   4   5
ENDBRANCH   3   4
ENDBRANCH   2   3
ENDBRANCH   1   2
BRANCH   1  18
ATOM     18  C   UNL     1      27.106  61.805  81.358  1.00  0.00     0.000 C 
BRANCH  18  19
ATOM     19  C   UNL     1      25.594  62.097  81.420  1.00  0.00     0.000 C 
BRANCH  19  20
ATOM     20  C   UNL     1      24.877  61.955  80.059  1.00  0.00     0.000 C 
BRANCH  20  21
ATOM     21  C   UNL     1      25.845  61.600  78.919  1.00  0.00     0.000 C 
BRANCH  21  22
ATOM     22  C   UNL     1      25.502  60.249  78.254  1.00  0.00     0.000 C 
BRANCH  22  23
ATOM     23  C   UNL     1      25.385  59.082  79.252  1.00  0.00     0.000 C 
BRANCH  23  24
ATOM     24  C   UNL     1      25.881  57.724  78.721  1.00  0.00    -0.000 C 
BRANCH  24  25
ATOM     25  C   UNL     1      25.597  57.468  77.229  1.00  0.00    -0.000 C 
BRANCH  25  26
ATOM     26  C   UNL     1      26.878  57.281  76.402  1.00  0.00    -0.000 C 
BRANCH  26  27
ATOM     27  C   UNL     1      26.931  58.275  75.235  1.00  0.00    -0.000 C 
BRANCH  27  28
ATOM     28  C   UNL     1      27.920  59.414  75.529  1.00  0.00    -0.000 C 
BRANCH  28  29
ATOM     29  C   UNL     1      28.929  59.061  76.635  1.00  0.00    -0.000 C 
BRANCH  29  30
ATOM     30  C   UNL     1      29.029  60.086  77.783  1.00  0.00    -0.000 C 
BRANCH  30  31
ATOM     31  C   UNL     1      29.432  59.499  79.148  1.00  0.00    -0.003 C 
ATOM     32  C   UNL     1      29.569  57.977  79.124  1.00  0.00     0.004 C 
ENDBRANCH  30  31
ENDBRANCH  29  30
ENDBRANCH  28  29
ENDBRANCH  27  28
ENDBRANCH  26  27
ENDBRANCH  25  26
ENDBRANCH  24  25
ENDBRANCH  23  24
ENDBRANCH  22  23
ENDBRANCH  21  22
ENDBRANCH  20  21
ENDBRANCH  19  20
ENDBRANCH  18  19
ENDBRANCH   1  18
TORSDOF 28
ENDMDL
MODEL 7
REMARK VINA RESULT:    -3.705      4.006      9.798
REMARK INTER + INTRA:         -13.670
REMARK INTER:                  -8.688
REMARK INTRA:                  -4.982
REMARK UNBOUND:                -3.900
REMARK SMILES CCCCCCCCCCCCCCCCCCCCCCCCCCCCCC(=O)[O-]
REMARK SMILES IDX 16 1 17 2 18 3 19 4 20 5 21 6 22 7 23 8 24 9 25 10 26 11
REMARK SMILES IDX 27 12 28 13 29 14 30 15 31 16 32 17 15 18 14 19 13 20 12 21
REMARK SMILES IDX 11 22 10 23 9 24 8 25 7 26 6 27 5 28 4 29 3 30 2 31 1 32
REMARK H PARENT
REMARK Flexibility Score: inf
ROOT
ATOM      1  C   UNL     1      30.148  59.143  82.816  1.00  0.00     0.000 C 
ENDROOT
BRANCH   1   2
ATOM      2  C   UNL     1      30.679  58.252  81.678  1.00  0.00     0.000 C 
BRANCH   2   3
ATOM      3  C   UNL     1      30.134  58.658  80.297  1.00  0.00     0.000 C 
BRANCH   3   4
ATOM      4  C   UNL     1      29.461  57.489  79.556  1.00  0.00     0.000 C 
BRANCH   4   5
ATOM      5  C   UNL     1      29.091  57.845  78.104  1.00  0.00     0.000 C 
BRANCH   5   6
ATOM      6  C   UNL     1      29.344  59.326  77.778  1.00  0.00     0.000 C 
BRANCH   6   7
ATOM      7  C   UNL     1      28.052  60.095  77.467  1.00  0.00     0.000 C 
BRANCH   7   8
ATOM      8  C   UNL     1      27.929  61.339  78.360  1.00  0.00     0.000 C 
BRANCH   8   9
ATOM      9  C   UNL     1      26.527  61.978  78.318  1.00  0.00     0.000 C 
BRANCH   9  10
ATOM     10  C   UNL     1      25.689  61.622  77.076  1.00  0.00     0.000 C 
BRANCH  10  11
ATOM     11  C   UNL     1      25.027  62.849  76.427  1.00  0.00     0.000 C 
BRANCH  11  12
ATOM     12  C   UNL     1      25.800  63.359  75.201  1.00  0.00     0.000 C 
BRANCH  12  13
ATOM     13  C   UNL     1      26.486  64.711  75.455  1.00  0.00     0.006 C 
BRANCH  13  14
ATOM     14  C   UNL     1      26.043  65.755  74.424  1.00  0.00     0.053 C 
BRANCH  14  15
ATOM     15  C   UNL     1      25.475  66.964  75.102  1.00  0.00     0.041 C 
ATOM     16  O   UNL     1      24.299  67.339  74.850  1.00  0.00    -0.550 OA
ATOM     17  O   UNL     1      26.251  67.689  75.998  1.00  0.00    -0.550 OA
ENDBRANCH  14  15
ENDBRANCH  13  14
ENDBRANCH  12  13
ENDBRANCH  11  12
ENDBRANCH  10  11
ENDBRANCH   9  10
ENDBRANCH   8   9
ENDBRANCH   7   8
ENDBRANCH   6   7
ENDBRANCH   5   6
ENDBRANCH   4   5
ENDBRANCH   3   4
ENDBRANCH   2   3
ENDBRANCH   1   2
BRANCH   1  18
ATOM     18  C   UNL     1      29.401  58.398  83.938  1.00  0.00     0.000 C 
BRANCH  18  19
ATOM     19  C   UNL     1      28.515  57.229  83.466  1.00  0.00     0.000 C 
BRANCH  19  20
ATOM     20  C   UNL     1      27.105  57.222  84.098  1.00  0.00     0.000 C 
BRANCH  20  21
ATOM     21  C   UNL     1      25.995  57.457  83.059  1.00  0.00     0.000 C 
BRANCH  21  22
ATOM     22  C   UNL     1      26.537  57.476  81.613  1.00  0.00     0.000 C 
BRANCH  22  23
ATOM     23  C   UNL     1      26.213  58.774  80.849  1.00  0.00     0.000 C 
BRANCH  23  24
ATOM     24  C   UNL     1      26.823  60.051  81.454  1.00  0.00    -0.000 C 
BRANCH  24  25
ATOM     25  C   UNL     1      25.798  61.074  81.981  1.00  0.00    -0.000 C 
BRANCH  25  26
ATOM     26  C   UNL     1      25.737  61.122  83.514  1.00  0.00    -0.000 C 
BRANCH  26  27
ATOM     27  C   UNL     1      27.135  61.318  84.116  1.00  0.00    -0.000 C 
BRANCH  27  28
ATOM     28  C   UNL     1      27.075  61.324  85.651  1.00  0.00    -0.000 C 
BRANCH  28  29
ATOM     29  C   UNL     1      26.638  59.971  86.240  1.00  0.00    -0.000 C 
BRANCH  29  30
ATOM     30  C   UNL     1      27.234  59.634  87.622  1.00  0.00    -0.000 C 
BRANCH  30  31
ATOM     31  C   UNL     1      27.396  58.131  87.912  1.00  0.00    -0.003 C 
ATOM     32  C   UNL     1      28.758  57.586  87.482  1.00  0.00     0.004 C 
ENDBRANCH  30  31
ENDBRANCH  29  30
ENDBRANCH  28  29
ENDBRANCH  27  28
ENDBRANCH  26  27
ENDBRANCH  25  26
ENDBRANCH  24  25
ENDBRANCH  23  24
ENDBRANCH  22  23
ENDBRANCH  21  22
ENDBRANCH  20  21
ENDBRANCH  19  20
ENDBRANCH  18  19
ENDBRANCH   1  18
TORSDOF 28
ENDMDL
MODEL 8
REMARK VINA RESULT:    -3.642      3.893      9.692
REMARK INTER + INTRA:         -13.504
REMARK INTER:                  -8.714
REMARK INTRA:                  -4.790
REMARK UNBOUND:                -3.900
REMARK SMILES CCCCCCCCCCCCCCCCCCCCCCCCCCCCCC(=O)[O-]
REMARK SMILES IDX 16 1 17 2 18 3 19 4 20 5 21 6 22 7 23 8 24 9 25 10 26 11
REMARK SMILES IDX 27 12 28 13 29 14 30 15 31 16 32 17 15 18 14 19 13 20 12 21
REMARK SMILES IDX 11 22 10 23 9 24 8 25 7 26 6 27 5 28 4 29 3 30 2 31 1 32
REMARK H PARENT
REMARK Flexibility Score: inf
ROOT
ATOM      1  C   UNL     1      27.782  61.754  79.563  1.00  0.00     0.000 C 
ENDROOT
BRANCH   1   2
ATOM      2  C   UNL     1      28.240  60.627  78.618  1.00  0.00     0.000 C 
BRANCH   2   3
ATOM      3  C   UNL     1      29.128  59.583  79.318  1.00  0.00     0.000 C 
BRANCH   3   4
ATOM      4  C   UNL     1      29.412  58.354  78.435  1.00  0.00     0.000 C 
BRANCH   4   5
ATOM      5  C   UNL     1      29.850  58.738  77.011  1.00  0.00     0.000 C 
BRANCH   5   6
ATOM      6  C   UNL     1      29.594  57.615  75.993  1.00  0.00     0.000 C 
BRANCH   6   7
ATOM      7  C   UNL     1      28.490  57.967  74.985  1.00  0.00     0.000 C 
BRANCH   7   8
ATOM      8  C   UNL     1      28.072  59.439  75.124  1.00  0.00     0.000 C 
BRANCH   8   9
ATOM      9  C   UNL     1      26.550  59.651  75.010  1.00  0.00     0.000 C 
BRANCH   9  10
ATOM     10  C   UNL     1      25.794  59.647  76.352  1.00  0.00     0.000 C 
BRANCH  10  11
ATOM     11  C   UNL     1      24.990  60.936  76.591  1.00  0.00     0.000 C 
BRANCH  11  12
ATOM     12  C   UNL     1      25.362  62.056  75.607  1.00  0.00     0.000 C 
BRANCH  12  13
ATOM     13  C   UNL     1      26.158  63.189  76.274  1.00  0.00     0.006 C 
BRANCH  13  14
ATOM     14  C   UNL     1      25.487  64.547  76.038  1.00  0.00     0.053 C 
BRANCH  14  15
ATOM     15  C   UNL     1      26.312  65.397  75.121  1.00  0.00     0.041 C 
ATOM     16  O   UNL     1      26.741  66.516  75.509  1.00  0.00    -0.550 OA
ATOM     17  O   UNL     1      26.590  64.963  73.832  1.00  0.00    -0.550 OA
ENDBRANCH  14  15
ENDBRANCH  13  14
ENDBRANCH  12  13
ENDBRANCH  11  12
ENDBRANCH  10  11
ENDBRANCH   9  10
ENDBRANCH   8   9
ENDBRANCH   7   8
ENDBRANCH   6   7
ENDBRANCH   5   6
ENDBRANCH   4   5
ENDBRANCH   3   4
ENDBRANCH   2   3
ENDBRANCH   1   2
BRANCH   1  18
ATOM     18  C   UNL     1      26.317  61.662  80.030  1.00  0.00     0.000 C 
BRANCH  18  19
ATOM     19  C   UNL     1      26.123  61.604  81.557  1.00  0.00     0.000 C 
BRANCH  19  20
ATOM     20  C   UNL     1      27.445  61.656  82.355  1.00  0.00     0.000 C 
BRANCH  20  21
ATOM     21  C   UNL     1      27.226  61.474  83.867  1.00  0.00     0.000 C 
BRANCH  21  22
ATOM     22  C   UNL     1      25.802  60.976  84.199  1.00  0.00     0.000 C 
BRANCH  22  23
ATOM     23  C   UNL     1      25.753  59.502  84.646  1.00  0.00     0.000 C 
BRANCH  23  24
ATOM     24  C   UNL     1      25.612  58.482  83.501  1.00  0.00    -0.000 C 
BRANCH  24  25
ATOM     25  C   UNL     1      26.798  57.512  83.346  1.00  0.00    -0.000 C 
BRANCH  25  26
ATOM     26  C   UNL     1      27.887  58.047  82.405  1.00  0.00    -0.000 C 
BRANCH  26  27
ATOM     27  C   UNL     1      29.170  58.380  83.177  1.00  0.00    -0.000 C 
BRANCH  27  28
ATOM     28  C   UNL     1      29.184  57.681  84.545  1.00  0.00    -0.000 C 
BRANCH  28  29
ATOM     29  C   UNL     1      29.843  58.530  85.646  1.00  0.00    -0.000 C 
BRANCH  29  30
ATOM     30  C   UNL     1      28.866  59.339  86.524  1.00  0.00    -0.000 C 
BRANCH  30  31
ATOM     31  C   UNL     1      28.130  58.522  87.601  1.00  0.00    -0.003 C 
ATOM     32  C   UNL     1      27.005  59.305  88.277  1.00  0.00     0.004 C 
ENDBRANCH  30  31
ENDBRANCH  29  30
ENDBRANCH  28  29
ENDBRANCH  27  28
ENDBRANCH  26  27
ENDBRANCH  25  26
ENDBRANCH  24  25
ENDBRANCH  23  24
ENDBRANCH  22  23
ENDBRANCH  21  22
ENDBRANCH  20  21
ENDBRANCH  19  20
ENDBRANCH  18  19
ENDBRANCH   1  18
TORSDOF 28
ENDMDL
MODEL 9
REMARK VINA RESULT:    -3.628      2.416      5.195
REMARK INTER + INTRA:         -13.467
REMARK INTER:                  -8.065
REMARK INTRA:                  -5.401
REMARK UNBOUND:                -3.900
REMARK SMILES CCCCCCCCCCCCCCCCCCCCCCCCCCCCCC(=O)[O-]
REMARK SMILES IDX 16 1 17 2 18 3 19 4 20 5 21 6 22 7 23 8 24 9 25 10 26 11
REMARK SMILES IDX 27 12 28 13 29 14 30 15 31 16 32 17 15 18 14 19 13 20 12 21
REMARK SMILES IDX 11 22 10 23 9 24 8 25 7 26 6 27 5 28 4 29 3 30 2 31 1 32
REMARK H PARENT
REMARK Flexibility Score: inf
ROOT
ATOM      1  C   UNL     1      29.742  59.387  76.256  1.00  0.00     0.000 C 
ENDROOT
BRANCH   1   2
ATOM      2  C   UNL     1      28.828  59.031  75.068  1.00  0.00     0.000 C 
BRANCH   2   3
ATOM      3  C   UNL     1      27.509  59.823  75.071  1.00  0.00     0.000 C 
BRANCH   3   4
ATOM      4  C   UNL     1      26.300  58.966  75.486  1.00  0.00     0.000 C 
BRANCH   4   5
ATOM      5  C   UNL     1      25.544  59.553  76.691  1.00  0.00     0.000 C 
BRANCH   5   6
ATOM      6  C   UNL     1      25.194  58.488  77.743  1.00  0.00     0.000 C 
BRANCH   6   7
ATOM      7  C   UNL     1      24.396  59.059  78.924  1.00  0.00     0.000 C 
BRANCH   7   8
ATOM      8  C   UNL     1      24.509  58.144  80.153  1.00  0.00     0.000 C 
BRANCH   8   9
ATOM      9  C   UNL     1      25.966  57.829  80.542  1.00  0.00     0.000 C 
BRANCH   9  10
ATOM     10  C   UNL     1      26.125  56.876  81.742  1.00  0.00     0.000 C 
BRANCH  10  11
ATOM     11  C   UNL     1      27.336  57.221  82.625  1.00  0.00     0.000 C 
BRANCH  11  12
ATOM     12  C   UNL     1      27.399  58.714  82.985  1.00  0.00     0.000 C 
BRANCH  12  13
ATOM     13  C   UNL     1      28.802  59.155  83.433  1.00  0.00     0.006 C 
BRANCH  13  14
ATOM     14  C   UNL     1      29.856  58.787  82.383  1.00  0.00     0.053 C 
BRANCH  14  15
ATOM     15  C   UNL     1      30.975  58.009  83.003  1.00  0.00     0.041 C 
ATOM     16  O   UNL     1      30.978  57.780  84.243  1.00  0.00    -0.550 OA
ATOM     17  O   UNL     1      32.025  57.551  82.217  1.00  0.00    -0.550 OA
ENDBRANCH  14  15
ENDBRANCH  13  14
ENDBRANCH  12  13
ENDBRANCH  11  12
ENDBRANCH  10  11
ENDBRANCH   9  10
ENDBRANCH   8   9
ENDBRANCH   7   8
ENDBRANCH   6   7
ENDBRANCH   5   6
ENDBRANCH   4   5
ENDBRANCH   3   4
ENDBRANCH   2   3
ENDBRANCH   1   2
BRANCH   1  18
ATOM     18  C   UNL     1      29.480  58.590  77.547  1.00  0.00     0.000 C 
BRANCH  18  19
ATOM     19  C   UNL     1      28.745  59.368  78.656  1.00  0.00     0.000 C 
BRANCH  19  20
ATOM     20  C   UNL     1      28.753  60.900  78.451  1.00  0.00     0.000 C 
BRANCH  20  21
ATOM     21  C   UNL     1      27.511  61.579  79.053  1.00  0.00     0.000 C 
BRANCH  21  22
ATOM     22  C   UNL     1      27.230  61.117  80.499  1.00  0.00     0.000 C 
BRANCH  22  23
ATOM     23  C   UNL     1      25.927  61.690  81.089  1.00  0.00     0.000 C 
BRANCH  23  24
ATOM     24  C   UNL     1      25.378  62.930  80.359  1.00  0.00    -0.000 C 
BRANCH  24  25
ATOM     25  C   UNL     1      24.084  62.691  79.558  1.00  0.00    -0.000 C 
BRANCH  25  26
ATOM     26  C   UNL     1      23.922  63.665  78.381  1.00  0.00    -0.000 C 
BRANCH  26  27
ATOM     27  C   UNL     1      24.208  62.968  77.045  1.00  0.00    -0.000 C 
BRANCH  27  28
ATOM     28  C   UNL     1      25.596  63.356  76.511  1.00  0.00    -0.000 C 
BRANCH  28  29
ATOM     29  C   UNL     1      25.688  63.289  74.976  1.00  0.00    -0.000 C 
BRANCH  29  30
ATOM     30  C   UNL     1      26.127  64.599  74.289  1.00  0.00    -0.000 C 
BRANCH  30  31
ATOM     31  C   UNL     1      26.897  65.581  75.190  1.00  0.00    -0.003 C 
ATOM     32  C   UNL     1      26.115  66.863  75.476  1.00  0.00     0.004 C 
ENDBRANCH  30  31
ENDBRANCH  29  30
ENDBRANCH  28  29
ENDBRANCH  27  28
ENDBRANCH  26  27
ENDBRANCH  25  26
ENDBRANCH  24  25
ENDBRANCH  23  24
ENDBRANCH  22  23
ENDBRANCH  21  22
ENDBRANCH  20  21
ENDBRANCH  19  20
ENDBRANCH  18  19
ENDBRANCH   1  18
TORSDOF 28
ENDMDL
