MODEL 1
REMARK VINA RESULT:    -5.676      0.000      0.000
REMARK INTER + INTRA:          -6.805
REMARK INTER:                  -6.672
REMARK INTRA:                  -0.133
REMARK UNBOUND:                -0.133
REMARK SMILES O=C([O-])C=Cc1ccc(O)c(O)c1
REMARK SMILES IDX 6 1 13 2 7 3 11 4 8 5 9 6 5 7 4 8 2 9 1 10 3 11 12 12 10 14
REMARK H PARENT 12 13 10 15
REMARK Flexibility Score: inf
ROOT
ATOM      1  C   UNL     1     -10.277 -19.053  -6.739  1.00  0.00    -0.022 A 
ATOM      2  C   UNL     1     -10.171 -20.196  -5.928  1.00  0.00     0.058 A 
ATOM      3  C   UNL     1     -11.550 -18.491  -6.959  1.00  0.00     0.012 A 
ATOM      4  C   UNL     1     -11.307 -20.754  -5.325  1.00  0.00     0.157 A 
ATOM      5  C   UNL     1     -12.683 -19.049  -6.358  1.00  0.00     0.051 A 
ATOM      6  C   UNL     1     -12.564 -20.179  -5.539  1.00  0.00     0.157 A 
ENDROOT
BRANCH   1   7
ATOM      7  C   UNL     1      -9.045 -18.507  -7.362  1.00  0.00     0.010 C 
ATOM      8  C   UNL     1      -7.840 -19.084  -7.258  1.00  0.00     0.025 C 
BRANCH   8   9
ATOM      9  C   UNL     1      -6.640 -18.520  -7.900  1.00  0.00     0.064 C 
ATOM     10  O   UNL     1      -6.441 -18.650  -9.137  1.00  0.00    -0.545 OA
ATOM     11  O   UNL     1      -5.714 -17.831  -7.129  1.00  0.00    -0.545 OA
ENDBRANCH   8   9
ENDBRANCH   1   7
BRANCH   4  12
ATOM     12  O   UNL     1     -11.192 -21.882  -4.514  1.00  0.00    -0.504 OA
ATOM     13  H   UNL     1     -11.945 -22.174  -3.902  1.00  0.00     0.293 HD
ENDBRANCH   4  12
BRANCH   6  14
ATOM     14  O   UNL     1     -13.691 -20.736  -4.937  1.00  0.00    -0.504 OA
ATOM     15  H   UNL     1     -14.074 -20.360  -4.077  1.00  0.00     0.293 HD
ENDBRANCH   6  14
TORSDOF 4
ENDMDL
MODEL 2
REMARK VINA RESULT:    -5.544      4.462      5.473
REMARK INTER + INTRA:          -6.648
REMARK INTER:                  -6.509
REMARK INTRA:                  -0.139
REMARK UNBOUND:                -0.133
REMARK SMILES O=C([O-])C=Cc1ccc(O)c(O)c1
REMARK SMILES IDX 6 1 13 2 7 3 11 4 8 5 9 6 5 7 4 8 2 9 1 10 3 11 12 12 10 14
REMARK H PARENT 12 13 10 15
REMARK Flexibility Score: inf
ROOT
ATOM      1  C   UNL     1     -12.463 -21.161  -8.827  1.00  0.00    -0.022 A 
ATOM      2  C   UNL     1     -13.597 -20.907  -8.037  1.00  0.00     0.058 A 
ATOM      3  C   UNL     1     -11.324 -20.347  -8.663  1.00  0.00     0.012 A 
ATOM      4  C   UNL     1     -13.590 -19.880  -7.083  1.00  0.00     0.157 A 
ATOM      5  C   UNL     1     -11.319 -19.322  -7.712  1.00  0.00     0.051 A 
ATOM      6  C   UNL     1     -12.449 -19.088  -6.919  1.00  0.00     0.157 A 
ENDROOT
BRANCH   1   7
ATOM      7  C   UNL     1     -12.525 -22.254  -9.830  1.00  0.00     0.010 C 
ATOM      8  C   UNL     1     -11.595 -22.453 -10.773  1.00  0.00     0.025 C 
BRANCH   8   9
ATOM      9  C   UNL     1     -11.683 -23.556 -11.745  1.00  0.00     0.064 C 
ATOM     10  O   UNL     1     -12.000 -24.720 -11.382  1.00  0.00    -0.545 OA
ATOM     11  O   UNL     1     -11.416 -23.308 -13.085  1.00  0.00    -0.545 OA
ENDBRANCH   8   9
ENDBRANCH   1   7
BRANCH   4  12
ATOM     12  O   UNL     1     -14.716 -19.642  -6.296  1.00  0.00    -0.504 OA
ATOM     13  H   UNL     1     -14.643 -19.500  -5.295  1.00  0.00     0.293 HD
ENDBRANCH   4  12
BRANCH   6  14
ATOM     14  O   UNL     1     -12.446 -18.068  -5.969  1.00  0.00    -0.504 OA
ATOM     15  H   UNL     1     -13.292 -17.565  -5.728  1.00  0.00     0.293 HD
ENDBRANCH   6  14
TORSDOF 4
ENDMDL
MODEL 3
REMARK VINA RESULT:    -5.460     11.948     13.114
REMARK INTER + INTRA:          -6.550
REMARK INTER:                  -6.422
REMARK INTRA:                  -0.128
REMARK UNBOUND:                -0.133
REMARK SMILES O=C([O-])C=Cc1ccc(O)c(O)c1
REMARK SMILES IDX 6 1 13 2 7 3 11 4 8 5 9 6 5 7 4 8 2 9 1 10 3 11 12 12 10 14
REMARK H PARENT 12 13 10 15
REMARK Flexibility Score: inf
ROOT
ATOM      1  C   UNL     1     -13.063 -10.382 -15.430  1.00  0.00    -0.022 A 
ATOM      2  C   UNL     1     -12.772  -9.318 -14.560  1.00  0.00     0.058 A 
ATOM      3  C   UNL     1     -14.410 -10.654 -15.745  1.00  0.00     0.012 A 
ATOM      4  C   UNL     1     -13.799  -8.521 -14.035  1.00  0.00     0.157 A 
ATOM      5  C   UNL     1     -15.433  -9.859 -15.220  1.00  0.00     0.051 A 
ATOM      6  C   UNL     1     -15.131  -8.791 -14.367  1.00  0.00     0.157 A 
ENDROOT
BRANCH   1   7
ATOM      7  C   UNL     1     -11.940 -11.202 -15.951  1.00  0.00     0.010 C 
ATOM      8  C   UNL     1     -11.018 -11.782 -15.171  1.00  0.00     0.025 C 
BRANCH   8   9
ATOM      9  C   UNL     1      -9.923 -12.598 -15.722  1.00  0.00     0.064 C 
ATOM     10  O   UNL     1      -9.654 -13.734 -15.247  1.00  0.00    -0.545 OA
ATOM     11  O   UNL     1      -9.176 -12.110 -16.786  1.00  0.00    -0.545 OA
ENDBRANCH   8   9
ENDBRANCH   1   7
BRANCH   4  12
ATOM     12  O   UNL     1     -13.502  -7.460 -13.181  1.00  0.00    -0.504 OA
ATOM     13  H   UNL     1     -13.538  -6.498 -13.497  1.00  0.00     0.293 HD
ENDBRANCH   4  12
BRANCH   6  14
ATOM     14  O   UNL     1     -16.149  -7.996 -13.843  1.00  0.00    -0.504 OA
ATOM     15  H   UNL     1     -17.115  -8.305 -13.841  1.00  0.00     0.293 HD
ENDBRANCH   6  14
TORSDOF 4
ENDMDL
MODEL 4
REMARK VINA RESULT:    -5.442     12.988     13.806
REMARK INTER + INTRA:          -6.529
REMARK INTER:                  -6.402
REMARK INTRA:                  -0.127
REMARK UNBOUND:                -0.133
REMARK SMILES O=C([O-])C=Cc1ccc(O)c(O)c1
REMARK SMILES IDX 6 1 13 2 7 3 11 4 8 5 9 6 5 7 4 8 2 9 1 10 3 11 12 12 10 14
REMARK H PARENT 12 13 10 15
REMARK Flexibility Score: inf
ROOT
ATOM      1  C   UNL     1     -15.310 -10.403 -15.589  1.00  0.00    -0.022 A 
ATOM      2  C   UNL     1     -16.180 -10.978 -16.531  1.00  0.00     0.058 A 
ATOM      3  C   UNL     1     -15.834  -9.974 -14.353  1.00  0.00     0.012 A 
ATOM      4  C   UNL     1     -17.541 -11.148 -16.239  1.00  0.00     0.157 A 
ATOM      5  C   UNL     1     -17.191 -10.144 -14.063  1.00  0.00     0.051 A 
ATOM      6  C   UNL     1     -18.046 -10.733 -15.003  1.00  0.00     0.157 A 
ENDROOT
BRANCH   1   7
ATOM      7  C   UNL     1     -13.880 -10.236 -15.952  1.00  0.00     0.010 C 
ATOM      8  C   UNL     1     -12.877 -10.883 -15.342  1.00  0.00     0.025 C 
BRANCH   8   9
ATOM      9  C   UNL     1     -11.470 -10.702 -15.737  1.00  0.00     0.064 C 
ATOM     10  O   UNL     1     -10.723  -9.887 -15.132  1.00  0.00    -0.545 OA
ATOM     11  O   UNL     1     -10.956 -11.445 -16.791  1.00  0.00    -0.545 OA
ENDBRANCH   8   9
ENDBRANCH   1   7
BRANCH   4  12
ATOM     12  O   UNL     1     -18.395 -11.729 -17.174  1.00  0.00    -0.504 OA
ATOM     13  H   UNL     1     -18.209 -11.676 -18.169  1.00  0.00     0.293 HD
ENDBRANCH   4  12
BRANCH   6  14
ATOM     14  O   UNL     1     -19.399 -10.904 -14.715  1.00  0.00    -0.504 OA
ATOM     15  H   UNL     1     -19.707 -11.465 -13.929  1.00  0.00     0.293 HD
ENDBRANCH   6  14
TORSDOF 4
ENDMDL
MODEL 5
REMARK VINA RESULT:    -5.356     13.501     13.938
REMARK INTER + INTRA:          -6.428
REMARK INTER:                  -6.300
REMARK INTRA:                  -0.128
REMARK UNBOUND:                -0.133
REMARK SMILES O=C([O-])C=Cc1ccc(O)c(O)c1
REMARK SMILES IDX 6 1 13 2 7 3 11 4 8 5 9 6 5 7 4 8 2 9 1 10 3 11 12 12 10 14
REMARK H PARENT 12 13 10 15
REMARK Flexibility Score: inf
ROOT
ATOM      1  C   UNL     1     -15.242 -10.407 -16.157  1.00  0.00    -0.022 A 
ATOM      2  C   UNL     1     -15.536  -9.773 -14.938  1.00  0.00     0.058 A 
ATOM      3  C   UNL     1     -16.252 -11.152 -16.797  1.00  0.00     0.012 A 
ATOM      4  C   UNL     1     -16.819  -9.856 -14.379  1.00  0.00     0.157 A 
ATOM      5  C   UNL     1     -17.531 -11.235 -16.238  1.00  0.00     0.051 A 
ATOM      6  C   UNL     1     -17.818 -10.587 -15.031  1.00  0.00     0.157 A 
ENDROOT
BRANCH   1   7
ATOM      7  C   UNL     1     -13.865 -10.296 -16.701  1.00  0.00     0.010 C 
ATOM      8  C   UNL     1     -12.760 -10.572 -15.993  1.00  0.00     0.025 C 
BRANCH   8   9
ATOM      9  C   UNL     1     -11.410 -10.463 -16.570  1.00  0.00     0.064 C 
ATOM     10  O   UNL     1     -11.131 -10.986 -17.682  1.00  0.00    -0.545 OA
ATOM     11  O   UNL     1     -10.426  -9.768 -15.878  1.00  0.00    -0.545 OA
ENDBRANCH   8   9
ENDBRANCH   1   7
BRANCH   4  12
ATOM     12  O   UNL     1     -17.106  -9.216 -13.174  1.00  0.00    -0.504 OA
ATOM     13  H   UNL     1     -18.023  -9.277 -12.746  1.00  0.00     0.293 HD
ENDBRANCH   4  12
BRANCH   6  14
ATOM     14  O   UNL     1     -19.093 -10.666 -14.473  1.00  0.00    -0.504 OA
ATOM     15  H   UNL     1     -19.882 -11.021 -15.002  1.00  0.00     0.293 HD
ENDBRANCH   6  14
TORSDOF 4
ENDMDL
MODEL 6
REMARK VINA RESULT:    -5.320      3.989      7.563
REMARK INTER + INTRA:          -6.385
REMARK INTER:                  -6.254
REMARK INTRA:                  -0.132
REMARK UNBOUND:                -0.133
REMARK SMILES O=C([O-])C=Cc1ccc(O)c(O)c1
REMARK SMILES IDX 6 1 13 2 7 3 11 4 8 5 9 6 5 7 4 8 2 9 1 10 3 11 12 12 10 14
REMARK H PARENT 12 13 10 15
REMARK Flexibility Score: inf
ROOT
ATOM      1  C   UNL     1     -14.874 -20.378  -7.892  1.00  0.00    -0.022 A 
ATOM      2  C   UNL     1     -14.291 -20.044  -6.658  1.00  0.00     0.058 A 
ATOM      3  C   UNL     1     -14.035 -20.736  -8.966  1.00  0.00     0.012 A 
ATOM      4  C   UNL     1     -12.900 -20.092  -6.487  1.00  0.00     0.157 A 
ATOM      5  C   UNL     1     -12.648 -20.782  -8.795  1.00  0.00     0.051 A 
ATOM      6  C   UNL     1     -12.078 -20.463  -7.556  1.00  0.00     0.157 A 
ENDROOT
BRANCH   1   7
ATOM      7  C   UNL     1     -16.351 -20.302  -8.023  1.00  0.00     0.010 C 
ATOM      8  C   UNL     1     -17.135 -19.583  -7.208  1.00  0.00     0.025 C 
BRANCH   8   9
ATOM      9  C   UNL     1     -18.596 -19.521  -7.375  1.00  0.00     0.064 C 
ATOM     10  O   UNL     1     -19.374 -19.820  -6.430  1.00  0.00    -0.545 OA
ATOM     11  O   UNL     1     -19.127 -19.122  -8.595  1.00  0.00    -0.545 OA
ENDBRANCH   8   9
ENDBRANCH   1   7
BRANCH   4  12
ATOM     12  O   UNL     1     -12.329 -19.770  -5.257  1.00  0.00    -0.504 OA
ATOM     13  H   UNL     1     -11.390 -20.064  -5.014  1.00  0.00     0.293 HD
ENDBRANCH   4  12
BRANCH   6  14
ATOM     14  O   UNL     1     -10.696 -20.510  -7.383  1.00  0.00    -0.504 OA
ATOM     15  H   UNL     1     -10.159 -19.676  -7.173  1.00  0.00     0.293 HD
ENDBRANCH   6  14
TORSDOF 4
ENDMDL
MODEL 7
REMARK VINA RESULT:    -5.277      1.485      2.253
REMARK INTER + INTRA:          -6.336
REMARK INTER:                  -6.203
REMARK INTRA:                  -0.132
REMARK UNBOUND:                -0.133
REMARK SMILES O=C([O-])C=Cc1ccc(O)c(O)c1
REMARK SMILES IDX 6 1 13 2 7 3 11 4 8 5 9 6 5 7 4 8 2 9 1 10 3 11 12 12 10 14
REMARK H PARENT 12 13 10 15
REMARK Flexibility Score: inf
ROOT
ATOM      1  C   UNL     1      -9.358 -19.569  -6.712  1.00  0.00    -0.022 A 
ATOM      2  C   UNL     1     -10.207 -18.635  -7.330  1.00  0.00     0.058 A 
ATOM      3  C   UNL     1      -9.895 -20.439  -5.742  1.00  0.00     0.012 A 
ATOM      4  C   UNL     1     -11.570 -18.585  -7.008  1.00  0.00     0.157 A 
ATOM      5  C   UNL     1     -11.255 -20.387  -5.421  1.00  0.00     0.051 A 
ATOM      6  C   UNL     1     -12.096 -19.462  -6.055  1.00  0.00     0.157 A 
ENDROOT
BRANCH   1   7
ATOM      7  C   UNL     1      -7.919 -19.575  -7.080  1.00  0.00     0.010 C 
ATOM      8  C   UNL     1      -7.243 -18.480  -7.455  1.00  0.00     0.025 C 
BRANCH   8   9
ATOM      9  C   UNL     1      -5.812 -18.521  -7.802  1.00  0.00     0.064 C 
ATOM     10  O   UNL     1      -5.289 -19.558  -8.290  1.00  0.00    -0.545 OA
ATOM     11  O   UNL     1      -5.026 -17.396  -7.590  1.00  0.00    -0.545 OA
ENDBRANCH   8   9
ENDBRANCH   1   7
BRANCH   4  12
ATOM     12  O   UNL     1     -12.408 -17.662  -7.633  1.00  0.00    -0.504 OA
ATOM     13  H   UNL     1     -13.051 -17.940  -8.366  1.00  0.00     0.293 HD
ENDBRANCH   4  12
BRANCH   6  14
ATOM     14  O   UNL     1     -13.452 -19.410  -5.738  1.00  0.00    -0.504 OA
ATOM     15  H   UNL     1     -14.064 -20.203  -5.895  1.00  0.00     0.293 HD
ENDBRANCH   6  14
TORSDOF 4
ENDMDL
MODEL 8
REMARK VINA RESULT:    -5.228     12.178     13.151
REMARK INTER + INTRA:          -6.278
REMARK INTER:                  -6.151
REMARK INTRA:                  -0.126
REMARK UNBOUND:                -0.133
REMARK SMILES O=C([O-])C=Cc1ccc(O)c(O)c1
REMARK SMILES IDX 6 1 13 2 7 3 11 4 8 5 9 6 5 7 4 8 2 9 1 10 3 11 12 12 10 14
REMARK H PARENT 12 13 10 15
REMARK Flexibility Score: inf
ROOT
ATOM      1  C   UNL     1     -13.789 -10.185 -15.321  1.00  0.00    -0.022 A 
ATOM      2  C   UNL     1     -14.831 -11.013 -14.872  1.00  0.00     0.058 A 
ATOM      3  C   UNL     1     -13.909  -8.790 -15.156  1.00  0.00     0.012 A 
ATOM      4  C   UNL     1     -15.960 -10.466 -14.245  1.00  0.00     0.157 A 
ATOM      5  C   UNL     1     -15.035  -8.247 -14.532  1.00  0.00     0.051 A 
ATOM      6  C   UNL     1     -16.062  -9.082 -14.073  1.00  0.00     0.157 A 
ENDROOT
BRANCH   1   7
ATOM      7  C   UNL     1     -12.620 -10.812 -15.987  1.00  0.00     0.010 C 
ATOM      8  C   UNL     1     -11.504 -11.180 -15.342  1.00  0.00     0.025 C 
BRANCH   8   9
ATOM      9  C   UNL     1     -10.368 -11.812 -16.033  1.00  0.00     0.064 C 
ATOM     10  O   UNL     1      -9.833 -12.860 -15.584  1.00  0.00    -0.545 OA
ATOM     11  O   UNL     1      -9.880 -11.244 -17.203  1.00  0.00    -0.545 OA
ENDBRANCH   8   9
ENDBRANCH   1   7
BRANCH   4  12
ATOM     12  O   UNL     1     -16.986 -11.295 -13.793  1.00  0.00    -0.504 OA
ATOM     13  H   UNL     1     -17.959 -11.091 -13.987  1.00  0.00     0.293 HD
ENDBRANCH   4  12
BRANCH   6  14
ATOM     14  O   UNL     1     -17.185  -8.542 -13.449  1.00  0.00    -0.504 OA
ATOM     15  H   UNL     1     -17.188  -7.594 -13.091  1.00  0.00     0.293 HD
ENDBRANCH   6  14
TORSDOF 4
ENDMDL
MODEL 9
REMARK VINA RESULT:    -5.122      1.897      2.392
REMARK INTER + INTRA:          -6.153
REMARK INTER:                  -6.023
REMARK INTRA:                  -0.130
REMARK UNBOUND:                -0.133
REMARK SMILES O=C([O-])C=Cc1ccc(O)c(O)c1
REMARK SMILES IDX 6 1 13 2 7 3 11 4 8 5 9 6 5 7 4 8 2 9 1 10 3 11 12 12 10 14
REMARK H PARENT 12 13 10 15
REMARK Flexibility Score: inf
ROOT
ATOM      1  C   UNL     1     -11.045 -19.993  -7.261  1.00  0.00    -0.022 A 
ATOM      2  C   UNL     1     -11.901 -20.325  -8.325  1.00  0.00     0.058 A 
ATOM      3  C   UNL     1     -11.611 -19.630  -6.022  1.00  0.00     0.012 A 
ATOM      4  C   UNL     1     -13.292 -20.322  -8.153  1.00  0.00     0.157 A 
ATOM      5  C   UNL     1     -12.998 -19.627  -5.852  1.00  0.00     0.051 A 
ATOM      6  C   UNL     1     -13.842 -19.975  -6.915  1.00  0.00     0.157 A 
ENDROOT
BRANCH   1   7
ATOM      7  C   UNL     1      -9.580 -20.002  -7.498  1.00  0.00     0.010 C 
ATOM      8  C   UNL     1      -8.819 -18.899  -7.494  1.00  0.00     0.025 C 
BRANCH   8   9
ATOM      9  C   UNL     1      -7.365 -18.947  -7.722  1.00  0.00     0.064 C 
ATOM     10  O   UNL     1      -6.854 -19.794  -8.502  1.00  0.00    -0.545 OA
ATOM     11  O   UNL     1      -6.541 -18.040  -7.067  1.00  0.00    -0.545 OA
ENDBRANCH   8   9
ENDBRANCH   1   7
BRANCH   4  12
ATOM     12  O   UNL     1     -14.134 -20.663  -9.211  1.00  0.00    -0.504 OA
ATOM     13  H   UNL     1     -15.140 -20.701  -9.097  1.00  0.00     0.293 HD
ENDBRANCH   4  12
BRANCH   6  14
ATOM     14  O   UNL     1     -15.225 -19.974  -6.747  1.00  0.00    -0.504 OA
ATOM     15  H   UNL     1     -15.702 -20.731  -6.269  1.00  0.00     0.293 HD
ENDBRANCH   6  14
TORSDOF 4
ENDMDL
