MODEL 1
REMARK VINA RESULT:    -1.587      0.000      0.000
REMARK INTER + INTRA:          -3.835
REMARK INTER:                  -2.978
REMARK INTRA:                  -0.856
REMARK UNBOUND:                -0.856
REMARK SMILES CCCCCCCCC=CCCCCCCCC(=O)[O-]
REMARK SMILES IDX 10 1 9 2 11 3 12 4 13 5 14 6 15 7 16 8 17 9 18 10 19 11
REMARK SMILES IDX 20 12 8 13 7 14 6 15 5 16 4 17 3 18 2 19 1 20
REMARK H PARENT
REMARK Flexibility Score: inf
ROOT
ATOM      1  C   UNL     1      -8.475  50.173  -3.820  1.00  0.00    -0.031 C 
ATOM      2  C   UNL     1      -8.153  50.422  -5.104  1.00  0.00    -0.031 C 
ENDROOT
BRANCH   1   3
ATOM      3  C   UNL     1      -9.103  51.163  -2.871  1.00  0.00     0.027 C 
BRANCH   3   4
ATOM      4  C   UNL     1      -8.649  50.925  -1.425  1.00  0.00     0.004 C 
BRANCH   4   5
ATOM      5  C   UNL     1      -7.847  52.125  -0.900  1.00  0.00     0.000 C 
BRANCH   5   6
ATOM      6  C   UNL     1      -6.728  51.713   0.072  1.00  0.00     0.000 C 
BRANCH   6   7
ATOM      7  C   UNL     1      -5.325  51.868  -0.541  1.00  0.00     0.000 C 
BRANCH   7   8
ATOM      8  C   UNL     1      -4.214  51.861   0.521  1.00  0.00     0.006 C 
BRANCH   8   9
ATOM      9  C   UNL     1      -3.041  50.947   0.143  1.00  0.00     0.053 C 
BRANCH   9  10
ATOM     10  C   UNL     1      -1.804  51.756  -0.087  1.00  0.00     0.041 C 
ATOM     11  O   UNL     1      -1.462  52.072  -1.257  1.00  0.00    -0.550 OA
ATOM     12  O   UNL     1      -1.003  52.125   0.987  1.00  0.00    -0.550 OA
ENDBRANCH   9  10
ENDBRANCH   8   9
ENDBRANCH   7   8
ENDBRANCH   6   7
ENDBRANCH   5   6
ENDBRANCH   4   5
ENDBRANCH   3   4
ENDBRANCH   1   3
BRANCH   2  13
ATOM     13  C   UNL     1      -8.388  51.726  -5.831  1.00  0.00     0.027 C 
BRANCH  13  14
ATOM     14  C   UNL     1      -7.186  52.124  -6.702  1.00  0.00     0.004 C 
BRANCH  14  15
ATOM     15  C   UNL     1      -7.209  51.560  -8.138  1.00  0.00     0.000 C 
BRANCH  15  16
ATOM     16  C   UNL     1      -5.933  50.807  -8.564  1.00  0.00     0.000 C 
BRANCH  16  17
ATOM     17  C   UNL     1      -5.157  51.443  -9.735  1.00  0.00    -0.000 C 
BRANCH  17  18
ATOM     18  C   UNL     1      -3.723  51.890  -9.396  1.00  0.00    -0.000 C 
BRANCH  18  19
ATOM     19  C   UNL     1      -3.496  52.072  -7.889  1.00  0.00    -0.003 C 
ATOM     20  C   UNL     1      -2.049  51.767  -7.511  1.00  0.00     0.004 C 
ENDBRANCH  18  19
ENDBRANCH  17  18
ENDBRANCH  16  17
ENDBRANCH  15  16
ENDBRANCH  14  15
ENDBRANCH  13  14
ENDBRANCH   2  13
TORSDOF 15
ENDMDL
MODEL 2
REMARK VINA RESULT:    -0.558      2.436      7.470
REMARK INTER + INTRA:          -1.903
REMARK INTER:                  -1.269
REMARK INTRA:                  -0.634
REMARK UNBOUND:                -0.856
REMARK SMILES CCCCCCCCC=CCCCCCCCC(=O)[O-]
REMARK SMILES IDX 10 1 9 2 11 3 12 4 13 5 14 6 15 7 16 8 17 9 18 10 19 11
REMARK SMILES IDX 20 12 8 13 7 14 6 15 5 16 4 17 3 18 2 19 1 20
REMARK H PARENT
REMARK Flexibility Score: inf
ROOT
ATOM      1  C   UNL     1      -8.742  52.113  -3.967  1.00  0.00    -0.031 C 
ATOM      2  C   UNL     1      -8.941  51.945  -2.645  1.00  0.00    -0.031 C 
ENDROOT
BRANCH   1   3
ATOM      3  C   UNL     1      -7.675  51.426  -4.782  1.00  0.00     0.027 C 
BRANCH   3   4
ATOM      4  C   UNL     1      -8.146  51.156  -6.216  1.00  0.00     0.004 C 
BRANCH   4   5
ATOM      5  C   UNL     1      -7.478  52.125  -7.203  1.00  0.00     0.000 C 
BRANCH   5   6
ATOM      6  C   UNL     1      -7.424  51.571  -8.637  1.00  0.00     0.000 C 
BRANCH   6   7
ATOM      7  C   UNL     1      -6.052  50.972  -8.989  1.00  0.00     0.000 C 
BRANCH   7   8
ATOM      8  C   UNL     1      -4.949  52.039  -9.081  1.00  0.00     0.006 C 
BRANCH   8   9
ATOM      9  C   UNL     1      -4.072  52.094  -7.824  1.00  0.00     0.053 C 
BRANCH   9  10
ATOM     10  C   UNL     1      -2.628  51.948  -8.188  1.00  0.00     0.041 C 
ATOM     11  O   UNL     1      -2.281  51.904  -9.398  1.00  0.00    -0.550 OA
ATOM     12  O   UNL     1      -1.669  51.816  -7.191  1.00  0.00    -0.550 OA
ENDBRANCH   9  10
ENDBRANCH   8   9
ENDBRANCH   7   8
ENDBRANCH   6   7
ENDBRANCH   5   6
ENDBRANCH   4   5
ENDBRANCH   3   4
ENDBRANCH   1   3
BRANCH   2  13
ATOM     13  C   UNL     1      -8.149  51.021  -1.749  1.00  0.00     0.027 C 
BRANCH  13  14
ATOM     14  C   UNL     1      -6.769  51.603  -1.399  1.00  0.00     0.004 C 
BRANCH  14  15
ATOM     15  C   UNL     1      -6.630  52.125   0.045  1.00  0.00     0.000 C 
BRANCH  15  16
ATOM     16  C   UNL     1      -5.424  51.570   0.828  1.00  0.00     0.000 C 
BRANCH  16  17
ATOM     17  C   UNL     1      -4.130  51.403   0.006  1.00  0.00    -0.000 C 
BRANCH  17  18
ATOM     18  C   UNL     1      -2.866  51.116   0.837  1.00  0.00    -0.000 C 
BRANCH  18  19
ATOM     19  C   UNL     1      -1.737  52.122   0.570  1.00  0.00    -0.003 C 
ATOM     20  C   UNL     1      -1.025  51.812  -0.744  1.00  0.00     0.004 C 
ENDBRANCH  18  19
ENDBRANCH  17  18
ENDBRANCH  16  17
ENDBRANCH  15  16
ENDBRANCH  14  15
ENDBRANCH  13  14
ENDBRANCH   2  13
TORSDOF 15
ENDMDL
MODEL 3
REMARK VINA RESULT:     1.031      5.139      5.967
REMARK INTER + INTRA:           1.079
REMARK INTER:                   1.510
REMARK INTRA:                  -0.431
REMARK UNBOUND:                -0.856
REMARK SMILES CCCCCCCCC=CCCCCCCCC(=O)[O-]
REMARK SMILES IDX 10 1 9 2 11 3 12 4 13 5 14 6 15 7 16 8 17 9 18 10 19 11
REMARK SMILES IDX 20 12 8 13 7 14 6 15 5 16 4 17 3 18 2 19 1 20
REMARK H PARENT
REMARK Flexibility Score: inf
ROOT
ATOM      1  C   UNL     1      -8.540  49.993  -1.129  1.00  0.00    -0.031 C 
ATOM      2  C   UNL     1      -9.041  50.656  -2.190  1.00  0.00    -0.031 C 
ENDROOT
BRANCH   1   3
ATOM      3  C   UNL     1      -7.284  49.160  -1.135  1.00  0.00     0.027 C 
BRANCH   3   4
ATOM      4  C   UNL     1      -7.366  48.023  -2.162  1.00  0.00     0.004 C 
BRANCH   4   5
ATOM      5  C   UNL     1      -6.965  46.683  -1.528  1.00  0.00     0.000 C 
BRANCH   5   6
ATOM      6  C   UNL     1      -6.692  45.587  -2.573  1.00  0.00     0.000 C 
BRANCH   6   7
ATOM      7  C   UNL     1      -6.655  44.178  -1.956  1.00  0.00     0.000 C 
BRANCH   7   8
ATOM      8  C   UNL     1      -5.237  43.586  -1.927  1.00  0.00     0.006 C 
BRANCH   8   9
ATOM      9  C   UNL     1      -5.145  42.313  -1.075  1.00  0.00     0.053 C 
BRANCH   9  10
ATOM     10  C   UNL     1      -3.872  42.302  -0.289  1.00  0.00     0.041 C 
ATOM     11  O   UNL     1      -3.882  42.585   0.938  1.00  0.00    -0.550 OA
ATOM     12  O   UNL     1      -2.667  42.022  -0.921  1.00  0.00    -0.550 OA
ENDBRANCH   9  10
ENDBRANCH   8   9
ENDBRANCH   7   8
ENDBRANCH   6   7
ENDBRANCH   5   6
ENDBRANCH   4   5
ENDBRANCH   3   4
ENDBRANCH   1   3
BRANCH   2  13
ATOM     13  C   UNL     1      -8.419  50.705  -3.566  1.00  0.00     0.027 C 
BRANCH  13  14
ATOM     14  C   UNL     1      -7.611  51.995  -3.787  1.00  0.00     0.004 C 
BRANCH  14  15
ATOM     15  C   UNL     1      -6.951  52.118  -5.175  1.00  0.00     0.000 C 
BRANCH  15  16
ATOM     16  C   UNL     1      -7.849  51.722  -6.363  1.00  0.00     0.000 C 
BRANCH  16  17
ATOM     17  C   UNL     1      -7.313  52.123  -7.752  1.00  0.00    -0.000 C 
BRANCH  17  18
ATOM     18  C   UNL     1      -7.290  50.987  -8.792  1.00  0.00    -0.000 C 
BRANCH  18  19
ATOM     19  C   UNL     1      -5.869  50.617  -9.238  1.00  0.00    -0.003 C 
ATOM     20  C   UNL     1      -4.967  51.848  -9.274  1.00  0.00     0.004 C 
ENDBRANCH  18  19
ENDBRANCH  17  18
ENDBRANCH  16  17
ENDBRANCH  15  16
ENDBRANCH  14  15
ENDBRANCH  13  14
ENDBRANCH   2  13
TORSDOF 15
ENDMDL
MODEL 4
REMARK VINA RESULT:     1.346      4.564      8.005
REMARK INTER + INTRA:           1.670
REMARK INTER:                   2.398
REMARK INTRA:                  -0.728
REMARK UNBOUND:                -0.856
REMARK SMILES CCCCCCCCC=CCCCCCCCC(=O)[O-]
REMARK SMILES IDX 10 1 9 2 11 3 12 4 13 5 14 6 15 7 16 8 17 9 18 10 19 11
REMARK SMILES IDX 20 12 8 13 7 14 6 15 5 16 4 17 3 18 2 19 1 20
REMARK H PARENT
REMARK Flexibility Score: inf
ROOT
ATOM      1  C   UNL     1      -8.200  50.871  -2.520  1.00  0.00    -0.031 C 
ATOM      2  C   UNL     1      -8.035  50.195  -1.366  1.00  0.00    -0.031 C 
ENDROOT
BRANCH   1   3
ATOM      3  C   UNL     1      -8.675  50.272  -3.820  1.00  0.00     0.027 C 
BRANCH   3   4
ATOM      4  C   UNL     1      -8.856  51.344  -4.902  1.00  0.00     0.004 C 
BRANCH   4   5
ATOM      5  C   UNL     1      -7.515  51.682  -5.569  1.00  0.00     0.000 C 
BRANCH   5   6
ATOM      6  C   UNL     1      -7.673  52.125  -7.034  1.00  0.00     0.000 C 
BRANCH   6   7
ATOM      7  C   UNL     1      -7.527  50.956  -8.024  1.00  0.00     0.000 C 
BRANCH   7   8
ATOM      8  C   UNL     1      -6.254  51.063  -8.878  1.00  0.00     0.006 C 
BRANCH   8   9
ATOM      9  C   UNL     1      -5.258  52.093  -8.329  1.00  0.00     0.053 C 
BRANCH   9  10
ATOM     10  C   UNL     1      -3.915  51.466  -8.131  1.00  0.00     0.041 C 
ATOM     11  O   UNL     1      -3.004  51.636  -8.983  1.00  0.00    -0.550 OA
ATOM     12  O   UNL     1      -3.682  50.655  -7.026  1.00  0.00    -0.550 OA
ENDBRANCH   9  10
ENDBRANCH   8   9
ENDBRANCH   7   8
ENDBRANCH   6   7
ENDBRANCH   5   6
ENDBRANCH   4   5
ENDBRANCH   3   4
ENDBRANCH   1   3
BRANCH   2  13
ATOM     13  C   UNL     1      -8.321  48.726  -1.161  1.00  0.00     0.027 C 
BRANCH  13  14
ATOM     14  C   UNL     1      -7.047  47.934  -0.821  1.00  0.00     0.004 C 
BRANCH  14  15
ATOM     15  C   UNL     1      -7.240  46.407  -0.714  1.00  0.00     0.000 C 
BRANCH  15  16
ATOM     16  C   UNL     1      -6.394  45.572  -1.695  1.00  0.00     0.000 C 
BRANCH  16  17
ATOM     17  C   UNL     1      -6.930  44.154  -1.978  1.00  0.00    -0.000 C 
BRANCH  17  18
ATOM     18  C   UNL     1      -5.860  43.046  -1.989  1.00  0.00    -0.000 C 
BRANCH  18  19
ATOM     19  C   UNL     1      -4.472  43.555  -1.576  1.00  0.00    -0.003 C 
ATOM     20  C   UNL     1      -3.651  42.442  -0.929  1.00  0.00     0.004 C 
ENDBRANCH  18  19
ENDBRANCH  17  18
ENDBRANCH  16  17
ENDBRANCH  15  16
ENDBRANCH  14  15
ENDBRANCH  13  14
ENDBRANCH   2  13
TORSDOF 15
ENDMDL
MODEL 5
REMARK VINA RESULT:     1.352      3.529      4.040
REMARK INTER + INTRA:           1.681
REMARK INTER:                   1.472
REMARK INTRA:                   0.209
REMARK UNBOUND:                -0.856
REMARK SMILES CCCCCCCCC=CCCCCCCCC(=O)[O-]
REMARK SMILES IDX 10 1 9 2 11 3 12 4 13 5 14 6 15 7 16 8 17 9 18 10 19 11
REMARK SMILES IDX 20 12 8 13 7 14 6 15 5 16 4 17 3 18 2 19 1 20
REMARK H PARENT
REMARK Flexibility Score: inf
ROOT
ATOM      1  C   UNL     1      -8.779  50.430  -4.063  1.00  0.00    -0.031 C 
ATOM      2  C   UNL     1      -8.363  50.730  -5.309  1.00  0.00    -0.031 C 
ENDROOT
BRANCH   1   3
ATOM      3  C   UNL     1      -8.994  51.427  -2.952  1.00  0.00     0.027 C 
BRANCH   3   4
ATOM      4  C   UNL     1      -7.667  52.015  -2.457  1.00  0.00     0.004 C 
BRANCH   4   5
ATOM      5  C   UNL     1      -7.599  51.998  -0.923  1.00  0.00     0.000 C 
BRANCH   5   6
ATOM      6  C   UNL     1      -7.484  50.575  -0.349  1.00  0.00     0.000 C 
BRANCH   6   7
ATOM      7  C   UNL     1      -7.701  49.487  -1.415  1.00  0.00     0.000 C 
BRANCH   7   8
ATOM      8  C   UNL     1      -7.090  48.137  -1.011  1.00  0.00     0.006 C 
BRANCH   8   9
ATOM      9  C   UNL     1      -6.916  47.186  -2.203  1.00  0.00     0.053 C 
BRANCH   9  10
ATOM     10  C   UNL     1      -7.038  45.763  -1.756  1.00  0.00     0.041 C 
ATOM     11  O   UNL     1      -7.450  45.495  -0.597  1.00  0.00    -0.550 OA
ATOM     12  O   UNL     1      -6.654  44.732  -2.605  1.00  0.00    -0.550 OA
ENDBRANCH   9  10
ENDBRANCH   8   9
ENDBRANCH   7   8
ENDBRANCH   6   7
ENDBRANCH   5   6
ENDBRANCH   4   5
ENDBRANCH   3   4
ENDBRANCH   1   3
BRANCH   2  13
ATOM     13  C   UNL     1      -8.063  52.119  -5.823  1.00  0.00     0.027 C 
BRANCH  13  14
ATOM     14  C   UNL     1      -7.009  52.103  -6.942  1.00  0.00     0.004 C 
BRANCH  14  15
ATOM     15  C   UNL     1      -7.338  51.178  -8.132  1.00  0.00     0.000 C 
BRANCH  15  16
ATOM     16  C   UNL     1      -6.484  51.408  -9.394  1.00  0.00     0.000 C 
BRANCH  16  17
ATOM     17  C   UNL     1      -5.140  52.125  -9.154  1.00  0.00    -0.000 C 
BRANCH  17  18
ATOM     18  C   UNL     1      -3.951  51.193  -8.856  1.00  0.00    -0.000 C 
BRANCH  18  19
ATOM     19  C   UNL     1      -3.406  51.361  -7.430  1.00  0.00    -0.003 C 
ATOM     20  C   UNL     1      -1.978  51.898  -7.449  1.00  0.00     0.004 C 
ENDBRANCH  18  19
ENDBRANCH  17  18
ENDBRANCH  16  17
ENDBRANCH  15  16
ENDBRANCH  14  15
ENDBRANCH  13  14
ENDBRANCH   2  13
TORSDOF 15
ENDMDL
