MODEL 1
REMARK VINA RESULT:    -4.288      0.000      0.000
REMARK INTER + INTRA:         -10.028
REMARK INTER:                  -8.299
REMARK INTRA:                  -1.729
REMARK UNBOUND:                -1.729
REMARK SMILES CCCCCCCCCCCCCCCCCC(=O)[O-]
REMARK SMILES IDX 10 1 11 2 12 3 13 4 14 5 15 6 16 7 17 8 18 9 19 10 20 11
REMARK SMILES IDX 9 12 8 13 7 14 6 15 5 16 4 17 3 18 2 19 1 20
REMARK H PARENT
REMARK Flexibility Score: inf
ROOT
ATOM      1  C   UNL     1      -3.088  13.651 -15.389  1.00  0.00     0.000 C 
ENDROOT
BRANCH   1   2
ATOM      2  C   UNL     1      -2.139  14.440 -16.307  1.00  0.00     0.000 C 
BRANCH   2   3
ATOM      3  C   UNL     1      -2.600  14.450 -17.773  1.00  0.00     0.000 C 
BRANCH   3   4
ATOM      4  C   UNL     1      -1.626  15.206 -18.693  1.00  0.00     0.000 C 
BRANCH   4   5
ATOM      5  C   UNL     1      -0.458  15.839 -17.919  1.00  0.00     0.000 C 
BRANCH   5   6
ATOM      6  C   UNL     1       0.826  15.938 -18.762  1.00  0.00     0.000 C 
BRANCH   6   7
ATOM      7  C   UNL     1       1.457  17.338 -18.712  1.00  0.00     0.006 C 
BRANCH   7   8
ATOM      8  C   UNL     1       0.586  18.399 -19.398  1.00  0.00     0.053 C 
BRANCH   8   9
ATOM      9  C   UNL     1       0.094  19.398 -18.399  1.00  0.00     0.041 C 
ATOM     10  O   UNL     1       0.903  19.963 -17.617  1.00  0.00    -0.550 OA
ATOM     11  O   UNL     1      -1.265  19.670 -18.300  1.00  0.00    -0.550 OA
ENDBRANCH   8   9
ENDBRANCH   7   8
ENDBRANCH   6   7
ENDBRANCH   5   6
ENDBRANCH   4   5
ENDBRANCH   3   4
ENDBRANCH   2   3
ENDBRANCH   1   2
BRANCH   1  12
ATOM     12  C   UNL     1      -4.569  13.905 -15.715  1.00  0.00     0.000 C 
BRANCH  12  13
ATOM     13  C   UNL     1      -5.506  12.903 -15.020  1.00  0.00    -0.000 C 
BRANCH  13  14
ATOM     14  C   UNL     1      -6.709  12.504 -15.893  1.00  0.00    -0.000 C 
BRANCH  14  15
ATOM     15  C   UNL     1      -6.546  12.791 -17.396  1.00  0.00    -0.000 C 
BRANCH  15  16
ATOM     16  C   UNL     1      -5.970  11.598 -18.175  1.00  0.00    -0.000 C 
BRANCH  16  17
ATOM     17  C   UNL     1      -4.852  12.012 -19.147  1.00  0.00    -0.000 C 
BRANCH  17  18
ATOM     18  C   UNL     1      -3.490  11.399 -18.778  1.00  0.00    -0.000 C 
BRANCH  18  19
ATOM     19  C   UNL     1      -3.599  10.348 -17.662  1.00  0.00    -0.003 C 
ATOM     20  C   UNL     1      -3.269   8.934 -18.142  1.00  0.00     0.004 C 
ENDBRANCH  18  19
ENDBRANCH  17  18
ENDBRANCH  16  17
ENDBRANCH  15  16
ENDBRANCH  14  15
ENDBRANCH  13  14
ENDBRANCH  12  13
ENDBRANCH   1  12
TORSDOF 16
ENDMDL
MODEL 2
REMARK VINA RESULT:    -4.217      0.788      1.657
REMARK INTER + INTRA:          -9.889
REMARK INTER:                  -7.898
REMARK INTRA:                  -1.991
REMARK UNBOUND:                -1.729
REMARK SMILES CCCCCCCCCCCCCCCCCC(=O)[O-]
REMARK SMILES IDX 10 1 11 2 12 3 13 4 14 5 15 6 16 7 17 8 18 9 19 10 20 11
REMARK SMILES IDX 9 12 8 13 7 14 6 15 5 16 4 17 3 18 2 19 1 20
REMARK H PARENT
REMARK Flexibility Score: inf
ROOT
ATOM      1  C   UNL     1      -4.563  13.860 -15.881  1.00  0.00     0.000 C 
ENDROOT
BRANCH   1   2
ATOM      2  C   UNL     1      -3.120  13.738 -15.361  1.00  0.00     0.000 C 
BRANCH   2   3
ATOM      3  C   UNL     1      -2.093  14.404 -16.290  1.00  0.00     0.000 C 
BRANCH   3   4
ATOM      4  C   UNL     1      -2.639  14.623 -17.711  1.00  0.00     0.000 C 
BRANCH   4   5
ATOM      5  C   UNL     1      -1.550  15.080 -18.695  1.00  0.00     0.000 C 
BRANCH   5   6
ATOM      6  C   UNL     1      -0.463  15.935 -18.020  1.00  0.00     0.000 C 
BRANCH   6   7
ATOM      7  C   UNL     1       0.882  15.869 -18.758  1.00  0.00     0.006 C 
BRANCH   7   8
ATOM      8  C   UNL     1       1.742  17.119 -18.527  1.00  0.00     0.053 C 
BRANCH   8   9
ATOM      9  C   UNL     1       1.060  18.332 -19.075  1.00  0.00     0.041 C 
ATOM     10  O   UNL     1       0.930  18.478 -20.320  1.00  0.00    -0.550 OA
ATOM     11  O   UNL     1       0.607  19.323 -18.214  1.00  0.00    -0.550 OA
ENDBRANCH   8   9
ENDBRANCH   7   8
ENDBRANCH   6   7
ENDBRANCH   5   6
ENDBRANCH   4   5
ENDBRANCH   3   4
ENDBRANCH   2   3
ENDBRANCH   1   2
BRANCH   1  12
ATOM     12  C   UNL     1      -5.569  13.088 -15.013  1.00  0.00     0.000 C 
BRANCH  12  13
ATOM     13  C   UNL     1      -6.675  12.420 -15.846  1.00  0.00    -0.000 C 
BRANCH  13  14
ATOM     14  C   UNL     1      -6.554  12.717 -17.352  1.00  0.00    -0.000 C 
BRANCH  14  15
ATOM     15  C   UNL     1      -6.009  11.556 -18.203  1.00  0.00    -0.000 C 
BRANCH  15  16
ATOM     16  C   UNL     1      -4.849  11.977 -19.118  1.00  0.00    -0.000 C 
BRANCH  16  17
ATOM     17  C   UNL     1      -3.514  11.330 -18.715  1.00  0.00    -0.000 C 
BRANCH  17  18
ATOM     18  C   UNL     1      -3.592  10.608 -17.358  1.00  0.00    -0.000 C 
BRANCH  18  19
ATOM     19  C   UNL     1      -3.554   9.078 -17.501  1.00  0.00    -0.003 C 
ATOM     20  C   UNL     1      -3.122   8.621 -18.895  1.00  0.00     0.004 C 
ENDBRANCH  18  19
ENDBRANCH  17  18
ENDBRANCH  16  17
ENDBRANCH  15  16
ENDBRANCH  14  15
ENDBRANCH  13  14
ENDBRANCH  12  13
ENDBRANCH   1  12
TORSDOF 16
ENDMDL
MODEL 3
REMARK VINA RESULT:    -4.093      3.218      8.176
REMARK INTER + INTRA:          -9.649
REMARK INTER:                  -8.090
REMARK INTRA:                  -1.559
REMARK UNBOUND:                -1.729
REMARK SMILES CCCCCCCCCCCCCCCCCC(=O)[O-]
REMARK SMILES IDX 10 1 11 2 12 3 13 4 14 5 15 6 16 7 17 8 18 9 19 10 20 11
REMARK SMILES IDX 9 12 8 13 7 14 6 15 5 16 4 17 3 18 2 19 1 20
REMARK H PARENT
REMARK Flexibility Score: inf
ROOT
ATOM      1  C   UNL     1      -2.190  14.729 -17.103  1.00  0.00     0.000 C 
ENDROOT
BRANCH   1   2
ATOM      2  C   UNL     1      -3.246  13.645 -17.380  1.00  0.00     0.000 C 
BRANCH   2   3
ATOM      3  C   UNL     1      -3.137  13.054 -18.794  1.00  0.00     0.000 C 
BRANCH   3   4
ATOM      4  C   UNL     1      -4.003  11.796 -18.976  1.00  0.00     0.000 C 
BRANCH   4   5
ATOM      5  C   UNL     1      -3.303  10.522 -18.473  1.00  0.00     0.000 C 
BRANCH   5   6
ATOM      6  C   UNL     1      -3.879  10.018 -17.139  1.00  0.00     0.000 C 
BRANCH   6   7
ATOM      7  C   UNL     1      -5.268  10.602 -16.838  1.00  0.00     0.006 C 
BRANCH   7   8
ATOM      8  C   UNL     1      -5.313  11.352 -15.501  1.00  0.00     0.053 C 
BRANCH   8   9
ATOM      9  C   UNL     1      -6.129  12.599 -15.628  1.00  0.00     0.041 C 
ATOM     10  O   UNL     1      -6.395  13.289 -14.608  1.00  0.00    -0.550 OA
ATOM     11  O   UNL     1      -6.635  12.975 -16.865  1.00  0.00    -0.550 OA
ENDBRANCH   8   9
ENDBRANCH   7   8
ENDBRANCH   6   7
ENDBRANCH   5   6
ENDBRANCH   4   5
ENDBRANCH   3   4
ENDBRANCH   2   3
ENDBRANCH   1   2
BRANCH   1  12
ATOM     12  C   UNL     1      -1.565  15.285 -18.392  1.00  0.00     0.000 C 
BRANCH  12  13
ATOM     13  C   UNL     1      -0.260  16.055 -18.130  1.00  0.00    -0.000 C 
BRANCH  13  14
ATOM     14  C   UNL     1       0.856  15.699 -19.131  1.00  0.00    -0.000 C 
BRANCH  14  15
ATOM     15  C   UNL     1       1.970  16.752 -19.262  1.00  0.00    -0.000 C 
BRANCH  15  16
ATOM     16  C   UNL     1       1.770  17.689 -20.463  1.00  0.00    -0.000 C 
BRANCH  16  17
ATOM     17  C   UNL     1       1.223  19.067 -20.053  1.00  0.00    -0.000 C 
BRANCH  17  18
ATOM     18  C   UNL     1       1.533  19.414 -18.587  1.00  0.00    -0.000 C 
BRANCH  18  19
ATOM     19  C   UNL     1       0.343  20.076 -17.873  1.00  0.00    -0.003 C 
ATOM     20  C   UNL     1      -1.009  19.580 -18.387  1.00  0.00     0.004 C 
ENDBRANCH  18  19
ENDBRANCH  17  18
ENDBRANCH  16  17
ENDBRANCH  15  16
ENDBRANCH  14  15
ENDBRANCH  13  14
ENDBRANCH  12  13
ENDBRANCH   1  12
TORSDOF 16
ENDMDL
MODEL 4
REMARK VINA RESULT:    -4.053      0.931      1.693
REMARK INTER + INTRA:          -9.572
REMARK INTER:                  -7.748
REMARK INTRA:                  -1.824
REMARK UNBOUND:                -1.729
REMARK SMILES CCCCCCCCCCCCCCCCCC(=O)[O-]
REMARK SMILES IDX 10 1 11 2 12 3 13 4 14 5 15 6 16 7 17 8 18 9 19 10 20 11
REMARK SMILES IDX 9 12 8 13 7 14 6 15 5 16 4 17 3 18 2 19 1 20
REMARK H PARENT
REMARK Flexibility Score: inf
ROOT
ATOM      1  C   UNL     1      -3.115  13.745 -15.383  1.00  0.00     0.000 C 
ENDROOT
BRANCH   1   2
ATOM      2  C   UNL     1      -2.165  14.499 -16.330  1.00  0.00     0.000 C 
BRANCH   2   3
ATOM      3  C   UNL     1      -2.578  14.383 -17.805  1.00  0.00     0.000 C 
BRANCH   3   4
ATOM      4  C   UNL     1      -1.686  15.223 -18.736  1.00  0.00     0.000 C 
BRANCH   4   5
ATOM      5  C   UNL     1      -0.591  15.983 -17.971  1.00  0.00     0.000 C 
BRANCH   5   6
ATOM      6  C   UNL     1       0.767  15.952 -18.695  1.00  0.00     0.000 C 
BRANCH   6   7
ATOM      7  C   UNL     1       1.146  17.315 -19.294  1.00  0.00     0.006 C 
BRANCH   7   8
ATOM      8  C   UNL     1       0.857  18.479 -18.336  1.00  0.00     0.053 C 
BRANCH   8   9
ATOM      9  C   UNL     1      -0.054  19.474 -18.982  1.00  0.00     0.041 C 
ATOM     10  O   UNL     1      -1.163  19.754 -18.454  1.00  0.00    -0.550 OA
ATOM     11  O   UNL     1       0.301  20.058 -20.192  1.00  0.00    -0.550 OA
ENDBRANCH   8   9
ENDBRANCH   7   8
ENDBRANCH   6   7
ENDBRANCH   5   6
ENDBRANCH   4   5
ENDBRANCH   3   4
ENDBRANCH   2   3
ENDBRANCH   1   2
BRANCH   1  12
ATOM     12  C   UNL     1      -4.588  13.874 -15.801  1.00  0.00     0.000 C 
BRANCH  12  13
ATOM     13  C   UNL     1      -5.495  12.856 -15.090  1.00  0.00    -0.000 C 
BRANCH  13  14
ATOM     14  C   UNL     1      -6.500  12.183 -16.042  1.00  0.00    -0.000 C 
BRANCH  14  15
ATOM     15  C   UNL     1      -6.124  10.757 -16.483  1.00  0.00    -0.000 C 
BRANCH  15  16
ATOM     16  C   UNL     1      -4.649  10.418 -16.217  1.00  0.00    -0.000 C 
BRANCH  16  17
ATOM     17  C   UNL     1      -3.909   9.964 -17.486  1.00  0.00    -0.000 C 
BRANCH  17  18
ATOM     18  C   UNL     1      -3.402  11.145 -18.331  1.00  0.00    -0.000 C 
BRANCH  18  19
ATOM     19  C   UNL     1      -4.239  11.364 -19.602  1.00  0.00    -0.003 C 
ATOM     20  C   UNL     1      -5.242  12.510 -19.464  1.00  0.00     0.004 C 
ENDBRANCH  18  19
ENDBRANCH  17  18
ENDBRANCH  16  17
ENDBRANCH  15  16
ENDBRANCH  14  15
ENDBRANCH  13  14
ENDBRANCH  12  13
ENDBRANCH   1  12
TORSDOF 16
ENDMDL
MODEL 5
REMARK VINA RESULT:    -3.992      3.554      7.768
REMARK INTER + INTRA:          -9.454
REMARK INTER:                  -7.690
REMARK INTRA:                  -1.765
REMARK UNBOUND:                -1.729
REMARK SMILES CCCCCCCCCCCCCCCCCC(=O)[O-]
REMARK SMILES IDX 10 1 11 2 12 3 13 4 14 5 15 6 16 7 17 8 18 9 19 10 20 11
REMARK SMILES IDX 9 12 8 13 7 14 6 15 5 16 4 17 3 18 2 19 1 20
REMARK H PARENT
REMARK Flexibility Score: inf
ROOT
ATOM      1  C   UNL     1      -3.134  13.540 -15.720  1.00  0.00     0.000 C 
ENDROOT
BRANCH   1   2
ATOM      2  C   UNL     1      -4.650  13.803 -15.699  1.00  0.00     0.000 C 
BRANCH   2   3
ATOM      3  C   UNL     1      -5.476  12.553 -16.036  1.00  0.00     0.000 C 
BRANCH   3   4
ATOM      4  C   UNL     1      -6.574  12.833 -17.077  1.00  0.00     0.000 C 
BRANCH   4   5
ATOM      5  C   UNL     1      -6.358  12.052 -18.384  1.00  0.00     0.000 C 
BRANCH   5   6
ATOM      6  C   UNL     1      -5.109  12.518 -19.153  1.00  0.00     0.000 C 
BRANCH   6   7
ATOM      7  C   UNL     1      -4.224  11.347 -19.604  1.00  0.00     0.006 C 
BRANCH   7   8
ATOM      8  C   UNL     1      -3.165  10.973 -18.558  1.00  0.00     0.053 C 
BRANCH   8   9
ATOM      9  C   UNL     1      -3.476   9.641 -17.953  1.00  0.00     0.041 C 
ATOM     10  O   UNL     1      -3.222   8.582 -18.586  1.00  0.00    -0.550 OA
ATOM     11  O   UNL     1      -4.087   9.569 -16.707  1.00  0.00    -0.550 OA
ENDBRANCH   8   9
ENDBRANCH   7   8
ENDBRANCH   6   7
ENDBRANCH   5   6
ENDBRANCH   4   5
ENDBRANCH   3   4
ENDBRANCH   2   3
ENDBRANCH   1   2
BRANCH   1  12
ATOM     12  C   UNL     1      -2.357  14.632 -16.473  1.00  0.00     0.000 C 
BRANCH  12  13
ATOM     13  C   UNL     1      -2.413  14.449 -17.999  1.00  0.00    -0.000 C 
BRANCH  13  14
ATOM     14  C   UNL     1      -1.566  15.487 -18.757  1.00  0.00    -0.000 C 
BRANCH  14  15
ATOM     15  C   UNL     1      -0.351  16.027 -17.982  1.00  0.00    -0.000 C 
BRANCH  15  16
ATOM     16  C   UNL     1       0.941  16.020 -18.813  1.00  0.00    -0.000 C 
BRANCH  16  17
ATOM     17  C   UNL     1       1.543  17.425 -18.980  1.00  0.00    -0.000 C 
BRANCH  17  18
ATOM     18  C   UNL     1       0.635  18.366 -19.791  1.00  0.00    -0.000 C 
BRANCH  18  19
ATOM     19  C   UNL     1       0.332  19.678 -19.050  1.00  0.00    -0.003 C 
ATOM     20  C   UNL     1      -1.006  19.648 -18.311  1.00  0.00     0.004 C 
ENDBRANCH  18  19
ENDBRANCH  17  18
ENDBRANCH  16  17
ENDBRANCH  15  16
ENDBRANCH  14  15
ENDBRANCH  13  14
ENDBRANCH  12  13
ENDBRANCH   1  12
TORSDOF 16
ENDMDL
MODEL 6
REMARK VINA RESULT:    -3.977      1.189      2.809
REMARK INTER + INTRA:          -9.426
REMARK INTER:                  -7.231
REMARK INTRA:                  -2.195
REMARK UNBOUND:                -1.729
REMARK SMILES CCCCCCCCCCCCCCCCCC(=O)[O-]
REMARK SMILES IDX 10 1 11 2 12 3 13 4 14 5 15 6 16 7 17 8 18 9 19 10 20 11
REMARK SMILES IDX 9 12 8 13 7 14 6 15 5 16 4 17 3 18 2 19 1 20
REMARK H PARENT
REMARK Flexibility Score: inf
ROOT
ATOM      1  C   UNL     1      -5.605  12.878 -15.122  1.00  0.00     0.000 C 
ENDROOT
BRANCH   1   2
ATOM      2  C   UNL     1      -4.590  13.820 -15.792  1.00  0.00     0.000 C 
BRANCH   2   3
ATOM      3  C   UNL     1      -3.151  13.589 -15.306  1.00  0.00     0.000 C 
BRANCH   3   4
ATOM      4  C   UNL     1      -2.127  14.454 -16.061  1.00  0.00     0.000 C 
BRANCH   4   5
ATOM      5  C   UNL     1      -2.645  14.915 -17.433  1.00  0.00     0.000 C 
BRANCH   5   6
ATOM      6  C   UNL     1      -1.542  14.938 -18.505  1.00  0.00     0.000 C 
BRANCH   6   7
ATOM      7  C   UNL     1      -0.422  15.936 -18.177  1.00  0.00     0.006 C 
BRANCH   7   8
ATOM      8  C   UNL     1      -0.802  17.382 -18.524  1.00  0.00     0.053 C 
BRANCH   8   9
ATOM      9  C   UNL     1       0.427  18.212 -18.724  1.00  0.00     0.041 C 
ATOM     10  O   UNL     1       0.529  19.337 -18.166  1.00  0.00    -0.550 OA
ATOM     11  O   UNL     1       1.439  17.764 -19.563  1.00  0.00    -0.550 OA
ENDBRANCH   8   9
ENDBRANCH   7   8
ENDBRANCH   6   7
ENDBRANCH   5   6
ENDBRANCH   4   5
ENDBRANCH   3   4
ENDBRANCH   2   3
ENDBRANCH   1   2
BRANCH   1  12
ATOM     12  C   UNL     1      -6.512  12.168 -16.140  1.00  0.00     0.000 C 
BRANCH  12  13
ATOM     13  C   UNL     1      -6.141  10.688 -16.329  1.00  0.00    -0.000 C 
BRANCH  13  14
ATOM     14  C   UNL     1      -4.631  10.425 -16.185  1.00  0.00    -0.000 C 
BRANCH  14  15
ATOM     15  C   UNL     1      -4.040   9.450 -17.219  1.00  0.00    -0.000 C 
BRANCH  15  16
ATOM     16  C   UNL     1      -2.968  10.098 -18.108  1.00  0.00    -0.000 C 
BRANCH  16  17
ATOM     17  C   UNL     1      -3.315  11.545 -18.494  1.00  0.00    -0.000 C 
BRANCH  17  18
ATOM     18  C   UNL     1      -4.277  11.623 -19.693  1.00  0.00    -0.000 C 
BRANCH  18  19
ATOM     19  C   UNL     1      -5.463  12.567 -19.437  1.00  0.00    -0.003 C 
ATOM     20  C   UNL     1      -6.801  11.972 -19.876  1.00  0.00     0.004 C 
ENDBRANCH  18  19
ENDBRANCH  17  18
ENDBRANCH  16  17
ENDBRANCH  15  16
ENDBRANCH  14  15
ENDBRANCH  13  14
ENDBRANCH  12  13
ENDBRANCH   1  12
TORSDOF 16
ENDMDL
MODEL 7
REMARK VINA RESULT:    -3.692      0.853      2.179
REMARK INTER + INTRA:          -8.873
REMARK INTER:                  -7.473
REMARK INTRA:                  -1.400
REMARK UNBOUND:                -1.729
REMARK SMILES CCCCCCCCCCCCCCCCCC(=O)[O-]
REMARK SMILES IDX 10 1 11 2 12 3 13 4 14 5 15 6 16 7 17 8 18 9 19 10 20 11
REMARK SMILES IDX 9 12 8 13 7 14 6 15 5 16 4 17 3 18 2 19 1 20
REMARK H PARENT
REMARK Flexibility Score: inf
ROOT
ATOM      1  C   UNL     1      -2.832  14.626 -17.647  1.00  0.00     0.000 C 
ENDROOT
BRANCH   1   2
ATOM      2  C   UNL     1      -1.687  14.976 -18.613  1.00  0.00     0.000 C 
BRANCH   2   3
ATOM      3  C   UNL     1      -0.676  15.961 -18.007  1.00  0.00     0.000 C 
BRANCH   3   4
ATOM      4  C   UNL     1       0.672  15.954 -18.749  1.00  0.00     0.000 C 
BRANCH   4   5
ATOM      5  C   UNL     1       1.467  17.252 -18.535  1.00  0.00     0.000 C 
BRANCH   5   6
ATOM      6  C   UNL     1       1.339  18.227 -19.718  1.00  0.00     0.000 C 
BRANCH   6   7
ATOM      7  C   UNL     1       1.130  19.680 -19.264  1.00  0.00     0.006 C 
BRANCH   7   8
ATOM      8  C   UNL     1      -0.350  20.083 -19.244  1.00  0.00     0.053 C 
BRANCH   8   9
ATOM      9  C   UNL     1      -0.870  20.096 -17.841  1.00  0.00     0.041 C 
ATOM     10  O   UNL     1      -2.110  20.125 -17.625  1.00  0.00    -0.550 OA
ATOM     11  O   UNL     1       0.017  20.123 -16.772  1.00  0.00    -0.550 OA
ENDBRANCH   8   9
ENDBRANCH   7   8
ENDBRANCH   6   7
ENDBRANCH   5   6
ENDBRANCH   4   5
ENDBRANCH   3   4
ENDBRANCH   2   3
ENDBRANCH   1   2
BRANCH   1  12
ATOM     12  C   UNL     1      -2.338  14.381 -16.212  1.00  0.00     0.000 C 
BRANCH  12  13
ATOM     13  C   UNL     1      -3.162  13.311 -15.479  1.00  0.00    -0.000 C 
BRANCH  13  14
ATOM     14  C   UNL     1      -4.609  13.756 -15.200  1.00  0.00    -0.000 C 
BRANCH  14  15
ATOM     15  C   UNL     1      -5.691  12.730 -15.583  1.00  0.00    -0.000 C 
BRANCH  15  16
ATOM     16  C   UNL     1      -5.911  12.631 -17.100  1.00  0.00    -0.000 C 
BRANCH  16  17
ATOM     17  C   UNL     1      -5.854  11.181 -17.612  1.00  0.00    -0.000 C 
BRANCH  17  18
ATOM     18  C   UNL     1      -4.709  10.374 -16.977  1.00  0.00    -0.000 C 
BRANCH  18  19
ATOM     19  C   UNL     1      -3.479  10.275 -17.893  1.00  0.00    -0.003 C 
ATOM     20  C   UNL     1      -3.135   8.834 -18.273  1.00  0.00     0.004 C 
ENDBRANCH  18  19
ENDBRANCH  17  18
ENDBRANCH  16  17
ENDBRANCH  15  16
ENDBRANCH  14  15
ENDBRANCH  13  14
ENDBRANCH  12  13
ENDBRANCH   1  12
TORSDOF 16
ENDMDL
MODEL 8
REMARK VINA RESULT:    -3.639      3.186      7.636
REMARK INTER + INTRA:          -8.772
REMARK INTER:                  -7.158
REMARK INTRA:                  -1.614
REMARK UNBOUND:                -1.729
REMARK SMILES CCCCCCCCCCCCCCCCCC(=O)[O-]
REMARK SMILES IDX 10 1 11 2 12 3 13 4 14 5 15 6 16 7 17 8 18 9 19 10 20 11
REMARK SMILES IDX 9 12 8 13 7 14 6 15 5 16 4 17 3 18 2 19 1 20
REMARK H PARENT
REMARK Flexibility Score: inf
ROOT
ATOM      1  C   UNL     1      -2.298  14.207 -15.905  1.00  0.00     0.000 C 
ENDROOT
BRANCH   1   2
ATOM      2  C   UNL     1      -3.238  13.448 -14.951  1.00  0.00     0.000 C 
BRANCH   2   3
ATOM      3  C   UNL     1      -4.539  12.996 -15.631  1.00  0.00     0.000 C 
BRANCH   3   4
ATOM      4  C   UNL     1      -4.979  11.590 -15.188  1.00  0.00     0.000 C 
BRANCH   4   5
ATOM      5  C   UNL     1      -4.818  10.544 -16.303  1.00  0.00     0.000 C 
BRANCH   5   6
ATOM      6  C   UNL     1      -3.627  10.846 -17.230  1.00  0.00     0.000 C 
BRANCH   6   7
ATOM      7  C   UNL     1      -3.987  10.704 -18.716  1.00  0.00     0.006 C 
BRANCH   7   8
ATOM      8  C   UNL     1      -4.292  12.055 -19.378  1.00  0.00     0.053 C 
BRANCH   8   9
ATOM      9  C   UNL     1      -5.769  12.291 -19.430  1.00  0.00     0.041 C 
ATOM     10  O   UNL     1      -6.400  12.123 -20.507  1.00  0.00    -0.550 OA
ATOM     11  O   UNL     1      -6.440  12.740 -18.300  1.00  0.00    -0.550 OA
ENDBRANCH   8   9
ENDBRANCH   7   8
ENDBRANCH   6   7
ENDBRANCH   5   6
ENDBRANCH   4   5
ENDBRANCH   3   4
ENDBRANCH   2   3
ENDBRANCH   1   2
BRANCH   1  12
ATOM     12  C   UNL     1      -2.976  14.566 -17.236  1.00  0.00     0.000 C 
BRANCH  12  13
ATOM     13  C   UNL     1      -1.963  14.802 -18.369  1.00  0.00    -0.000 C 
BRANCH  13  14
ATOM     14  C   UNL     1      -0.814  15.741 -17.959  1.00  0.00    -0.000 C 
BRANCH  14  15
ATOM     15  C   UNL     1       0.445  15.651 -18.840  1.00  0.00    -0.000 C 
BRANCH  15  16
ATOM     16  C   UNL     1       1.485  16.732 -18.510  1.00  0.00    -0.000 C 
BRANCH  16  17
ATOM     17  C   UNL     1       1.744  17.684 -19.690  1.00  0.00    -0.000 C 
BRANCH  17  18
ATOM     18  C   UNL     1       0.666  18.774 -19.818  1.00  0.00    -0.000 C 
BRANCH  18  19
ATOM     19  C   UNL     1       0.346  19.449 -18.475  1.00  0.00    -0.003 C 
ATOM     20  C   UNL     1      -1.128  19.830 -18.337  1.00  0.00     0.004 C 
ENDBRANCH  18  19
ENDBRANCH  17  18
ENDBRANCH  16  17
ENDBRANCH  15  16
ENDBRANCH  14  15
ENDBRANCH  13  14
ENDBRANCH  12  13
ENDBRANCH   1  12
TORSDOF 16
ENDMDL
MODEL 9
REMARK VINA RESULT:    -3.495      3.135      8.307
REMARK INTER + INTRA:          -8.493
REMARK INTER:                  -6.973
REMARK INTRA:                  -1.520
REMARK UNBOUND:                -1.729
REMARK SMILES CCCCCCCCCCCCCCCCCC(=O)[O-]
REMARK SMILES IDX 10 1 11 2 12 3 13 4 14 5 15 6 16 7 17 8 18 9 19 10 20 11
REMARK SMILES IDX 9 12 8 13 7 14 6 15 5 16 4 17 3 18 2 19 1 20
REMARK H PARENT
REMARK Flexibility Score: inf
ROOT
ATOM      1  C   UNL     1      -2.042  14.900 -18.479  1.00  0.00     0.000 C 
ENDROOT
BRANCH   1   2
ATOM      2  C   UNL     1      -2.143  14.598 -16.974  1.00  0.00     0.000 C 
BRANCH   2   3
ATOM      3  C   UNL     1      -3.579  14.282 -16.525  1.00  0.00     0.000 C 
BRANCH   3   4
ATOM      4  C   UNL     1      -3.630  13.204 -15.428  1.00  0.00     0.000 C 
BRANCH   4   5
ATOM      5  C   UNL     1      -4.998  12.507 -15.353  1.00  0.00     0.000 C 
BRANCH   5   6
ATOM      6  C   UNL     1      -5.762  12.556 -16.687  1.00  0.00     0.000 C 
BRANCH   6   7
ATOM      7  C   UNL     1      -5.718  11.218 -17.441  1.00  0.00     0.006 C 
BRANCH   7   8
ATOM      8  C   UNL     1      -4.536  10.339 -17.010  1.00  0.00     0.053 C 
BRANCH   8   9
ATOM      9  C   UNL     1      -3.424  10.433 -18.006  1.00  0.00     0.041 C 
ATOM     10  O   UNL     1      -2.481   9.598 -17.984  1.00  0.00    -0.550 OA
ATOM     11  O   UNL     1      -3.405  11.469 -18.931  1.00  0.00    -0.550 OA
ENDBRANCH   8   9
ENDBRANCH   7   8
ENDBRANCH   6   7
ENDBRANCH   5   6
ENDBRANCH   4   5
ENDBRANCH   3   4
ENDBRANCH   2   3
ENDBRANCH   1   2
BRANCH   1  12
ATOM     12  C   UNL     1      -1.175  16.133 -18.776  1.00  0.00     0.000 C 
BRANCH  12  13
ATOM     13  C   UNL     1       0.200  16.067 -18.091  1.00  0.00    -0.000 C 
BRANCH  13  14
ATOM     14  C   UNL     1       1.324  15.626 -19.046  1.00  0.00    -0.000 C 
BRANCH  14  15
ATOM     15  C   UNL     1       1.690  16.650 -20.135  1.00  0.00    -0.000 C 
BRANCH  15  16
ATOM     16  C   UNL     1       2.013  18.040 -19.566  1.00  0.00    -0.000 C 
BRANCH  16  17
ATOM     17  C   UNL     1       1.626  19.177 -20.527  1.00  0.00    -0.000 C 
BRANCH  17  18
ATOM     18  C   UNL     1       0.485  20.052 -19.981  1.00  0.00    -0.000 C 
BRANCH  18  19
ATOM     19  C   UNL     1       0.312  19.913 -18.460  1.00  0.00    -0.003 C 
ATOM     20  C   UNL     1      -1.153  19.826 -18.034  1.00  0.00     0.004 C 
ENDBRANCH  18  19
ENDBRANCH  17  18
ENDBRANCH  16  17
ENDBRANCH  15  16
ENDBRANCH  14  15
ENDBRANCH  13  14
ENDBRANCH  12  13
ENDBRANCH   1  12
TORSDOF 16
ENDMDL
