MODEL 1
REMARK VINA RESULT:    -4.942      0.000      0.000
REMARK INTER + INTRA:         -11.870
REMARK INTER:                  -9.565
REMARK INTRA:                  -2.305
REMARK UNBOUND:                -2.305
REMARK SMILES CCCCCCCCCCCCCCCCCC(=O)[O-]
REMARK SMILES IDX 10 1 11 2 12 3 13 4 14 5 15 6 16 7 17 8 18 9 19 10 20 11
REMARK SMILES IDX 9 12 8 13 7 14 6 15 5 16 4 17 3 18 2 19 1 20
REMARK H PARENT
REMARK Flexibility Score: inf
ROOT
ATOM      1  C   UNL     1      29.163  30.518  15.895  1.00  0.00     0.000 C 
ENDROOT
BRANCH   1   2
ATOM      2  C   UNL     1      30.255  31.341  16.595  1.00  0.00     0.000 C 
BRANCH   2   3
ATOM      3  C   UNL     1      31.043  32.233  15.622  1.00  0.00     0.000 C 
BRANCH   3   4
ATOM      4  C   UNL     1      32.017  31.434  14.741  1.00  0.00     0.000 C 
BRANCH   4   5
ATOM      5  C   UNL     1      32.580  30.195  15.456  1.00  0.00     0.000 C 
BRANCH   5   6
ATOM      6  C   UNL     1      32.297  28.888  14.695  1.00  0.00     0.000 C 
BRANCH   6   7
ATOM      7  C   UNL     1      31.840  29.138  13.243  1.00  0.00     0.006 C 
BRANCH   7   8
ATOM      8  C   UNL     1      32.286  28.045  12.258  1.00  0.00     0.053 C 
BRANCH   8   9
ATOM      9  C   UNL     1      33.773  27.992  12.098  1.00  0.00     0.041 C 
ATOM     10  O   UNL     1      34.340  28.687  11.214  1.00  0.00    -0.550 OA
ATOM     11  O   UNL     1      34.536  27.196  12.943  1.00  0.00    -0.550 OA
ENDBRANCH   8   9
ENDBRANCH   7   8
ENDBRANCH   6   7
ENDBRANCH   5   6
ENDBRANCH   4   5
ENDBRANCH   3   4
ENDBRANCH   2   3
ENDBRANCH   1   2
BRANCH   1  12
ATOM     12  C   UNL     1      28.665  31.230  14.632  1.00  0.00     0.000 C 
BRANCH  12  13
ATOM     13  C   UNL     1      28.209  30.216  13.571  1.00  0.00    -0.000 C 
BRANCH  13  14
ATOM     14  C   UNL     1      28.254  28.763  14.091  1.00  0.00    -0.000 C 
BRANCH  14  15
ATOM     15  C   UNL     1      28.379  27.710  12.973  1.00  0.00    -0.000 C 
BRANCH  15  16
ATOM     16  C   UNL     1      28.865  26.327  13.438  1.00  0.00    -0.000 C 
BRANCH  16  17
ATOM     17  C   UNL     1      29.635  26.325  14.773  1.00  0.00    -0.000 C 
BRANCH  17  18
ATOM     18  C   UNL     1      29.069  25.338  15.815  1.00  0.00    -0.000 C 
BRANCH  18  19
ATOM     19  C   UNL     1      27.546  25.465  15.973  1.00  0.00    -0.003 C 
ATOM     20  C   UNL     1      27.122  25.241  17.421  1.00  0.00     0.004 C 
ENDBRANCH  18  19
ENDBRANCH  17  18
ENDBRANCH  16  17
ENDBRANCH  15  16
ENDBRANCH  14  15
ENDBRANCH  13  14
ENDBRANCH  12  13
ENDBRANCH   1  12
TORSDOF 16
ENDMDL
MODEL 2
REMARK VINA RESULT:    -4.797      3.259      6.429
REMARK INTER + INTRA:         -11.588
REMARK INTER:                  -9.741
REMARK INTRA:                  -1.847
REMARK UNBOUND:                -2.305
REMARK SMILES CCCCCCCCCCCCCCCCCC(=O)[O-]
REMARK SMILES IDX 10 1 11 2 12 3 13 4 14 5 15 6 16 7 17 8 18 9 19 10 20 11
REMARK SMILES IDX 9 12 8 13 7 14 6 15 5 16 4 17 3 18 2 19 1 20
REMARK H PARENT
REMARK Flexibility Score: inf
ROOT
ATOM      1  C   UNL     1      31.858  31.316  15.128  1.00  0.00     0.000 C 
ENDROOT
BRANCH   1   2
ATOM      2  C   UNL     1      30.780  31.750  16.132  1.00  0.00     0.000 C 
BRANCH   2   3
ATOM      3  C   UNL     1      29.528  30.860  16.084  1.00  0.00     0.000 C 
BRANCH   3   4
ATOM      4  C   UNL     1      28.724  31.038  14.784  1.00  0.00     0.000 C 
BRANCH   4   5
ATOM      5  C   UNL     1      28.335  29.697  14.142  1.00  0.00     0.000 C 
BRANCH   5   6
ATOM      6  C   UNL     1      28.935  28.487  14.879  1.00  0.00     0.000 C 
BRANCH   6   7
ATOM      7  C   UNL     1      28.454  27.142  14.297  1.00  0.00     0.006 C 
BRANCH   7   8
ATOM      8  C   UNL     1      27.291  26.511  15.081  1.00  0.00     0.053 C 
BRANCH   8   9
ATOM      9  C   UNL     1      27.761  25.524  16.103  1.00  0.00     0.041 C 
ATOM     10  O   UNL     1      28.807  24.851  15.901  1.00  0.00    -0.550 OA
ATOM     11  O   UNL     1      27.061  25.367  17.293  1.00  0.00    -0.550 OA
ENDBRANCH   8   9
ENDBRANCH   7   8
ENDBRANCH   6   7
ENDBRANCH   5   6
ENDBRANCH   4   5
ENDBRANCH   3   4
ENDBRANCH   2   3
ENDBRANCH   1   2
BRANCH   1  12
ATOM     12  C   UNL     1      32.402  29.925  15.474  1.00  0.00     0.000 C 
BRANCH  12  13
ATOM     13  C   UNL     1      32.512  29.047  14.218  1.00  0.00    -0.000 C 
BRANCH  13  14
ATOM     14  C   UNL     1      31.716  29.624  13.028  1.00  0.00    -0.000 C 
BRANCH  14  15
ATOM     15  C   UNL     1      31.877  28.815  11.726  1.00  0.00    -0.000 C 
BRANCH  15  16
ATOM     16  C   UNL     1      33.326  28.677  11.226  1.00  0.00    -0.000 C 
BRANCH  16  17
ATOM     17  C   UNL     1      33.550  29.096   9.760  1.00  0.00    -0.000 C 
BRANCH  17  18
ATOM     18  C   UNL     1      32.747  30.345   9.342  1.00  0.00    -0.000 C 
BRANCH  18  19
ATOM     19  C   UNL     1      33.603  31.621   9.354  1.00  0.00    -0.003 C 
ATOM     20  C   UNL     1      33.062  32.657   8.373  1.00  0.00     0.004 C 
ENDBRANCH  18  19
ENDBRANCH  17  18
ENDBRANCH  16  17
ENDBRANCH  15  16
ENDBRANCH  14  15
ENDBRANCH  13  14
ENDBRANCH  12  13
ENDBRANCH   1  12
TORSDOF 16
ENDMDL
MODEL 3
REMARK VINA RESULT:    -4.736      1.413      2.088
REMARK INTER + INTRA:         -11.471
REMARK INTER:                  -8.925
REMARK INTRA:                  -2.547
REMARK UNBOUND:                -2.305
REMARK SMILES CCCCCCCCCCCCCCCCCC(=O)[O-]
REMARK SMILES IDX 10 1 11 2 12 3 13 4 14 5 15 6 16 7 17 8 18 9 19 10 20 11
REMARK SMILES IDX 9 12 8 13 7 14 6 15 5 16 4 17 3 18 2 19 1 20
REMARK H PARENT
REMARK Flexibility Score: inf
ROOT
ATOM      1  C   UNL     1      28.832  31.313  14.614  1.00  0.00     0.000 C 
ENDROOT
BRANCH   1   2
ATOM      2  C   UNL     1      29.527  31.018  15.952  1.00  0.00     0.000 C 
BRANCH   2   3
ATOM      3  C   UNL     1      30.904  31.690  16.068  1.00  0.00     0.000 C 
BRANCH   3   4
ATOM      4  C   UNL     1      31.970  31.014  15.188  1.00  0.00     0.000 C 
BRANCH   4   5
ATOM      5  C   UNL     1      32.467  29.684  15.778  1.00  0.00     0.000 C 
BRANCH   5   6
ATOM      6  C   UNL     1      32.776  28.633  14.698  1.00  0.00     0.000 C 
BRANCH   6   7
ATOM      7  C   UNL     1      32.380  29.105  13.284  1.00  0.00     0.006 C 
BRANCH   7   8
ATOM      8  C   UNL     1      32.603  28.044  12.194  1.00  0.00     0.053 C 
BRANCH   8   9
ATOM      9  C   UNL     1      34.037  27.951  11.773  1.00  0.00     0.041 C 
ATOM     10  O   UNL     1      34.502  28.761  10.927  1.00  0.00    -0.550 OA
ATOM     11  O   UNL     1      34.867  26.989  12.334  1.00  0.00    -0.550 OA
ENDBRANCH   8   9
ENDBRANCH   7   8
ENDBRANCH   6   7
ENDBRANCH   5   6
ENDBRANCH   4   5
ENDBRANCH   3   4
ENDBRANCH   2   3
ENDBRANCH   1   2
BRANCH   1  12
ATOM     12  C   UNL     1      28.033  30.097  14.131  1.00  0.00     0.000 C 
BRANCH  12  13
ATOM     13  C   UNL     1      28.739  29.404  12.955  1.00  0.00    -0.000 C 
BRANCH  13  14
ATOM     14  C   UNL     1      28.956  27.896  13.209  1.00  0.00    -0.000 C 
BRANCH  14  15
ATOM     15  C   UNL     1      29.104  27.535  14.700  1.00  0.00    -0.000 C 
BRANCH  15  16
ATOM     16  C   UNL     1      28.164  26.421  15.191  1.00  0.00    -0.000 C 
BRANCH  16  17
ATOM     17  C   UNL     1      26.694  26.571  14.754  1.00  0.00    -0.000 C 
BRANCH  17  18
ATOM     18  C   UNL     1      26.227  25.483  13.764  1.00  0.00    -0.000 C 
BRANCH  18  19
ATOM     19  C   UNL     1      25.391  26.062  12.613  1.00  0.00    -0.003 C 
ATOM     20  C   UNL     1      25.371  27.587  12.658  1.00  0.00     0.004 C 
ENDBRANCH  18  19
ENDBRANCH  17  18
ENDBRANCH  16  17
ENDBRANCH  15  16
ENDBRANCH  14  15
ENDBRANCH  13  14
ENDBRANCH  12  13
ENDBRANCH   1  12
TORSDOF 16
ENDMDL
MODEL 4
REMARK VINA RESULT:    -4.728      1.275      2.663
REMARK INTER + INTRA:         -11.454
REMARK INTER:                  -9.208
REMARK INTRA:                  -2.246
REMARK UNBOUND:                -2.305
REMARK SMILES CCCCCCCCCCCCCCCCCC(=O)[O-]
REMARK SMILES IDX 10 1 11 2 12 3 13 4 14 5 15 6 16 7 17 8 18 9 19 10 20 11
REMARK SMILES IDX 9 12 8 13 7 14 6 15 5 16 4 17 3 18 2 19 1 20
REMARK H PARENT
REMARK Flexibility Score: inf
ROOT
ATOM      1  C   UNL     1      31.029  32.117  15.705  1.00  0.00     0.000 C 
ENDROOT
BRANCH   1   2
ATOM      2  C   UNL     1      32.065  31.300  14.919  1.00  0.00     0.000 C 
BRANCH   2   3
ATOM      3  C   UNL     1      32.400  29.959  15.591  1.00  0.00     0.000 C 
BRANCH   3   4
ATOM      4  C   UNL     1      32.166  28.755  14.662  1.00  0.00     0.000 C 
BRANCH   4   5
ATOM      5  C   UNL     1      31.726  29.176  13.250  1.00  0.00     0.000 C 
BRANCH   5   6
ATOM      6  C   UNL     1      32.144  28.163  12.170  1.00  0.00     0.000 C 
BRANCH   6   7
ATOM      7  C   UNL     1      33.672  27.960  12.110  1.00  0.00     0.006 C 
BRANCH   7   8
ATOM      8  C   UNL     1      34.334  28.614  10.887  1.00  0.00     0.053 C 
BRANCH   8   9
ATOM      9  C   UNL     1      33.340  28.991   9.833  1.00  0.00     0.041 C 
ATOM     10  O   UNL     1      32.928  30.179   9.746  1.00  0.00    -0.550 OA
ATOM     11  O   UNL     1      32.888  28.038   8.929  1.00  0.00    -0.550 OA
ENDBRANCH   8   9
ENDBRANCH   7   8
ENDBRANCH   6   7
ENDBRANCH   5   6
ENDBRANCH   4   5
ENDBRANCH   3   4
ENDBRANCH   2   3
ENDBRANCH   1   2
BRANCH   1  12
ATOM     12  C   UNL     1      30.206  31.213  16.631  1.00  0.00     0.000 C 
BRANCH  12  13
ATOM     13  C   UNL     1      29.072  30.520  15.861  1.00  0.00    -0.000 C 
BRANCH  13  14
ATOM     14  C   UNL     1      28.689  31.280  14.573  1.00  0.00    -0.000 C 
BRANCH  14  15
ATOM     15  C   UNL     1      28.190  30.363  13.439  1.00  0.00    -0.000 C 
BRANCH  15  16
ATOM     16  C   UNL     1      27.885  28.916  13.865  1.00  0.00    -0.000 C 
BRANCH  16  17
ATOM     17  C   UNL     1      28.342  27.835  12.867  1.00  0.00    -0.000 C 
BRANCH  17  18
ATOM     18  C   UNL     1      28.875  26.553  13.540  1.00  0.00    -0.000 C 
BRANCH  18  19
ATOM     19  C   UNL     1      29.065  26.725  15.055  1.00  0.00    -0.003 C 
ATOM     20  C   UNL     1      28.192  25.746  15.834  1.00  0.00     0.004 C 
ENDBRANCH  18  19
ENDBRANCH  17  18
ENDBRANCH  16  17
ENDBRANCH  15  16
ENDBRANCH  14  15
ENDBRANCH  13  14
ENDBRANCH  12  13
ENDBRANCH   1  12
TORSDOF 16
ENDMDL
MODEL 5
REMARK VINA RESULT:    -4.705      3.261      6.303
REMARK INTER + INTRA:         -11.410
REMARK INTER:                  -9.649
REMARK INTRA:                  -1.761
REMARK UNBOUND:                -2.305
REMARK SMILES CCCCCCCCCCCCCCCCCC(=O)[O-]
REMARK SMILES IDX 10 1 11 2 12 3 13 4 14 5 15 6 16 7 17 8 18 9 19 10 20 11
REMARK SMILES IDX 9 12 8 13 7 14 6 15 5 16 4 17 3 18 2 19 1 20
REMARK H PARENT
REMARK Flexibility Score: inf
ROOT
ATOM      1  C   UNL     1      32.421  30.093  15.457  1.00  0.00     0.000 C 
ENDROOT
BRANCH   1   2
ATOM      2  C   UNL     1      31.990  31.441  14.860  1.00  0.00     0.000 C 
BRANCH   2   3
ATOM      3  C   UNL     1      30.965  32.179  15.736  1.00  0.00     0.000 C 
BRANCH   3   4
ATOM      4  C   UNL     1      30.251  31.244  16.728  1.00  0.00     0.000 C 
BRANCH   4   5
ATOM      5  C   UNL     1      29.154  30.400  16.059  1.00  0.00     0.000 C 
BRANCH   5   6
ATOM      6  C   UNL     1      28.504  31.111  14.860  1.00  0.00     0.000 C 
BRANCH   6   7
ATOM      7  C   UNL     1      28.039  30.123  13.770  1.00  0.00     0.006 C 
BRANCH   7   8
ATOM      8  C   UNL     1      28.528  28.683  13.992  1.00  0.00     0.053 C 
BRANCH   8   9
ATOM      9  C   UNL     1      27.499  27.665  13.609  1.00  0.00     0.041 C 
ATOM     10  O   UNL     1      27.333  27.357  12.399  1.00  0.00    -0.550 OA
ATOM     11  O   UNL     1      26.743  27.036  14.590  1.00  0.00    -0.550 OA
ENDBRANCH   8   9
ENDBRANCH   7   8
ENDBRANCH   6   7
ENDBRANCH   5   6
ENDBRANCH   4   5
ENDBRANCH   3   4
ENDBRANCH   2   3
ENDBRANCH   1   2
BRANCH   1  12
ATOM     12  C   UNL     1      32.261  28.963  14.432  1.00  0.00     0.000 C 
BRANCH  12  13
ATOM     13  C   UNL     1      31.862  29.519  13.056  1.00  0.00    -0.000 C 
BRANCH  13  14
ATOM     14  C   UNL     1      31.676  28.403  12.005  1.00  0.00    -0.000 C 
BRANCH  14  15
ATOM     15  C   UNL     1      32.988  27.977  11.318  1.00  0.00    -0.000 C 
BRANCH  15  16
ATOM     16  C   UNL     1      33.681  29.084  10.505  1.00  0.00    -0.000 C 
BRANCH  16  17
ATOM     17  C   UNL     1      33.269  29.155   9.022  1.00  0.00    -0.000 C 
BRANCH  17  18
ATOM     18  C   UNL     1      32.681  30.520   8.606  1.00  0.00    -0.000 C 
BRANCH  18  19
ATOM     19  C   UNL     1      33.517  31.698   9.126  1.00  0.00    -0.003 C 
ATOM     20  C   UNL     1      32.876  33.034   8.760  1.00  0.00     0.004 C 
ENDBRANCH  18  19
ENDBRANCH  17  18
ENDBRANCH  16  17
ENDBRANCH  15  16
ENDBRANCH  14  15
ENDBRANCH  13  14
ENDBRANCH  12  13
ENDBRANCH   1  12
TORSDOF 16
ENDMDL
MODEL 6
REMARK VINA RESULT:    -4.664      2.965      5.668
REMARK INTER + INTRA:         -11.331
REMARK INTER:                  -8.731
REMARK INTRA:                  -2.600
REMARK UNBOUND:                -2.305
REMARK SMILES CCCCCCCCCCCCCCCCCC(=O)[O-]
REMARK SMILES IDX 10 1 11 2 12 3 13 4 14 5 15 6 16 7 17 8 18 9 19 10 20 11
REMARK SMILES IDX 9 12 8 13 7 14 6 15 5 16 4 17 3 18 2 19 1 20
REMARK H PARENT
REMARK Flexibility Score: inf
ROOT
ATOM      1  C   UNL     1      32.519  30.193  15.359  1.00  0.00     0.000 C 
ENDROOT
BRANCH   1   2
ATOM      2  C   UNL     1      31.842  31.514  14.964  1.00  0.00     0.000 C 
BRANCH   2   3
ATOM      3  C   UNL     1      30.756  31.948  15.961  1.00  0.00     0.000 C 
BRANCH   3   4
ATOM      4  C   UNL     1      29.611  30.927  16.072  1.00  0.00     0.000 C 
BRANCH   4   5
ATOM      5  C   UNL     1      28.647  30.987  14.876  1.00  0.00     0.000 C 
BRANCH   5   6
ATOM      6  C   UNL     1      28.701  29.720  14.004  1.00  0.00     0.000 C 
BRANCH   6   7
ATOM      7  C   UNL     1      28.916  28.439  14.836  1.00  0.00     0.006 C 
BRANCH   7   8
ATOM      8  C   UNL     1      28.544  27.148  14.089  1.00  0.00     0.053 C 
BRANCH   8   9
ATOM      9  C   UNL     1      27.064  26.969  13.961  1.00  0.00     0.041 C 
ATOM     10  O   UNL     1      26.379  26.621  14.960  1.00  0.00    -0.550 OA
ATOM     11  O   UNL     1      26.436  27.212  12.746  1.00  0.00    -0.550 OA
ENDBRANCH   8   9
ENDBRANCH   7   8
ENDBRANCH   6   7
ENDBRANCH   5   6
ENDBRANCH   4   5
ENDBRANCH   3   4
ENDBRANCH   2   3
ENDBRANCH   1   2
BRANCH   1  12
ATOM     12  C   UNL     1      32.401  29.158  14.234  1.00  0.00     0.000 C 
BRANCH  12  13
ATOM     13  C   UNL     1      32.571  27.731  14.777  1.00  0.00    -0.000 C 
BRANCH  13  14
ATOM     14  C   UNL     1      33.038  26.741  13.688  1.00  0.00    -0.000 C 
BRANCH  14  15
ATOM     15  C   UNL     1      34.368  27.141  13.019  1.00  0.00    -0.000 C 
BRANCH  15  16
ATOM     16  C   UNL     1      34.332  27.183  11.482  1.00  0.00    -0.000 C 
BRANCH  16  17
ATOM     17  C   UNL     1      34.332  28.597  10.870  1.00  0.00    -0.000 C 
BRANCH  17  18
ATOM     18  C   UNL     1      32.921  29.141  10.564  1.00  0.00    -0.000 C 
BRANCH  18  19
ATOM     19  C   UNL     1      31.881  28.020  10.425  1.00  0.00    -0.003 C 
ATOM     20  C   UNL     1      30.555  28.416  11.068  1.00  0.00     0.004 C 
ENDBRANCH  18  19
ENDBRANCH  17  18
ENDBRANCH  16  17
ENDBRANCH  15  16
ENDBRANCH  14  15
ENDBRANCH  13  14
ENDBRANCH  12  13
ENDBRANCH   1  12
TORSDOF 16
ENDMDL
MODEL 7
REMARK VINA RESULT:    -4.658      2.311      2.953
REMARK INTER + INTRA:         -11.321
REMARK INTER:                  -8.822
REMARK INTRA:                  -2.499
REMARK UNBOUND:                -2.305
REMARK SMILES CCCCCCCCCCCCCCCCCC(=O)[O-]
REMARK SMILES IDX 10 1 11 2 12 3 13 4 14 5 15 6 16 7 17 8 18 9 19 10 20 11
REMARK SMILES IDX 9 12 8 13 7 14 6 15 5 16 4 17 3 18 2 19 1 20
REMARK H PARENT
REMARK Flexibility Score: inf
ROOT
ATOM      1  C   UNL     1      30.958  31.998  16.027  1.00  0.00     0.000 C 
ENDROOT
BRANCH   1   2
ATOM      2  C   UNL     1      31.430  30.566  16.321  1.00  0.00     0.000 C 
BRANCH   2   3
ATOM      3  C   UNL     1      32.553  30.104  15.380  1.00  0.00     0.000 C 
BRANCH   3   4
ATOM      4  C   UNL     1      32.450  28.612  15.021  1.00  0.00     0.000 C 
BRANCH   4   5
ATOM      5  C   UNL     1      32.720  28.343  13.531  1.00  0.00     0.000 C 
BRANCH   5   6
ATOM      6  C   UNL     1      31.706  29.038  12.607  1.00  0.00     0.000 C 
BRANCH   6   7
ATOM      7  C   UNL     1      31.085  28.070  11.578  1.00  0.00     0.006 C 
BRANCH   7   8
ATOM      8  C   UNL     1      29.939  28.690  10.762  1.00  0.00     0.053 C 
BRANCH   8   9
ATOM      9  C   UNL     1      28.786  27.751  10.591  1.00  0.00     0.041 C 
ATOM     10  O   UNL     1      27.699  28.164  10.109  1.00  0.00    -0.550 OA
ATOM     11  O   UNL     1      28.920  26.413  10.940  1.00  0.00    -0.550 OA
ENDBRANCH   8   9
ENDBRANCH   7   8
ENDBRANCH   6   7
ENDBRANCH   5   6
ENDBRANCH   4   5
ENDBRANCH   3   4
ENDBRANCH   2   3
ENDBRANCH   1   2
BRANCH   1  12
ATOM     12  C   UNL     1      29.874  32.006  14.942  1.00  0.00     0.000 C 
BRANCH  12  13
ATOM     13  C   UNL     1      28.874  30.858  15.153  1.00  0.00    -0.000 C 
BRANCH  13  14
ATOM     14  C   UNL     1      28.399  30.243  13.819  1.00  0.00    -0.000 C 
BRANCH  14  15
ATOM     15  C   UNL     1      28.068  28.741  13.914  1.00  0.00    -0.000 C 
BRANCH  15  16
ATOM     16  C   UNL     1      28.963  27.942  14.877  1.00  0.00    -0.000 C 
BRANCH  16  17
ATOM     17  C   UNL     1      28.944  26.416  14.665  1.00  0.00    -0.000 C 
BRANCH  17  18
ATOM     18  C   UNL     1      27.669  25.730  15.199  1.00  0.00    -0.000 C 
BRANCH  18  19
ATOM     19  C   UNL     1      27.952  24.843  16.421  1.00  0.00    -0.003 C 
ATOM     20  C   UNL     1      27.136  25.294  17.629  1.00  0.00     0.004 C 
ENDBRANCH  18  19
ENDBRANCH  17  18
ENDBRANCH  16  17
ENDBRANCH  15  16
ENDBRANCH  14  15
ENDBRANCH  13  14
ENDBRANCH  12  13
ENDBRANCH   1  12
TORSDOF 16
ENDMDL
MODEL 8
REMARK VINA RESULT:    -4.624      2.989      6.000
REMARK INTER + INTRA:         -11.254
REMARK INTER:                  -8.795
REMARK INTRA:                  -2.458
REMARK UNBOUND:                -2.305
REMARK SMILES CCCCCCCCCCCCCCCCCC(=O)[O-]
REMARK SMILES IDX 10 1 11 2 12 3 13 4 14 5 15 6 16 7 17 8 18 9 19 10 20 11
REMARK SMILES IDX 9 12 8 13 7 14 6 15 5 16 4 17 3 18 2 19 1 20
REMARK H PARENT
REMARK Flexibility Score: inf
ROOT
ATOM      1  C   UNL     1      28.424  30.631  13.481  1.00  0.00     0.000 C 
ENDROOT
BRANCH   1   2
ATOM      2  C   UNL     1      28.400  29.102  13.329  1.00  0.00     0.000 C 
BRANCH   2   3
ATOM      3  C   UNL     1      28.652  28.368  14.655  1.00  0.00     0.000 C 
BRANCH   3   4
ATOM      4  C   UNL     1      29.153  26.928  14.450  1.00  0.00     0.000 C 
BRANCH   4   5
ATOM      5  C   UNL     1      28.525  25.937  15.443  1.00  0.00     0.000 C 
BRANCH   5   6
ATOM      6  C   UNL     1      26.987  25.983  15.437  1.00  0.00     0.000 C 
BRANCH   6   7
ATOM      7  C   UNL     1      26.367  24.927  14.500  1.00  0.00     0.006 C 
BRANCH   7   8
ATOM      8  C   UNL     1      25.276  25.487  13.573  1.00  0.00     0.053 C 
BRANCH   8   9
ATOM      9  C   UNL     1      25.790  26.567  12.673  1.00  0.00     0.041 C 
ATOM     10  O   UNL     1      25.312  27.731  12.744  1.00  0.00    -0.550 OA
ATOM     11  O   UNL     1      26.816  26.297  11.776  1.00  0.00    -0.550 OA
ENDBRANCH   8   9
ENDBRANCH   7   8
ENDBRANCH   6   7
ENDBRANCH   5   6
ENDBRANCH   4   5
ENDBRANCH   3   4
ENDBRANCH   2   3
ENDBRANCH   1   2
BRANCH   1  12
ATOM     12  C   UNL     1      28.694  31.032  14.936  1.00  0.00     0.000 C 
BRANCH  12  13
ATOM     13  C   UNL     1      29.909  31.968  15.034  1.00  0.00    -0.000 C 
BRANCH  13  14
ATOM     14  C   UNL     1      30.682  31.788  16.358  1.00  0.00    -0.000 C 
BRANCH  14  15
ATOM     15  C   UNL     1      31.417  30.438  16.466  1.00  0.00    -0.000 C 
BRANCH  15  16
ATOM     16  C   UNL     1      32.479  30.191  15.381  1.00  0.00    -0.000 C 
BRANCH  16  17
ATOM     17  C   UNL     1      32.311  28.877  14.594  1.00  0.00    -0.000 C 
BRANCH  17  18
ATOM     18  C   UNL     1      31.997  29.085  13.098  1.00  0.00    -0.000 C 
BRANCH  18  19
ATOM     19  C   UNL     1      32.626  27.998  12.213  1.00  0.00    -0.003 C 
ATOM     20  C   UNL     1      33.980  27.557  12.761  1.00  0.00     0.004 C 
ENDBRANCH  18  19
ENDBRANCH  17  18
ENDBRANCH  16  17
ENDBRANCH  15  16
ENDBRANCH  14  15
ENDBRANCH  13  14
ENDBRANCH  12  13
ENDBRANCH   1  12
TORSDOF 16
ENDMDL
MODEL 9
REMARK VINA RESULT:    -4.616      1.054      2.334
REMARK INTER + INTRA:         -11.239
REMARK INTER:                  -9.063
REMARK INTRA:                  -2.176
REMARK UNBOUND:                -2.305
REMARK SMILES CCCCCCCCCCCCCCCCCC(=O)[O-]
REMARK SMILES IDX 10 1 11 2 12 3 13 4 14 5 15 6 16 7 17 8 18 9 19 10 20 11
REMARK SMILES IDX 9 12 8 13 7 14 6 15 5 16 4 17 3 18 2 19 1 20
REMARK H PARENT
REMARK Flexibility Score: inf
ROOT
ATOM      1  C   UNL     1      28.136  30.213  13.849  1.00  0.00     0.000 C 
ENDROOT
BRANCH   1   2
ATOM      2  C   UNL     1      28.846  31.343  14.609  1.00  0.00     0.000 C 
BRANCH   2   3
ATOM      3  C   UNL     1      29.399  30.890  15.970  1.00  0.00     0.000 C 
BRANCH   3   4
ATOM      4  C   UNL     1      30.677  31.645  16.372  1.00  0.00     0.000 C 
BRANCH   4   5
ATOM      5  C   UNL     1      31.790  31.525  15.318  1.00  0.00     0.000 C 
BRANCH   5   6
ATOM      6  C   UNL     1      32.480  30.150  15.335  1.00  0.00     0.000 C 
BRANCH   6   7
ATOM      7  C   UNL     1      32.234  29.350  14.039  1.00  0.00     0.006 C 
BRANCH   7   8
ATOM      8  C   UNL     1      32.733  27.898  14.105  1.00  0.00     0.053 C 
BRANCH   8   9
ATOM      9  C   UNL     1      33.773  27.603  13.071  1.00  0.00     0.041 C 
ATOM     10  O   UNL     1      34.575  26.645  13.234  1.00  0.00    -0.550 OA
ATOM     11  O   UNL     1      33.841  28.368  11.913  1.00  0.00    -0.550 OA
ENDBRANCH   8   9
ENDBRANCH   7   8
ENDBRANCH   6   7
ENDBRANCH   5   6
ENDBRANCH   4   5
ENDBRANCH   3   4
ENDBRANCH   2   3
ENDBRANCH   1   2
BRANCH   1  12
ATOM     12  C   UNL     1      28.673  28.842  14.279  1.00  0.00     0.000 C 
BRANCH  12  13
ATOM     13  C   UNL     1      28.709  27.867  13.092  1.00  0.00    -0.000 C 
BRANCH  13  14
ATOM     14  C   UNL     1      27.529  26.872  13.115  1.00  0.00    -0.000 C 
BRANCH  14  15
ATOM     15  C   UNL     1      26.763  26.853  14.452  1.00  0.00    -0.000 C 
BRANCH  15  16
ATOM     16  C   UNL     1      26.840  25.523  15.222  1.00  0.00    -0.000 C 
BRANCH  16  17
ATOM     17  C   UNL     1      27.886  25.486  16.353  1.00  0.00    -0.000 C 
BRANCH  17  18
ATOM     18  C   UNL     1      29.058  24.519  16.083  1.00  0.00    -0.000 C 
BRANCH  18  19
ATOM     19  C   UNL     1      30.147  25.152  15.204  1.00  0.00    -0.003 C 
ATOM     20  C   UNL     1      31.541  24.826  15.732  1.00  0.00     0.004 C 
ENDBRANCH  18  19
ENDBRANCH  17  18
ENDBRANCH  16  17
ENDBRANCH  15  16
ENDBRANCH  14  15
ENDBRANCH  13  14
ENDBRANCH  12  13
ENDBRANCH   1  12
TORSDOF 16
ENDMDL
