MODEL 1
REMARK VINA RESULT:    31.848      0.000      0.000
REMARK INTER + INTRA:          45.178
REMARK INTER:                  42.088
REMARK INTRA:                   3.090
REMARK UNBOUND:                 3.090
REMARK SMILES CC[C@H](C=C[C@H](C)[C@H]1CC[C@@H]2C3=CC[C@H]4C[C@@H](O)CC[C@@]4(C)[C@H]3CC[C@@]21C)C(C)C
REMARK SMILES IDX 6 1 7 2 5 3 4 4 3 5 2 6 1 7 28 8 29 9 30 10 8 11 9 12 26 13
REMARK SMILES IDX 10 14 11 15 25 16 27 17 12 18 24 19 23 20 13 21 21 22 14 23
REMARK SMILES IDX 15 24 20 25 22 26 16 27 19 28 17 29 18 30
REMARK H PARENT 18 31
REMARK Flexibility Score: inf
ROOT
ATOM      1  C   UNL     1      15.766  13.534  40.721  1.00  0.00     0.012 C 
ATOM      2  C   UNL     1      14.919  12.329  41.166  1.00  0.00     0.012 C 
ENDROOT
BRANCH   1   3
ATOM      3  C   UNL     1      17.130  13.415  41.369  1.00  0.00    -0.028 C 
ATOM      4  C   UNL     1      17.755  12.234  41.498  1.00  0.00    -0.027 C 
BRANCH   4   5
ATOM      5  C   UNL     1      19.117  12.130  42.158  1.00  0.00     0.014 C 
BRANCH   5   6
ATOM      6  C   UNL     1      20.227  12.644  41.205  1.00  0.00     0.004 C 
ATOM      7  C   UNL     1      20.578  14.110  41.460  1.00  0.00     0.004 C 
ENDBRANCH   5   6
BRANCH   5   8
ATOM      8  C   UNL     1      19.112  12.854  43.542  1.00  0.00    -0.011 C 
ATOM      9  C   UNL     1      17.914  13.799  43.723  1.00  0.00     0.008 C 
ATOM     10  C   UNL     1      20.429  13.595  43.814  1.00  0.00     0.008 C 
ENDBRANCH   5   8
ENDBRANCH   4   5
ENDBRANCH   1   3
BRANCH   1  11
ATOM     11  C   UNL     1      15.929  13.699  39.171  1.00  0.00     0.002 C 
ATOM     12  C   UNL     1      17.356  13.707  38.646  1.00  0.00     0.005 C 
ATOM     13  C   UNL     1      15.160  12.708  38.242  1.00  0.00    -0.023 C 
ATOM     14  C   UNL     1      17.177  13.677  37.141  1.00  0.00     0.009 C 
ATOM     15  C   UNL     1      15.913  12.829  36.863  1.00  0.00     0.021 C 
ATOM     16  C   UNL     1      13.658  13.110  38.181  1.00  0.00     0.008 C 
ATOM     17  C   UNL     1      15.271  11.240  38.740  1.00  0.00     0.012 C 
ATOM     18  C   UNL     1      15.095  13.354  35.673  1.00  0.00    -0.067 C 
ATOM     19  C   UNL     1      12.988  12.629  36.899  1.00  0.00     0.009 C 
ATOM     20  C   UNL     1      13.565  13.370  35.679  1.00  0.00     0.021 C 
ATOM     21  C   UNL     1      15.736  13.795  34.568  1.00  0.00    -0.027 C 
ATOM     22  C   UNL     1      12.874  13.014  34.274  1.00  0.00    -0.023 C 
ATOM     23  C   UNL     1      14.973  14.125  33.317  1.00  0.00     0.031 C 
ATOM     24  C   UNL     1      13.913  13.036  33.078  1.00  0.00     0.002 C 
ATOM     25  C   UNL     1      12.062  11.669  34.255  1.00  0.00     0.010 C 
ATOM     26  C   UNL     1      11.816  14.123  34.001  1.00  0.00     0.012 C 
ATOM     27  C   UNL     1      14.634  11.682  32.805  1.00  0.00     0.036 C 
ATOM     28  C   UNL     1      12.919  10.418  34.076  1.00  0.00     0.032 C 
ATOM     29  C   UNL     1      13.675  10.500  32.752  1.00  0.00     0.114 C 
BRANCH  29  30
ATOM     30  O   UNL     1      14.411   9.320  32.550  1.00  0.00    -0.393 OA
ATOM     31  H   UNL     1      15.337   9.597  32.322  1.00  0.00     0.210 HD
ENDBRANCH  29  30
ENDBRANCH   1  11
TORSDOF 6
ENDMDL
MODEL 2
REMARK VINA RESULT:    32.950      1.129      1.711
REMARK INTER + INTRA:          46.635
REMARK INTER:                  46.219
REMARK INTRA:                   0.416
REMARK UNBOUND:                 3.090
REMARK SMILES CC[C@H](C=C[C@H](C)[C@H]1CC[C@@H]2C3=CC[C@H]4C[C@@H](O)CC[C@@]4(C)[C@H]3CC[C@@]21C)C(C)C
REMARK SMILES IDX 6 1 7 2 5 3 4 4 3 5 2 6 1 7 28 8 29 9 30 10 8 11 9 12 26 13
REMARK SMILES IDX 10 14 11 15 25 16 27 17 12 18 24 19 23 20 13 21 21 22 14 23
REMARK SMILES IDX 15 24 20 25 22 26 16 27 19 28 17 29 18 30
REMARK H PARENT 18 31
REMARK Flexibility Score: inf
ROOT
ATOM      1  C   UNL     1      14.222  14.077  40.109  1.00  0.00     0.012 C 
ATOM      2  C   UNL     1      13.269  12.913  40.434  1.00  0.00     0.012 C 
ENDROOT
BRANCH   1   3
ATOM      3  C   UNL     1      15.400  14.000  41.058  1.00  0.00    -0.028 C 
ATOM      4  C   UNL     1      16.190  12.917  41.122  1.00  0.00    -0.027 C 
BRANCH   4   5
ATOM      5  C   UNL     1      17.362  12.850  42.085  1.00  0.00     0.014 C 
BRANCH   5   6
ATOM      6  C   UNL     1      18.059  11.468  42.001  1.00  0.00     0.004 C 
ATOM      7  C   UNL     1      17.166  10.406  41.358  1.00  0.00     0.004 C 
ENDBRANCH   5   6
BRANCH   5   8
ATOM      8  C   UNL     1      18.336  14.046  41.846  1.00  0.00    -0.011 C 
ATOM      9  C   UNL     1      18.956  14.047  40.440  1.00  0.00     0.008 C 
ATOM     10  C   UNL     1      19.433  14.125  42.918  1.00  0.00     0.008 C 
ENDBRANCH   5   8
ENDBRANCH   4   5
ENDBRANCH   1   3
BRANCH   1  11
ATOM     11  C   UNL     1      14.736  14.125  38.629  1.00  0.00     0.002 C 
ATOM     12  C   UNL     1      16.245  14.103  38.446  1.00  0.00     0.005 C 
ATOM     13  C   UNL     1      14.190  13.060  37.627  1.00  0.00    -0.023 C 
ATOM     14  C   UNL     1      16.414  13.957  36.946  1.00  0.00     0.009 C 
ATOM     15  C   UNL     1      15.239  13.082  36.451  1.00  0.00     0.021 C 
ATOM     16  C   UNL     1      12.746  13.446  37.194  1.00  0.00     0.008 C 
ATOM     17  C   UNL     1      14.168  11.636  38.247  1.00  0.00     0.012 C 
ATOM     18  C   UNL     1      14.720  13.508  35.070  1.00  0.00    -0.067 C 
ATOM     19  C   UNL     1      12.381  12.864  35.833  1.00  0.00     0.009 C 
ATOM     20  C   UNL     1      13.230  13.513  34.725  1.00  0.00     0.021 C 
ATOM     21  C   UNL     1      15.601  13.869  34.111  1.00  0.00    -0.027 C 
ATOM     22  C   UNL     1      12.874  13.047  33.230  1.00  0.00    -0.023 C 
ATOM     23  C   UNL     1      15.148  14.096  32.697  1.00  0.00     0.031 C 
ATOM     24  C   UNL     1      14.159  12.985  32.305  1.00  0.00     0.002 C 
ATOM     25  C   UNL     1      12.074  11.698  33.128  1.00  0.00     0.010 C 
ATOM     26  C   UNL     1      11.918  14.124  32.639  1.00  0.00     0.012 C 
ATOM     27  C   UNL     1      14.909  11.619  32.308  1.00  0.00     0.036 C 
ATOM     28  C   UNL     1      12.936  10.444  33.245  1.00  0.00     0.032 C 
ATOM     29  C   UNL     1      13.975  10.430  32.126  1.00  0.00     0.114 C 
BRANCH  29  30
ATOM     30  O   UNL     1      14.726   9.244  32.189  1.00  0.00    -0.393 OA
ATOM     31  H   UNL     1      15.475   9.412  32.818  1.00  0.00     0.210 HD
ENDBRANCH  29  30
ENDBRANCH   1  11
TORSDOF 6
ENDMDL
MODEL 3
REMARK VINA RESULT:    33.863      1.589      2.608
REMARK INTER + INTRA:          47.842
REMARK INTER:                  45.338
REMARK INTRA:                   2.504
REMARK UNBOUND:                 3.090
REMARK SMILES CC[C@H](C=C[C@H](C)[C@H]1CC[C@@H]2C3=CC[C@H]4C[C@@H](O)CC[C@@]4(C)[C@H]3CC[C@@]21C)C(C)C
REMARK SMILES IDX 6 1 7 2 5 3 4 4 3 5 2 6 1 7 28 8 29 9 30 10 8 11 9 12 26 13
REMARK SMILES IDX 10 14 11 15 25 16 27 17 12 18 24 19 23 20 13 21 21 22 14 23
REMARK SMILES IDX 15 24 20 25 22 26 16 27 19 28 17 29 18 30
REMARK H PARENT 18 31
REMARK Flexibility Score: inf
ROOT
ATOM      1  C   UNL     1      15.341  11.143  40.463  1.00  0.00     0.012 C 
ATOM      2  C   UNL     1      15.682   9.708  40.025  1.00  0.00     0.012 C 
ENDROOT
BRANCH   1   3
ATOM      3  C   UNL     1      16.612  11.798  40.961  1.00  0.00    -0.028 C 
ATOM      4  C   UNL     1      16.644  12.515  42.095  1.00  0.00    -0.027 C 
BRANCH   4   5
ATOM      5  C   UNL     1      17.923  13.175  42.577  1.00  0.00     0.014 C 
BRANCH   5   6
ATOM      6  C   UNL     1      18.869  12.127  43.218  1.00  0.00     0.004 C 
ATOM      7  C   UNL     1      20.075  12.775  43.901  1.00  0.00     0.004 C 
ENDBRANCH   5   6
BRANCH   5   8
ATOM      8  C   UNL     1      18.592  13.982  41.420  1.00  0.00    -0.011 C 
ATOM      9  C   UNL     1      18.277  13.413  40.027  1.00  0.00     0.008 C 
ATOM     10  C   UNL     1      20.110  14.123  41.613  1.00  0.00     0.008 C 
ENDBRANCH   5   8
ENDBRANCH   4   5
ENDBRANCH   1   3
BRANCH   1  11
ATOM     11  C   UNL     1      14.682  12.039  39.359  1.00  0.00     0.002 C 
ATOM     12  C   UNL     1      14.717  13.538  39.606  1.00  0.00     0.005 C 
ATOM     13  C   UNL     1      15.163  11.859  37.884  1.00  0.00    -0.023 C 
ATOM     14  C   UNL     1      14.201  14.121  38.305  1.00  0.00     0.009 C 
ATOM     15  C   UNL     1      14.695  13.187  37.175  1.00  0.00     0.021 C 
ATOM     16  C   UNL     1      14.536  10.567  37.286  1.00  0.00     0.008 C 
ATOM     17  C   UNL     1      16.710  11.763  37.785  1.00  0.00     0.012 C 
ATOM     18  C   UNL     1      13.674  13.039  36.037  1.00  0.00    -0.067 C 
ATOM     19  C   UNL     1      14.438  10.628  35.766  1.00  0.00     0.009 C 
ATOM     20  C   UNL     1      13.424  11.704  35.335  1.00  0.00     0.021 C 
ATOM     21  C   UNL     1      12.986  14.123  35.616  1.00  0.00    -0.027 C 
ATOM     22  C   UNL     1      13.164  11.803  33.753  1.00  0.00    -0.023 C 
ATOM     23  C   UNL     1      12.134  14.061  34.381  1.00  0.00     0.031 C 
ATOM     24  C   UNL     1      12.896  13.293  33.287  1.00  0.00     0.002 C 
ATOM     25  C   UNL     1      14.278  11.152  32.855  1.00  0.00     0.010 C 
ATOM     26  C   UNL     1      11.879  10.977  33.456  1.00  0.00     0.012 C 
ATOM     27  C   UNL     1      14.169  14.102  32.897  1.00  0.00     0.036 C 
ATOM     28  C   UNL     1      15.509  12.030  32.643  1.00  0.00     0.032 C 
ATOM     29  C   UNL     1      15.097  13.335  31.965  1.00  0.00     0.114 C 
BRANCH  29  30
ATOM     30  O   UNL     1      16.235  14.116  31.705  1.00  0.00    -0.393 OA
ATOM     31  H   UNL     1      16.945  13.494  31.396  1.00  0.00     0.210 HD
ENDBRANCH  29  30
ENDBRANCH   1  11
TORSDOF 6
ENDMDL
