MODEL 1
REMARK VINA RESULT:    -4.249      0.000      0.000
REMARK INTER + INTRA:         -11.208
REMARK INTER:                  -9.217
REMARK INTRA:                  -1.990
REMARK UNBOUND:                -1.990
REMARK SMILES CCCCCCCCCCCCCCCCCCCCCC(=O)[O-]
REMARK SMILES IDX 12 1 11 2 10 3 9 4 8 5 7 6 6 7 5 8 4 9 3 10 2 11 1 12 13 13
REMARK SMILES IDX 14 14 15 15 16 16 17 17 18 18 19 19 20 20 21 21 22 22 23 23
REMARK SMILES IDX 24 24
REMARK H PARENT
REMARK Flexibility Score: inf
ROOT
ATOM      1  C   UNL     1      51.430  33.224   2.457  1.00  0.00     0.000 C 
ENDROOT
BRANCH   1   2
ATOM      2  C   UNL     1      51.259  33.083   3.983  1.00  0.00     0.000 C 
BRANCH   2   3
ATOM      3  C   UNL     1      49.855  33.419   4.516  1.00  0.00     0.000 C 
BRANCH   3   4
ATOM      4  C   UNL     1      49.351  32.405   5.553  1.00  0.00    -0.000 C 
BRANCH   4   5
ATOM      5  C   UNL     1      50.438  32.096   6.594  1.00  0.00    -0.000 C 
BRANCH   5   6
ATOM      6  C   UNL     1      49.944  32.268   8.038  1.00  0.00    -0.000 C 
BRANCH   6   7
ATOM      7  C   UNL     1      49.038  33.500   8.213  1.00  0.00    -0.000 C 
BRANCH   7   8
ATOM      8  C   UNL     1      49.841  34.795   8.427  1.00  0.00    -0.000 C 
BRANCH   8   9
ATOM      9  C   UNL     1      49.615  35.402   9.822  1.00  0.00    -0.000 C 
BRANCH   9  10
ATOM     10  C   UNL     1      50.383  34.660  10.930  1.00  0.00    -0.000 C 
BRANCH  10  11
ATOM     11  C   UNL     1      49.518  34.179  12.110  1.00  0.00    -0.003 C 
ATOM     12  C   UNL     1      48.032  34.096  11.766  1.00  0.00     0.004 C 
ENDBRANCH  10  11
ENDBRANCH   9  10
ENDBRANCH   8   9
ENDBRANCH   7   8
ENDBRANCH   6   7
ENDBRANCH   5   6
ENDBRANCH   4   5
ENDBRANCH   3   4
ENDBRANCH   2   3
ENDBRANCH   1   2
BRANCH   1  13
ATOM     13  C   UNL     1      50.190  33.749   1.707  1.00  0.00     0.000 C 
BRANCH  13  14
ATOM     14  C   UNL     1      50.104  33.334   0.225  1.00  0.00     0.000 C 
BRANCH  14  15
ATOM     15  C   UNL     1      50.767  31.984  -0.115  1.00  0.00     0.000 C 
BRANCH  15  16
ATOM     16  C   UNL     1      52.100  32.083  -0.879  1.00  0.00     0.000 C 
BRANCH  16  17
ATOM     17  C   UNL     1      52.218  33.373  -1.708  1.00  0.00     0.000 C 
BRANCH  17  18
ATOM     18  C   UNL     1      53.286  34.332  -1.157  1.00  0.00     0.000 C 
BRANCH  18  19
ATOM     19  C   UNL     1      54.151  33.688  -0.060  1.00  0.00     0.000 C 
BRANCH  19  20
ATOM     20  C   UNL     1      54.931  34.727   0.767  1.00  0.00     0.006 C 
BRANCH  20  21
ATOM     21  C   UNL     1      54.811  36.167   0.244  1.00  0.00     0.053 C 
BRANCH  21  22
ATOM     22  C   UNL     1      55.731  37.105   0.962  1.00  0.00     0.041 C 
ATOM     23  O   UNL     1      56.016  38.223   0.456  1.00  0.00    -0.550 OA
ATOM     24  O   UNL     1      56.245  36.761   2.206  1.00  0.00    -0.550 OA
ENDBRANCH  21  22
ENDBRANCH  20  21
ENDBRANCH  19  20
ENDBRANCH  18  19
ENDBRANCH  17  18
ENDBRANCH  16  17
ENDBRANCH  15  16
ENDBRANCH  14  15
ENDBRANCH  13  14
ENDBRANCH   1  13
TORSDOF 20
ENDMDL
MODEL 2
REMARK VINA RESULT:    -4.245     12.251     14.590
REMARK INTER + INTRA:         -11.198
REMARK INTER:                  -8.891
REMARK INTRA:                  -2.307
REMARK UNBOUND:                -1.990
REMARK SMILES CCCCCCCCCCCCCCCCCCCCCC(=O)[O-]
REMARK SMILES IDX 12 1 11 2 10 3 9 4 8 5 7 6 6 7 5 8 4 9 3 10 2 11 1 12 13 13
REMARK SMILES IDX 14 14 15 15 16 16 17 17 18 18 19 19 20 20 21 21 22 22 23 23
REMARK SMILES IDX 24 24
REMARK H PARENT
REMARK Flexibility Score: inf
ROOT
ATOM      1  C   UNL     1      46.428  45.486  11.654  1.00  0.00     0.000 C 
ENDROOT
BRANCH   1   2
ATOM      2  C   UNL     1      44.926  45.810  11.781  1.00  0.00     0.000 C 
BRANCH   2   3
ATOM      3  C   UNL     1      44.227  46.188  10.463  1.00  0.00     0.000 C 
BRANCH   3   4
ATOM      4  C   UNL     1      44.996  45.713   9.220  1.00  0.00    -0.000 C 
BRANCH   4   5
ATOM      5  C   UNL     1      44.087  44.893   8.292  1.00  0.00    -0.000 C 
BRANCH   5   6
ATOM      6  C   UNL     1      44.590  43.457   8.084  1.00  0.00    -0.000 C 
BRANCH   6   7
ATOM      7  C   UNL     1      43.699  42.410   8.776  1.00  0.00    -0.000 C 
BRANCH   7   8
ATOM      8  C   UNL     1      44.014  42.269  10.275  1.00  0.00    -0.000 C 
BRANCH   8   9
ATOM      9  C   UNL     1      45.526  42.233  10.557  1.00  0.00    -0.000 C 
BRANCH   9  10
ATOM     10  C   UNL     1      45.872  41.520  11.877  1.00  0.00    -0.000 C 
BRANCH  10  11
ATOM     11  C   UNL     1      45.607  42.345  13.150  1.00  0.00    -0.003 C 
ATOM     12  C   UNL     1      44.384  41.864  13.929  1.00  0.00     0.004 C 
ENDBRANCH  10  11
ENDBRANCH   9  10
ENDBRANCH   8   9
ENDBRANCH   7   8
ENDBRANCH   6   7
ENDBRANCH   5   6
ENDBRANCH   4   5
ENDBRANCH   3   4
ENDBRANCH   2   3
ENDBRANCH   1   2
BRANCH   1  13
ATOM     13  C   UNL     1      47.370  46.460  12.389  1.00  0.00     0.000 C 
BRANCH  13  14
ATOM     14  C   UNL     1      47.891  47.629  11.530  1.00  0.00     0.000 C 
BRANCH  14  15
ATOM     15  C   UNL     1      49.320  48.101  11.865  1.00  0.00     0.000 C 
BRANCH  15  16
ATOM     16  C   UNL     1      50.338  47.973  10.717  1.00  0.00     0.000 C 
BRANCH  16  17
ATOM     17  C   UNL     1      51.571  47.139  11.103  1.00  0.00     0.000 C 
BRANCH  17  18
ATOM     18  C   UNL     1      51.295  46.191  12.282  1.00  0.00     0.000 C 
BRANCH  18  19
ATOM     19  C   UNL     1      52.536  45.966  13.165  1.00  0.00     0.000 C 
BRANCH  19  20
ATOM     20  C   UNL     1      53.849  45.996  12.361  1.00  0.00     0.006 C 
BRANCH  20  21
ATOM     21  C   UNL     1      54.482  44.613  12.139  1.00  0.00     0.053 C 
BRANCH  21  22
ATOM     22  C   UNL     1      54.240  44.098  10.754  1.00  0.00     0.041 C 
ATOM     23  O   UNL     1      54.154  44.901   9.787  1.00  0.00    -0.550 OA
ATOM     24  O   UNL     1      54.146  42.732  10.525  1.00  0.00    -0.550 OA
ENDBRANCH  21  22
ENDBRANCH  20  21
ENDBRANCH  19  20
ENDBRANCH  18  19
ENDBRANCH  17  18
ENDBRANCH  16  17
ENDBRANCH  15  16
ENDBRANCH  14  15
ENDBRANCH  13  14
ENDBRANCH   1  13
TORSDOF 20
ENDMDL
MODEL 3
REMARK VINA RESULT:    -4.236      1.803      3.760
REMARK INTER + INTRA:         -11.179
REMARK INTER:                  -9.290
REMARK INTRA:                  -1.890
REMARK UNBOUND:                -1.990
REMARK SMILES CCCCCCCCCCCCCCCCCCCCCC(=O)[O-]
REMARK SMILES IDX 12 1 11 2 10 3 9 4 8 5 7 6 6 7 5 8 4 9 3 10 2 11 1 12 13 13
REMARK SMILES IDX 14 14 15 15 16 16 17 17 18 18 19 19 20 20 21 21 22 22 23 23
REMARK SMILES IDX 24 24
REMARK H PARENT
REMARK Flexibility Score: inf
ROOT
ATOM      1  C   UNL     1      50.112  33.292  -0.419  1.00  0.00     0.000 C 
ENDROOT
BRANCH   1   2
ATOM      2  C   UNL     1      50.765  31.918  -0.164  1.00  0.00     0.000 C 
BRANCH   2   3
ATOM      3  C   UNL     1      52.085  31.960   0.626  1.00  0.00     0.000 C 
BRANCH   3   4
ATOM      4  C   UNL     1      52.186  33.179   1.556  1.00  0.00    -0.000 C 
BRANCH   4   5
ATOM      5  C   UNL     1      51.594  32.865   2.939  1.00  0.00    -0.000 C 
BRANCH   5   6
ATOM      6  C   UNL     1      50.514  33.871   3.365  1.00  0.00    -0.000 C 
BRANCH   6   7
ATOM      7  C   UNL     1      49.536  33.287   4.400  1.00  0.00    -0.000 C 
BRANCH   7   8
ATOM      8  C   UNL     1      50.244  32.828   5.686  1.00  0.00    -0.000 C 
BRANCH   8   9
ATOM      9  C   UNL     1      49.255  32.349   6.763  1.00  0.00    -0.000 C 
BRANCH   9  10
ATOM     10  C   UNL     1      48.976  33.417   7.836  1.00  0.00    -0.000 C 
BRANCH  10  11
ATOM     11  C   UNL     1      49.983  34.581   7.871  1.00  0.00    -0.003 C 
ATOM     12  C   UNL     1      50.054  35.268   9.234  1.00  0.00     0.004 C 
ENDBRANCH  10  11
ENDBRANCH   9  10
ENDBRANCH   8   9
ENDBRANCH   7   8
ENDBRANCH   6   7
ENDBRANCH   5   6
ENDBRANCH   4   5
ENDBRANCH   3   4
ENDBRANCH   2   3
ENDBRANCH   1   2
BRANCH   1  13
ATOM     13  C   UNL     1      49.906  33.651  -1.903  1.00  0.00     0.000 C 
BRANCH  13  14
ATOM     14  C   UNL     1      51.160  33.498  -2.787  1.00  0.00     0.000 C 
BRANCH  14  15
ATOM     15  C   UNL     1      51.610  34.782  -3.513  1.00  0.00     0.000 C 
BRANCH  15  16
ATOM     16  C   UNL     1      52.639  35.638  -2.753  1.00  0.00     0.000 C 
BRANCH  16  17
ATOM     17  C   UNL     1      53.676  34.791  -1.996  1.00  0.00     0.000 C 
BRANCH  17  18
ATOM     18  C   UNL     1      54.170  35.474  -0.711  1.00  0.00     0.000 C 
BRANCH  18  19
ATOM     19  C   UNL     1      55.549  36.137  -0.884  1.00  0.00     0.000 C 
BRANCH  19  20
ATOM     20  C   UNL     1      55.589  37.575  -0.335  1.00  0.00     0.006 C 
BRANCH  20  21
ATOM     21  C   UNL     1      54.221  38.275  -0.303  1.00  0.00     0.053 C 
BRANCH  21  22
ATOM     22  C   UNL     1      54.326  39.732  -0.635  1.00  0.00     0.041 C 
ATOM     23  O   UNL     1      53.559  40.242  -1.494  1.00  0.00    -0.550 OA
ATOM     24  O   UNL     1      55.247  40.533   0.028  1.00  0.00    -0.550 OA
ENDBRANCH  21  22
ENDBRANCH  20  21
ENDBRANCH  19  20
ENDBRANCH  18  19
ENDBRANCH  17  18
ENDBRANCH  16  17
ENDBRANCH  15  16
ENDBRANCH  14  15
ENDBRANCH  13  14
ENDBRANCH   1  13
TORSDOF 20
ENDMDL
MODEL 4
REMARK VINA RESULT:    -4.198     13.398     16.735
REMARK INTER + INTRA:         -11.098
REMARK INTER:                  -8.474
REMARK INTRA:                  -2.624
REMARK UNBOUND:                -1.990
REMARK SMILES CCCCCCCCCCCCCCCCCCCCCC(=O)[O-]
REMARK SMILES IDX 12 1 11 2 10 3 9 4 8 5 7 6 6 7 5 8 4 9 3 10 2 11 1 12 13 13
REMARK SMILES IDX 14 14 15 15 16 16 17 17 18 18 19 19 20 20 21 21 22 22 23 23
REMARK SMILES IDX 24 24
REMARK H PARENT
REMARK Flexibility Score: inf
ROOT
ATOM      1  C   UNL     1      47.271  45.395  12.590  1.00  0.00     0.000 C 
ENDROOT
BRANCH   1   2
ATOM      2  C   UNL     1      47.844  46.075  13.850  1.00  0.00     0.000 C 
BRANCH   2   3
ATOM      3  C   UNL     1      49.147  46.862  13.630  1.00  0.00     0.000 C 
BRANCH   3   4
ATOM      4  C   UNL     1      48.930  48.383  13.604  1.00  0.00    -0.000 C 
BRANCH   4   5
ATOM      5  C   UNL     1      48.990  48.922  12.166  1.00  0.00    -0.000 C 
BRANCH   5   6
ATOM      6  C   UNL     1      49.493  47.875  11.160  1.00  0.00    -0.000 C 
BRANCH   6   7
ATOM      7  C   UNL     1      50.883  48.217  10.595  1.00  0.00    -0.000 C 
BRANCH   7   8
ATOM      8  C   UNL     1      51.720  46.962  10.293  1.00  0.00    -0.000 C 
BRANCH   8   9
ATOM      9  C   UNL     1      51.939  46.088  11.541  1.00  0.00    -0.000 C 
BRANCH   9  10
ATOM     10  C   UNL     1      53.279  46.370  12.242  1.00  0.00    -0.000 C 
BRANCH  10  11
ATOM     11  C   UNL     1      54.529  46.114  11.381  1.00  0.00    -0.003 C 
ATOM     12  C   UNL     1      54.619  44.678  10.870  1.00  0.00     0.004 C 
ENDBRANCH  10  11
ENDBRANCH   9  10
ENDBRANCH   8   9
ENDBRANCH   7   8
ENDBRANCH   6   7
ENDBRANCH   5   6
ENDBRANCH   4   5
ENDBRANCH   3   4
ENDBRANCH   2   3
ENDBRANCH   1   2
BRANCH   1  13
ATOM     13  C   UNL     1      46.066  46.113  11.951  1.00  0.00     0.000 C 
BRANCH  13  14
ATOM     14  C   UNL     1      45.378  47.154  12.856  1.00  0.00     0.000 C 
BRANCH  14  15
ATOM     15  C   UNL     1      44.979  48.469  12.156  1.00  0.00     0.000 C 
BRANCH  15  16
ATOM     16  C   UNL     1      43.498  48.572  11.750  1.00  0.00     0.000 C 
BRANCH  16  17
ATOM     17  C   UNL     1      43.309  48.918  10.264  1.00  0.00     0.000 C 
BRANCH  17  18
ATOM     18  C   UNL     1      44.230  48.097   9.346  1.00  0.00     0.000 C 
BRANCH  18  19
ATOM     19  C   UNL     1      43.448  47.195   8.375  1.00  0.00     0.000 C 
BRANCH  19  20
ATOM     20  C   UNL     1      43.535  45.704   8.750  1.00  0.00     0.006 C 
BRANCH  20  21
ATOM     21  C   UNL     1      44.955  45.120   8.682  1.00  0.00     0.053 C 
BRANCH  21  22
ATOM     22  C   UNL     1      44.973  43.648   8.956  1.00  0.00     0.041 C 
ATOM     23  O   UNL     1      45.515  43.205  10.004  1.00  0.00    -0.550 OA
ATOM     24  O   UNL     1      44.359  42.768   8.074  1.00  0.00    -0.550 OA
ENDBRANCH  21  22
ENDBRANCH  20  21
ENDBRANCH  19  20
ENDBRANCH  18  19
ENDBRANCH  17  18
ENDBRANCH  16  17
ENDBRANCH  15  16
ENDBRANCH  14  15
ENDBRANCH  13  14
ENDBRANCH   1  13
TORSDOF 20
ENDMDL
MODEL 5
REMARK VINA RESULT:    -4.171     13.823     16.784
REMARK INTER + INTRA:         -11.037
REMARK INTER:                  -8.077
REMARK INTRA:                  -2.960
REMARK UNBOUND:                -1.990
REMARK SMILES CCCCCCCCCCCCCCCCCCCCCC(=O)[O-]
REMARK SMILES IDX 12 1 11 2 10 3 9 4 8 5 7 6 6 7 5 8 4 9 3 10 2 11 1 12 13 13
REMARK SMILES IDX 14 14 15 15 16 16 17 17 18 18 19 19 20 20 21 21 22 22 23 23
REMARK SMILES IDX 24 24
REMARK H PARENT
REMARK Flexibility Score: inf
ROOT
ATOM      1  C   UNL     1      46.415  47.842  12.685  1.00  0.00     0.000 C 
ENDROOT
BRANCH   1   2
ATOM      2  C   UNL     1      46.874  46.429  12.273  1.00  0.00     0.000 C 
BRANCH   2   3
ATOM      3  C   UNL     1      47.913  45.783  13.207  1.00  0.00     0.000 C 
BRANCH   3   4
ATOM      4  C   UNL     1      48.673  46.811  14.059  1.00  0.00    -0.000 C 
BRANCH   4   5
ATOM      5  C   UNL     1      50.114  46.985  13.554  1.00  0.00    -0.000 C 
BRANCH   5   6
ATOM      6  C   UNL     1      50.482  48.455  13.301  1.00  0.00    -0.000 C 
BRANCH   6   7
ATOM      7  C   UNL     1      50.805  48.740  11.823  1.00  0.00    -0.000 C 
BRANCH   7   8
ATOM      8  C   UNL     1      50.501  47.538  10.913  1.00  0.00    -0.000 C 
BRANCH   8   9
ATOM      9  C   UNL     1      51.757  47.007  10.200  1.00  0.00    -0.000 C 
BRANCH   9  10
ATOM     10  C   UNL     1      52.313  45.724  10.842  1.00  0.00    -0.000 C 
BRANCH  10  11
ATOM     11  C   UNL     1      53.848  45.604  10.832  1.00  0.00    -0.003 C 
ATOM     12  C   UNL     1      54.343  44.233  11.288  1.00  0.00     0.004 C 
ENDBRANCH  10  11
ENDBRANCH   9  10
ENDBRANCH   8   9
ENDBRANCH   7   8
ENDBRANCH   6   7
ENDBRANCH   5   6
ENDBRANCH   4   5
ENDBRANCH   3   4
ENDBRANCH   2   3
ENDBRANCH   1   2
BRANCH   1  13
ATOM     13  C   UNL     1      47.037  48.994  11.872  1.00  0.00     0.000 C 
BRANCH  13  14
ATOM     14  C   UNL     1      46.677  48.996  10.373  1.00  0.00     0.000 C 
BRANCH  14  15
ATOM     15  C   UNL     1      45.548  49.967   9.973  1.00  0.00     0.000 C 
BRANCH  15  16
ATOM     16  C   UNL     1      44.131  49.364   9.982  1.00  0.00     0.000 C 
BRANCH  16  17
ATOM     17  C   UNL     1      44.111  47.883   9.566  1.00  0.00     0.000 C 
BRANCH  17  18
ATOM     18  C   UNL     1      43.517  46.973  10.655  1.00  0.00     0.000 C 
BRANCH  18  19
ATOM     19  C   UNL     1      43.784  45.481  10.390  1.00  0.00     0.000 C 
BRANCH  19  20
ATOM     20  C   UNL     1      44.950  45.251   9.410  1.00  0.00     0.006 C 
BRANCH  20  21
ATOM     21  C   UNL     1      44.638  44.252   8.285  1.00  0.00     0.053 C 
BRANCH  21  22
ATOM     22  C   UNL     1      43.288  44.487   7.681  1.00  0.00     0.041 C 
ATOM     23  O   UNL     1      43.071  45.524   6.999  1.00  0.00    -0.550 OA
ATOM     24  O   UNL     1      42.280  43.545   7.839  1.00  0.00    -0.550 OA
ENDBRANCH  21  22
ENDBRANCH  20  21
ENDBRANCH  19  20
ENDBRANCH  18  19
ENDBRANCH  17  18
ENDBRANCH  16  17
ENDBRANCH  15  16
ENDBRANCH  14  15
ENDBRANCH  13  14
ENDBRANCH   1  13
TORSDOF 20
ENDMDL
MODEL 6
REMARK VINA RESULT:    -4.156      4.248     10.549
REMARK INTER + INTRA:         -11.006
REMARK INTER:                  -9.200
REMARK INTRA:                  -1.806
REMARK UNBOUND:                -1.990
REMARK SMILES CCCCCCCCCCCCCCCCCCCCCC(=O)[O-]
REMARK SMILES IDX 12 1 11 2 10 3 9 4 8 5 7 6 6 7 5 8 4 9 3 10 2 11 1 12 13 13
REMARK SMILES IDX 14 14 15 15 16 16 17 17 18 18 19 19 20 20 21 21 22 22 23 23
REMARK SMILES IDX 24 24
REMARK H PARENT
REMARK Flexibility Score: inf
ROOT
ATOM      1  C   UNL     1      49.986  33.319   4.785  1.00  0.00     0.000 C 
ENDROOT
BRANCH   1   2
ATOM      2  C   UNL     1      51.236  32.774   4.066  1.00  0.00     0.000 C 
BRANCH   2   3
ATOM      3  C   UNL     1      51.474  33.338   2.654  1.00  0.00     0.000 C 
BRANCH   3   4
ATOM      4  C   UNL     1      50.189  33.866   1.997  1.00  0.00    -0.000 C 
BRANCH   4   5
ATOM      5  C   UNL     1      50.070  33.369   0.548  1.00  0.00    -0.000 C 
BRANCH   5   6
ATOM      6  C   UNL     1      51.029  32.211   0.236  1.00  0.00    -0.000 C 
BRANCH   6   7
ATOM      7  C   UNL     1      51.580  32.268  -1.200  1.00  0.00    -0.000 C 
BRANCH   7   8
ATOM      8  C   UNL     1      51.886  33.705  -1.656  1.00  0.00    -0.000 C 
BRANCH   8   9
ATOM      9  C   UNL     1      53.334  33.871  -2.149  1.00  0.00    -0.000 C 
BRANCH   9  10
ATOM     10  C   UNL     1      54.170  34.799  -1.250  1.00  0.00    -0.000 C 
BRANCH  10  11
ATOM     11  C   UNL     1      53.903  34.655   0.259  1.00  0.00    -0.003 C 
ATOM     12  C   UNL     1      54.798  33.613   0.928  1.00  0.00     0.004 C 
ENDBRANCH  10  11
ENDBRANCH   9  10
ENDBRANCH   8   9
ENDBRANCH   7   8
ENDBRANCH   6   7
ENDBRANCH   5   6
ENDBRANCH   4   5
ENDBRANCH   3   4
ENDBRANCH   2   3
ENDBRANCH   1   2
BRANCH   1  13
ATOM     13  C   UNL     1      49.450  32.432   5.926  1.00  0.00     0.000 C 
BRANCH  13  14
ATOM     14  C   UNL     1      49.159  33.177   7.244  1.00  0.00     0.000 C 
BRANCH  14  15
ATOM     15  C   UNL     1      49.752  34.597   7.338  1.00  0.00     0.000 C 
BRANCH  15  16
ATOM     16  C   UNL     1      50.128  35.058   8.758  1.00  0.00     0.000 C 
BRANCH  16  17
ATOM     17  C   UNL     1      49.191  34.488   9.837  1.00  0.00     0.000 C 
BRANCH  17  18
ATOM     18  C   UNL     1      48.167  35.521  10.335  1.00  0.00     0.000 C 
BRANCH  18  19
ATOM     19  C   UNL     1      46.900  34.868  10.915  1.00  0.00     0.000 C 
BRANCH  19  20
ATOM     20  C   UNL     1      45.864  35.903  11.392  1.00  0.00     0.006 C 
BRANCH  20  21
ATOM     21  C   UNL     1      44.933  36.419  10.283  1.00  0.00     0.053 C 
BRANCH  21  22
ATOM     22  C   UNL     1      45.162  37.869   9.986  1.00  0.00     0.041 C 
ATOM     23  O   UNL     1      44.544  38.427   9.040  1.00  0.00    -0.550 OA
ATOM     24  O   UNL     1      46.029  38.614  10.775  1.00  0.00    -0.550 OA
ENDBRANCH  21  22
ENDBRANCH  20  21
ENDBRANCH  19  20
ENDBRANCH  18  19
ENDBRANCH  17  18
ENDBRANCH  16  17
ENDBRANCH  15  16
ENDBRANCH  14  15
ENDBRANCH  13  14
ENDBRANCH   1  13
TORSDOF 20
ENDMDL
MODEL 7
REMARK VINA RESULT:    -4.130      1.591      2.269
REMARK INTER + INTRA:         -10.949
REMARK INTER:                  -9.083
REMARK INTRA:                  -1.866
REMARK UNBOUND:                -1.990
REMARK SMILES CCCCCCCCCCCCCCCCCCCCCC(=O)[O-]
REMARK SMILES IDX 12 1 11 2 10 3 9 4 8 5 7 6 6 7 5 8 4 9 3 10 2 11 1 12 13 13
REMARK SMILES IDX 14 14 15 15 16 16 17 17 18 18 19 19 20 20 21 21 22 22 23 23
REMARK SMILES IDX 24 24
REMARK H PARENT
REMARK Flexibility Score: inf
ROOT
ATOM      1  C   UNL     1      51.581  32.871   0.276  1.00  0.00     0.000 C 
ENDROOT
BRANCH   1   2
ATOM      2  C   UNL     1      51.922  33.115   1.760  1.00  0.00     0.000 C 
BRANCH   2   3
ATOM      3  C   UNL     1      50.770  33.684   2.608  1.00  0.00     0.000 C 
BRANCH   3   4
ATOM      4  C   UNL     1      50.919  33.370   4.105  1.00  0.00    -0.000 C 
BRANCH   4   5
ATOM      5  C   UNL     1      49.547  33.336   4.797  1.00  0.00    -0.000 C 
BRANCH   5   6
ATOM      6  C   UNL     1      49.486  32.314   5.943  1.00  0.00    -0.000 C 
BRANCH   6   7
ATOM      7  C   UNL     1      49.950  32.903   7.287  1.00  0.00    -0.000 C 
BRANCH   7   8
ATOM      8  C   UNL     1      49.363  34.300   7.552  1.00  0.00    -0.000 C 
BRANCH   8   9
ATOM      9  C   UNL     1      50.147  35.073   8.627  1.00  0.00    -0.000 C 
BRANCH   9  10
ATOM     10  C   UNL     1      49.502  34.980  10.021  1.00  0.00    -0.000 C 
BRANCH  10  11
ATOM     11  C   UNL     1      48.118  34.307  10.053  1.00  0.00    -0.003 C 
ATOM     12  C   UNL     1      46.980  35.293  10.311  1.00  0.00     0.004 C 
ENDBRANCH  10  11
ENDBRANCH   9  10
ENDBRANCH   8   9
ENDBRANCH   7   8
ENDBRANCH   6   7
ENDBRANCH   5   6
ENDBRANCH   4   5
ENDBRANCH   3   4
ENDBRANCH   2   3
ENDBRANCH   1   2
BRANCH   1  13
ATOM     13  C   UNL     1      50.121  33.169  -0.116  1.00  0.00     0.000 C 
BRANCH  13  14
ATOM     14  C   UNL     1      49.696  32.624  -1.494  1.00  0.00     0.000 C 
BRANCH  14  15
ATOM     15  C   UNL     1      49.548  33.688  -2.601  1.00  0.00     0.000 C 
BRANCH  15  16
ATOM     16  C   UNL     1      50.637  33.657  -3.688  1.00  0.00     0.000 C 
BRANCH  16  17
ATOM     17  C   UNL     1      51.407  34.984  -3.798  1.00  0.00     0.000 C 
BRANCH  17  18
ATOM     18  C   UNL     1      52.385  35.196  -2.630  1.00  0.00     0.000 C 
BRANCH  18  19
ATOM     19  C   UNL     1      53.485  34.121  -2.575  1.00  0.00     0.000 C 
BRANCH  19  20
ATOM     20  C   UNL     1      54.644  34.506  -1.638  1.00  0.00     0.006 C 
BRANCH  20  21
ATOM     21  C   UNL     1      54.216  35.328  -0.412  1.00  0.00     0.053 C 
BRANCH  21  22
ATOM     22  C   UNL     1      55.146  35.138   0.746  1.00  0.00     0.041 C 
ATOM     23  O   UNL     1      55.739  36.128   1.251  1.00  0.00    -0.550 OA
ATOM     24  O   UNL     1      55.330  33.874   1.292  1.00  0.00    -0.550 OA
ENDBRANCH  21  22
ENDBRANCH  20  21
ENDBRANCH  19  20
ENDBRANCH  18  19
ENDBRANCH  17  18
ENDBRANCH  16  17
ENDBRANCH  15  16
ENDBRANCH  14  15
ENDBRANCH  13  14
ENDBRANCH   1  13
TORSDOF 20
ENDMDL
MODEL 8
REMARK VINA RESULT:    -4.114     13.208     16.346
REMARK INTER + INTRA:         -10.914
REMARK INTER:                  -8.032
REMARK INTRA:                  -2.882
REMARK UNBOUND:                -1.990
REMARK SMILES CCCCCCCCCCCCCCCCCCCCCC(=O)[O-]
REMARK SMILES IDX 12 1 11 2 10 3 9 4 8 5 7 6 6 7 5 8 4 9 3 10 2 11 1 12 13 13
REMARK SMILES IDX 14 14 15 15 16 16 17 17 18 18 19 19 20 20 21 21 22 22 23 23
REMARK SMILES IDX 24 24
REMARK H PARENT
REMARK Flexibility Score: inf
ROOT
ATOM      1  C   UNL     1      49.700  49.102  11.129  1.00  0.00     0.000 C 
ENDROOT
BRANCH   1   2
ATOM      2  C   UNL     1      48.931  47.804  11.447  1.00  0.00     0.000 C 
BRANCH   2   3
ATOM      3  C   UNL     1      48.322  47.737  12.859  1.00  0.00     0.000 C 
BRANCH   3   4
ATOM      4  C   UNL     1      48.585  46.395  13.560  1.00  0.00    -0.000 C 
BRANCH   4   5
ATOM      5  C   UNL     1      47.267  45.655  13.840  1.00  0.00    -0.000 C 
BRANCH   5   6
ATOM      6  C   UNL     1      46.783  44.828  12.640  1.00  0.00    -0.000 C 
BRANCH   6   7
ATOM      7  C   UNL     1      45.264  44.583  12.662  1.00  0.00    -0.000 C 
BRANCH   7   8
ATOM      8  C   UNL     1      44.538  45.290  11.505  1.00  0.00    -0.000 C 
BRANCH   8   9
ATOM      9  C   UNL     1      44.003  46.676  11.906  1.00  0.00    -0.000 C 
BRANCH   9  10
ATOM     10  C   UNL     1      44.959  47.819  11.522  1.00  0.00    -0.000 C 
BRANCH  10  11
ATOM     11  C   UNL     1      45.219  47.971  10.013  1.00  0.00    -0.003 C 
ATOM     12  C   UNL     1      43.951  47.834   9.172  1.00  0.00     0.004 C 
ENDBRANCH  10  11
ENDBRANCH   9  10
ENDBRANCH   8   9
ENDBRANCH   7   8
ENDBRANCH   6   7
ENDBRANCH   5   6
ENDBRANCH   4   5
ENDBRANCH   3   4
ENDBRANCH   2   3
ENDBRANCH   1   2
BRANCH   1  13
ATOM     13  C   UNL     1      49.721  50.144  12.265  1.00  0.00     0.000 C 
BRANCH  13  14
ATOM     14  C   UNL     1      51.099  50.358  12.922  1.00  0.00     0.000 C 
BRANCH  14  15
ATOM     15  C   UNL     1      51.445  49.369  14.054  1.00  0.00     0.000 C 
BRANCH  15  16
ATOM     16  C   UNL     1      52.604  48.403  13.747  1.00  0.00     0.000 C 
BRANCH  16  17
ATOM     17  C   UNL     1      52.258  46.938  14.062  1.00  0.00     0.000 C 
BRANCH  17  18
ATOM     18  C   UNL     1      52.024  46.101  12.794  1.00  0.00     0.000 C 
BRANCH  18  19
ATOM     19  C   UNL     1      52.615  46.758  11.534  1.00  0.00     0.000 C 
BRANCH  19  20
ATOM     20  C   UNL     1      54.021  46.230  11.193  1.00  0.00     0.006 C 
BRANCH  20  21
ATOM     21  C   UNL     1      54.026  45.003  10.267  1.00  0.00     0.053 C 
BRANCH  21  22
ATOM     22  C   UNL     1      54.313  43.737  11.013  1.00  0.00     0.041 C 
ATOM     23  O   UNL     1      54.317  42.632  10.407  1.00  0.00    -0.550 OA
ATOM     24  O   UNL     1      54.611  43.779  12.368  1.00  0.00    -0.550 OA
ENDBRANCH  21  22
ENDBRANCH  20  21
ENDBRANCH  19  20
ENDBRANCH  18  19
ENDBRANCH  17  18
ENDBRANCH  16  17
ENDBRANCH  15  16
ENDBRANCH  14  15
ENDBRANCH  13  14
ENDBRANCH   1  13
TORSDOF 20
ENDMDL
MODEL 9
REMARK VINA RESULT:    -4.096      3.893      9.935
REMARK INTER + INTRA:         -10.876
REMARK INTER:                  -8.670
REMARK INTRA:                  -2.206
REMARK UNBOUND:                -1.990
REMARK SMILES CCCCCCCCCCCCCCCCCCCCCC(=O)[O-]
REMARK SMILES IDX 12 1 11 2 10 3 9 4 8 5 7 6 6 7 5 8 4 9 3 10 2 11 1 12 13 13
REMARK SMILES IDX 14 14 15 15 16 16 17 17 18 18 19 19 20 20 21 21 22 22 23 23
REMARK SMILES IDX 24 24
REMARK H PARENT
REMARK Flexibility Score: inf
ROOT
ATOM      1  C   UNL     1      51.491  32.607   0.599  1.00  0.00     0.000 C 
ENDROOT
BRANCH   1   2
ATOM      2  C   UNL     1      50.239  33.204  -0.074  1.00  0.00     0.000 C 
BRANCH   2   3
ATOM      3  C   UNL     1      50.327  33.349  -1.603  1.00  0.00     0.000 C 
BRANCH   3   4
ATOM      4  C   UNL     1      51.659  32.840  -2.177  1.00  0.00    -0.000 C 
BRANCH   4   5
ATOM      5  C   UNL     1      51.929  33.449  -3.561  1.00  0.00    -0.000 C 
BRANCH   5   6
ATOM      6  C   UNL     1      53.133  34.404  -3.566  1.00  0.00    -0.000 C 
BRANCH   6   7
ATOM      7  C   UNL     1      52.879  35.682  -2.747  1.00  0.00    -0.000 C 
BRANCH   7   8
ATOM      8  C   UNL     1      54.019  35.984  -1.760  1.00  0.00    -0.000 C 
BRANCH   8   9
ATOM      9  C   UNL     1      54.016  35.034  -0.549  1.00  0.00    -0.000 C 
BRANCH   9  10
ATOM     10  C   UNL     1      55.275  34.151  -0.479  1.00  0.00    -0.000 C 
BRANCH  10  11
ATOM     11  C   UNL     1      55.004  32.643  -0.337  1.00  0.00    -0.003 C 
ATOM     12  C   UNL     1      55.185  31.878  -1.647  1.00  0.00     0.004 C 
ENDBRANCH  10  11
ENDBRANCH   9  10
ENDBRANCH   8   9
ENDBRANCH   7   8
ENDBRANCH   6   7
ENDBRANCH   5   6
ENDBRANCH   4   5
ENDBRANCH   3   4
ENDBRANCH   2   3
ENDBRANCH   1   2
BRANCH   1  13
ATOM     13  C   UNL     1      51.666  32.966   2.087  1.00  0.00     0.000 C 
BRANCH  13  14
ATOM     14  C   UNL     1      50.497  33.757   2.705  1.00  0.00     0.000 C 
BRANCH  14  15
ATOM     15  C   UNL     1      50.420  33.716   4.245  1.00  0.00     0.000 C 
BRANCH  15  16
ATOM     16  C   UNL     1      50.855  32.387   4.888  1.00  0.00     0.000 C 
BRANCH  16  17
ATOM     17  C   UNL     1      50.515  32.309   6.386  1.00  0.00     0.000 C 
BRANCH  17  18
ATOM     18  C   UNL     1      49.408  33.296   6.791  1.00  0.00     0.000 C 
BRANCH  18  19
ATOM     19  C   UNL     1      49.911  34.391   7.748  1.00  0.00     0.000 C 
BRANCH  19  20
ATOM     20  C   UNL     1      49.115  34.439   9.065  1.00  0.00     0.006 C 
BRANCH  20  21
ATOM     21  C   UNL     1      49.709  35.379  10.126  1.00  0.00     0.053 C 
BRANCH  21  22
ATOM     22  C   UNL     1      48.676  35.852  11.101  1.00  0.00     0.041 C 
ATOM     23  O   UNL     1      47.855  35.037  11.600  1.00  0.00    -0.550 OA
ATOM     24  O   UNL     1      48.641  37.186  11.487  1.00  0.00    -0.550 OA
ENDBRANCH  21  22
ENDBRANCH  20  21
ENDBRANCH  19  20
ENDBRANCH  18  19
ENDBRANCH  17  18
ENDBRANCH  16  17
ENDBRANCH  15  16
ENDBRANCH  14  15
ENDBRANCH  13  14
ENDBRANCH   1  13
TORSDOF 20
ENDMDL
