MODEL 1
REMARK VINA RESULT:    -1.476      0.000      0.000
REMARK INTER + INTRA:          -2.028
REMARK INTER:                  -1.778
REMARK INTRA:                  -0.250
REMARK UNBOUND:                -0.250
REMARK SMILES O=c1c(O)c(-c2ccc(O)c(O)c2)oc2cc(O)cc(O)c12
REMARK SMILES IDX 5 1 3 2 2 3 1 4 22 5 20 6 19 7 17 8 16 9 15 10 14 11 6 12
REMARK SMILES IDX 7 13 8 14 9 15 13 16 11 17 10 18 12 20 4 22 21 24 18 26
REMARK H PARENT 10 19 12 21 4 23 21 25 18 27
REMARK Flexibility Score: inf
ROOT
ATOM      1  C   UNL     1      -0.234  22.039  50.027  1.00  0.00     0.180 A 
ATOM      2  C   UNL     1      -0.160  20.877  49.241  1.00  0.00     0.208 A 
ATOM      3  C   UNL     1      -0.394  20.972  47.860  1.00  0.00     0.238 A 
ATOM      4  O   UNL     1      -0.272  19.938  47.154  1.00  0.00    -0.285 OA
ATOM      5  C   UNL     1      -0.714  22.225  47.284  1.00  0.00     0.111 A 
ATOM      6  C   UNL     1      -1.010  22.431  45.903  1.00  0.00     0.134 A 
ATOM      7  C   UNL     1      -1.185  23.734  45.421  1.00  0.00     0.093 A 
ATOM      8  C   UNL     1      -1.140  24.832  46.279  1.00  0.00     0.123 A 
ATOM      9  C   UNL     1      -0.911  24.637  47.642  1.00  0.00     0.094 A 
ATOM     10  C   UNL     1      -0.697  23.352  48.147  1.00  0.00     0.146 A 
ATOM     11  O   UNL     1      -0.472  23.211  49.448  1.00  0.00    -0.452 OA
ENDROOT
BRANCH   1  12
ATOM     12  C   UNL     1      -0.026  22.015  51.493  1.00  0.00     0.025 A 
ATOM     13  C   UNL     1       1.114  22.628  52.039  1.00  0.00     0.016 A 
ATOM     14  C   UNL     1       1.320  22.635  53.421  1.00  0.00     0.051 A 
ATOM     15  C   UNL     1       0.382  22.043  54.277  1.00  0.00     0.157 A 
ATOM     16  C   UNL     1      -0.974  21.440  52.358  1.00  0.00     0.062 A 
ATOM     17  C   UNL     1      -0.767  21.447  53.746  1.00  0.00     0.158 A 
BRANCH  15  18
ATOM     18  O   UNL     1       0.585  22.045  55.656  1.00  0.00    -0.504 OA
ATOM     19  H   UNL     1      -0.145  22.330  56.299  1.00  0.00     0.293 HD
ENDBRANCH  15  18
BRANCH  17  20
ATOM     20  O   UNL     1      -1.705  20.871  54.600  1.00  0.00    -0.504 OA
ATOM     21  H   UNL     1      -1.815  21.184  55.558  1.00  0.00     0.293 HD
ENDBRANCH  17  20
ENDBRANCH   1  12
BRANCH   2  22
ATOM     22  O   UNL     1       0.180  19.654  49.826  1.00  0.00    -0.502 OA
ATOM     23  H   UNL     1       0.847  19.017  49.408  1.00  0.00     0.293 HD
ENDBRANCH   2  22
BRANCH   6  24
ATOM     24  O   UNL     1      -1.167  21.396  44.977  1.00  0.00    -0.507 OA
ATOM     25  H   UNL     1      -2.045  21.127  44.559  1.00  0.00     0.293 HD
ENDBRANCH   6  24
BRANCH   8  26
ATOM     26  O   UNL     1      -1.335  26.113  45.768  1.00  0.00    -0.508 OA
ATOM     27  H   UNL     1      -1.745  26.261  44.853  1.00  0.00     0.293 HD
ENDBRANCH   8  26
TORSDOF 6
ENDMDL
MODEL 2
REMARK VINA RESULT:    -1.340      1.350      1.572
REMARK INTER + INTRA:          -1.864
REMARK INTER:                  -1.567
REMARK INTRA:                  -0.297
REMARK UNBOUND:                -0.250
REMARK SMILES O=c1c(O)c(-c2ccc(O)c(O)c2)oc2cc(O)cc(O)c12
REMARK SMILES IDX 5 1 3 2 2 3 1 4 22 5 20 6 19 7 17 8 16 9 15 10 14 11 6 12
REMARK SMILES IDX 7 13 8 14 9 15 13 16 11 17 10 18 12 20 4 22 21 24 18 26
REMARK H PARENT 10 19 12 21 4 23 21 25 18 27
REMARK Flexibility Score: inf
ROOT
ATOM      1  C   UNL     1       0.240  21.219  50.029  1.00  0.00     0.180 A 
ATOM      2  C   UNL     1       0.999  20.176  49.470  1.00  0.00     0.208 A 
ATOM      3  C   UNL     1       0.924  19.944  48.088  1.00  0.00     0.238 A 
ATOM      4  O   UNL     1       1.647  19.044  47.587  1.00  0.00    -0.285 OA
ATOM      5  C   UNL     1       0.081  20.747  47.283  1.00  0.00     0.111 A 
ATOM      6  C   UNL     1      -0.102  20.575  45.878  1.00  0.00     0.134 A 
ATOM      7  C   UNL     1      -0.860  21.510  45.161  1.00  0.00     0.093 A 
ATOM      8  C   UNL     1      -1.493  22.571  45.807  1.00  0.00     0.123 A 
ATOM      9  C   UNL     1      -1.370  22.715  47.189  1.00  0.00     0.094 A 
ATOM     10  C   UNL     1      -0.591  21.819  47.927  1.00  0.00     0.146 A 
ATOM     11  O   UNL     1      -0.491  21.997  49.239  1.00  0.00    -0.452 OA
ENDROOT
BRANCH   1  12
ATOM     12  C   UNL     1       0.246  21.508  51.481  1.00  0.00     0.025 A 
ATOM     13  C   UNL     1       1.282  22.284  52.027  1.00  0.00     0.016 A 
ATOM     14  C   UNL     1       1.296  22.587  53.391  1.00  0.00     0.051 A 
ATOM     15  C   UNL     1       0.268  22.132  54.226  1.00  0.00     0.157 A 
ATOM     16  C   UNL     1      -0.795  21.071  52.320  1.00  0.00     0.062 A 
ATOM     17  C   UNL     1      -0.781  21.376  53.689  1.00  0.00     0.158 A 
BRANCH  15  18
ATOM     18  O   UNL     1       0.279  22.430  55.587  1.00  0.00    -0.504 OA
ATOM     19  H   UNL     1       0.795  23.222  55.952  1.00  0.00     0.293 HD
ENDBRANCH  15  18
BRANCH  17  20
ATOM     20  O   UNL     1      -1.810  20.936  54.519  1.00  0.00    -0.504 OA
ATOM     21  H   UNL     1      -1.639  20.290  55.281  1.00  0.00     0.293 HD
ENDBRANCH  17  20
ENDBRANCH   1  12
BRANCH   2  22
ATOM     22  O   UNL     1       1.842  19.409  50.280  1.00  0.00    -0.502 OA
ATOM     23  H   UNL     1       2.427  19.818  50.998  1.00  0.00     0.293 HD
ENDBRANCH   2  22
BRANCH   6  24
ATOM     24  O   UNL     1       0.411  19.498  45.151  1.00  0.00    -0.507 OA
ATOM     25  H   UNL     1      -0.100  18.981  44.451  1.00  0.00     0.293 HD
ENDBRANCH   6  24
BRANCH   8  26
ATOM     26  O   UNL     1      -2.252  23.473  45.064  1.00  0.00    -0.508 OA
ATOM     27  H   UNL     1      -2.552  24.359  45.453  1.00  0.00     0.293 HD
ENDBRANCH   8  26
TORSDOF 6
ENDMDL
MODEL 3
REMARK VINA RESULT:     0.325      1.921      7.253
REMARK INTER + INTRA:           0.142
REMARK INTER:                  -0.389
REMARK INTRA:                   0.531
REMARK UNBOUND:                -0.250
REMARK SMILES O=c1c(O)c(-c2ccc(O)c(O)c2)oc2cc(O)cc(O)c12
REMARK SMILES IDX 5 1 3 2 2 3 1 4 22 5 20 6 19 7 17 8 16 9 15 10 14 11 6 12
REMARK SMILES IDX 7 13 8 14 9 15 13 16 11 17 10 18 12 20 4 22 21 24 18 26
REMARK H PARENT 10 19 12 21 4 23 21 25 18 27
REMARK Flexibility Score: inf
ROOT
ATOM      1  C   UNL     1       0.046  24.250  49.140  1.00  0.00     0.180 A 
ATOM      2  C   UNL     1       1.061  24.927  49.837  1.00  0.00     0.208 A 
ATOM      3  C   UNL     1       1.369  24.530  51.147  1.00  0.00     0.238 A 
ATOM      4  O   UNL     1       2.315  25.105  51.746  1.00  0.00    -0.285 OA
ATOM      5  C   UNL     1       0.649  23.471  51.751  1.00  0.00     0.111 A 
ATOM      6  C   UNL     1       0.851  23.012  53.087  1.00  0.00     0.134 A 
ATOM      7  C   UNL     1       0.172  21.871  53.535  1.00  0.00     0.093 A 
ATOM      8  C   UNL     1      -0.747  21.213  52.720  1.00  0.00     0.123 A 
ATOM      9  C   UNL     1      -0.996  21.689  51.432  1.00  0.00     0.094 A 
ATOM     10  C   UNL     1      -0.308  22.803  50.943  1.00  0.00     0.146 A 
ATOM     11  O   UNL     1      -0.567  23.217  49.709  1.00  0.00    -0.452 OA
ENDROOT
BRANCH   1  12
ATOM     12  C   UNL     1      -0.354  24.627  47.765  1.00  0.00     0.025 A 
ATOM     13  C   UNL     1       0.219  25.760  47.165  1.00  0.00     0.016 A 
ATOM     14  C   UNL     1      -0.127  26.122  45.860  1.00  0.00     0.051 A 
ATOM     15  C   UNL     1      -1.041  25.348  45.132  1.00  0.00     0.157 A 
ATOM     16  C   UNL     1      -1.254  23.841  47.022  1.00  0.00     0.062 A 
ATOM     17  C   UNL     1      -1.602  24.204  45.713  1.00  0.00     0.158 A 
BRANCH  15  18
ATOM     18  O   UNL     1      -1.391  25.707  43.832  1.00  0.00    -0.504 OA
ATOM     19  H   UNL     1      -0.764  26.241  43.242  1.00  0.00     0.293 HD
ENDBRANCH  15  18
BRANCH  17  20
ATOM     20  O   UNL     1      -2.500  23.429  44.982  1.00  0.00    -0.504 OA
ATOM     21  H   UNL     1      -3.502  23.532  45.091  1.00  0.00     0.293 HD
ENDBRANCH  17  20
ENDBRANCH   1  12
BRANCH   2  22
ATOM     22  O   UNL     1       1.774  25.956  49.215  1.00  0.00    -0.502 OA
ATOM     23  H   UNL     1       1.454  26.403  48.364  1.00  0.00     0.293 HD
ENDBRANCH   2  22
BRANCH   6  24
ATOM     24  O   UNL     1       1.679  23.651  54.015  1.00  0.00    -0.507 OA
ATOM     25  H   UNL     1       1.530  23.653  55.012  1.00  0.00     0.293 HD
ENDBRANCH   6  24
BRANCH   8  26
ATOM     26  O   UNL     1      -1.416  20.091  53.204  1.00  0.00    -0.508 OA
ATOM     27  H   UNL     1      -2.198  20.176  53.843  1.00  0.00     0.293 HD
ENDBRANCH   8  26
TORSDOF 6
ENDMDL
MODEL 4
REMARK VINA RESULT:     1.357      1.522      7.264
REMARK INTER + INTRA:           1.385
REMARK INTER:                   1.266
REMARK INTRA:                   0.118
REMARK UNBOUND:                -0.250
REMARK SMILES O=c1c(O)c(-c2ccc(O)c(O)c2)oc2cc(O)cc(O)c12
REMARK SMILES IDX 5 1 3 2 2 3 1 4 22 5 20 6 19 7 17 8 16 9 15 10 14 11 6 12
REMARK SMILES IDX 7 13 8 14 9 15 13 16 11 17 10 18 12 20 4 22 21 24 18 26
REMARK H PARENT 10 19 12 21 4 23 21 25 18 27
REMARK Flexibility Score: inf
ROOT
ATOM      1  C   UNL     1      -0.152  23.224  49.778  1.00  0.00     0.180 A 
ATOM      2  C   UNL     1       0.835  24.017  50.388  1.00  0.00     0.208 A 
ATOM      3  C   UNL     1       1.144  23.800  51.740  1.00  0.00     0.238 A 
ATOM      4  O   UNL     1       2.066  24.476  52.265  1.00  0.00    -0.285 OA
ATOM      5  C   UNL     1       0.452  22.804  52.470  1.00  0.00     0.111 A 
ATOM      6  C   UNL     1       0.656  22.525  53.855  1.00  0.00     0.134 A 
ATOM      7  C   UNL     1       0.009  21.429  54.441  1.00  0.00     0.093 A 
ATOM      8  C   UNL     1      -0.881  20.644  53.712  1.00  0.00     0.123 A 
ATOM      9  C   UNL     1      -1.133  20.943  52.373  1.00  0.00     0.094 A 
ATOM     10  C   UNL     1      -0.476  22.007  51.750  1.00  0.00     0.146 A 
ATOM     11  O   UNL     1      -0.737  22.253  50.471  1.00  0.00    -0.452 OA
ENDROOT
BRANCH   1  12
ATOM     12  C   UNL     1      -0.551  23.410  48.364  1.00  0.00     0.025 A 
ATOM     13  C   UNL     1      -0.874  22.288  47.584  1.00  0.00     0.016 A 
ATOM     14  C   UNL     1      -1.273  22.442  46.254  1.00  0.00     0.051 A 
ATOM     15  C   UNL     1      -1.370  23.721  45.690  1.00  0.00     0.157 A 
ATOM     16  C   UNL     1      -0.670  24.693  47.799  1.00  0.00     0.062 A 
ATOM     17  C   UNL     1      -1.071  24.848  46.464  1.00  0.00     0.158 A 
BRANCH  15  18
ATOM     18  O   UNL     1      -1.765  23.879  44.363  1.00  0.00    -0.504 OA
ATOM     19  H   UNL     1      -1.757  23.103  43.711  1.00  0.00     0.293 HD
ENDBRANCH  15  18
BRANCH  17  20
ATOM     20  O   UNL     1      -1.181  26.119  45.905  1.00  0.00    -0.504 OA
ATOM     21  H   UNL     1      -0.769  26.342  45.006  1.00  0.00     0.293 HD
ENDBRANCH  17  20
ENDBRANCH   1  12
BRANCH   2  22
ATOM     22  O   UNL     1       1.521  24.980  49.643  1.00  0.00    -0.502 OA
ATOM     23  H   UNL     1       2.273  24.743  49.007  1.00  0.00     0.293 HD
ENDBRANCH   2  22
BRANCH   6  24
ATOM     24  O   UNL     1       1.455  23.303  54.698  1.00  0.00    -0.507 OA
ATOM     25  H   UNL     1       2.462  23.343  54.660  1.00  0.00     0.293 HD
ENDBRANCH   6  24
BRANCH   8  26
ATOM     26  O   UNL     1      -1.519  19.571  54.332  1.00  0.00    -0.508 OA
ATOM     27  H   UNL     1      -2.173  18.982  53.830  1.00  0.00     0.293 HD
ENDBRANCH   8  26
TORSDOF 6
ENDMDL
