MODEL 1
REMARK VINA RESULT:    -9.196      0.000      0.000
REMARK INTER + INTRA:         -11.073
REMARK INTER:                 -10.808
REMARK INTRA:                  -0.265
REMARK UNBOUND:                -0.265
REMARK SMILES O=c1cc(-c2ccc(O)c(O)c2)oc2cc(O)cc(O)c12
REMARK SMILES IDX 4 1 3 2 2 3 1 4 21 5 19 6 18 7 16 8 15 9 14 10 13 11 5 12
REMARK SMILES IDX 6 13 7 14 8 15 12 16 10 17 9 18 11 20 20 22 17 24
REMARK H PARENT 9 19 11 21 20 23 17 25
REMARK Flexibility Score: inf
ROOT
ATOM      1  C   UNL     1     -32.587  16.139  57.167  1.00  0.00     0.138 A 
ATOM      2  C   UNL     1     -33.284  16.157  55.951  1.00  0.00     0.100 A 
ATOM      3  C   UNL     1     -34.469  15.431  55.823  1.00  0.00     0.197 A 
ATOM      4  O   UNL     1     -35.042  15.423  54.703  1.00  0.00    -0.289 OA
ATOM      5  C   UNL     1     -34.977  14.711  56.931  1.00  0.00     0.107 A 
ATOM      6  C   UNL     1     -36.193  13.962  56.928  1.00  0.00     0.134 A 
ATOM      7  C   UNL     1     -36.542  13.209  58.056  1.00  0.00     0.093 A 
ATOM      8  C   UNL     1     -35.752  13.223  59.206  1.00  0.00     0.123 A 
ATOM      9  C   UNL     1     -34.587  13.991  59.238  1.00  0.00     0.094 A 
ATOM     10  C   UNL     1     -34.194  14.726  58.117  1.00  0.00     0.146 A 
ATOM     11  O   UNL     1     -33.068  15.430  58.182  1.00  0.00    -0.456 OA
ENDROOT
BRANCH   1  12
ATOM     12  C   UNL     1     -31.324  16.895  57.360  1.00  0.00     0.021 A 
ATOM     13  C   UNL     1     -31.380  18.248  57.740  1.00  0.00     0.016 A 
ATOM     14  C   UNL     1     -30.207  18.980  57.935  1.00  0.00     0.051 A 
ATOM     15  C   UNL     1     -28.958  18.371  57.763  1.00  0.00     0.157 A 
ATOM     16  C   UNL     1     -30.063  16.286  57.201  1.00  0.00     0.062 A 
ATOM     17  C   UNL     1     -28.886  17.022  57.399  1.00  0.00     0.158 A 
BRANCH  15  18
ATOM     18  O   UNL     1     -27.785  19.099  57.956  1.00  0.00    -0.504 OA
ATOM     19  H   UNL     1     -27.787  19.989  58.442  1.00  0.00     0.293 HD
ENDBRANCH  15  18
BRANCH  17  20
ATOM     20  O   UNL     1     -27.641  16.417  57.240  1.00  0.00    -0.504 OA
ATOM     21  H   UNL     1     -27.314  16.105  56.332  1.00  0.00     0.293 HD
ENDBRANCH  17  20
ENDBRANCH   1  12
BRANCH   6  22
ATOM     22  O   UNL     1     -37.097  13.941  55.862  1.00  0.00    -0.507 OA
ATOM     23  H   UNL     1     -37.125  14.613  55.112  1.00  0.00     0.293 HD
ENDBRANCH   6  22
BRANCH   8  24
ATOM     24  O   UNL     1     -36.139  12.474  60.315  1.00  0.00    -0.508 OA
ATOM     25  H   UNL     1     -35.472  11.925  60.844  1.00  0.00     0.293 HD
ENDBRANCH   8  24
TORSDOF 5
ENDMDL
MODEL 2
REMARK VINA RESULT:    -9.145      1.700      7.489
REMARK INTER + INTRA:         -11.014
REMARK INTER:                 -10.750
REMARK INTRA:                  -0.264
REMARK UNBOUND:                -0.265
REMARK SMILES O=c1cc(-c2ccc(O)c(O)c2)oc2cc(O)cc(O)c12
REMARK SMILES IDX 4 1 3 2 2 3 1 4 21 5 19 6 18 7 16 8 15 9 14 10 13 11 5 12
REMARK SMILES IDX 6 13 7 14 8 15 12 16 10 17 9 18 11 20 20 22 17 24
REMARK H PARENT 9 19 11 21 20 23 17 25
REMARK Flexibility Score: inf
ROOT
ATOM      1  C   UNL     1     -31.249  16.902  57.355  1.00  0.00     0.138 A 
ATOM      2  C   UNL     1     -29.956  16.396  57.169  1.00  0.00     0.100 A 
ATOM      3  C   UNL     1     -28.862  17.261  57.219  1.00  0.00     0.197 A 
ATOM      4  O   UNL     1     -27.719  16.786  56.993  1.00  0.00    -0.289 OA
ATOM      5  C   UNL     1     -29.062  18.635  57.492  1.00  0.00     0.107 A 
ATOM      6  C   UNL     1     -28.020  19.606  57.600  1.00  0.00     0.134 A 
ATOM      7  C   UNL     1     -28.350  20.955  57.776  1.00  0.00     0.093 A 
ATOM      8  C   UNL     1     -29.678  21.363  57.904  1.00  0.00     0.123 A 
ATOM      9  C   UNL     1     -30.702  20.417  57.851  1.00  0.00     0.094 A 
ATOM     10  C   UNL     1     -30.408  19.068  57.642  1.00  0.00     0.146 A 
ATOM     11  O   UNL     1     -31.414  18.201  57.579  1.00  0.00    -0.456 OA
ENDROOT
BRANCH   1  12
ATOM     12  C   UNL     1     -32.448  16.027  57.316  1.00  0.00     0.021 A 
ATOM     13  C   UNL     1     -33.312  16.088  56.209  1.00  0.00     0.016 A 
ATOM     14  C   UNL     1     -34.443  15.270  56.144  1.00  0.00     0.051 A 
ATOM     15  C   UNL     1     -34.724  14.371  57.180  1.00  0.00     0.157 A 
ATOM     16  C   UNL     1     -32.731  15.110  58.349  1.00  0.00     0.062 A 
ATOM     17  C   UNL     1     -33.866  14.289  58.282  1.00  0.00     0.158 A 
BRANCH  15  18
ATOM     18  O   UNL     1     -35.852  13.555  57.119  1.00  0.00    -0.504 OA
ATOM     19  H   UNL     1     -35.976  12.876  56.377  1.00  0.00     0.293 HD
ENDBRANCH  15  18
BRANCH  17  20
ATOM     20  O   UNL     1     -34.144  13.385  59.306  1.00  0.00    -0.504 OA
ATOM     21  H   UNL     1     -33.525  12.609  59.511  1.00  0.00     0.293 HD
ENDBRANCH  17  20
ENDBRANCH   1  12
BRANCH   6  22
ATOM     22  O   UNL     1     -26.658  19.298  57.565  1.00  0.00    -0.507 OA
ATOM     23  H   UNL     1     -26.002  19.642  56.881  1.00  0.00     0.293 HD
ENDBRANCH   6  22
BRANCH   8  24
ATOM     24  O   UNL     1     -29.967  22.713  58.094  1.00  0.00    -0.508 OA
ATOM     25  H   UNL     1     -30.796  23.012  58.595  1.00  0.00     0.293 HD
ENDBRANCH   8  24
TORSDOF 5
ENDMDL
MODEL 3
REMARK VINA RESULT:    -9.129      1.625      7.543
REMARK INTER + INTRA:         -10.995
REMARK INTER:                 -10.723
REMARK INTRA:                  -0.272
REMARK UNBOUND:                -0.265
REMARK SMILES O=c1cc(-c2ccc(O)c(O)c2)oc2cc(O)cc(O)c12
REMARK SMILES IDX 4 1 3 2 2 3 1 4 21 5 19 6 18 7 16 8 15 9 14 10 13 11 5 12
REMARK SMILES IDX 6 13 7 14 8 15 12 16 10 17 9 18 11 20 20 22 17 24
REMARK H PARENT 9 19 11 21 20 23 17 25
REMARK Flexibility Score: inf
ROOT
ATOM      1  C   UNL     1     -31.237  16.874  57.328  1.00  0.00     0.138 A 
ATOM      2  C   UNL     1     -29.945  16.365  57.145  1.00  0.00     0.100 A 
ATOM      3  C   UNL     1     -28.848  17.227  57.200  1.00  0.00     0.197 A 
ATOM      4  O   UNL     1     -27.706  16.749  56.977  1.00  0.00    -0.289 OA
ATOM      5  C   UNL     1     -29.046  18.601  57.476  1.00  0.00     0.107 A 
ATOM      6  C   UNL     1     -28.002  19.569  57.589  1.00  0.00     0.134 A 
ATOM      7  C   UNL     1     -28.328  20.918  57.767  1.00  0.00     0.093 A 
ATOM      8  C   UNL     1     -29.655  21.330  57.892  1.00  0.00     0.123 A 
ATOM      9  C   UNL     1     -30.682  20.387  57.833  1.00  0.00     0.094 A 
ATOM     10  C   UNL     1     -30.391  19.037  57.622  1.00  0.00     0.146 A 
ATOM     11  O   UNL     1     -31.399  18.173  57.554  1.00  0.00    -0.456 OA
ENDROOT
BRANCH   1  12
ATOM     12  C   UNL     1     -32.439  16.003  57.283  1.00  0.00     0.021 A 
ATOM     13  C   UNL     1     -32.630  15.038  58.288  1.00  0.00     0.016 A 
ATOM     14  C   UNL     1     -33.755  14.210  58.273  1.00  0.00     0.051 A 
ATOM     15  C   UNL     1     -34.713  14.339  57.260  1.00  0.00     0.157 A 
ATOM     16  C   UNL     1     -33.413  16.135  56.274  1.00  0.00     0.062 A 
ATOM     17  C   UNL     1     -34.543  15.305  56.261  1.00  0.00     0.158 A 
BRANCH  15  18
ATOM     18  O   UNL     1     -35.836  13.514  57.241  1.00  0.00    -0.504 OA
ATOM     19  H   UNL     1     -36.774  13.895  57.291  1.00  0.00     0.293 HD
ENDBRANCH  15  18
BRANCH  17  20
ATOM     20  O   UNL     1     -35.505  15.437  55.261  1.00  0.00    -0.504 OA
ATOM     21  H   UNL     1     -36.416  15.838  55.450  1.00  0.00     0.293 HD
ENDBRANCH  17  20
ENDBRANCH   1  12
BRANCH   6  22
ATOM     22  O   UNL     1     -26.640  19.257  57.558  1.00  0.00    -0.507 OA
ATOM     23  H   UNL     1     -25.935  19.784  57.067  1.00  0.00     0.293 HD
ENDBRANCH   6  22
BRANCH   8  24
ATOM     24  O   UNL     1     -29.941  22.680  58.084  1.00  0.00    -0.508 OA
ATOM     25  H   UNL     1     -29.492  23.401  57.531  1.00  0.00     0.293 HD
ENDBRANCH   8  24
TORSDOF 5
ENDMDL
MODEL 4
REMARK VINA RESULT:    -8.924      2.412      7.660
REMARK INTER + INTRA:         -10.754
REMARK INTER:                 -10.458
REMARK INTRA:                  -0.296
REMARK UNBOUND:                -0.265
REMARK SMILES O=c1cc(-c2ccc(O)c(O)c2)oc2cc(O)cc(O)c12
REMARK SMILES IDX 4 1 3 2 2 3 1 4 21 5 19 6 18 7 16 8 15 9 14 10 13 11 5 12
REMARK SMILES IDX 6 13 7 14 8 15 12 16 10 17 9 18 11 20 20 22 17 24
REMARK H PARENT 9 19 11 21 20 23 17 25
REMARK Flexibility Score: inf
ROOT
ATOM      1  C   UNL     1     -31.179  17.028  57.064  1.00  0.00     0.138 A 
ATOM      2  C   UNL     1     -31.143  17.899  58.161  1.00  0.00     0.100 A 
ATOM      3  C   UNL     1     -30.349  19.045  58.107  1.00  0.00     0.197 A 
ATOM      4  O   UNL     1     -30.294  19.778  59.128  1.00  0.00    -0.289 OA
ATOM      5  C   UNL     1     -29.615  19.339  56.932  1.00  0.00     0.107 A 
ATOM      6  C   UNL     1     -28.798  20.496  56.749  1.00  0.00     0.134 A 
ATOM      7  C   UNL     1     -28.042  20.627  55.578  1.00  0.00     0.093 A 
ATOM      8  C   UNL     1     -28.115  19.676  54.560  1.00  0.00     0.123 A 
ATOM      9  C   UNL     1     -28.949  18.566  54.707  1.00  0.00     0.094 A 
ATOM     10  C   UNL     1     -29.690  18.389  55.877  1.00  0.00     0.146 A 
ATOM     11  O   UNL     1     -30.458  17.309  55.985  1.00  0.00    -0.456 OA
ENDROOT
BRANCH   1  12
ATOM     12  C   UNL     1     -32.009  15.796  57.067  1.00  0.00     0.021 A 
ATOM     13  C   UNL     1     -32.160  15.063  55.877  1.00  0.00     0.016 A 
ATOM     14  C   UNL     1     -32.929  13.896  55.853  1.00  0.00     0.051 A 
ATOM     15  C   UNL     1     -33.552  13.439  57.021  1.00  0.00     0.157 A 
ATOM     16  C   UNL     1     -32.629  15.322  58.240  1.00  0.00     0.062 A 
ATOM     17  C   UNL     1     -33.399  14.150  58.216  1.00  0.00     0.158 A 
BRANCH  15  18
ATOM     18  O   UNL     1     -34.321  12.277  57.001  1.00  0.00    -0.504 OA
ATOM     19  H   UNL     1     -34.755  11.943  56.148  1.00  0.00     0.293 HD
ENDBRANCH  15  18
BRANCH  17  20
ATOM     20  O   UNL     1     -34.012  13.685  59.378  1.00  0.00    -0.504 OA
ATOM     21  H   UNL     1     -33.962  12.710  59.650  1.00  0.00     0.293 HD
ENDBRANCH  17  20
ENDBRANCH   1  12
BRANCH   6  22
ATOM     22  O   UNL     1     -28.712  21.546  57.666  1.00  0.00    -0.507 OA
ATOM     23  H   UNL     1     -29.474  21.888  58.229  1.00  0.00     0.293 HD
ENDBRANCH   6  22
BRANCH   8  24
ATOM     24  O   UNL     1     -27.360  19.849  53.402  1.00  0.00    -0.508 OA
ATOM     25  H   UNL     1     -27.190  20.768  53.012  1.00  0.00     0.293 HD
ENDBRANCH   8  24
TORSDOF 5
ENDMDL
MODEL 5
REMARK VINA RESULT:    -8.845      1.892      7.398
REMARK INTER + INTRA:         -10.661
REMARK INTER:                 -10.365
REMARK INTRA:                  -0.297
REMARK UNBOUND:                -0.265
REMARK SMILES O=c1cc(-c2ccc(O)c(O)c2)oc2cc(O)cc(O)c12
REMARK SMILES IDX 4 1 3 2 2 3 1 4 21 5 19 6 18 7 16 8 15 9 14 10 13 11 5 12
REMARK SMILES IDX 6 13 7 14 8 15 12 16 10 17 9 18 11 20 20 22 17 24
REMARK H PARENT 9 19 11 21 20 23 17 25
REMARK Flexibility Score: inf
ROOT
ATOM      1  C   UNL     1     -31.136  16.970  56.851  1.00  0.00     0.138 A 
ATOM      2  C   UNL     1     -31.051  17.851  55.765  1.00  0.00     0.100 A 
ATOM      3  C   UNL     1     -29.944  18.691  55.642  1.00  0.00     0.197 A 
ATOM      4  O   UNL     1     -29.923  19.509  54.686  1.00  0.00    -0.289 OA
ATOM      5  C   UNL     1     -28.898  18.623  56.594  1.00  0.00     0.107 A 
ATOM      6  C   UNL     1     -27.705  19.406  56.552  1.00  0.00     0.134 A 
ATOM      7  C   UNL     1     -26.787  19.321  57.606  1.00  0.00     0.093 A 
ATOM      8  C   UNL     1     -26.988  18.441  58.670  1.00  0.00     0.123 A 
ATOM      9  C   UNL     1     -28.126  17.634  58.696  1.00  0.00     0.094 A 
ATOM     10  C   UNL     1     -29.078  17.720  57.677  1.00  0.00     0.146 A 
ATOM     11  O   UNL     1     -30.157  16.947  57.749  1.00  0.00    -0.456 OA
ENDROOT
BRANCH   1  12
ATOM     12  C   UNL     1     -32.290  16.052  57.030  1.00  0.00     0.021 A 
ATOM     13  C   UNL     1     -32.269  15.113  58.076  1.00  0.00     0.016 A 
ATOM     14  C   UNL     1     -33.344  14.242  58.270  1.00  0.00     0.051 A 
ATOM     15  C   UNL     1     -34.462  14.302  57.430  1.00  0.00     0.157 A 
ATOM     16  C   UNL     1     -33.423  16.115  56.196  1.00  0.00     0.062 A 
ATOM     17  C   UNL     1     -34.503  15.242  56.393  1.00  0.00     0.158 A 
BRANCH  15  18
ATOM     18  O   UNL     1     -35.536  13.435  57.620  1.00  0.00    -0.504 OA
ATOM     19  H   UNL     1     -35.865  13.194  58.548  1.00  0.00     0.293 HD
ENDBRANCH  15  18
BRANCH  17  20
ATOM     20  O   UNL     1     -35.622  15.306  55.565  1.00  0.00    -0.504 OA
ATOM     21  H   UNL     1     -35.534  15.388  54.559  1.00  0.00     0.293 HD
ENDBRANCH  17  20
ENDBRANCH   1  12
BRANCH   6  22
ATOM     22  O   UNL     1     -27.365  20.259  55.499  1.00  0.00    -0.507 OA
ATOM     23  H   UNL     1     -27.913  21.045  55.188  1.00  0.00     0.293 HD
ENDBRANCH   6  22
BRANCH   8  24
ATOM     24  O   UNL     1     -26.045  18.372  59.692  1.00  0.00    -0.508 OA
ATOM     25  H   UNL     1     -25.923  19.130  60.354  1.00  0.00     0.293 HD
ENDBRANCH   8  24
TORSDOF 5
ENDMDL
MODEL 6
REMARK VINA RESULT:    -8.810      2.280      3.230
REMARK INTER + INTRA:         -10.620
REMARK INTER:                 -10.349
REMARK INTRA:                  -0.271
REMARK UNBOUND:                -0.265
REMARK SMILES O=c1cc(-c2ccc(O)c(O)c2)oc2cc(O)cc(O)c12
REMARK SMILES IDX 4 1 3 2 2 3 1 4 21 5 19 6 18 7 16 8 15 9 14 10 13 11 5 12
REMARK SMILES IDX 6 13 7 14 8 15 12 16 10 17 9 18 11 20 20 22 17 24
REMARK H PARENT 9 19 11 21 20 23 17 25
REMARK Flexibility Score: inf
ROOT
ATOM      1  C   UNL     1     -31.563  15.804  57.210  1.00  0.00     0.138 A 
ATOM      2  C   UNL     1     -32.219  15.875  58.446  1.00  0.00     0.100 A 
ATOM      3  C   UNL     1     -33.158  14.901  58.787  1.00  0.00     0.197 A 
ATOM      4  O   UNL     1     -33.770  15.023  59.879  1.00  0.00    -0.289 OA
ATOM      5  C   UNL     1     -33.414  13.828  57.899  1.00  0.00     0.107 A 
ATOM      6  C   UNL     1     -34.325  12.759  58.154  1.00  0.00     0.134 A 
ATOM      7  C   UNL     1     -34.568  11.807  57.156  1.00  0.00     0.093 A 
ATOM      8  C   UNL     1     -33.893  11.851  55.936  1.00  0.00     0.123 A 
ATOM      9  C   UNL     1     -32.963  12.864  55.695  1.00  0.00     0.094 A 
ATOM     10  C   UNL     1     -32.723  13.848  56.657  1.00  0.00     0.146 A 
ATOM     11  O   UNL     1     -31.843  14.805  56.381  1.00  0.00    -0.456 OA
ENDROOT
BRANCH   1  12
ATOM     12  C   UNL     1     -30.552  16.812  56.798  1.00  0.00     0.021 A 
ATOM     13  C   UNL     1     -29.326  16.880  57.482  1.00  0.00     0.016 A 
ATOM     14  C   UNL     1     -28.356  17.814  57.109  1.00  0.00     0.051 A 
ATOM     15  C   UNL     1     -28.591  18.688  56.041  1.00  0.00     0.157 A 
ATOM     16  C   UNL     1     -30.777  17.686  55.716  1.00  0.00     0.062 A 
ATOM     17  C   UNL     1     -29.802  18.622  55.341  1.00  0.00     0.158 A 
BRANCH  15  18
ATOM     18  O   UNL     1     -27.627  19.621  55.667  1.00  0.00    -0.504 OA
ATOM     19  H   UNL     1     -26.752  19.338  55.240  1.00  0.00     0.293 HD
ENDBRANCH  15  18
BRANCH  17  20
ATOM     20  O   UNL     1     -30.027  19.486  54.272  1.00  0.00    -0.504 OA
ATOM     21  H   UNL     1     -30.692  19.263  53.540  1.00  0.00     0.293 HD
ENDBRANCH  17  20
ENDBRANCH   1  12
BRANCH   6  22
ATOM     22  O   UNL     1     -34.994  12.572  59.367  1.00  0.00    -0.507 OA
ATOM     23  H   UNL     1     -35.467  13.295  59.885  1.00  0.00     0.293 HD
ENDBRANCH   6  22
BRANCH   8  24
ATOM     24  O   UNL     1     -34.148  10.878  54.973  1.00  0.00    -0.508 OA
ATOM     25  H   UNL     1     -33.413  10.517  54.376  1.00  0.00     0.293 HD
ENDBRANCH   8  24
TORSDOF 5
ENDMDL
MODEL 7
REMARK VINA RESULT:    -8.685      2.621      3.340
REMARK INTER + INTRA:         -10.473
REMARK INTER:                 -10.210
REMARK INTRA:                  -0.263
REMARK UNBOUND:                -0.265
REMARK SMILES O=c1cc(-c2ccc(O)c(O)c2)oc2cc(O)cc(O)c12
REMARK SMILES IDX 4 1 3 2 2 3 1 4 21 5 19 6 18 7 16 8 15 9 14 10 13 11 5 12
REMARK SMILES IDX 6 13 7 14 8 15 12 16 10 17 9 18 11 20 20 22 17 24
REMARK H PARENT 9 19 11 21 20 23 17 25
REMARK Flexibility Score: inf
ROOT
ATOM      1  C   UNL     1     -31.767  16.090  56.367  1.00  0.00     0.138 A 
ATOM      2  C   UNL     1     -31.153  14.860  56.635  1.00  0.00     0.100 A 
ATOM      3  C   UNL     1     -31.852  13.674  56.405  1.00  0.00     0.197 A 
ATOM      4  O   UNL     1     -31.294  12.587  56.706  1.00  0.00    -0.289 OA
ATOM      5  C   UNL     1     -33.162  13.722  55.869  1.00  0.00     0.107 A 
ATOM      6  C   UNL     1     -33.959  12.577  55.562  1.00  0.00     0.134 A 
ATOM      7  C   UNL     1     -35.279  12.753  55.128  1.00  0.00     0.093 A 
ATOM      8  C   UNL     1     -35.813  14.027  54.936  1.00  0.00     0.123 A 
ATOM      9  C   UNL     1     -35.027  15.153  55.186  1.00  0.00     0.094 A 
ATOM     10  C   UNL     1     -33.717  15.012  55.652  1.00  0.00     0.146 A 
ATOM     11  O   UNL     1     -33.008  16.109  55.895  1.00  0.00    -0.456 OA
ENDROOT
BRANCH   1  12
ATOM     12  C   UNL     1     -31.068  17.382  56.591  1.00  0.00     0.021 A 
ATOM     13  C   UNL     1     -30.374  17.984  55.527  1.00  0.00     0.016 A 
ATOM     14  C   UNL     1     -29.715  19.203  55.708  1.00  0.00     0.051 A 
ATOM     15  C   UNL     1     -29.746  19.843  56.953  1.00  0.00     0.157 A 
ATOM     16  C   UNL     1     -31.106  18.039  57.837  1.00  0.00     0.062 A 
ATOM     17  C   UNL     1     -30.445  19.263  58.017  1.00  0.00     0.158 A 
BRANCH  15  18
ATOM     18  O   UNL     1     -29.088  21.058  57.137  1.00  0.00    -0.504 OA
ATOM     19  H   UNL     1     -29.290  21.864  56.557  1.00  0.00     0.293 HD
ENDBRANCH  15  18
BRANCH  17  20
ATOM     20  O   UNL     1     -30.483  19.910  59.251  1.00  0.00    -0.504 OA
ATOM     21  H   UNL     1     -30.854  19.455  60.077  1.00  0.00     0.293 HD
ENDBRANCH  17  20
ENDBRANCH   1  12
BRANCH   6  22
ATOM     22  O   UNL     1     -33.500  11.260  55.641  1.00  0.00    -0.507 OA
ATOM     23  H   UNL     1     -32.532  10.981  55.637  1.00  0.00     0.293 HD
ENDBRANCH   6  22
BRANCH   8  24
ATOM     24  O   UNL     1     -37.125  14.163  54.489  1.00  0.00    -0.508 OA
ATOM     25  H   UNL     1     -37.374  14.004  53.519  1.00  0.00     0.293 HD
ENDBRANCH   8  24
TORSDOF 5
ENDMDL
MODEL 8
REMARK VINA RESULT:    -8.643      1.727      3.080
REMARK INTER + INTRA:         -10.423
REMARK INTER:                 -10.114
REMARK INTRA:                  -0.310
REMARK UNBOUND:                -0.265
REMARK SMILES O=c1cc(-c2ccc(O)c(O)c2)oc2cc(O)cc(O)c12
REMARK SMILES IDX 4 1 3 2 2 3 1 4 21 5 19 6 18 7 16 8 15 9 14 10 13 11 5 12
REMARK SMILES IDX 6 13 7 14 8 15 12 16 10 17 9 18 11 20 20 22 17 24
REMARK H PARENT 9 19 11 21 20 23 17 25
REMARK Flexibility Score: inf
ROOT
ATOM      1  C   UNL     1     -31.943  16.206  57.012  1.00  0.00     0.138 A 
ATOM      2  C   UNL     1     -32.152  15.739  58.316  1.00  0.00     0.100 A 
ATOM      3  C   UNL     1     -33.296  14.996  58.609  1.00  0.00     0.197 A 
ATOM      4  O   UNL     1     -33.482  14.638  59.801  1.00  0.00    -0.289 OA
ATOM      5  C   UNL     1     -34.219  14.688  57.581  1.00  0.00     0.107 A 
ATOM      6  C   UNL     1     -35.403  13.910  57.754  1.00  0.00     0.134 A 
ATOM      7  C   UNL     1     -36.291  13.756  56.682  1.00  0.00     0.093 A 
ATOM      8  C   UNL     1     -36.011  14.302  55.429  1.00  0.00     0.123 A 
ATOM      9  C   UNL     1     -34.832  15.023  55.235  1.00  0.00     0.094 A 
ATOM     10  C   UNL     1     -33.943  15.223  56.293  1.00  0.00     0.146 A 
ATOM     11  O   UNL     1     -32.840  15.931  56.071  1.00  0.00    -0.456 OA
ENDROOT
BRANCH   1  12
ATOM     12  C   UNL     1     -30.742  16.998  56.643  1.00  0.00     0.021 A 
ATOM     13  C   UNL     1     -29.568  16.868  57.406  1.00  0.00     0.016 A 
ATOM     14  C   UNL     1     -28.422  17.595  57.076  1.00  0.00     0.051 A 
ATOM     15  C   UNL     1     -28.427  18.459  55.974  1.00  0.00     0.157 A 
ATOM     16  C   UNL     1     -30.736  17.859  55.528  1.00  0.00     0.062 A 
ATOM     17  C   UNL     1     -29.584  18.588  55.197  1.00  0.00     0.158 A 
BRANCH  15  18
ATOM     18  O   UNL     1     -27.287  19.188  55.643  1.00  0.00    -0.504 OA
ATOM     19  H   UNL     1     -27.338  20.019  55.066  1.00  0.00     0.293 HD
ENDBRANCH  15  18
BRANCH  17  20
ATOM     20  O   UNL     1     -29.582  19.440  54.094  1.00  0.00    -0.504 OA
ATOM     21  H   UNL     1     -28.876  20.159  53.980  1.00  0.00     0.293 HD
ENDBRANCH  17  20
ENDBRANCH   1  12
BRANCH   6  22
ATOM     22  O   UNL     1     -35.741  13.253  58.940  1.00  0.00    -0.507 OA
ATOM     23  H   UNL     1     -35.455  13.537  59.863  1.00  0.00     0.293 HD
ENDBRANCH   6  22
BRANCH   8  24
ATOM     24  O   UNL     1     -36.910  14.115  54.381  1.00  0.00    -0.508 OA
ATOM     25  H   UNL     1     -37.012  13.217  53.924  1.00  0.00     0.293 HD
ENDBRANCH   8  24
TORSDOF 5
ENDMDL
MODEL 9
REMARK VINA RESULT:    -8.457      2.198      2.434
REMARK INTER + INTRA:         -10.205
REMARK INTER:                  -9.892
REMARK INTRA:                  -0.312
REMARK UNBOUND:                -0.265
REMARK SMILES O=c1cc(-c2ccc(O)c(O)c2)oc2cc(O)cc(O)c12
REMARK SMILES IDX 4 1 3 2 2 3 1 4 21 5 19 6 18 7 16 8 15 9 14 10 13 11 5 12
REMARK SMILES IDX 6 13 7 14 8 15 12 16 10 17 9 18 11 20 20 22 17 24
REMARK H PARENT 9 19 11 21 20 23 17 25
REMARK Flexibility Score: inf
ROOT
ATOM      1  C   UNL     1     -31.765  15.960  57.078  1.00  0.00     0.138 A 
ATOM      2  C   UNL     1     -31.487  14.940  56.159  1.00  0.00     0.100 A 
ATOM      3  C   UNL     1     -32.186  13.734  56.233  1.00  0.00     0.197 A 
ATOM      4  O   UNL     1     -31.876  12.818  55.428  1.00  0.00    -0.289 OA
ATOM      5  C   UNL     1     -33.194  13.564  57.212  1.00  0.00     0.107 A 
ATOM      6  C   UNL     1     -33.996  12.391  57.362  1.00  0.00     0.134 A 
ATOM      7  C   UNL     1     -34.894  12.302  58.432  1.00  0.00     0.093 A 
ATOM      8  C   UNL     1     -35.063  13.361  59.323  1.00  0.00     0.123 A 
ATOM      9  C   UNL     1     -34.322  14.532  59.157  1.00  0.00     0.094 A 
ATOM     10  C   UNL     1     -33.392  14.639  58.120  1.00  0.00     0.146 A 
ATOM     11  O   UNL     1     -32.693  15.764  58.008  1.00  0.00    -0.456 OA
ENDROOT
BRANCH   1  12
ATOM     12  C   UNL     1     -31.054  17.264  57.044  1.00  0.00     0.021 A 
ATOM     13  C   UNL     1     -30.411  17.669  55.861  1.00  0.00     0.016 A 
ATOM     14  C   UNL     1     -29.742  18.893  55.799  1.00  0.00     0.051 A 
ATOM     15  C   UNL     1     -29.711  19.737  56.915  1.00  0.00     0.157 A 
ATOM     16  C   UNL     1     -31.029  18.124  58.159  1.00  0.00     0.062 A 
ATOM     17  C   UNL     1     -30.358  19.354  58.096  1.00  0.00     0.158 A 
BRANCH  15  18
ATOM     18  O   UNL     1     -29.043  20.959  56.858  1.00  0.00    -0.504 OA
ATOM     19  H   UNL     1     -29.364  21.764  57.384  1.00  0.00     0.293 HD
ENDBRANCH  15  18
BRANCH  17  20
ATOM     20  O   UNL     1     -30.334  20.203  59.201  1.00  0.00    -0.504 OA
ATOM     21  H   UNL     1     -30.189  19.848  60.139  1.00  0.00     0.293 HD
ENDBRANCH  17  20
ENDBRANCH   1  12
BRANCH   6  22
ATOM     22  O   UNL     1     -33.966  11.305  56.483  1.00  0.00    -0.507 OA
ATOM     23  H   UNL     1     -34.592  10.517  56.513  1.00  0.00     0.293 HD
ENDBRANCH   6  22
BRANCH   8  24
ATOM     24  O   UNL     1     -35.979  13.242  60.366  1.00  0.00    -0.508 OA
ATOM     25  H   UNL     1     -35.702  12.897  61.278  1.00  0.00     0.293 HD
ENDBRANCH   8  24
TORSDOF 5
ENDMDL
