MODEL 1
REMARK VINA RESULT:     1.698      0.000      0.000
REMARK INTER + INTRA:           1.977
REMARK INTER:                   1.847
REMARK INTRA:                   0.129
REMARK UNBOUND:                 0.129
REMARK SMILES C[C@@H]1[C@@H](C)CC[C@@]2(C(=O)[O-])CC[C@]3(C)C(=CC[C@H]4[C@@]5(C)CC[C@@H](O)C(C)(C)[C@H]5CC[C@]43C)[C@@H]12
REMARK SMILES IDX 7 1 6 2 11 3 33 4 5 5 12 6 15 7 2 8 3 9 13 10 16 11 1 12
REMARK SMILES IDX 4 13 14 14 31 15 17 16 18 17 30 18 32 19 19 20 29 21 28 22
REMARK SMILES IDX 21 23 20 24 25 25 22 26 23 27 26 28 27 29 8 30 9 31 10 32
REMARK SMILES IDX 24 33
REMARK H PARENT 24 34
REMARK Flexibility Score: inf
ROOT
ATOM      1  C   UNL     1      46.617  -8.949  -0.009  1.00  0.00     0.017 C 
ATOM      2  C   UNL     1      45.134  -9.211  -0.381  1.00  0.00     0.014 C 
ATOM      3  C   UNL     1      47.489 -10.125  -0.552  1.00  0.00     0.014 C 
ATOM      4  C   UNL     1      47.045  -7.542  -0.591  1.00  0.00     0.030 C 
ATOM      5  C   UNL     1      44.190  -8.158   0.213  1.00  0.00     0.004 C 
ATOM      6  C   UNL     1      47.822 -10.071  -2.051  1.00  0.00     0.013 C 
ATOM      7  C   UNL     1      47.389  -7.661  -2.103  1.00  0.00    -0.063 C 
ATOM      8  C   UNL     1      46.043  -6.382  -0.174  1.00  0.00    -0.003 C 
ATOM      9  C   UNL     1      44.515  -6.736  -0.270  1.00  0.00    -0.011 C 
ATOM     10  C   UNL     1      48.426  -8.711  -2.519  1.00  0.00    -0.006 C 
ATOM     11  C   UNL     1      46.755  -6.942  -3.045  1.00  0.00    -0.027 C 
ATOM     12  C   UNL     1      46.351  -5.848   1.243  1.00  0.00     0.008 C 
ATOM     13  C   UNL     1      43.879  -6.468  -1.641  1.00  0.00     0.008 C 
ATOM     14  C   UNL     1      49.754  -8.411  -1.733  1.00  0.00     0.017 C 
ATOM     15  C   UNL     1      48.734  -8.704  -4.112  1.00  0.00    -0.020 C 
ATOM     16  C   UNL     1      46.573  -7.382  -4.461  1.00  0.00     0.032 C 
ATOM     17  C   UNL     1      47.403  -8.610  -4.948  1.00  0.00     0.006 C 
ATOM     18  C   UNL     1      49.620  -7.472  -4.504  1.00  0.00     0.008 C 
ATOM     19  C   UNL     1      49.512 -10.018  -4.460  1.00  0.00     0.012 C 
ATOM     20  C   UNL     1      47.593  -8.637  -6.557  1.00  0.00    -0.025 C 
ATOM     21  C   UNL     1      49.431  -6.896  -5.928  1.00  0.00     0.005 C 
ATOM     22  C   UNL     1      48.956  -7.912  -7.004  1.00  0.00     0.003 C 
ATOM     23  C   UNL     1      46.308  -8.048  -7.280  1.00  0.00     0.010 C 
ATOM     24  C   UNL     1      47.661 -10.124  -7.037  1.00  0.00     0.012 C 
ATOM     25  C   UNL     1      49.028  -7.361  -8.522  1.00  0.00    -0.006 C 
ATOM     26  C   UNL     1      46.580  -6.793  -8.094  1.00  0.00     0.033 C 
ATOM     27  C   UNL     1      47.610  -7.135  -9.158  1.00  0.00     0.120 C 
ATOM     28  C   UNL     1      49.861  -6.047  -8.642  1.00  0.00     0.014 C 
ATOM     29  C   UNL     1      49.773  -8.400  -9.407  1.00  0.00     0.014 C 
ENDROOT
BRANCH   1  30
ATOM     30  C   UNL     1      46.802  -9.004   1.505  1.00  0.00     0.048 C 
ATOM     31  O   UNL     1      47.914  -8.718   2.023  1.00  0.00    -0.550 OA
ATOM     32  O   UNL     1      45.792  -9.493   2.328  1.00  0.00    -0.550 OA
ENDBRANCH   1  30
BRANCH  27  33
ATOM     33  O   UNL     1      47.614  -6.109 -10.124  1.00  0.00    -0.393 OA
ATOM     34  H   UNL     1      46.868  -5.492  -9.912  1.00  0.00     0.210 HD
ENDBRANCH  27  33
TORSDOF 2
ENDMDL
MODEL 2
REMARK VINA RESULT:     2.946      1.652      8.169
REMARK INTER + INTRA:           3.334
REMARK INTER:                   3.108
REMARK INTRA:                   0.225
REMARK UNBOUND:                 0.129
REMARK SMILES C[C@@H]1[C@@H](C)CC[C@@]2(C(=O)[O-])CC[C@]3(C)C(=CC[C@H]4[C@@]5(C)CC[C@@H](O)C(C)(C)[C@H]5CC[C@]43C)[C@@H]12
REMARK SMILES IDX 7 1 6 2 11 3 33 4 5 5 12 6 15 7 2 8 3 9 13 10 16 11 1 12
REMARK SMILES IDX 4 13 14 14 31 15 17 16 18 17 30 18 32 19 19 20 29 21 28 22
REMARK SMILES IDX 21 23 20 24 25 25 22 26 23 27 26 28 27 29 8 30 9 31 10 32
REMARK SMILES IDX 24 33
REMARK H PARENT 24 34
REMARK Flexibility Score: inf
ROOT
ATOM      1  C   UNL     1      47.268  -8.601  -6.081  1.00  0.00     0.017 C 
ATOM      2  C   UNL     1      47.843 -10.042  -6.033  1.00  0.00     0.014 C 
ATOM      3  C   UNL     1      45.790  -8.632  -5.577  1.00  0.00     0.014 C 
ATOM      4  C   UNL     1      48.197  -7.657  -5.217  1.00  0.00     0.030 C 
ATOM      5  C   UNL     1      49.258 -10.122  -6.620  1.00  0.00     0.004 C 
ATOM      6  C   UNL     1      45.607  -8.690  -4.052  1.00  0.00     0.013 C 
ATOM      7  C   UNL     1      47.862  -7.799  -3.706  1.00  0.00    -0.063 C 
ATOM      8  C   UNL     1      49.728  -7.771  -5.626  1.00  0.00    -0.003 C 
ATOM      9  C   UNL     1      50.259  -9.229  -5.870  1.00  0.00    -0.011 C 
ATOM     10  C   UNL     1      46.405  -7.598  -3.274  1.00  0.00    -0.006 C 
ATOM     11  C   UNL     1      48.780  -8.168  -2.796  1.00  0.00    -0.027 C 
ATOM     12  C   UNL     1      50.053  -6.901  -6.861  1.00  0.00     0.008 C 
ATOM     13  C   UNL     1      50.786  -9.939  -4.614  1.00  0.00     0.008 C 
ATOM     14  C   UNL     1      45.958  -6.166  -3.746  1.00  0.00     0.017 C 
ATOM     15  C   UNL     1      46.192  -7.723  -1.670  1.00  0.00    -0.020 C 
ATOM     16  C   UNL     1      48.466  -8.885  -1.524  1.00  0.00     0.032 C 
ATOM     17  C   UNL     1      46.968  -8.964  -1.090  1.00  0.00     0.006 C 
ATOM     18  C   UNL     1      46.731  -6.448  -0.935  1.00  0.00     0.008 C 
ATOM     19  C   UNL     1      44.657  -7.856  -1.394  1.00  0.00     0.012 C 
ATOM     20  C   UNL     1      46.792  -9.207   0.502  1.00  0.00    -0.025 C 
ATOM     21  C   UNL     1      47.272  -6.644   0.502  1.00  0.00     0.005 C 
ATOM     22  C   UNL     1      46.644  -7.821   1.301  1.00  0.00     0.003 C 
ATOM     23  C   UNL     1      47.962 -10.125   1.059  1.00  0.00     0.010 C 
ATOM     24  C   UNL     1      45.493 -10.043   0.749  1.00  0.00     0.012 C 
ATOM     25  C   UNL     1      47.019  -7.838   2.873  1.00  0.00    -0.006 C 
ATOM     26  C   UNL     1      48.841  -9.442   2.095  1.00  0.00     0.033 C 
ATOM     27  C   UNL     1      47.961  -9.032   3.263  1.00  0.00     0.120 C 
ATOM     28  C   UNL     1      47.664  -6.499   3.347  1.00  0.00     0.014 C 
ATOM     29  C   UNL     1      45.715  -7.982   3.707  1.00  0.00     0.014 C 
ENDROOT
BRANCH   1  30
ATOM     30  C   UNL     1      47.169  -8.117  -7.524  1.00  0.00     0.048 C 
ATOM     31  O   UNL     1      47.204  -6.885  -7.788  1.00  0.00    -0.550 OA
ATOM     32  O   UNL     1      46.909  -9.010  -8.559  1.00  0.00    -0.550 OA
ENDBRANCH   1  30
BRANCH  27  33
ATOM     33  O   UNL     1      48.788  -8.725   4.362  1.00  0.00    -0.393 OA
ATOM     34  H   UNL     1      48.236  -8.793   5.183  1.00  0.00     0.210 HD
ENDBRANCH  27  33
TORSDOF 2
ENDMDL
MODEL 3
REMARK VINA RESULT:     3.088      1.821      4.152
REMARK INTER + INTRA:           3.488
REMARK INTER:                   2.991
REMARK INTRA:                   0.497
REMARK UNBOUND:                 0.129
REMARK SMILES C[C@@H]1[C@@H](C)CC[C@@]2(C(=O)[O-])CC[C@]3(C)C(=CC[C@H]4[C@@]5(C)CC[C@@H](O)C(C)(C)[C@H]5CC[C@]43C)[C@@H]12
REMARK SMILES IDX 7 1 6 2 11 3 33 4 5 5 12 6 15 7 2 8 3 9 13 10 16 11 1 12
REMARK SMILES IDX 4 13 14 14 31 15 17 16 18 17 30 18 32 19 19 20 29 21 28 22
REMARK SMILES IDX 21 23 20 24 25 25 22 26 23 27 26 28 27 29 8 30 9 31 10 32
REMARK SMILES IDX 24 33
REMARK H PARENT 24 34
REMARK Flexibility Score: inf
ROOT
ATOM      1  C   UNL     1      46.605  -7.051   1.899  1.00  0.00     0.017 C 
ATOM      2  C   UNL     1      48.130  -6.833   2.080  1.00  0.00     0.014 C 
ATOM      3  C   UNL     1      46.023  -5.870   1.060  1.00  0.00     0.014 C 
ATOM      4  C   UNL     1      46.373  -8.463   1.224  1.00  0.00     0.030 C 
ATOM      5  C   UNL     1      48.765  -7.892   2.991  1.00  0.00     0.004 C 
ATOM      6  C   UNL     1      46.249  -5.954  -0.457  1.00  0.00     0.013 C 
ATOM      7  C   UNL     1      46.598  -8.374  -0.312  1.00  0.00    -0.063 C 
ATOM      8  C   UNL     1      47.121  -9.635   1.991  1.00  0.00    -0.003 C 
ATOM      9  C   UNL     1      48.592  -9.318   2.446  1.00  0.00    -0.011 C 
ATOM     10  C   UNL     1      45.813  -7.312  -1.090  1.00  0.00    -0.006 C 
ATOM     11  C   UNL     1      47.505  -9.132  -0.952  1.00  0.00    -0.027 C 
ATOM     12  C   UNL     1      46.310 -10.125   3.211  1.00  0.00     0.008 C 
ATOM     13  C   UNL     1      49.670  -9.635   1.399  1.00  0.00     0.008 C 
ATOM     14  C   UNL     1      44.282  -7.561  -0.829  1.00  0.00     0.017 C 
ATOM     15  C   UNL     1      46.097  -7.352  -2.687  1.00  0.00    -0.020 C 
ATOM     16  C   UNL     1      48.197  -8.732  -2.215  1.00  0.00     0.032 C 
ATOM     17  C   UNL     1      47.635  -7.498  -2.987  1.00  0.00     0.006 C 
ATOM     18  C   UNL     1      45.373  -8.573  -3.352  1.00  0.00     0.008 C 
ATOM     19  C   UNL     1      45.536  -6.030  -3.312  1.00  0.00     0.012 C 
ATOM     20  C   UNL     1      48.036  -7.508  -4.557  1.00  0.00    -0.025 C 
ATOM     21  C   UNL     1      46.043  -9.190  -4.603  1.00  0.00     0.005 C 
ATOM     22  C   UNL     1      46.904  -8.212  -5.453  1.00  0.00     0.003 C 
ATOM     23  C   UNL     1      49.477  -8.144  -4.760  1.00  0.00     0.010 C 
ATOM     24  C   UNL     1      48.191  -6.032  -5.052  1.00  0.00     0.012 C 
ATOM     25  C   UNL     1      47.365  -8.800  -6.886  1.00  0.00    -0.006 C 
ATOM     26  C   UNL     1      49.477  -9.413  -5.598  1.00  0.00     0.033 C 
ATOM     27  C   UNL     1      48.909  -9.075  -6.965  1.00  0.00     0.120 C 
ATOM     28  C   UNL     1      46.591 -10.097  -7.277  1.00  0.00     0.014 C 
ATOM     29  C   UNL     1      47.019  -7.767  -7.996  1.00  0.00     0.014 C 
ENDROOT
BRANCH   1  30
ATOM     30  C   UNL     1      45.891  -6.954   3.244  1.00  0.00     0.048 C 
ATOM     31  O   UNL     1      44.681  -6.608   3.301  1.00  0.00    -0.550 OA
ATOM     32  O   UNL     1      46.592  -7.117   4.435  1.00  0.00    -0.550 OA
ENDBRANCH   1  30
BRANCH  27  33
ATOM     33  O   UNL     1      49.220 -10.125  -7.852  1.00  0.00    -0.393 OA
ATOM     34  H   UNL     1      49.414 -10.931  -7.309  1.00  0.00     0.210 HD
ENDBRANCH  27  33
TORSDOF 2
ENDMDL
MODEL 4
REMARK VINA RESULT:     3.445      1.801      8.012
REMARK INTER + INTRA:           3.876
REMARK INTER:                   3.744
REMARK INTRA:                   0.132
REMARK UNBOUND:                 0.129
REMARK SMILES C[C@@H]1[C@@H](C)CC[C@@]2(C(=O)[O-])CC[C@]3(C)C(=CC[C@H]4[C@@]5(C)CC[C@@H](O)C(C)(C)[C@H]5CC[C@]43C)[C@@H]12
REMARK SMILES IDX 7 1 6 2 11 3 33 4 5 5 12 6 15 7 2 8 3 9 13 10 16 11 1 12
REMARK SMILES IDX 4 13 14 14 31 15 17 16 18 17 30 18 32 19 19 20 29 21 28 22
REMARK SMILES IDX 21 23 20 24 25 25 22 26 23 27 26 28 27 29 8 30 9 31 10 32
REMARK SMILES IDX 24 33
REMARK H PARENT 24 34
REMARK Flexibility Score: inf
ROOT
ATOM      1  C   UNL     1      47.114  -9.312  -6.631  1.00  0.00     0.017 C 
ATOM      2  C   UNL     1      48.451 -10.067  -6.409  1.00  0.00     0.014 C 
ATOM      3  C   UNL     1      45.959 -10.125  -5.967  1.00  0.00     0.014 C 
ATOM      4  C   UNL     1      47.256  -7.848  -6.048  1.00  0.00     0.030 C 
ATOM      5  C   UNL     1      49.627  -9.394  -7.129  1.00  0.00     0.004 C 
ATOM      6  C   UNL     1      45.828  -9.974  -4.443  1.00  0.00     0.013 C 
ATOM      7  C   UNL     1      47.058  -7.857  -4.506  1.00  0.00    -0.063 C 
ATOM      8  C   UNL     1      48.541  -7.096  -6.600  1.00  0.00    -0.003 C 
ATOM      9  C   UNL     1      49.859  -7.950  -6.655  1.00  0.00    -0.011 C 
ATOM     10  C   UNL     1      45.778  -8.494  -3.953  1.00  0.00    -0.006 C 
ATOM     11  C   UNL     1      47.996  -7.405  -3.656  1.00  0.00    -0.027 C 
ATOM     12  C   UNL     1      48.282  -6.476  -7.991  1.00  0.00     0.008 C 
ATOM     13  C   UNL     1      50.692  -7.928  -5.366  1.00  0.00     0.008 C 
ATOM     14  C   UNL     1      44.553  -7.752  -4.604  1.00  0.00     0.017 C 
ATOM     15  C   UNL     1      45.664  -8.397  -2.337  1.00  0.00    -0.020 C 
ATOM     16  C   UNL     1      48.170  -7.894  -2.254  1.00  0.00     0.032 C 
ATOM     17  C   UNL     1      47.029  -8.770  -1.648  1.00  0.00     0.006 C 
ATOM     18  C   UNL     1      45.297  -6.940  -1.890  1.00  0.00     0.008 C 
ATOM     19  C   UNL     1      44.528  -9.370  -1.873  1.00  0.00     0.012 C 
ATOM     20  C   UNL     1      47.017  -8.745  -0.028  1.00  0.00    -0.025 C 
ATOM     21  C   UNL     1      45.824  -6.476  -0.511  1.00  0.00     0.005 C 
ATOM     22  C   UNL     1      46.039  -7.603   0.539  1.00  0.00     0.003 C 
ATOM     23  C   UNL     1      48.496  -8.636   0.539  1.00  0.00     0.010 C 
ATOM     24  C   UNL     1      46.500 -10.124   0.498  1.00  0.00     0.012 C 
ATOM     25  C   UNL     1      46.323  -7.075   2.039  1.00  0.00    -0.006 C 
ATOM     26  C   UNL     1      48.756  -7.371   1.341  1.00  0.00     0.033 C 
ATOM     27  C   UNL     1      47.793  -7.351   2.516  1.00  0.00     0.120 C 
ATOM     28  C   UNL     1      46.004  -5.557   2.208  1.00  0.00     0.014 C 
ATOM     29  C   UNL     1      45.369  -7.805   3.027  1.00  0.00     0.014 C 
ENDROOT
BRANCH   1  30
ATOM     30  C   UNL     1      46.760  -9.286  -8.115  1.00  0.00     0.048 C 
ATOM     31  O   UNL     1      45.765  -8.629  -8.523  1.00  0.00    -0.550 OA
ATOM     32  O   UNL     1      47.444 -10.088  -9.024  1.00  0.00    -0.550 OA
ENDBRANCH   1  30
BRANCH  27  33
ATOM     33  O   UNL     1      48.243  -6.394   3.448  1.00  0.00    -0.393 OA
ATOM     34  H   UNL     1      49.147  -6.668   3.749  1.00  0.00     0.210 HD
ENDBRANCH  27  33
TORSDOF 2
ENDMDL
MODEL 5
REMARK VINA RESULT:     3.760      1.638      3.479
REMARK INTER + INTRA:           4.219
REMARK INTER:                   4.088
REMARK INTRA:                   0.131
REMARK UNBOUND:                 0.129
REMARK SMILES C[C@@H]1[C@@H](C)CC[C@@]2(C(=O)[O-])CC[C@]3(C)C(=CC[C@H]4[C@@]5(C)CC[C@@H](O)C(C)(C)[C@H]5CC[C@]43C)[C@@H]12
REMARK SMILES IDX 7 1 6 2 11 3 33 4 5 5 12 6 15 7 2 8 3 9 13 10 16 11 1 12
REMARK SMILES IDX 4 13 14 14 31 15 17 16 18 17 30 18 32 19 19 20 29 21 28 22
REMARK SMILES IDX 21 23 20 24 25 25 22 26 23 27 26 28 27 29 8 30 9 31 10 32
REMARK SMILES IDX 24 33
REMARK H PARENT 24 34
REMARK Flexibility Score: inf
ROOT
ATOM      1  C   UNL     1      45.544  -7.952   0.847  1.00  0.00     0.017 C 
ATOM      2  C   UNL     1      46.334  -6.639   1.094  1.00  0.00     0.014 C 
ATOM      3  C   UNL     1      44.372  -7.657  -0.141  1.00  0.00     0.014 C 
ATOM      4  C   UNL     1      46.545  -9.052   0.309  1.00  0.00     0.030 C 
ATOM      5  C   UNL     1      47.439  -6.814   2.144  1.00  0.00     0.004 C 
ATOM      6  C   UNL     1      44.757  -7.572  -1.626  1.00  0.00     0.013 C 
ATOM      7  C   UNL     1      46.800  -8.857  -1.212  1.00  0.00    -0.063 C 
ATOM      8  C   UNL     1      47.825  -9.215   1.236  1.00  0.00    -0.003 C 
ATOM      9  C   UNL     1      48.474  -7.876   1.740  1.00  0.00    -0.011 C 
ATOM     10  C   UNL     1      45.582  -8.792  -2.139  1.00  0.00    -0.006 C 
ATOM     11  C   UNL     1      48.031  -8.663  -1.716  1.00  0.00    -0.027 C 
ATOM     12  C   UNL     1      47.535 -10.125   2.450  1.00  0.00     0.008 C 
ATOM     13  C   UNL     1      49.526  -7.277   0.796  1.00  0.00     0.008 C 
ATOM     14  C   UNL     1      44.760 -10.119  -1.943  1.00  0.00     0.017 C 
ATOM     15  C   UNL     1      45.980  -8.636  -3.704  1.00  0.00    -0.020 C 
ATOM     16  C   UNL     1      48.318  -7.905  -2.972  1.00  0.00     0.032 C 
ATOM     17  C   UNL     1      47.111  -7.558  -3.898  1.00  0.00     0.006 C 
ATOM     18  C   UNL     1      46.520  -9.990  -4.280  1.00  0.00     0.008 C 
ATOM     19  C   UNL     1      44.690  -8.230  -4.494  1.00  0.00     0.012 C 
ATOM     20  C   UNL     1      47.558  -7.293  -5.433  1.00  0.00    -0.025 C 
ATOM     21  C   UNL     1      47.563  -9.901  -5.421  1.00  0.00     0.005 C 
ATOM     22  C   UNL     1      47.471  -8.632  -6.315  1.00  0.00     0.003 C 
ATOM     23  C   UNL     1      48.987  -6.603  -5.485  1.00  0.00     0.010 C 
ATOM     24  C   UNL     1      46.595  -6.237  -6.068  1.00  0.00     0.012 C 
ATOM     25  C   UNL     1      48.380  -8.689  -7.651  1.00  0.00    -0.006 C 
ATOM     26  C   UNL     1      50.048  -7.437  -6.186  1.00  0.00     0.033 C 
ATOM     27  C   UNL     1      49.586  -7.685  -7.612  1.00  0.00     0.120 C 
ATOM     28  C   UNL     1      48.914 -10.124  -7.950  1.00  0.00     0.014 C 
ATOM     29  C   UNL     1      47.503  -8.314  -8.880  1.00  0.00     0.014 C 
ENDROOT
BRANCH   1  30
ATOM     30  C   UNL     1      44.856  -8.406   2.132  1.00  0.00     0.048 C 
ATOM     31  O   UNL     1      44.381  -9.569   2.224  1.00  0.00    -0.550 OA
ATOM     32  O   UNL     1      44.625  -7.510   3.171  1.00  0.00    -0.550 OA
ENDBRANCH   1  30
BRANCH  27  33
ATOM     33  O   UNL     1      50.686  -8.141  -8.366  1.00  0.00    -0.393 OA
ATOM     34  H   UNL     1      50.580  -7.799  -9.291  1.00  0.00     0.210 HD
ENDBRANCH  27  33
TORSDOF 2
ENDMDL
