MODEL 1
REMARK VINA RESULT:    -6.637      0.000      0.000
REMARK INTER + INTRA:          -8.055
REMARK INTER:                  -7.801
REMARK INTRA:                  -0.254
REMARK UNBOUND:                -0.254
REMARK SMILES O=c1c(O)c(-c2ccc(O)cc2)oc2cc(O)cc(O)c12
REMARK SMILES IDX 5 1 3 2 2 3 1 4 21 5 19 6 18 7 16 8 15 9 14 10 13 11 6 12
REMARK SMILES IDX 7 13 8 14 9 15 12 16 11 17 10 18 4 20 20 22 17 24
REMARK H PARENT 10 19 4 21 20 23 17 25
REMARK Flexibility Score: inf
ROOT
ATOM      1  C   UNL     1      -1.984 -16.934  12.102  1.00  0.00     0.180 A 
ATOM      2  C   UNL     1      -2.815 -17.856  11.442  1.00  0.00     0.208 A 
ATOM      3  C   UNL     1      -3.452 -17.468  10.252  1.00  0.00     0.238 A 
ATOM      4  O   UNL     1      -4.238 -18.278   9.695  1.00  0.00    -0.285 OA
ATOM      5  C   UNL     1      -3.237 -16.170   9.729  1.00  0.00     0.111 A 
ATOM      6  C   UNL     1      -3.799 -15.685   8.511  1.00  0.00     0.134 A 
ATOM      7  C   UNL     1      -3.624 -14.341   8.156  1.00  0.00     0.093 A 
ATOM      8  C   UNL     1      -2.854 -13.483   8.945  1.00  0.00     0.123 A 
ATOM      9  C   UNL     1      -2.253 -13.963  10.106  1.00  0.00     0.094 A 
ATOM     10  C   UNL     1      -2.438 -15.289  10.504  1.00  0.00     0.146 A 
ATOM     11  O   UNL     1      -1.856 -15.703  11.623  1.00  0.00    -0.452 OA
ENDROOT
BRANCH   1  12
ATOM     12  C   UNL     1      -1.260 -17.278  13.348  1.00  0.00     0.021 A 
ATOM     13  C   UNL     1      -0.090 -18.052  13.276  1.00  0.00     0.016 A 
ATOM     14  C   UNL     1       0.598 -18.408  14.441  1.00  0.00     0.047 A 
ATOM     15  C   UNL     1       0.117 -18.007  15.691  1.00  0.00     0.115 A 
ATOM     16  C   UNL     1      -1.750 -16.895  14.610  1.00  0.00     0.016 A 
ATOM     17  C   UNL     1      -1.061 -17.254  15.773  1.00  0.00     0.047 A 
BRANCH  15  18
ATOM     18  O   UNL     1       0.812 -18.368  16.842  1.00  0.00    -0.508 OA
ATOM     19  H   UNL     1       0.733 -19.297  17.239  1.00  0.00     0.293 HD
ENDBRANCH  15  18
ENDBRANCH   1  12
BRANCH   2  20
ATOM     20  O   UNL     1      -3.032 -19.125  11.987  1.00  0.00    -0.502 OA
ATOM     21  H   UNL     1      -3.044 -19.294  12.985  1.00  0.00     0.293 HD
ENDBRANCH   2  20
BRANCH   6  22
ATOM     22  O   UNL     1      -4.507 -16.481   7.606  1.00  0.00    -0.507 OA
ATOM     23  H   UNL     1      -4.437 -17.486   7.546  1.00  0.00     0.293 HD
ENDBRANCH   6  22
BRANCH   8  24
ATOM     24  O   UNL     1      -2.672 -12.152   8.578  1.00  0.00    -0.508 OA
ATOM     25  H   UNL     1      -1.748 -11.741   8.512  1.00  0.00     0.293 HD
ENDBRANCH   8  24
TORSDOF 5
ENDMDL
MODEL 2
REMARK VINA RESULT:    -6.157      1.428      3.160
REMARK INTER + INTRA:          -7.491
REMARK INTER:                  -7.477
REMARK INTRA:                  -0.014
REMARK UNBOUND:                -0.254
REMARK SMILES O=c1c(O)c(-c2ccc(O)cc2)oc2cc(O)cc(O)c12
REMARK SMILES IDX 5 1 3 2 2 3 1 4 21 5 19 6 18 7 16 8 15 9 14 10 13 11 6 12
REMARK SMILES IDX 7 13 8 14 9 15 12 16 11 17 10 18 4 20 20 22 17 24
REMARK H PARENT 10 19 4 21 20 23 17 25
REMARK Flexibility Score: inf
ROOT
ATOM      1  C   UNL     1      -2.482 -15.706  11.523  1.00  0.00     0.180 A 
ATOM      2  C   UNL     1      -2.221 -14.378  11.143  1.00  0.00     0.208 A 
ATOM      3  C   UNL     1      -2.773 -13.891   9.946  1.00  0.00     0.238 A 
ATOM      4  O   UNL     1      -2.491 -12.719   9.584  1.00  0.00    -0.285 OA
ATOM      5  C   UNL     1      -3.590 -14.732   9.154  1.00  0.00     0.111 A 
ATOM      6  C   UNL     1      -4.234 -14.332   7.945  1.00  0.00     0.134 A 
ATOM      7  C   UNL     1      -4.913 -15.284   7.175  1.00  0.00     0.093 A 
ATOM      8  C   UNL     1      -5.025 -16.609   7.604  1.00  0.00     0.123 A 
ATOM      9  C   UNL     1      -4.452 -16.996   8.813  1.00  0.00     0.094 A 
ATOM     10  C   UNL     1      -3.738 -16.077   9.585  1.00  0.00     0.146 A 
ATOM     11  O   UNL     1      -3.198 -16.490  10.725  1.00  0.00    -0.452 OA
ENDROOT
BRANCH   1  12
ATOM     12  C   UNL     1      -1.956 -16.283  12.782  1.00  0.00     0.021 A 
ATOM     13  C   UNL     1      -1.309 -17.529  12.754  1.00  0.00     0.016 A 
ATOM     14  C   UNL     1      -0.825 -18.103  13.934  1.00  0.00     0.047 A 
ATOM     15  C   UNL     1      -0.995 -17.446  15.157  1.00  0.00     0.115 A 
ATOM     16  C   UNL     1      -2.143 -15.636  14.017  1.00  0.00     0.016 A 
ATOM     17  C   UNL     1      -1.659 -16.213  15.196  1.00  0.00     0.047 A 
BRANCH  15  18
ATOM     18  O   UNL     1      -0.508 -18.029  16.323  1.00  0.00    -0.508 OA
ATOM     19  H   UNL     1      -0.634 -17.589  17.227  1.00  0.00     0.293 HD
ENDBRANCH  15  18
ENDBRANCH   1  12
BRANCH   2  20
ATOM     20  O   UNL     1      -1.393 -13.571  11.928  1.00  0.00    -0.502 OA
ATOM     21  H   UNL     1      -0.772 -13.950  12.632  1.00  0.00     0.293 HD
ENDBRANCH   2  20
BRANCH   6  22
ATOM     22  O   UNL     1      -4.259 -13.016   7.474  1.00  0.00    -0.507 OA
ATOM     23  H   UNL     1      -4.650 -12.232   7.976  1.00  0.00     0.293 HD
ENDBRANCH   6  22
BRANCH   8  24
ATOM     24  O   UNL     1      -5.716 -17.547   6.841  1.00  0.00    -0.508 OA
ATOM     25  H   UNL     1      -5.347 -17.891   5.961  1.00  0.00     0.293 HD
ENDBRANCH   8  24
TORSDOF 5
ENDMDL
MODEL 3
REMARK VINA RESULT:    -3.996      2.268      2.734
REMARK INTER + INTRA:          -4.950
REMARK INTER:                  -5.435
REMARK INTRA:                   0.484
REMARK UNBOUND:                -0.254
REMARK SMILES O=c1c(O)c(-c2ccc(O)cc2)oc2cc(O)cc(O)c12
REMARK SMILES IDX 5 1 3 2 2 3 1 4 21 5 19 6 18 7 16 8 15 9 14 10 13 11 6 12
REMARK SMILES IDX 7 13 8 14 9 15 12 16 11 17 10 18 4 20 20 22 17 24
REMARK H PARENT 10 19 4 21 20 23 17 25
REMARK Flexibility Score: inf
ROOT
ATOM      1  C   UNL     1      -2.321 -17.238  12.587  1.00  0.00     0.180 A 
ATOM      2  C   UNL     1      -3.483 -16.509  12.892  1.00  0.00     0.208 A 
ATOM      3  C   UNL     1      -4.452 -16.323  11.893  1.00  0.00     0.238 A 
ATOM      4  O   UNL     1      -5.465 -15.624  12.156  1.00  0.00    -0.285 OA
ATOM      5  C   UNL     1      -4.253 -16.880  10.607  1.00  0.00     0.111 A 
ATOM      6  C   UNL     1      -5.186 -16.788   9.531  1.00  0.00     0.134 A 
ATOM      7  C   UNL     1      -4.829 -17.264   8.263  1.00  0.00     0.093 A 
ATOM      8  C   UNL     1      -3.597 -17.887   8.049  1.00  0.00     0.123 A 
ATOM      9  C   UNL     1      -2.704 -18.035   9.107  1.00  0.00     0.094 A 
ATOM     10  C   UNL     1      -3.017 -17.538  10.375  1.00  0.00     0.146 A 
ATOM     11  O   UNL     1      -2.133 -17.690  11.353  1.00  0.00    -0.452 OA
ENDROOT
BRANCH   1  12
ATOM     12  C   UNL     1      -1.266 -17.497  13.594  1.00  0.00     0.021 A 
ATOM     13  C   UNL     1      -0.093 -18.168  13.211  1.00  0.00     0.016 A 
ATOM     14  C   UNL     1       0.905 -18.444  14.151  1.00  0.00     0.047 A 
ATOM     15  C   UNL     1       0.738 -18.066  15.486  1.00  0.00     0.115 A 
ATOM     16  C   UNL     1      -1.438 -17.137  14.944  1.00  0.00     0.016 A 
ATOM     17  C   UNL     1      -0.438 -17.415  15.881  1.00  0.00     0.047 A 
BRANCH  15  18
ATOM     18  O   UNL     1       1.740 -18.346  16.411  1.00  0.00    -0.508 OA
ATOM     19  H   UNL     1       2.611 -17.828  16.420  1.00  0.00     0.293 HD
ENDBRANCH  15  18
ENDBRANCH   1  12
BRANCH   2  20
ATOM     20  O   UNL     1      -3.649 -15.949  14.162  1.00  0.00    -0.502 OA
ATOM     21  H   UNL     1      -4.151 -15.083  14.313  1.00  0.00     0.293 HD
ENDBRANCH   2  20
BRANCH   6  22
ATOM     22  O   UNL     1      -6.477 -16.267   9.660  1.00  0.00    -0.507 OA
ATOM     23  H   UNL     1      -7.292 -16.805   9.917  1.00  0.00     0.293 HD
ENDBRANCH   6  22
BRANCH   8  24
ATOM     24  O   UNL     1      -3.255 -18.372   6.790  1.00  0.00    -0.508 OA
ATOM     25  H   UNL     1      -2.520 -17.945   6.238  1.00  0.00     0.293 HD
ENDBRANCH   8  24
TORSDOF 5
ENDMDL
