MODEL 1
REMARK VINA RESULT:    -3.590      0.000      0.000
REMARK INTER + INTRA:          -9.686
REMARK INTER:                  -6.948
REMARK INTRA:                  -2.738
REMARK UNBOUND:                -2.738
REMARK SMILES CCCCCCCCCCCCCCCCCC(=O)[O-]
REMARK SMILES IDX 10 1 11 2 12 3 13 4 14 5 15 6 16 7 17 8 18 9 19 10 20 11
REMARK SMILES IDX 9 12 8 13 7 14 6 15 5 16 4 17 3 18 2 19 1 20
REMARK H PARENT
REMARK Flexibility Score: inf
ROOT
ATOM      1  C   UNL     1     -23.839   1.861  24.492  1.00  0.00     0.000 C 
ENDROOT
BRANCH   1   2
ATOM      2  C   UNL     1     -24.987   2.753  24.996  1.00  0.00     0.000 C 
BRANCH   2   3
ATOM      3  C   UNL     1     -24.540   4.200  25.268  1.00  0.00     0.000 C 
BRANCH   3   4
ATOM      4  C   UNL     1     -24.890   5.209  24.157  1.00  0.00     0.000 C 
BRANCH   4   5
ATOM      5  C   UNL     1     -23.689   5.599  23.269  1.00  0.00     0.000 C 
BRANCH   5   6
ATOM      6  C   UNL     1     -22.342   5.337  23.967  1.00  0.00     0.000 C 
BRANCH   6   7
ATOM      7  C   UNL     1     -21.177   6.095  23.311  1.00  0.00     0.006 C 
BRANCH   7   8
ATOM      8  C   UNL     1     -20.317   5.197  22.413  1.00  0.00     0.053 C 
BRANCH   8   9
ATOM      9  C   UNL     1     -20.559   5.515  20.972  1.00  0.00     0.041 C 
ATOM     10  O   UNL     1     -19.942   6.464  20.421  1.00  0.00    -0.550 OA
ATOM     11  O   UNL     1     -21.503   4.796  20.249  1.00  0.00    -0.550 OA
ENDBRANCH   8   9
ENDBRANCH   7   8
ENDBRANCH   6   7
ENDBRANCH   5   6
ENDBRANCH   4   5
ENDBRANCH   3   4
ENDBRANCH   2   3
ENDBRANCH   1   2
BRANCH   1  12
ATOM     12  C   UNL     1     -23.966   1.531  22.996  1.00  0.00     0.000 C 
BRANCH  12  13
ATOM     13  C   UNL     1     -22.838   2.151  22.153  1.00  0.00    -0.000 C 
BRANCH  13  14
ATOM     14  C   UNL     1     -21.441   1.803  22.690  1.00  0.00    -0.000 C 
BRANCH  14  15
ATOM     15  C   UNL     1     -20.482   1.339  21.584  1.00  0.00    -0.000 C 
BRANCH  15  16
ATOM     16  C   UNL     1     -20.321  -0.186  21.599  1.00  0.00    -0.000 C 
BRANCH  16  17
ATOM     17  C   UNL     1     -21.295  -0.852  20.616  1.00  0.00    -0.000 C 
BRANCH  17  18
ATOM     18  C   UNL     1     -22.485  -1.520  21.322  1.00  0.00    -0.000 C 
BRANCH  18  19
ATOM     19  C   UNL     1     -22.171  -1.899  22.777  1.00  0.00    -0.003 C 
ATOM     20  C   UNL     1     -23.445  -1.960  23.616  1.00  0.00     0.004 C 
ENDBRANCH  18  19
ENDBRANCH  17  18
ENDBRANCH  16  17
ENDBRANCH  15  16
ENDBRANCH  14  15
ENDBRANCH  13  14
ENDBRANCH  12  13
ENDBRANCH   1  12
TORSDOF 16
ENDMDL
MODEL 2
REMARK VINA RESULT:    -3.560      1.308      1.745
REMARK INTER + INTRA:          -9.627
REMARK INTER:                  -7.285
REMARK INTRA:                  -2.342
REMARK UNBOUND:                -2.738
REMARK SMILES CCCCCCCCCCCCCCCCCC(=O)[O-]
REMARK SMILES IDX 10 1 11 2 12 3 13 4 14 5 15 6 16 7 17 8 18 9 19 10 20 11
REMARK SMILES IDX 9 12 8 13 7 14 6 15 5 16 4 17 3 18 2 19 1 20
REMARK H PARENT
REMARK Flexibility Score: inf
ROOT
ATOM      1  C   UNL     1     -22.629   3.372  24.355  1.00  0.00     0.000 C 
ENDROOT
BRANCH   1   2
ATOM      2  C   UNL     1     -23.198   4.749  24.737  1.00  0.00     0.000 C 
BRANCH   2   3
ATOM      3  C   UNL     1     -24.520   5.067  24.017  1.00  0.00     0.000 C 
BRANCH   3   4
ATOM      4  C   UNL     1     -24.459   6.259  23.042  1.00  0.00     0.000 C 
BRANCH   4   5
ATOM      5  C   UNL     1     -23.271   6.199  22.059  1.00  0.00     0.000 C 
BRANCH   5   6
ATOM      6  C   UNL     1     -22.530   7.544  21.961  1.00  0.00     0.000 C 
BRANCH   6   7
ATOM      7  C   UNL     1     -21.228   7.565  22.778  1.00  0.00     0.006 C 
BRANCH   7   8
ATOM      8  C   UNL     1     -20.529   6.200  22.811  1.00  0.00     0.053 C 
BRANCH   8   9
ATOM      9  C   UNL     1     -19.273   6.238  21.999  1.00  0.00     0.041 C 
ATOM     10  O   UNL     1     -19.246   5.721  20.851  1.00  0.00    -0.550 OA
ATOM     11  O   UNL     1     -18.118   6.798  22.529  1.00  0.00    -0.550 OA
ENDBRANCH   8   9
ENDBRANCH   7   8
ENDBRANCH   6   7
ENDBRANCH   5   6
ENDBRANCH   4   5
ENDBRANCH   3   4
ENDBRANCH   2   3
ENDBRANCH   1   2
BRANCH   1  12
ATOM     12  C   UNL     1     -23.620   2.536  23.530  1.00  0.00     0.000 C 
BRANCH  12  13
ATOM     13  C   UNL     1     -23.040   2.095  22.174  1.00  0.00    -0.000 C 
BRANCH  13  14
ATOM     14  C   UNL     1     -21.744   2.839  21.816  1.00  0.00    -0.000 C 
BRANCH  14  15
ATOM     15  C   UNL     1     -20.656   1.903  21.273  1.00  0.00    -0.000 C 
BRANCH  15  16
ATOM     16  C   UNL     1     -20.701   0.540  21.976  1.00  0.00    -0.000 C 
BRANCH  16  17
ATOM     17  C   UNL     1     -20.936  -0.593  20.966  1.00  0.00    -0.000 C 
BRANCH  17  18
ATOM     18  C   UNL     1     -22.243  -1.357  21.227  1.00  0.00    -0.000 C 
BRANCH  18  19
ATOM     19  C   UNL     1     -22.259  -2.052  22.597  1.00  0.00    -0.003 C 
ATOM     20  C   UNL     1     -23.397  -1.526  23.467  1.00  0.00     0.004 C 
ENDBRANCH  18  19
ENDBRANCH  17  18
ENDBRANCH  16  17
ENDBRANCH  15  16
ENDBRANCH  14  15
ENDBRANCH  13  14
ENDBRANCH  12  13
ENDBRANCH   1  12
TORSDOF 16
ENDMDL
MODEL 3
REMARK VINA RESULT:    -3.558      2.864      5.863
REMARK INTER + INTRA:          -9.625
REMARK INTER:                  -7.083
REMARK INTRA:                  -2.542
REMARK UNBOUND:                -2.738
REMARK SMILES CCCCCCCCCCCCCCCCCC(=O)[O-]
REMARK SMILES IDX 10 1 11 2 12 3 13 4 14 5 15 6 16 7 17 8 18 9 19 10 20 11
REMARK SMILES IDX 9 12 8 13 7 14 6 15 5 16 4 17 3 18 2 19 1 20
REMARK H PARENT
REMARK Flexibility Score: inf
ROOT
ATOM      1  C   UNL     1     -22.878   4.280  25.325  1.00  0.00     0.000 C 
ENDROOT
BRANCH   1   2
ATOM      2  C   UNL     1     -24.372   4.397  25.676  1.00  0.00     0.000 C 
BRANCH   2   3
ATOM      3  C   UNL     1     -25.125   3.064  25.523  1.00  0.00     0.000 C 
BRANCH   3   4
ATOM      4  C   UNL     1     -24.263   1.882  25.037  1.00  0.00     0.000 C 
BRANCH   4   5
ATOM      5  C   UNL     1     -24.636   1.378  23.627  1.00  0.00     0.000 C 
BRANCH   5   6
ATOM      6  C   UNL     1     -23.579   1.761  22.576  1.00  0.00     0.000 C 
BRANCH   6   7
ATOM      7  C   UNL     1     -22.293   0.928  22.698  1.00  0.00     0.006 C 
BRANCH   7   8
ATOM      8  C   UNL     1     -22.169  -0.135  21.600  1.00  0.00     0.053 C 
BRANCH   8   9
ATOM      9  C   UNL     1     -22.213  -1.507  22.195  1.00  0.00     0.041 C 
ATOM     10  O   UNL     1     -21.355  -2.368  21.865  1.00  0.00    -0.550 OA
ATOM     11  O   UNL     1     -23.231  -1.852  23.075  1.00  0.00    -0.550 OA
ENDBRANCH   8   9
ENDBRANCH   7   8
ENDBRANCH   6   7
ENDBRANCH   5   6
ENDBRANCH   4   5
ENDBRANCH   3   4
ENDBRANCH   2   3
ENDBRANCH   1   2
BRANCH   1  12
ATOM     12  C   UNL     1     -22.473   5.207  24.168  1.00  0.00     0.000 C 
BRANCH  12  13
ATOM     13  C   UNL     1     -23.629   5.473  23.187  1.00  0.00    -0.000 C 
BRANCH  13  14
ATOM     14  C   UNL     1     -23.446   6.782  22.402  1.00  0.00    -0.000 C 
BRANCH  14  15
ATOM     15  C   UNL     1     -22.034   7.366  22.548  1.00  0.00    -0.000 C 
BRANCH  15  16
ATOM     16  C   UNL     1     -21.511   7.884  21.202  1.00  0.00    -0.000 C 
BRANCH  16  17
ATOM     17  C   UNL     1     -21.666   6.822  20.104  1.00  0.00    -0.000 C 
BRANCH  17  18
ATOM     18  C   UNL     1     -20.557   5.760  20.147  1.00  0.00    -0.000 C 
BRANCH  18  19
ATOM     19  C   UNL     1     -21.062   4.396  20.642  1.00  0.00    -0.003 C 
ATOM     20  C   UNL     1     -20.164   3.846  21.747  1.00  0.00     0.004 C 
ENDBRANCH  18  19
ENDBRANCH  17  18
ENDBRANCH  16  17
ENDBRANCH  15  16
ENDBRANCH  14  15
ENDBRANCH  13  14
ENDBRANCH  12  13
ENDBRANCH   1  12
TORSDOF 16
ENDMDL
MODEL 4
REMARK VINA RESULT:    -3.532      2.290      5.303
REMARK INTER + INTRA:          -9.574
REMARK INTER:                  -7.197
REMARK INTRA:                  -2.377
REMARK UNBOUND:                -2.738
REMARK SMILES CCCCCCCCCCCCCCCCCC(=O)[O-]
REMARK SMILES IDX 10 1 11 2 12 3 13 4 14 5 15 6 16 7 17 8 18 9 19 10 20 11
REMARK SMILES IDX 9 12 8 13 7 14 6 15 5 16 4 17 3 18 2 19 1 20
REMARK H PARENT
REMARK Flexibility Score: inf
ROOT
ATOM      1  C   UNL     1     -23.886   5.618  23.023  1.00  0.00     0.000 C 
ENDROOT
BRANCH   1   2
ATOM      2  C   UNL     1     -25.072   5.508  23.997  1.00  0.00     0.000 C 
BRANCH   2   3
ATOM      3  C   UNL     1     -24.885   4.391  25.039  1.00  0.00     0.000 C 
BRANCH   3   4
ATOM      4  C   UNL     1     -23.814   3.341  24.681  1.00  0.00     0.000 C 
BRANCH   4   5
ATOM      5  C   UNL     1     -24.377   2.099  23.959  1.00  0.00     0.000 C 
BRANCH   5   6
ATOM      6  C   UNL     1     -23.692   0.800  24.419  1.00  0.00     0.000 C 
BRANCH   6   7
ATOM      7  C   UNL     1     -23.391  -0.156  23.254  1.00  0.00     0.006 C 
BRANCH   7   8
ATOM      8  C   UNL     1     -21.887  -0.335  23.009  1.00  0.00     0.053 C 
BRANCH   8   9
ATOM      9  C   UNL     1     -21.624  -0.628  21.566  1.00  0.00     0.041 C 
ATOM     10  O   UNL     1     -20.659  -0.077  20.973  1.00  0.00    -0.550 OA
ATOM     11  O   UNL     1     -22.475  -1.470  20.861  1.00  0.00    -0.550 OA
ENDBRANCH   8   9
ENDBRANCH   7   8
ENDBRANCH   6   7
ENDBRANCH   5   6
ENDBRANCH   4   5
ENDBRANCH   3   4
ENDBRANCH   2   3
ENDBRANCH   1   2
BRANCH   1  12
ATOM     12  C   UNL     1     -23.689   7.049  22.498  1.00  0.00     0.000 C 
BRANCH  12  13
ATOM     13  C   UNL     1     -22.220   7.363  22.164  1.00  0.00    -0.000 C 
BRANCH  13  14
ATOM     14  C   UNL     1     -22.012   7.702  20.680  1.00  0.00    -0.000 C 
BRANCH  14  15
ATOM     15  C   UNL     1     -20.976   6.791  20.005  1.00  0.00    -0.000 C 
BRANCH  15  16
ATOM     16  C   UNL     1     -21.497   5.353  19.893  1.00  0.00    -0.000 C 
BRANCH  16  17
ATOM     17  C   UNL     1     -20.581   4.376  20.644  1.00  0.00    -0.000 C 
BRANCH  17  18
ATOM     18  C   UNL     1     -21.364   3.375  21.508  1.00  0.00    -0.000 C 
BRANCH  18  19
ATOM     19  C   UNL     1     -20.704   3.131  22.874  1.00  0.00    -0.003 C 
ATOM     20  C   UNL     1     -20.397   4.449  23.579  1.00  0.00     0.004 C 
ENDBRANCH  18  19
ENDBRANCH  17  18
ENDBRANCH  16  17
ENDBRANCH  15  16
ENDBRANCH  14  15
ENDBRANCH  13  14
ENDBRANCH  12  13
ENDBRANCH   1  12
TORSDOF 16
ENDMDL
MODEL 5
REMARK VINA RESULT:    -3.532      2.514      5.646
REMARK INTER + INTRA:          -9.573
REMARK INTER:                  -6.905
REMARK INTRA:                  -2.668
REMARK UNBOUND:                -2.738
REMARK SMILES CCCCCCCCCCCCCCCCCC(=O)[O-]
REMARK SMILES IDX 10 1 11 2 12 3 13 4 14 5 15 6 16 7 17 8 18 9 19 10 20 11
REMARK SMILES IDX 9 12 8 13 7 14 6 15 5 16 4 17 3 18 2 19 1 20
REMARK H PARENT
REMARK Flexibility Score: inf
ROOT
ATOM      1  C   UNL     1     -22.377   7.407  22.146  1.00  0.00     0.000 C 
ENDROOT
BRANCH   1   2
ATOM      2  C   UNL     1     -23.781   6.834  22.407  1.00  0.00     0.000 C 
BRANCH   2   3
ATOM      3  C   UNL     1     -23.743   5.450  23.078  1.00  0.00     0.000 C 
BRANCH   3   4
ATOM      4  C   UNL     1     -24.774   5.245  24.206  1.00  0.00     0.000 C 
BRANCH   4   5
ATOM      5  C   UNL     1     -24.836   3.797  24.737  1.00  0.00     0.000 C 
BRANCH   5   6
ATOM      6  C   UNL     1     -23.641   2.952  24.262  1.00  0.00     0.000 C 
BRANCH   6   7
ATOM      7  C   UNL     1     -24.073   1.640  23.589  1.00  0.00     0.006 C 
BRANCH   7   8
ATOM      8  C   UNL     1     -23.388   1.416  22.235  1.00  0.00     0.053 C 
BRANCH   8   9
ATOM      9  C   UNL     1     -22.438   0.263  22.315  1.00  0.00     0.041 C 
ATOM     10  O   UNL     1     -22.615  -0.754  21.593  1.00  0.00    -0.550 OA
ATOM     11  O   UNL     1     -21.387   0.289  23.222  1.00  0.00    -0.550 OA
ENDBRANCH   8   9
ENDBRANCH   7   8
ENDBRANCH   6   7
ENDBRANCH   5   6
ENDBRANCH   4   5
ENDBRANCH   3   4
ENDBRANCH   2   3
ENDBRANCH   1   2
BRANCH   1  12
ATOM     12  C   UNL     1     -22.098   7.619  20.650  1.00  0.00     0.000 C 
BRANCH  12  13
ATOM     13  C   UNL     1     -20.959   6.726  20.126  1.00  0.00    -0.000 C 
BRANCH  13  14
ATOM     14  C   UNL     1     -21.332   5.235  20.122  1.00  0.00    -0.000 C 
BRANCH  14  15
ATOM     15  C   UNL     1     -20.213   4.345  20.681  1.00  0.00    -0.000 C 
BRANCH  15  16
ATOM     16  C   UNL     1     -20.671   3.616  21.950  1.00  0.00    -0.000 C 
BRANCH  16  17
ATOM     17  C   UNL     1     -19.754   3.946  23.137  1.00  0.00    -0.000 C 
BRANCH  17  18
ATOM     18  C   UNL     1     -20.344   5.026  24.058  1.00  0.00    -0.000 C 
BRANCH  18  19
ATOM     19  C   UNL     1     -19.320   6.109  24.429  1.00  0.00    -0.003 C 
ATOM     20  C   UNL     1     -18.849   6.867  23.191  1.00  0.00     0.004 C 
ENDBRANCH  18  19
ENDBRANCH  17  18
ENDBRANCH  16  17
ENDBRANCH  15  16
ENDBRANCH  14  15
ENDBRANCH  13  14
ENDBRANCH  12  13
ENDBRANCH   1  12
TORSDOF 16
ENDMDL
MODEL 6
REMARK VINA RESULT:    -3.525      2.487      4.654
REMARK INTER + INTRA:          -9.561
REMARK INTER:                  -7.571
REMARK INTRA:                  -1.990
REMARK UNBOUND:                -2.738
REMARK SMILES CCCCCCCCCCCCCCCCCC(=O)[O-]
REMARK SMILES IDX 10 1 11 2 12 3 13 4 14 5 15 6 16 7 17 8 18 9 19 10 20 11
REMARK SMILES IDX 9 12 8 13 7 14 6 15 5 16 4 17 3 18 2 19 1 20
REMARK H PARENT
REMARK Flexibility Score: inf
ROOT
ATOM      1  C   UNL     1     -21.743   7.585  20.436  1.00  0.00     0.000 C 
ENDROOT
BRANCH   1   2
ATOM      2  C   UNL     1     -21.246   7.471  21.888  1.00  0.00     0.000 C 
BRANCH   2   3
ATOM      3  C   UNL     1     -22.358   7.053  22.866  1.00  0.00     0.000 C 
BRANCH   3   4
ATOM      4  C   UNL     1     -23.714   6.729  22.210  1.00  0.00     0.000 C 
BRANCH   4   5
ATOM      5  C   UNL     1     -24.815   6.336  23.217  1.00  0.00     0.000 C 
BRANCH   5   6
ATOM      6  C   UNL     1     -24.519   4.992  23.906  1.00  0.00     0.000 C 
BRANCH   6   7
ATOM      7  C   UNL     1     -24.960   4.971  25.378  1.00  0.00     0.006 C 
BRANCH   7   8
ATOM      8  C   UNL     1     -24.117   4.018  26.235  1.00  0.00     0.053 C 
BRANCH   8   9
ATOM      9  C   UNL     1     -22.754   4.589  26.463  1.00  0.00     0.041 C 
ATOM     10  O   UNL     1     -22.574   5.464  27.351  1.00  0.00    -0.550 OA
ATOM     11  O   UNL     1     -21.690   4.194  25.661  1.00  0.00    -0.550 OA
ENDBRANCH   8   9
ENDBRANCH   7   8
ENDBRANCH   6   7
ENDBRANCH   5   6
ENDBRANCH   4   5
ENDBRANCH   3   4
ENDBRANCH   2   3
ENDBRANCH   1   2
BRANCH   1  12
ATOM     12  C   UNL     1     -21.056   6.578  19.501  1.00  0.00     0.000 C 
BRANCH  12  13
ATOM     13  C   UNL     1     -21.355   5.116  19.878  1.00  0.00    -0.000 C 
BRANCH  13  14
ATOM     14  C   UNL     1     -20.114   4.376  20.400  1.00  0.00    -0.000 C 
BRANCH  14  15
ATOM     15  C   UNL     1     -20.436   3.434  21.570  1.00  0.00    -0.000 C 
BRANCH  15  16
ATOM     16  C   UNL     1     -21.930   3.477  21.916  1.00  0.00    -0.000 C 
BRANCH  16  17
ATOM     17  C   UNL     1     -22.341   2.244  22.734  1.00  0.00    -0.000 C 
BRANCH  17  18
ATOM     18  C   UNL     1     -22.910   1.116  21.860  1.00  0.00    -0.000 C 
BRANCH  18  19
ATOM     19  C   UNL     1     -22.591  -0.280  22.415  1.00  0.00    -0.003 C 
ATOM     20  C   UNL     1     -22.356  -1.280  21.285  1.00  0.00     0.004 C 
ENDBRANCH  18  19
ENDBRANCH  17  18
ENDBRANCH  16  17
ENDBRANCH  15  16
ENDBRANCH  14  15
ENDBRANCH  13  14
ENDBRANCH  12  13
ENDBRANCH   1  12
TORSDOF 16
ENDMDL
MODEL 7
REMARK VINA RESULT:    -3.520      1.282      2.974
REMARK INTER + INTRA:          -9.550
REMARK INTER:                  -7.343
REMARK INTRA:                  -2.208
REMARK UNBOUND:                -2.738
REMARK SMILES CCCCCCCCCCCCCCCCCC(=O)[O-]
REMARK SMILES IDX 10 1 11 2 12 3 13 4 14 5 15 6 16 7 17 8 18 9 19 10 20 11
REMARK SMILES IDX 9 12 8 13 7 14 6 15 5 16 4 17 3 18 2 19 1 20
REMARK H PARENT
REMARK Flexibility Score: inf
ROOT
ATOM      1  C   UNL     1     -22.488   3.938  26.004  1.00  0.00     0.000 C 
ENDROOT
BRANCH   1   2
ATOM      2  C   UNL     1     -22.081   5.183  25.197  1.00  0.00     0.000 C 
BRANCH   2   3
ATOM      3  C   UNL     1     -22.300   5.009  23.684  1.00  0.00     0.000 C 
BRANCH   3   4
ATOM      4  C   UNL     1     -23.647   5.541  23.156  1.00  0.00     0.000 C 
BRANCH   4   5
ATOM      5  C   UNL     1     -23.512   6.769  22.231  1.00  0.00     0.000 C 
BRANCH   5   6
ATOM      6  C   UNL     1     -22.117   7.412  22.321  1.00  0.00     0.000 C 
BRANCH   6   7
ATOM      7  C   UNL     1     -21.601   7.903  20.959  1.00  0.00     0.006 C 
BRANCH   7   8
ATOM      8  C   UNL     1     -21.410   6.761  19.953  1.00  0.00     0.053 C 
BRANCH   8   9
ATOM      9  C   UNL     1     -20.371   5.803  20.442  1.00  0.00     0.041 C 
ATOM     10  O   UNL     1     -19.206   6.208  20.699  1.00  0.00    -0.550 OA
ATOM     11  O   UNL     1     -20.672   4.452  20.565  1.00  0.00    -0.550 OA
ENDBRANCH   8   9
ENDBRANCH   7   8
ENDBRANCH   6   7
ENDBRANCH   5   6
ENDBRANCH   4   5
ENDBRANCH   3   4
ENDBRANCH   2   3
ENDBRANCH   1   2
BRANCH   1  12
ATOM     12  C   UNL     1     -23.963   3.973  26.433  1.00  0.00     0.000 C 
BRANCH  12  13
ATOM     13  C   UNL     1     -24.840   3.000  25.626  1.00  0.00    -0.000 C 
BRANCH  13  14
ATOM     14  C   UNL     1     -24.028   1.857  24.996  1.00  0.00    -0.000 C 
BRANCH  14  15
ATOM     15  C   UNL     1     -24.610   1.388  23.656  1.00  0.00    -0.000 C 
BRANCH  15  16
ATOM     16  C   UNL     1     -23.617   1.623  22.511  1.00  0.00    -0.000 C 
BRANCH  16  17
ATOM     17  C   UNL     1     -22.176   1.350  22.967  1.00  0.00    -0.000 C 
BRANCH  17  18
ATOM     18  C   UNL     1     -21.401   0.462  21.981  1.00  0.00    -0.000 C 
BRANCH  18  19
ATOM     19  C   UNL     1     -21.947  -0.973  21.922  1.00  0.00    -0.003 C 
ATOM     20  C   UNL     1     -22.162  -1.420  20.479  1.00  0.00     0.004 C 
ENDBRANCH  18  19
ENDBRANCH  17  18
ENDBRANCH  16  17
ENDBRANCH  15  16
ENDBRANCH  14  15
ENDBRANCH  13  14
ENDBRANCH  12  13
ENDBRANCH   1  12
TORSDOF 16
ENDMDL
MODEL 8
REMARK VINA RESULT:    -3.492      1.591      2.540
REMARK INTER + INTRA:          -9.496
REMARK INTER:                  -6.689
REMARK INTRA:                  -2.807
REMARK UNBOUND:                -2.738
REMARK SMILES CCCCCCCCCCCCCCCCCC(=O)[O-]
REMARK SMILES IDX 10 1 11 2 12 3 13 4 14 5 15 6 16 7 17 8 18 9 19 10 20 11
REMARK SMILES IDX 9 12 8 13 7 14 6 15 5 16 4 17 3 18 2 19 1 20
REMARK H PARENT
REMARK Flexibility Score: inf
ROOT
ATOM      1  C   UNL     1     -21.895   3.593  26.160  1.00  0.00     0.000 C 
ENDROOT
BRANCH   1   2
ATOM      2  C   UNL     1     -22.962   4.703  26.148  1.00  0.00     0.000 C 
BRANCH   2   3
ATOM      3  C   UNL     1     -24.151   4.374  25.229  1.00  0.00     0.000 C 
BRANCH   3   4
ATOM      4  C   UNL     1     -23.952   4.749  23.747  1.00  0.00     0.000 C 
BRANCH   4   5
ATOM      5  C   UNL     1     -24.757   5.990  23.306  1.00  0.00     0.000 C 
BRANCH   5   6
ATOM      6  C   UNL     1     -23.911   6.962  22.465  1.00  0.00     0.000 C 
BRANCH   6   7
ATOM      7  C   UNL     1     -22.497   6.428  22.186  1.00  0.00     0.006 C 
BRANCH   7   8
ATOM      8  C   UNL     1     -21.739   7.272  21.153  1.00  0.00     0.053 C 
BRANCH   8   9
ATOM      9  C   UNL     1     -20.876   6.399  20.298  1.00  0.00     0.041 C 
ATOM     10  O   UNL     1     -21.387   5.716  19.372  1.00  0.00    -0.550 OA
ATOM     11  O   UNL     1     -19.515   6.300  20.556  1.00  0.00    -0.550 OA
ENDBRANCH   8   9
ENDBRANCH   7   8
ENDBRANCH   6   7
ENDBRANCH   5   6
ENDBRANCH   4   5
ENDBRANCH   3   4
ENDBRANCH   2   3
ENDBRANCH   1   2
BRANCH   1  12
ATOM     12  C   UNL     1     -20.676   3.942  25.292  1.00  0.00     0.000 C 
BRANCH  12  13
ATOM     13  C   UNL     1     -20.434   2.918  24.169  1.00  0.00    -0.000 C 
BRANCH  13  14
ATOM     14  C   UNL     1     -20.312   3.578  22.786  1.00  0.00    -0.000 C 
BRANCH  14  15
ATOM     15  C   UNL     1     -21.223   2.923  21.737  1.00  0.00    -0.000 C 
BRANCH  15  16
ATOM     16  C   UNL     1     -21.002   1.406  21.686  1.00  0.00    -0.000 C 
BRANCH  16  17
ATOM     17  C   UNL     1     -22.336   0.652  21.795  1.00  0.00    -0.000 C 
BRANCH  17  18
ATOM     18  C   UNL     1     -23.463   1.522  22.373  1.00  0.00    -0.000 C 
BRANCH  18  19
ATOM     19  C   UNL     1     -24.092   0.913  23.635  1.00  0.00    -0.003 C 
ATOM     20  C   UNL     1     -23.021   0.351  24.567  1.00  0.00     0.004 C 
ENDBRANCH  18  19
ENDBRANCH  17  18
ENDBRANCH  16  17
ENDBRANCH  15  16
ENDBRANCH  14  15
ENDBRANCH  13  14
ENDBRANCH  12  13
ENDBRANCH   1  12
TORSDOF 16
ENDMDL
MODEL 9
REMARK VINA RESULT:    -2.921      2.681      6.308
REMARK INTER + INTRA:          -8.392
REMARK INTER:                  -6.125
REMARK INTRA:                  -2.267
REMARK UNBOUND:                -2.738
REMARK SMILES CCCCCCCCCCCCCCCCCC(=O)[O-]
REMARK SMILES IDX 10 1 11 2 12 3 13 4 14 5 15 6 16 7 17 8 18 9 19 10 20 11
REMARK SMILES IDX 9 12 8 13 7 14 6 15 5 16 4 17 3 18 2 19 1 20
REMARK H PARENT
REMARK Flexibility Score: inf
ROOT
ATOM      1  C   UNL     1     -21.482   7.303  22.736  1.00  0.00     0.000 C 
ENDROOT
BRANCH   1   2
ATOM      2  C   UNL     1     -20.272   6.594  22.103  1.00  0.00     0.000 C 
BRANCH   2   3
ATOM      3  C   UNL     1     -20.482   6.276  20.612  1.00  0.00     0.000 C 
BRANCH   3   4
ATOM      4  C   UNL     1     -20.602   4.776  20.278  1.00  0.00     0.000 C 
BRANCH   4   5
ATOM      5  C   UNL     1     -20.512   3.854  21.512  1.00  0.00     0.000 C 
BRANCH   5   6
ATOM      6  C   UNL     1     -21.825   3.092  21.765  1.00  0.00     0.000 C 
BRANCH   6   7
ATOM      7  C   UNL     1     -21.596   1.704  22.382  1.00  0.00     0.006 C 
BRANCH   7   8
ATOM      8  C   UNL     1     -21.094   0.677  21.359  1.00  0.00     0.053 C 
BRANCH   8   9
ATOM      9  C   UNL     1     -22.010  -0.504  21.313  1.00  0.00     0.041 C 
ATOM     10  O   UNL     1     -22.040  -1.244  20.294  1.00  0.00    -0.550 OA
ATOM     11  O   UNL     1     -22.869  -0.761  22.375  1.00  0.00    -0.550 OA
ENDBRANCH   8   9
ENDBRANCH   7   8
ENDBRANCH   6   7
ENDBRANCH   5   6
ENDBRANCH   4   5
ENDBRANCH   3   4
ENDBRANCH   2   3
ENDBRANCH   1   2
BRANCH   1  12
ATOM     12  C   UNL     1     -22.691   7.359  21.789  1.00  0.00     0.000 C 
BRANCH  12  13
ATOM     13  C   UNL     1     -24.004   6.944  22.477  1.00  0.00    -0.000 C 
BRANCH  13  14
ATOM     14  C   UNL     1     -23.871   5.626  23.256  1.00  0.00    -0.000 C 
BRANCH  14  15
ATOM     15  C   UNL     1     -25.125   5.296  24.077  1.00  0.00    -0.000 C 
BRANCH  15  16
ATOM     16  C   UNL     1     -24.826   4.224  25.133  1.00  0.00    -0.000 C 
BRANCH  16  17
ATOM     17  C   UNL     1     -24.109   4.832  26.348  1.00  0.00    -0.000 C 
BRANCH  17  18
ATOM     18  C   UNL     1     -22.726   4.209  26.592  1.00  0.00    -0.000 C 
BRANCH  18  19
ATOM     19  C   UNL     1     -21.577   5.177  26.270  1.00  0.00    -0.003 C 
ATOM     20  C   UNL     1     -20.655   4.598  25.201  1.00  0.00     0.004 C 
ENDBRANCH  18  19
ENDBRANCH  17  18
ENDBRANCH  16  17
ENDBRANCH  15  16
ENDBRANCH  14  15
ENDBRANCH  13  14
ENDBRANCH  12  13
ENDBRANCH   1  12
TORSDOF 16
ENDMDL
