MODEL 1
REMARK VINA RESULT:    -3.230      0.000      0.000
REMARK INTER + INTRA:         -13.801
REMARK INTER:                  -8.140
REMARK INTRA:                  -5.661
REMARK UNBOUND:                -5.661
REMARK SMILES CCCCCCCCCCCCCCCCCCCCCCCCCCCC(=O)[O-]
REMARK SMILES IDX 15 1 16 2 17 3 18 4 19 5 20 6 21 7 22 8 23 9 24 10 25 11
REMARK SMILES IDX 26 12 27 13 28 14 29 15 30 16 14 17 13 18 12 19 11 20 10 21
REMARK SMILES IDX 9 22 8 23 7 24 6 25 5 26 4 27 3 28 2 29 1 30
REMARK H PARENT
REMARK Flexibility Score: inf
ROOT
ATOM      1  C   UNL     1     166.359 157.322 179.491  1.00  0.00     0.000 C 
ENDROOT
BRANCH   1   2
ATOM      2  C   UNL     1     165.619 158.662 179.676  1.00  0.00     0.000 C 
BRANCH   2   3
ATOM      3  C   UNL     1     164.120 158.540 180.017  1.00  0.00     0.000 C 
BRANCH   3   4
ATOM      4  C   UNL     1     163.189 159.423 179.167  1.00  0.00     0.000 C 
BRANCH   4   5
ATOM      5  C   UNL     1     161.907 158.695 178.738  1.00  0.00     0.000 C 
BRANCH   5   6
ATOM      6  C   UNL     1     162.127 157.178 178.697  1.00  0.00     0.000 C 
BRANCH   6   7
ATOM      7  C   UNL     1     162.266 156.678 177.256  1.00  0.00     0.000 C 
BRANCH   7   8
ATOM      8  C   UNL     1     163.744 156.518 176.869  1.00  0.00     0.000 C 
BRANCH   8   9
ATOM      9  C   UNL     1     164.084 157.217 175.536  1.00  0.00     0.000 C 
BRANCH   9  10
ATOM     10  C   UNL     1     164.496 158.693 175.693  1.00  0.00     0.000 C 
BRANCH  10  11
ATOM     11  C   UNL     1     163.719 159.682 174.808  1.00  0.00     0.000 C 
BRANCH  11  12
ATOM     12  C   UNL     1     162.473 160.254 175.507  1.00  0.00     0.006 C 
BRANCH  12  13
ATOM     13  C   UNL     1     161.192 159.507 175.109  1.00  0.00     0.053 C 
BRANCH  13  14
ATOM     14  C   UNL     1     160.056 160.447 174.842  1.00  0.00     0.041 C 
ATOM     15  O   UNL     1     158.866 160.042 174.925  1.00  0.00    -0.550 OA
ATOM     16  O   UNL     1     160.314 161.761 174.477  1.00  0.00    -0.550 OA
ENDBRANCH  13  14
ENDBRANCH  12  13
ENDBRANCH  11  12
ENDBRANCH  10  11
ENDBRANCH   9  10
ENDBRANCH   8   9
ENDBRANCH   7   8
ENDBRANCH   6   7
ENDBRANCH   5   6
ENDBRANCH   4   5
ENDBRANCH   3   4
ENDBRANCH   2   3
ENDBRANCH   1   2
BRANCH   1  17
ATOM     17  C   UNL     1     165.555 156.074 179.896  1.00  0.00     0.000 C 
BRANCH  17  18
ATOM     18  C   UNL     1     166.419 155.004 180.581  1.00  0.00     0.000 C 
BRANCH  18  19
ATOM     19  C   UNL     1     167.909 155.223 180.278  1.00  0.00     0.000 C 
BRANCH  19  20
ATOM     20  C   UNL     1     168.659 153.916 179.969  1.00  0.00     0.000 C 
BRANCH  20  21
ATOM     21  C   UNL     1     167.986 152.633 180.491  1.00  0.00     0.000 C 
BRANCH  21  22
ATOM     22  C   UNL     1     167.976 151.497 179.455  1.00  0.00    -0.000 C 
BRANCH  22  23
ATOM     23  C   UNL     1     168.601 151.912 178.109  1.00  0.00    -0.000 C 
BRANCH  23  24
ATOM     24  C   UNL     1     167.688 151.728 176.883  1.00  0.00    -0.000 C 
BRANCH  24  25
ATOM     25  C   UNL     1     166.200 151.949 177.208  1.00  0.00    -0.000 C 
BRANCH  25  26
ATOM     26  C   UNL     1     165.824 153.438 177.260  1.00  0.00    -0.000 C 
BRANCH  26  27
ATOM     27  C   UNL     1     166.448 154.244 176.107  1.00  0.00    -0.000 C 
BRANCH  27  28
ATOM     28  C   UNL     1     167.359 155.376 176.604  1.00  0.00    -0.000 C 
BRANCH  28  29
ATOM     29  C   UNL     1     168.710 155.410 175.877  1.00  0.00    -0.003 C 
ATOM     30  C   UNL     1     169.865 155.519 176.869  1.00  0.00     0.004 C 
ENDBRANCH  28  29
ENDBRANCH  27  28
ENDBRANCH  26  27
ENDBRANCH  25  26
ENDBRANCH  24  25
ENDBRANCH  23  24
ENDBRANCH  22  23
ENDBRANCH  21  22
ENDBRANCH  20  21
ENDBRANCH  19  20
ENDBRANCH  18  19
ENDBRANCH  17  18
ENDBRANCH   1  17
TORSDOF 26
ENDMDL
MODEL 2
REMARK VINA RESULT:    -3.080      2.549      7.804
REMARK INTER + INTRA:         -13.424
REMARK INTER:                  -8.043
REMARK INTRA:                  -5.380
REMARK UNBOUND:                -5.661
REMARK SMILES CCCCCCCCCCCCCCCCCCCCCCCCCCCC(=O)[O-]
REMARK SMILES IDX 15 1 16 2 17 3 18 4 19 5 20 6 21 7 22 8 23 9 24 10 25 11
REMARK SMILES IDX 26 12 27 13 28 14 29 15 30 16 14 17 13 18 12 19 11 20 10 21
REMARK SMILES IDX 9 22 8 23 7 24 6 25 5 26 4 27 3 28 2 29 1 30
REMARK H PARENT
REMARK Flexibility Score: inf
ROOT
ATOM      1  C   UNL     1     165.611 156.588 180.085  1.00  0.00     0.000 C 
ENDROOT
BRANCH   1   2
ATOM      2  C   UNL     1     165.916 155.087 180.257  1.00  0.00     0.000 C 
BRANCH   2   3
ATOM      3  C   UNL     1     167.405 154.741 180.459  1.00  0.00     0.000 C 
BRANCH   3   4
ATOM      4  C   UNL     1     167.739 153.242 180.373  1.00  0.00     0.000 C 
BRANCH   4   5
ATOM      5  C   UNL     1     169.159 152.977 179.850  1.00  0.00     0.000 C 
BRANCH   5   6
ATOM      6  C   UNL     1     169.136 151.979 178.687  1.00  0.00     0.000 C 
BRANCH   6   7
ATOM      7  C   UNL     1     167.788 151.255 178.606  1.00  0.00     0.000 C 
BRANCH   7   8
ATOM      8  C   UNL     1     167.177 151.384 177.203  1.00  0.00     0.000 C 
BRANCH   8   9
ATOM      9  C   UNL     1     165.923 152.282 177.186  1.00  0.00     0.000 C 
BRANCH   9  10
ATOM     10  C   UNL     1     166.221 153.764 176.890  1.00  0.00     0.000 C 
BRANCH  10  11
ATOM     11  C   UNL     1     167.512 154.021 176.095  1.00  0.00     0.000 C 
BRANCH  11  12
ATOM     12  C   UNL     1     168.421 155.070 176.761  1.00  0.00     0.006 C 
BRANCH  12  13
ATOM     13  C   UNL     1     167.751 156.449 176.842  1.00  0.00     0.053 C 
BRANCH  13  14
ATOM     14  C   UNL     1     168.028 157.278 175.625  1.00  0.00     0.041 C 
ATOM     15  O   UNL     1     169.097 157.939 175.538  1.00  0.00    -0.550 OA
ATOM     16  O   UNL     1     167.094 157.340 174.599  1.00  0.00    -0.550 OA
ENDBRANCH  13  14
ENDBRANCH  12  13
ENDBRANCH  11  12
ENDBRANCH  10  11
ENDBRANCH   9  10
ENDBRANCH   8   9
ENDBRANCH   7   8
ENDBRANCH   6   7
ENDBRANCH   5   6
ENDBRANCH   4   5
ENDBRANCH   3   4
ENDBRANCH   2   3
ENDBRANCH   1   2
BRANCH   1  17
ATOM     17  C   UNL     1     164.686 156.934 178.905  1.00  0.00     0.000 C 
BRANCH  17  18
ATOM     18  C   UNL     1     163.606 155.869 178.661  1.00  0.00     0.000 C 
BRANCH  18  19
ATOM     19  C   UNL     1     163.108 155.913 177.209  1.00  0.00     0.000 C 
BRANCH  19  20
ATOM     20  C   UNL     1     164.102 156.596 176.252  1.00  0.00     0.000 C 
BRANCH  20  21
ATOM     21  C   UNL     1     163.504 157.708 175.370  1.00  0.00     0.000 C 
BRANCH  21  22
ATOM     22  C   UNL     1     164.070 159.100 175.696  1.00  0.00    -0.000 C 
BRANCH  22  23
ATOM     23  C   UNL     1     163.836 160.120 174.565  1.00  0.00    -0.000 C 
BRANCH  23  24
ATOM     24  C   UNL     1     163.394 161.519 175.032  1.00  0.00    -0.000 C 
BRANCH  24  25
ATOM     25  C   UNL     1     161.869 161.643 175.188  1.00  0.00    -0.000 C 
BRANCH  25  26
ATOM     26  C   UNL     1     161.102 160.733 174.215  1.00  0.00    -0.000 C 
BRANCH  26  27
ATOM     27  C   UNL     1     160.024 159.892 174.921  1.00  0.00    -0.000 C 
BRANCH  27  28
ATOM     28  C   UNL     1     160.039 160.075 176.446  1.00  0.00    -0.000 C 
BRANCH  28  29
ATOM     29  C   UNL     1     160.389 158.780 177.193  1.00  0.00    -0.003 C 
ATOM     30  C   UNL     1     161.449 159.031 178.262  1.00  0.00     0.004 C 
ENDBRANCH  28  29
ENDBRANCH  27  28
ENDBRANCH  26  27
ENDBRANCH  25  26
ENDBRANCH  24  25
ENDBRANCH  23  24
ENDBRANCH  22  23
ENDBRANCH  21  22
ENDBRANCH  20  21
ENDBRANCH  19  20
ENDBRANCH  18  19
ENDBRANCH  17  18
ENDBRANCH   1  17
TORSDOF 26
ENDMDL
MODEL 3
REMARK VINA RESULT:    -3.078      1.681      3.726
REMARK INTER + INTRA:         -13.417
REMARK INTER:                  -8.259
REMARK INTRA:                  -5.158
REMARK UNBOUND:                -5.661
REMARK SMILES CCCCCCCCCCCCCCCCCCCCCCCCCCCC(=O)[O-]
REMARK SMILES IDX 15 1 16 2 17 3 18 4 19 5 20 6 21 7 22 8 23 9 24 10 25 11
REMARK SMILES IDX 26 12 27 13 28 14 29 15 30 16 14 17 13 18 12 19 11 20 10 21
REMARK SMILES IDX 9 22 8 23 7 24 6 25 5 26 4 27 3 28 2 29 1 30
REMARK H PARENT
REMARK Flexibility Score: inf
ROOT
ATOM      1  C   UNL     1     165.600 155.423 175.768  1.00  0.00     0.000 C 
ENDROOT
BRANCH   1   2
ATOM      2  C   UNL     1     164.349 156.026 176.438  1.00  0.00     0.000 C 
BRANCH   2   3
ATOM      3  C   UNL     1     163.843 155.267 177.681  1.00  0.00     0.000 C 
BRANCH   3   4
ATOM      4  C   UNL     1     163.781 156.104 178.970  1.00  0.00     0.000 C 
BRANCH   4   5
ATOM      5  C   UNL     1     162.526 156.986 179.048  1.00  0.00     0.000 C 
BRANCH   5   6
ATOM      6  C   UNL     1     162.904 158.471 179.098  1.00  0.00     0.000 C 
BRANCH   6   7
ATOM      7  C   UNL     1     162.223 159.253 177.970  1.00  0.00     0.000 C 
BRANCH   7   8
ATOM      8  C   UNL     1     161.458 158.309 177.031  1.00  0.00     0.000 C 
BRANCH   8   9
ATOM      9  C   UNL     1     161.749 158.594 175.543  1.00  0.00     0.000 C 
BRANCH   9  10
ATOM     10  C   UNL     1     161.396 160.027 175.102  1.00  0.00     0.000 C 
BRANCH  10  11
ATOM     11  C   UNL     1     159.972 160.205 174.549  1.00  0.00     0.000 C 
BRANCH  11  12
ATOM     12  C   UNL     1     159.032 160.908 175.545  1.00  0.00     0.006 C 
BRANCH  12  13
ATOM     13  C   UNL     1     157.959 159.958 176.096  1.00  0.00     0.053 C 
BRANCH  13  14
ATOM     14  C   UNL     1     156.574 160.463 175.827  1.00  0.00     0.041 C 
ATOM     15  O   UNL     1     155.973 160.135 174.770  1.00  0.00    -0.550 OA
ATOM     16  O   UNL     1     155.958 161.317 176.733  1.00  0.00    -0.550 OA
ENDBRANCH  13  14
ENDBRANCH  12  13
ENDBRANCH  11  12
ENDBRANCH  10  11
ENDBRANCH   9  10
ENDBRANCH   8   9
ENDBRANCH   7   8
ENDBRANCH   6   7
ENDBRANCH   5   6
ENDBRANCH   4   5
ENDBRANCH   3   4
ENDBRANCH   2   3
ENDBRANCH   1   2
BRANCH   1  17
ATOM     17  C   UNL     1     166.217 154.220 176.503  1.00  0.00     0.000 C 
BRANCH  17  18
ATOM     18  C   UNL     1     167.589 153.817 175.942  1.00  0.00     0.000 C 
BRANCH  18  19
ATOM     19  C   UNL     1     168.054 152.480 176.537  1.00  0.00     0.000 C 
BRANCH  19  20
ATOM     20  C   UNL     1     167.079 151.914 177.585  1.00  0.00     0.000 C 
BRANCH  20  21
ATOM     21  C   UNL     1     167.741 151.292 178.829  1.00  0.00     0.000 C 
BRANCH  21  22
ATOM     22  C   UNL     1     167.888 152.288 179.991  1.00  0.00    -0.000 C 
BRANCH  22  23
ATOM     23  C   UNL     1     166.676 153.230 180.127  1.00  0.00    -0.000 C 
BRANCH  23  24
ATOM     24  C   UNL     1     167.019 154.731 180.154  1.00  0.00    -0.000 C 
BRANCH  24  25
ATOM     25  C   UNL     1     168.457 155.024 179.693  1.00  0.00    -0.000 C 
BRANCH  25  26
ATOM     26  C   UNL     1     168.517 156.116 178.612  1.00  0.00    -0.000 C 
BRANCH  26  27
ATOM     27  C   UNL     1     167.320 157.080 178.681  1.00  0.00    -0.000 C 
BRANCH  27  28
ATOM     28  C   UNL     1     167.328 158.111 177.543  1.00  0.00    -0.000 C 
BRANCH  28  29
ATOM     29  C   UNL     1     166.208 159.151 177.680  1.00  0.00    -0.003 C 
ATOM     30  C   UNL     1     165.554 159.435 176.330  1.00  0.00     0.004 C 
ENDBRANCH  28  29
ENDBRANCH  27  28
ENDBRANCH  26  27
ENDBRANCH  25  26
ENDBRANCH  24  25
ENDBRANCH  23  24
ENDBRANCH  22  23
ENDBRANCH  21  22
ENDBRANCH  20  21
ENDBRANCH  19  20
ENDBRANCH  18  19
ENDBRANCH  17  18
ENDBRANCH   1  17
TORSDOF 26
ENDMDL
MODEL 4
REMARK VINA RESULT:    -3.062      2.388      4.337
REMARK INTER + INTRA:         -13.378
REMARK INTER:                  -7.380
REMARK INTRA:                  -5.998
REMARK UNBOUND:                -5.661
REMARK SMILES CCCCCCCCCCCCCCCCCCCCCCCCCCCC(=O)[O-]
REMARK SMILES IDX 15 1 16 2 17 3 18 4 19 5 20 6 21 7 22 8 23 9 24 10 25 11
REMARK SMILES IDX 26 12 27 13 28 14 29 15 30 16 14 17 13 18 12 19 11 20 10 21
REMARK SMILES IDX 9 22 8 23 7 24 6 25 5 26 4 27 3 28 2 29 1 30
REMARK H PARENT
REMARK Flexibility Score: inf
ROOT
ATOM      1  C   UNL     1     171.661 155.208 180.664  1.00  0.00     0.000 C 
ENDROOT
BRANCH   1   2
ATOM      2  C   UNL     1     170.691 155.448 181.838  1.00  0.00     0.000 C 
BRANCH   2   3
ATOM      3  C   UNL     1     169.570 154.399 181.985  1.00  0.00     0.000 C 
BRANCH   3   4
ATOM      4  C   UNL     1     168.147 154.937 181.758  1.00  0.00     0.000 C 
BRANCH   4   5
ATOM      5  C   UNL     1     167.655 154.732 180.318  1.00  0.00     0.000 C 
BRANCH   5   6
ATOM      6  C   UNL     1     166.138 154.514 180.285  1.00  0.00     0.000 C 
BRANCH   6   7
ATOM      7  C   UNL     1     165.390 155.847 180.179  1.00  0.00     0.000 C 
BRANCH   7   8
ATOM      8  C   UNL     1     164.570 155.915 178.881  1.00  0.00     0.000 C 
BRANCH   8   9
ATOM      9  C   UNL     1     164.301 157.366 178.430  1.00  0.00     0.000 C 
BRANCH   9  10
ATOM     10  C   UNL     1     164.744 157.661 176.984  1.00  0.00     0.000 C 
BRANCH  10  11
ATOM     11  C   UNL     1     164.136 156.736 175.916  1.00  0.00     0.000 C 
BRANCH  11  12
ATOM     12  C   UNL     1     165.005 156.641 174.648  1.00  0.00     0.006 C 
BRANCH  12  13
ATOM     13  C   UNL     1     165.879 157.887 174.451  1.00  0.00     0.053 C 
BRANCH  13  14
ATOM     14  C   UNL     1     165.220 158.897 173.561  1.00  0.00     0.041 C 
ATOM     15  O   UNL     1     164.271 159.603 173.995  1.00  0.00    -0.550 OA
ATOM     16  O   UNL     1     165.638 159.038 172.244  1.00  0.00    -0.550 OA
ENDBRANCH  13  14
ENDBRANCH  12  13
ENDBRANCH  11  12
ENDBRANCH  10  11
ENDBRANCH   9  10
ENDBRANCH   8   9
ENDBRANCH   7   8
ENDBRANCH   6   7
ENDBRANCH   5   6
ENDBRANCH   4   5
ENDBRANCH   3   4
ENDBRANCH   2   3
ENDBRANCH   1   2
BRANCH   1  17
ATOM     17  C   UNL     1     171.179 155.738 179.302  1.00  0.00     0.000 C 
BRANCH  17  18
ATOM     18  C   UNL     1     171.193 154.663 178.204  1.00  0.00     0.000 C 
BRANCH  18  19
ATOM     19  C   UNL     1     171.127 153.255 178.813  1.00  0.00     0.000 C 
BRANCH  19  20
ATOM     20  C   UNL     1     169.944 152.425 178.284  1.00  0.00     0.000 C 
BRANCH  20  21
ATOM     21  C   UNL     1     169.091 151.735 179.366  1.00  0.00     0.000 C 
BRANCH  21  22
ATOM     22  C   UNL     1     167.793 151.129 178.808  1.00  0.00    -0.000 C 
BRANCH  22  23
ATOM     23  C   UNL     1     167.472 151.614 177.381  1.00  0.00    -0.000 C 
BRANCH  23  24
ATOM     24  C   UNL     1     166.163 152.413 177.245  1.00  0.00    -0.000 C 
BRANCH  24  25
ATOM     25  C   UNL     1     166.362 153.774 176.556  1.00  0.00    -0.000 C 
BRANCH  25  26
ATOM     26  C   UNL     1     167.668 153.839 175.748  1.00  0.00    -0.000 C 
BRANCH  26  27
ATOM     27  C   UNL     1     168.404 155.179 175.924  1.00  0.00    -0.000 C 
BRANCH  27  28
ATOM     28  C   UNL     1     167.927 155.955 177.161  1.00  0.00    -0.000 C 
BRANCH  28  29
ATOM     29  C   UNL     1     168.433 157.403 177.182  1.00  0.00    -0.003 C 
ATOM     30  C   UNL     1     169.607 157.588 176.224  1.00  0.00     0.004 C 
ENDBRANCH  28  29
ENDBRANCH  27  28
ENDBRANCH  26  27
ENDBRANCH  25  26
ENDBRANCH  24  25
ENDBRANCH  23  24
ENDBRANCH  22  23
ENDBRANCH  21  22
ENDBRANCH  20  21
ENDBRANCH  19  20
ENDBRANCH  18  19
ENDBRANCH  17  18
ENDBRANCH   1  17
TORSDOF 26
ENDMDL
MODEL 5
REMARK VINA RESULT:    -3.004      1.432      4.652
REMARK INTER + INTRA:         -13.230
REMARK INTER:                  -8.335
REMARK INTRA:                  -4.895
REMARK UNBOUND:                -5.661
REMARK SMILES CCCCCCCCCCCCCCCCCCCCCCCCCCCC(=O)[O-]
REMARK SMILES IDX 15 1 16 2 17 3 18 4 19 5 20 6 21 7 22 8 23 9 24 10 25 11
REMARK SMILES IDX 26 12 27 13 28 14 29 15 30 16 14 17 13 18 12 19 11 20 10 21
REMARK SMILES IDX 9 22 8 23 7 24 6 25 5 26 4 27 3 28 2 29 1 30
REMARK H PARENT
REMARK Flexibility Score: inf
ROOT
ATOM      1  C   UNL     1     167.705 150.943 178.753  1.00  0.00     0.000 C 
ENDROOT
BRANCH   1   2
ATOM      2  C   UNL     1     167.413 151.547 177.365  1.00  0.00     0.000 C 
BRANCH   2   3
ATOM      3  C   UNL     1     166.150 152.428 177.287  1.00  0.00     0.000 C 
BRANCH   3   4
ATOM      4  C   UNL     1     166.323 153.739 176.500  1.00  0.00     0.000 C 
BRANCH   4   5
ATOM      5  C   UNL     1     167.682 153.833 175.791  1.00  0.00     0.000 C 
BRANCH   5   6
ATOM      6  C   UNL     1     167.943 155.262 175.301  1.00  0.00     0.000 C 
BRANCH   6   7
ATOM      7  C   UNL     1     166.994 156.260 175.971  1.00  0.00     0.000 C 
BRANCH   7   8
ATOM      8  C   UNL     1     166.153 157.006 174.924  1.00  0.00     0.000 C 
BRANCH   8   9
ATOM      9  C   UNL     1     165.627 158.359 175.446  1.00  0.00     0.000 C 
BRANCH   9  10
ATOM     10  C   UNL     1     165.579 159.464 174.373  1.00  0.00     0.000 C 
BRANCH  10  11
ATOM     11  C   UNL     1     164.261 160.256 174.315  1.00  0.00     0.000 C 
BRANCH  11  12
ATOM     12  C   UNL     1     163.312 159.916 175.478  1.00  0.00     0.006 C 
BRANCH  12  13
ATOM     13  C   UNL     1     162.217 158.924 175.061  1.00  0.00     0.053 C 
BRANCH  13  14
ATOM     14  C   UNL     1     160.888 159.275 175.657  1.00  0.00     0.041 C 
ATOM     15  O   UNL     1     160.657 159.043 176.873  1.00  0.00    -0.550 OA
ATOM     16  O   UNL     1     159.896 159.833 174.862  1.00  0.00    -0.550 OA
ENDBRANCH  13  14
ENDBRANCH  12  13
ENDBRANCH  11  12
ENDBRANCH  10  11
ENDBRANCH   9  10
ENDBRANCH   8   9
ENDBRANCH   7   8
ENDBRANCH   6   7
ENDBRANCH   5   6
ENDBRANCH   4   5
ENDBRANCH   3   4
ENDBRANCH   2   3
ENDBRANCH   1   2
BRANCH   1  17
ATOM     17  C   UNL     1     167.477 151.897 179.939  1.00  0.00     0.000 C 
BRANCH  17  18
ATOM     18  C   UNL     1     168.629 151.872 180.955  1.00  0.00     0.000 C 
BRANCH  18  19
ATOM     19  C   UNL     1     169.930 151.387 180.300  1.00  0.00     0.000 C 
BRANCH  19  20
ATOM     20  C   UNL     1     170.860 152.539 179.881  1.00  0.00     0.000 C 
BRANCH  20  21
ATOM     21  C   UNL     1     170.714 153.002 178.419  1.00  0.00     0.000 C 
BRANCH  21  22
ATOM     22  C   UNL     1     170.443 154.511 178.293  1.00  0.00    -0.000 C 
BRANCH  22  23
ATOM     23  C   UNL     1     169.608 155.067 179.463  1.00  0.00    -0.000 C 
BRANCH  23  24
ATOM     24  C   UNL     1     168.162 155.455 179.103  1.00  0.00    -0.000 C 
BRANCH  24  25
ATOM     25  C   UNL     1     167.231 155.494 180.327  1.00  0.00    -0.000 C 
BRANCH  25  26
ATOM     26  C   UNL     1     165.763 155.230 179.958  1.00  0.00    -0.000 C 
BRANCH  26  27
ATOM     27  C   UNL     1     165.185 156.313 179.031  1.00  0.00    -0.000 C 
BRANCH  27  28
ATOM     28  C   UNL     1     163.705 156.609 179.322  1.00  0.00    -0.000 C 
BRANCH  28  29
ATOM     29  C   UNL     1     162.858 156.696 178.045  1.00  0.00    -0.003 C 
ATOM     30  C   UNL     1     163.379 155.741 176.974  1.00  0.00     0.004 C 
ENDBRANCH  28  29
ENDBRANCH  27  28
ENDBRANCH  26  27
ENDBRANCH  25  26
ENDBRANCH  24  25
ENDBRANCH  23  24
ENDBRANCH  22  23
ENDBRANCH  21  22
ENDBRANCH  20  21
ENDBRANCH  19  20
ENDBRANCH  18  19
ENDBRANCH  17  18
ENDBRANCH   1  17
TORSDOF 26
ENDMDL
MODEL 6
REMARK VINA RESULT:    -2.984      1.332      4.215
REMARK INTER + INTRA:         -13.179
REMARK INTER:                  -7.812
REMARK INTRA:                  -5.368
REMARK UNBOUND:                -5.661
REMARK SMILES CCCCCCCCCCCCCCCCCCCCCCCCCCCC(=O)[O-]
REMARK SMILES IDX 15 1 16 2 17 3 18 4 19 5 20 6 21 7 22 8 23 9 24 10 25 11
REMARK SMILES IDX 26 12 27 13 28 14 29 15 30 16 14 17 13 18 12 19 11 20 10 21
REMARK SMILES IDX 9 22 8 23 7 24 6 25 5 26 4 27 3 28 2 29 1 30
REMARK H PARENT
REMARK Flexibility Score: inf
ROOT
ATOM      1  C   UNL     1     168.647 153.209 180.107  1.00  0.00     0.000 C 
ENDROOT
BRANCH   1   2
ATOM      2  C   UNL     1     169.070 154.448 179.291  1.00  0.00     0.000 C 
BRANCH   2   3
ATOM      3  C   UNL     1     168.616 155.801 179.874  1.00  0.00     0.000 C 
BRANCH   3   4
ATOM      4  C   UNL     1     167.406 156.437 179.169  1.00  0.00     0.000 C 
BRANCH   4   5
ATOM      5  C   UNL     1     166.154 156.482 180.058  1.00  0.00     0.000 C 
BRANCH   5   6
ATOM      6  C   UNL     1     165.091 155.499 179.554  1.00  0.00     0.000 C 
BRANCH   6   7
ATOM      7  C   UNL     1     163.814 156.233 179.132  1.00  0.00     0.000 C 
BRANCH   7   8
ATOM      8  C   UNL     1     163.365 155.792 177.731  1.00  0.00     0.000 C 
BRANCH   8   9
ATOM      9  C   UNL     1     162.242 156.685 177.164  1.00  0.00     0.000 C 
BRANCH   9  10
ATOM     10  C   UNL     1     161.865 157.867 178.077  1.00  0.00     0.000 C 
BRANCH  10  11
ATOM     11  C   UNL     1     160.547 158.573 177.715  1.00  0.00     0.000 C 
BRANCH  11  12
ATOM     12  C   UNL     1     160.760 160.020 177.236  1.00  0.00     0.006 C 
BRANCH  12  13
ATOM     13  C   UNL     1     161.494 160.081 175.889  1.00  0.00     0.053 C 
BRANCH  13  14
ATOM     14  C   UNL     1     160.562 160.390 174.757  1.00  0.00     0.041 C 
ATOM     15  O   UNL     1     159.379 159.957 174.773  1.00  0.00    -0.550 OA
ATOM     16  O   UNL     1     161.008 161.134 173.673  1.00  0.00    -0.550 OA
ENDBRANCH  13  14
ENDBRANCH  12  13
ENDBRANCH  11  12
ENDBRANCH  10  11
ENDBRANCH   9  10
ENDBRANCH   8   9
ENDBRANCH   7   8
ENDBRANCH   6   7
ENDBRANCH   5   6
ENDBRANCH   4   5
ENDBRANCH   3   4
ENDBRANCH   2   3
ENDBRANCH   1   2
BRANCH   1  17
ATOM     17  C   UNL     1     167.339 152.541 179.646  1.00  0.00     0.000 C 
BRANCH  17  18
ATOM     18  C   UNL     1     167.576 151.361 178.692  1.00  0.00     0.000 C 
BRANCH  18  19
ATOM     19  C   UNL     1     167.135 151.711 177.263  1.00  0.00     0.000 C 
BRANCH  19  20
ATOM     20  C   UNL     1     166.044 152.797 177.219  1.00  0.00     0.000 C 
BRANCH  20  21
ATOM     21  C   UNL     1     166.424 154.077 176.451  1.00  0.00     0.000 C 
BRANCH  21  22
ATOM     22  C   UNL     1     167.842 154.021 175.858  1.00  0.00    -0.000 C 
BRANCH  22  23
ATOM     23  C   UNL     1     168.203 155.285 175.054  1.00  0.00    -0.000 C 
BRANCH  23  24
ATOM     24  C   UNL     1     168.567 156.515 175.905  1.00  0.00    -0.000 C 
BRANCH  24  25
ATOM     25  C   UNL     1     167.883 157.804 175.416  1.00  0.00    -0.000 C 
BRANCH  25  26
ATOM     26  C   UNL     1     166.587 157.523 174.639  1.00  0.00    -0.000 C 
BRANCH  26  27
ATOM     27  C   UNL     1     165.359 158.195 175.279  1.00  0.00    -0.000 C 
BRANCH  27  28
ATOM     28  C   UNL     1     165.526 158.409 176.792  1.00  0.00    -0.000 C 
BRANCH  28  29
ATOM     29  C   UNL     1     164.967 159.759 177.263  1.00  0.00    -0.003 C 
ATOM     30  C   UNL     1     164.951 159.845 178.787  1.00  0.00     0.004 C 
ENDBRANCH  28  29
ENDBRANCH  27  28
ENDBRANCH  26  27
ENDBRANCH  25  26
ENDBRANCH  24  25
ENDBRANCH  23  24
ENDBRANCH  22  23
ENDBRANCH  21  22
ENDBRANCH  20  21
ENDBRANCH  19  20
ENDBRANCH  18  19
ENDBRANCH  17  18
ENDBRANCH   1  17
TORSDOF 26
ENDMDL
MODEL 7
REMARK VINA RESULT:    -2.972      2.362      4.742
REMARK INTER + INTRA:         -13.150
REMARK INTER:                  -7.532
REMARK INTRA:                  -5.618
REMARK UNBOUND:                -5.661
REMARK SMILES CCCCCCCCCCCCCCCCCCCCCCCCCCCC(=O)[O-]
REMARK SMILES IDX 15 1 16 2 17 3 18 4 19 5 20 6 21 7 22 8 23 9 24 10 25 11
REMARK SMILES IDX 26 12 27 13 28 14 29 15 30 16 14 17 13 18 12 19 11 20 10 21
REMARK SMILES IDX 9 22 8 23 7 24 6 25 5 26 4 27 3 28 2 29 1 30
REMARK H PARENT
REMARK Flexibility Score: inf
ROOT
ATOM      1  C   UNL     1     167.571 152.227 179.808  1.00  0.00     0.000 C 
ENDROOT
BRANCH   1   2
ATOM      2  C   UNL     1     168.728 153.238 179.933  1.00  0.00     0.000 C 
BRANCH   2   3
ATOM      3  C   UNL     1     168.309 154.721 179.878  1.00  0.00     0.000 C 
BRANCH   3   4
ATOM      4  C   UNL     1     167.515 155.215 181.100  1.00  0.00     0.000 C 
BRANCH   4   5
ATOM      5  C   UNL     1     166.028 155.441 180.793  1.00  0.00     0.000 C 
BRANCH   5   6
ATOM      6  C   UNL     1     165.807 155.655 179.291  1.00  0.00     0.000 C 
BRANCH   6   7
ATOM      7  C   UNL     1     164.435 156.279 179.017  1.00  0.00     0.000 C 
BRANCH   7   8
ATOM      8  C   UNL     1     164.001 156.035 177.564  1.00  0.00     0.000 C 
BRANCH   8   9
ATOM      9  C   UNL     1     162.596 156.598 177.266  1.00  0.00     0.000 C 
BRANCH   9  10
ATOM     10  C   UNL     1     162.566 157.627 176.120  1.00  0.00     0.000 C 
BRANCH  10  11
ATOM     11  C   UNL     1     163.933 157.929 175.483  1.00  0.00     0.000 C 
BRANCH  11  12
ATOM     12  C   UNL     1     164.282 159.428 175.508  1.00  0.00     0.006 C 
BRANCH  12  13
ATOM     13  C   UNL     1     164.072 160.094 174.141  1.00  0.00     0.053 C 
BRANCH  13  14
ATOM     14  C   UNL     1     165.281 159.966 173.265  1.00  0.00     0.041 C 
ATOM     15  O   UNL     1     166.279 160.713 173.448  1.00  0.00    -0.550 OA
ATOM     16  O   UNL     1     165.293 159.041 172.230  1.00  0.00    -0.550 OA
ENDBRANCH  13  14
ENDBRANCH  12  13
ENDBRANCH  11  12
ENDBRANCH  10  11
ENDBRANCH   9  10
ENDBRANCH   8   9
ENDBRANCH   7   8
ENDBRANCH   6   7
ENDBRANCH   5   6
ENDBRANCH   4   5
ENDBRANCH   3   4
ENDBRANCH   2   3
ENDBRANCH   1   2
BRANCH   1  17
ATOM     17  C   UNL     1     167.829 151.058 178.840  1.00  0.00     0.000 C 
BRANCH  17  18
ATOM     18  C   UNL     1     167.113 151.230 177.492  1.00  0.00     0.000 C 
BRANCH  18  19
ATOM     19  C   UNL     1     166.115 152.396 177.544  1.00  0.00     0.000 C 
BRANCH  19  20
ATOM     20  C   UNL     1     166.391 153.475 176.482  1.00  0.00     0.000 C 
BRANCH  20  21
ATOM     21  C   UNL     1     167.869 153.883 176.330  1.00  0.00     0.000 C 
BRANCH  21  22
ATOM     22  C   UNL     1     168.086 154.953 175.248  1.00  0.00    -0.000 C 
BRANCH  22  23
ATOM     23  C   UNL     1     167.119 156.145 175.384  1.00  0.00    -0.000 C 
BRANCH  23  24
ATOM     24  C   UNL     1     167.605 157.454 174.735  1.00  0.00    -0.000 C 
BRANCH  24  25
ATOM     25  C   UNL     1     167.918 158.552 175.766  1.00  0.00    -0.000 C 
BRANCH  25  26
ATOM     26  C   UNL     1     167.343 158.236 177.156  1.00  0.00    -0.000 C 
BRANCH  26  27
ATOM     27  C   UNL     1     168.439 157.931 178.191  1.00  0.00    -0.000 C 
BRANCH  27  28
ATOM     28  C   UNL     1     169.852 158.000 177.592  1.00  0.00    -0.000 C 
BRANCH  28  29
ATOM     29  C   UNL     1     170.554 156.636 177.574  1.00  0.00    -0.003 C 
ATOM     30  C   UNL     1     171.287 156.412 176.254  1.00  0.00     0.004 C 
ENDBRANCH  28  29
ENDBRANCH  27  28
ENDBRANCH  26  27
ENDBRANCH  25  26
ENDBRANCH  24  25
ENDBRANCH  23  24
ENDBRANCH  22  23
ENDBRANCH  21  22
ENDBRANCH  20  21
ENDBRANCH  19  20
ENDBRANCH  18  19
ENDBRANCH  17  18
ENDBRANCH   1  17
TORSDOF 26
ENDMDL
MODEL 8
REMARK VINA RESULT:    -2.956      1.550      2.890
REMARK INTER + INTRA:         -13.110
REMARK INTER:                  -7.630
REMARK INTRA:                  -5.480
REMARK UNBOUND:                -5.661
REMARK SMILES CCCCCCCCCCCCCCCCCCCCCCCCCCCC(=O)[O-]
REMARK SMILES IDX 15 1 16 2 17 3 18 4 19 5 20 6 21 7 22 8 23 9 24 10 25 11
REMARK SMILES IDX 26 12 27 13 28 14 29 15 30 16 14 17 13 18 12 19 11 20 10 21
REMARK SMILES IDX 9 22 8 23 7 24 6 25 5 26 4 27 3 28 2 29 1 30
REMARK H PARENT
REMARK Flexibility Score: inf
ROOT
ATOM      1  C   UNL     1     166.926 155.358 180.219  1.00  0.00     0.000 C 
ENDROOT
BRANCH   1   2
ATOM      2  C   UNL     1     165.451 155.442 179.777  1.00  0.00     0.000 C 
BRANCH   2   3
ATOM      3  C   UNL     1     165.066 156.734 179.029  1.00  0.00     0.000 C 
BRANCH   3   4
ATOM      4  C   UNL     1     164.035 156.547 177.903  1.00  0.00     0.000 C 
BRANCH   4   5
ATOM      5  C   UNL     1     164.182 157.586 176.781  1.00  0.00     0.000 C 
BRANCH   5   6
ATOM      6  C   UNL     1     164.087 156.920 175.404  1.00  0.00     0.000 C 
BRANCH   6   7
ATOM      7  C   UNL     1     165.398 157.067 174.626  1.00  0.00     0.000 C 
BRANCH   7   8
ATOM      8  C   UNL     1     165.299 158.197 173.591  1.00  0.00     0.000 C 
BRANCH   8   9
ATOM      9  C   UNL     1     165.906 159.520 174.103  1.00  0.00     0.000 C 
BRANCH   9  10
ATOM     10  C   UNL     1     164.856 160.552 174.556  1.00  0.00     0.000 C 
BRANCH  10  11
ATOM     11  C   UNL     1     163.666 160.734 173.598  1.00  0.00     0.000 C 
BRANCH  11  12
ATOM     12  C   UNL     1     162.385 161.188 174.321  1.00  0.00     0.006 C 
BRANCH  12  13
ATOM     13  C   UNL     1     162.129 160.385 175.604  1.00  0.00     0.053 C 
BRANCH  13  14
ATOM     14  C   UNL     1     160.923 159.505 175.480  1.00  0.00     0.041 C 
ATOM     15  O   UNL     1     160.863 158.418 176.114  1.00  0.00    -0.550 OA
ATOM     16  O   UNL     1     159.876 159.874 174.645  1.00  0.00    -0.550 OA
ENDBRANCH  13  14
ENDBRANCH  12  13
ENDBRANCH  11  12
ENDBRANCH  10  11
ENDBRANCH   9  10
ENDBRANCH   8   9
ENDBRANCH   7   8
ENDBRANCH   6   7
ENDBRANCH   5   6
ENDBRANCH   4   5
ENDBRANCH   3   4
ENDBRANCH   2   3
ENDBRANCH   1   2
BRANCH   1  17
ATOM     17  C   UNL     1     167.330 154.033 180.890  1.00  0.00     0.000 C 
BRANCH  17  18
ATOM     18  C   UNL     1     168.809 153.680 180.671  1.00  0.00     0.000 C 
BRANCH  18  19
ATOM     19  C   UNL     1     169.154 153.659 179.175  1.00  0.00     0.000 C 
BRANCH  19  20
ATOM     20  C   UNL     1     169.196 152.238 178.586  1.00  0.00     0.000 C 
BRANCH  20  21
ATOM     21  C   UNL     1     167.843 151.503 178.548  1.00  0.00     0.000 C 
BRANCH  21  22
ATOM     22  C   UNL     1     167.115 151.658 177.202  1.00  0.00    -0.000 C 
BRANCH  22  23
ATOM     23  C   UNL     1     166.021 152.743 177.237  1.00  0.00    -0.000 C 
BRANCH  23  24
ATOM     24  C   UNL     1     166.386 154.057 176.522  1.00  0.00    -0.000 C 
BRANCH  24  25
ATOM     25  C   UNL     1     167.689 153.954 175.710  1.00  0.00    -0.000 C 
BRANCH  25  26
ATOM     26  C   UNL     1     168.468 155.279 175.677  1.00  0.00    -0.000 C 
BRANCH  26  27
ATOM     27  C   UNL     1     168.080 156.220 176.831  1.00  0.00    -0.000 C 
BRANCH  27  28
ATOM     28  C   UNL     1     168.460 157.682 176.552  1.00  0.00    -0.000 C 
BRANCH  28  29
ATOM     29  C   UNL     1     167.595 158.677 177.338  1.00  0.00    -0.003 C 
ATOM     30  C   UNL     1     168.078 160.110 177.129  1.00  0.00     0.004 C 
ENDBRANCH  28  29
ENDBRANCH  27  28
ENDBRANCH  26  27
ENDBRANCH  25  26
ENDBRANCH  24  25
ENDBRANCH  23  24
ENDBRANCH  22  23
ENDBRANCH  21  22
ENDBRANCH  20  21
ENDBRANCH  19  20
ENDBRANCH  18  19
ENDBRANCH  17  18
ENDBRANCH   1  17
TORSDOF 26
ENDMDL
MODEL 9
REMARK VINA RESULT:    -2.921      2.370      3.645
REMARK INTER + INTRA:         -13.021
REMARK INTER:                  -7.712
REMARK INTRA:                  -5.309
REMARK UNBOUND:                -5.661
REMARK SMILES CCCCCCCCCCCCCCCCCCCCCCCCCCCC(=O)[O-]
REMARK SMILES IDX 15 1 16 2 17 3 18 4 19 5 20 6 21 7 22 8 23 9 24 10 25 11
REMARK SMILES IDX 26 12 27 13 28 14 29 15 30 16 14 17 13 18 12 19 11 20 10 21
REMARK SMILES IDX 9 22 8 23 7 24 6 25 5 26 4 27 3 28 2 29 1 30
REMARK H PARENT
REMARK Flexibility Score: inf
ROOT
ATOM      1  C   UNL     1     165.435 156.996 178.948  1.00  0.00     0.000 C 
ENDROOT
BRANCH   1   2
ATOM      2  C   UNL     1     164.108 157.537 179.518  1.00  0.00     0.000 C 
BRANCH   2   3
ATOM      3  C   UNL     1     162.849 156.749 179.105  1.00  0.00     0.000 C 
BRANCH   3   4
ATOM      4  C   UNL     1     161.544 157.219 179.769  1.00  0.00     0.000 C 
BRANCH   4   5
ATOM      5  C   UNL     1     160.670 158.065 178.831  1.00  0.00     0.000 C 
BRANCH   5   6
ATOM      6  C   UNL     1     161.148 159.521 178.804  1.00  0.00     0.000 C 
BRANCH   6   7
ATOM      7  C   UNL     1     161.720 159.890 177.431  1.00  0.00     0.000 C 
BRANCH   7   8
ATOM      8  C   UNL     1     160.891 159.258 176.302  1.00  0.00     0.000 C 
BRANCH   8   9
ATOM      9  C   UNL     1     161.727 158.314 175.414  1.00  0.00     0.000 C 
BRANCH   9  10
ATOM     10  C   UNL     1     163.238 158.351 175.714  1.00  0.00     0.000 C 
BRANCH  10  11
ATOM     11  C   UNL     1     163.955 156.994 175.608  1.00  0.00     0.000 C 
BRANCH  11  12
ATOM     12  C   UNL     1     165.290 157.086 174.847  1.00  0.00     0.006 C 
BRANCH  12  13
ATOM     13  C   UNL     1     165.468 158.443 174.152  1.00  0.00     0.053 C 
BRANCH  13  14
ATOM     14  C   UNL     1     166.610 159.222 174.730  1.00  0.00     0.041 C 
ATOM     15  O   UNL     1     167.401 159.844 173.972  1.00  0.00    -0.550 OA
ATOM     16  O   UNL     1     166.816 159.238 176.103  1.00  0.00    -0.550 OA
ENDBRANCH  13  14
ENDBRANCH  12  13
ENDBRANCH  11  12
ENDBRANCH  10  11
ENDBRANCH   9  10
ENDBRANCH   8   9
ENDBRANCH   7   8
ENDBRANCH   6   7
ENDBRANCH   5   6
ENDBRANCH   4   5
ENDBRANCH   3   4
ENDBRANCH   2   3
ENDBRANCH   1   2
BRANCH   1  17
ATOM     17  C   UNL     1     166.111 155.904 179.795  1.00  0.00     0.000 C 
BRANCH  17  18
ATOM     18  C   UNL     1     166.035 154.513 179.147  1.00  0.00     0.000 C 
BRANCH  18  19
ATOM     19  C   UNL     1     165.637 154.617 177.667  1.00  0.00     0.000 C 
BRANCH  19  20
ATOM     20  C   UNL     1     166.245 153.500 176.800  1.00  0.00     0.000 C 
BRANCH  20  21
ATOM     21  C   UNL     1     165.892 152.066 177.235  1.00  0.00     0.000 C 
BRANCH  21  22
ATOM     22  C   UNL     1     167.134 151.202 177.512  1.00  0.00    -0.000 C 
BRANCH  22  23
ATOM     23  C   UNL     1     168.424 152.035 177.644  1.00  0.00    -0.000 C 
BRANCH  23  24
ATOM     24  C   UNL     1     168.921 152.239 179.087  1.00  0.00    -0.000 C 
BRANCH  24  25
ATOM     25  C   UNL     1     169.611 153.598 179.294  1.00  0.00    -0.000 C 
BRANCH  25  26
ATOM     26  C   UNL     1     169.838 154.351 177.973  1.00  0.00    -0.000 C 
BRANCH  26  27
ATOM     27  C   UNL     1     169.571 155.861 178.102  1.00  0.00    -0.000 C 
BRANCH  27  28
ATOM     28  C   UNL     1     168.654 156.394 176.991  1.00  0.00    -0.000 C 
BRANCH  28  29
ATOM     29  C   UNL     1     168.963 155.775 175.621  1.00  0.00    -0.003 C 
ATOM     30  C   UNL     1     169.447 156.836 174.636  1.00  0.00     0.004 C 
ENDBRANCH  28  29
ENDBRANCH  27  28
ENDBRANCH  26  27
ENDBRANCH  25  26
ENDBRANCH  24  25
ENDBRANCH  23  24
ENDBRANCH  22  23
ENDBRANCH  21  22
ENDBRANCH  20  21
ENDBRANCH  19  20
ENDBRANCH  18  19
ENDBRANCH  17  18
ENDBRANCH   1  17
TORSDOF 26
ENDMDL
