MODEL 1
REMARK VINA RESULT:    -7.191      0.000      0.000
REMARK INTER + INTRA:          -8.757
REMARK INTER:                  -8.452
REMARK INTRA:                  -0.306
REMARK UNBOUND:                -0.306
REMARK SMILES O=c1cc(-c2ccc(O)c(O)c2)oc2cc(O)cc(O)c12
REMARK SMILES IDX 4 1 3 2 2 3 1 4 21 5 19 6 18 7 16 8 15 9 14 10 13 11 5 12
REMARK SMILES IDX 6 13 7 14 8 15 12 16 10 17 9 18 11 20 20 22 17 24
REMARK H PARENT 9 19 11 21 20 23 17 25
REMARK Flexibility Score: inf
ROOT
ATOM      1  C   UNL     1     -16.057  27.672  51.980  1.00  0.00     0.138 A 
ATOM      2  C   UNL     1     -16.120  27.000  50.748  1.00  0.00     0.100 A 
ATOM      3  C   UNL     1     -16.276  27.734  49.572  1.00  0.00     0.197 A 
ATOM      4  O   UNL     1     -16.331  27.122  48.472  1.00  0.00    -0.289 OA
ATOM      5  C   UNL     1     -16.372  29.138  49.637  1.00  0.00     0.107 A 
ATOM      6  C   UNL     1     -16.530  29.957  48.493  1.00  0.00     0.134 A 
ATOM      7  C   UNL     1     -16.624  31.349  48.643  1.00  0.00     0.093 A 
ATOM      8  C   UNL     1     -16.563  31.936  49.909  1.00  0.00     0.123 A 
ATOM      9  C   UNL     1     -16.407  31.131  51.043  1.00  0.00     0.094 A 
ATOM     10  C   UNL     1     -16.310  29.742  50.915  1.00  0.00     0.146 A 
ATOM     11  O   UNL     1     -16.161  28.999  52.007  1.00  0.00    -0.456 OA
ENDROOT
BRANCH   1  12
ATOM     12  C   UNL     1     -15.893  26.943  53.263  1.00  0.00     0.021 A 
ATOM     13  C   UNL     1     -15.161  25.744  53.344  1.00  0.00     0.016 A 
ATOM     14  C   UNL     1     -15.014  25.084  54.567  1.00  0.00     0.051 A 
ATOM     15  C   UNL     1     -15.589  25.613  55.730  1.00  0.00     0.157 A 
ATOM     16  C   UNL     1     -16.456  27.474  54.437  1.00  0.00     0.062 A 
ATOM     17  C   UNL     1     -16.311  26.815  55.664  1.00  0.00     0.158 A 
BRANCH  15  18
ATOM     18  O   UNL     1     -15.441  24.951  56.948  1.00  0.00    -0.504 OA
ATOM     19  H   UNL     1     -16.223  24.498  57.405  1.00  0.00     0.293 HD
ENDBRANCH  15  18
BRANCH  17  20
ATOM     20  O   UNL     1     -16.892  27.370  56.803  1.00  0.00    -0.504 OA
ATOM     21  H   UNL     1     -17.280  28.306  56.808  1.00  0.00     0.293 HD
ENDBRANCH  17  20
ENDBRANCH   1  12
BRANCH   6  22
ATOM     22  O   UNL     1     -16.594  29.401  47.215  1.00  0.00    -0.507 OA
ATOM     23  H   UNL     1     -17.392  28.856  46.910  1.00  0.00     0.293 HD
ENDBRANCH   6  22
BRANCH   8  24
ATOM     24  O   UNL     1     -16.659  33.320  50.030  1.00  0.00    -0.508 OA
ATOM     25  H   UNL     1     -15.862  33.885  50.300  1.00  0.00     0.293 HD
ENDBRANCH   8  24
TORSDOF 5
ENDMDL
MODEL 2
REMARK VINA RESULT:    -6.951     15.325     16.257
REMARK INTER + INTRA:          -8.476
REMARK INTER:                  -8.212
REMARK INTRA:                  -0.263
REMARK UNBOUND:                -0.306
REMARK SMILES O=c1cc(-c2ccc(O)c(O)c2)oc2cc(O)cc(O)c12
REMARK SMILES IDX 4 1 3 2 2 3 1 4 21 5 19 6 18 7 16 8 15 9 14 10 13 11 5 12
REMARK SMILES IDX 6 13 7 14 8 15 12 16 10 17 9 18 11 20 20 22 17 24
REMARK H PARENT 9 19 11 21 20 23 17 25
REMARK Flexibility Score: inf
ROOT
ATOM      1  C   UNL     1      -4.440  34.910  59.779  1.00  0.00     0.138 A 
ATOM      2  C   UNL     1      -5.643  34.598  59.125  1.00  0.00     0.100 A 
ATOM      3  C   UNL     1      -6.616  35.586  58.964  1.00  0.00     0.197 A 
ATOM      4  O   UNL     1      -7.691  35.295  58.376  1.00  0.00    -0.289 OA
ATOM      5  C   UNL     1      -6.378  36.881  59.465  1.00  0.00     0.107 A 
ATOM      6  C   UNL     1      -7.310  37.940  59.344  1.00  0.00     0.134 A 
ATOM      7  C   UNL     1      -7.000  39.202  59.875  1.00  0.00     0.093 A 
ATOM      8  C   UNL     1      -5.782  39.424  60.523  1.00  0.00     0.123 A 
ATOM      9  C   UNL     1      -4.858  38.380  60.645  1.00  0.00     0.094 A 
ATOM     10  C   UNL     1      -5.147  37.116  60.122  1.00  0.00     0.146 A 
ATOM     11  O   UNL     1      -4.252  36.142  60.249  1.00  0.00    -0.456 OA
ENDROOT
BRANCH   1  12
ATOM     12  C   UNL     1      -3.372  33.899  59.980  1.00  0.00     0.021 A 
ATOM     13  C   UNL     1      -3.250  33.180  61.185  1.00  0.00     0.016 A 
ATOM     14  C   UNL     1      -2.241  32.227  61.342  1.00  0.00     0.051 A 
ATOM     15  C   UNL     1      -1.341  31.970  60.300  1.00  0.00     0.157 A 
ATOM     16  C   UNL     1      -2.473  33.625  58.934  1.00  0.00     0.062 A 
ATOM     17  C   UNL     1      -1.460  32.671  59.090  1.00  0.00     0.158 A 
BRANCH  15  18
ATOM     18  O   UNL     1      -0.335  31.018  60.462  1.00  0.00    -0.504 OA
ATOM     19  H   UNL     1       0.611  31.186  60.143  1.00  0.00     0.293 HD
ENDBRANCH  15  18
BRANCH  17  20
ATOM     20  O   UNL     1      -0.584  32.435  58.031  1.00  0.00    -0.504 OA
ATOM     21  H   UNL     1      -0.704  32.874  57.126  1.00  0.00     0.293 HD
ENDBRANCH  17  20
ENDBRANCH   1  12
BRANCH   6  22
ATOM     22  O   UNL     1      -8.534  37.750  58.703  1.00  0.00    -0.507 OA
ATOM     23  H   UNL     1      -9.215  37.080  59.042  1.00  0.00     0.293 HD
ENDBRANCH   6  22
BRANCH   8  24
ATOM     24  O   UNL     1      -5.500  40.685  61.041  1.00  0.00    -0.508 OA
ATOM     25  H   UNL     1      -5.010  40.799  61.921  1.00  0.00     0.293 HD
ENDBRANCH   8  24
TORSDOF 5
ENDMDL
MODEL 3
REMARK VINA RESULT:    -6.723      1.898      2.525
REMARK INTER + INTRA:          -8.208
REMARK INTER:                  -7.917
REMARK INTRA:                  -0.291
REMARK UNBOUND:                -0.306
REMARK SMILES O=c1cc(-c2ccc(O)c(O)c2)oc2cc(O)cc(O)c12
REMARK SMILES IDX 4 1 3 2 2 3 1 4 21 5 19 6 18 7 16 8 15 9 14 10 13 11 5 12
REMARK SMILES IDX 6 13 7 14 8 15 12 16 10 17 9 18 11 20 20 22 17 24
REMARK H PARENT 9 19 11 21 20 23 17 25
REMARK Flexibility Score: inf
ROOT
ATOM      1  C   UNL     1     -16.307  27.384  52.924  1.00  0.00     0.138 A 
ATOM      2  C   UNL     1     -15.051  27.121  52.352  1.00  0.00     0.100 A 
ATOM      3  C   UNL     1     -14.802  27.509  51.034  1.00  0.00     0.197 A 
ATOM      4  O   UNL     1     -13.673  27.268  50.529  1.00  0.00    -0.289 OA
ATOM      5  C   UNL     1     -15.815  28.154  50.297  1.00  0.00     0.107 A 
ATOM      6  C   UNL     1     -15.645  28.580  48.958  1.00  0.00     0.134 A 
ATOM      7  C   UNL     1     -16.706  29.210  48.290  1.00  0.00     0.093 A 
ATOM      8  C   UNL     1     -17.928  29.422  48.932  1.00  0.00     0.123 A 
ATOM      9  C   UNL     1     -18.101  29.003  50.255  1.00  0.00     0.094 A 
ATOM     10  C   UNL     1     -17.056  28.374  50.939  1.00  0.00     0.146 A 
ATOM     11  O   UNL     1     -17.245  27.987  52.197  1.00  0.00    -0.456 OA
ENDROOT
BRANCH   1  12
ATOM     12  C   UNL     1     -16.628  26.994  54.320  1.00  0.00     0.021 A 
ATOM     13  C   UNL     1     -17.717  27.556  55.014  1.00  0.00     0.016 A 
ATOM     14  C   UNL     1     -18.003  27.161  56.323  1.00  0.00     0.051 A 
ATOM     15  C   UNL     1     -17.213  26.196  56.960  1.00  0.00     0.157 A 
ATOM     16  C   UNL     1     -15.849  26.015  54.962  1.00  0.00     0.062 A 
ATOM     17  C   UNL     1     -16.132  25.619  56.275  1.00  0.00     0.158 A 
BRANCH  15  18
ATOM     18  O   UNL     1     -17.501  25.807  58.268  1.00  0.00    -0.504 OA
ATOM     19  H   UNL     1     -17.064  26.255  59.064  1.00  0.00     0.293 HD
ENDBRANCH  15  18
BRANCH  17  20
ATOM     20  O   UNL     1     -15.329  24.653  56.879  1.00  0.00    -0.504 OA
ATOM     21  H   UNL     1     -14.894  24.802  57.781  1.00  0.00     0.293 HD
ENDBRANCH  17  20
ENDBRANCH   1  12
BRANCH   6  22
ATOM     22  O   UNL     1     -14.437  28.382  48.289  1.00  0.00    -0.507 OA
ATOM     23  H   UNL     1     -13.546  28.446  48.767  1.00  0.00     0.293 HD
ENDBRANCH   6  22
BRANCH   8  24
ATOM     24  O   UNL     1     -18.964  30.051  48.246  1.00  0.00    -0.508 OA
ATOM     25  H   UNL     1     -19.348  30.935  48.560  1.00  0.00     0.293 HD
ENDBRANCH   8  24
TORSDOF 5
ENDMDL
MODEL 4
REMARK VINA RESULT:    -6.597      2.605      7.999
REMARK INTER + INTRA:          -8.059
REMARK INTER:                  -7.768
REMARK INTRA:                  -0.291
REMARK UNBOUND:                -0.306
REMARK SMILES O=c1cc(-c2ccc(O)c(O)c2)oc2cc(O)cc(O)c12
REMARK SMILES IDX 4 1 3 2 2 3 1 4 21 5 19 6 18 7 16 8 15 9 14 10 13 11 5 12
REMARK SMILES IDX 6 13 7 14 8 15 12 16 10 17 9 18 11 20 20 22 17 24
REMARK H PARENT 9 19 11 21 20 23 17 25
REMARK Flexibility Score: inf
ROOT
ATOM      1  C   UNL     1     -17.465  31.564  49.950  1.00  0.00     0.138 A 
ATOM      2  C   UNL     1     -18.553  31.722  50.824  1.00  0.00     0.100 A 
ATOM      3  C   UNL     1     -18.742  30.804  51.859  1.00  0.00     0.197 A 
ATOM      4  O   UNL     1     -19.721  30.955  52.638  1.00  0.00    -0.289 OA
ATOM      5  C   UNL     1     -17.841  29.731  52.009  1.00  0.00     0.107 A 
ATOM      6  C   UNL     1     -17.960  28.759  53.030  1.00  0.00     0.134 A 
ATOM      7  C   UNL     1     -17.024  27.716  53.108  1.00  0.00     0.093 A 
ATOM      8  C   UNL     1     -15.977  27.627  52.188  1.00  0.00     0.123 A 
ATOM      9  C   UNL     1     -15.855  28.586  51.176  1.00  0.00     0.094 A 
ATOM     10  C   UNL     1     -16.776  29.633  51.082  1.00  0.00     0.146 A 
ATOM     11  O   UNL     1     -16.638  30.533  50.113  1.00  0.00    -0.456 OA
ENDROOT
BRANCH   1  12
ATOM     12  C   UNL     1     -17.215  32.507  48.831  1.00  0.00     0.021 A 
ATOM     13  C   UNL     1     -17.215  33.902  49.025  1.00  0.00     0.016 A 
ATOM     14  C   UNL     1     -16.966  34.767  47.957  1.00  0.00     0.051 A 
ATOM     15  C   UNL     1     -16.707  34.256  46.678  1.00  0.00     0.157 A 
ATOM     16  C   UNL     1     -16.940  32.003  47.548  1.00  0.00     0.062 A 
ATOM     17  C   UNL     1     -16.691  32.867  46.475  1.00  0.00     0.158 A 
BRANCH  15  18
ATOM     18  O   UNL     1     -16.461  35.122  45.615  1.00  0.00    -0.504 OA
ATOM     19  H   UNL     1     -16.133  36.068  45.765  1.00  0.00     0.293 HD
ENDBRANCH  15  18
BRANCH  17  20
ATOM     20  O   UNL     1     -16.432  32.326  45.217  1.00  0.00    -0.504 OA
ATOM     21  H   UNL     1     -15.499  32.305  44.822  1.00  0.00     0.293 HD
ENDBRANCH  17  20
ENDBRANCH   1  12
BRANCH   6  22
ATOM     22  O   UNL     1     -18.995  28.819  53.963  1.00  0.00    -0.507 OA
ATOM     23  H   UNL     1     -19.688  29.559  53.944  1.00  0.00     0.293 HD
ENDBRANCH   6  22
BRANCH   8  24
ATOM     24  O   UNL     1     -15.062  26.582  52.288  1.00  0.00    -0.508 OA
ATOM     25  H   UNL     1     -15.270  25.659  51.924  1.00  0.00     0.293 HD
ENDBRANCH   8  24
TORSDOF 5
ENDMDL
MODEL 5
REMARK VINA RESULT:    -6.560      2.243      6.856
REMARK INTER + INTRA:          -8.016
REMARK INTER:                  -7.721
REMARK INTRA:                  -0.295
REMARK UNBOUND:                -0.306
REMARK SMILES O=c1cc(-c2ccc(O)c(O)c2)oc2cc(O)cc(O)c12
REMARK SMILES IDX 4 1 3 2 2 3 1 4 21 5 19 6 18 7 16 8 15 9 14 10 13 11 5 12
REMARK SMILES IDX 6 13 7 14 8 15 12 16 10 17 9 18 11 20 20 22 17 24
REMARK H PARENT 9 19 11 21 20 23 17 25
REMARK Flexibility Score: inf
ROOT
ATOM      1  C   UNL     1     -16.213  27.457  52.248  1.00  0.00     0.138 A 
ATOM      2  C   UNL     1     -17.530  27.941  52.316  1.00  0.00     0.100 A 
ATOM      3  C   UNL     1     -18.228  27.867  53.522  1.00  0.00     0.197 A 
ATOM      4  O   UNL     1     -19.409  28.304  53.573  1.00  0.00    -0.289 OA
ATOM      5  C   UNL     1     -17.603  27.304  54.653  1.00  0.00     0.107 A 
ATOM      6  C   UNL     1     -18.239  27.192  55.913  1.00  0.00     0.134 A 
ATOM      7  C   UNL     1     -17.549  26.613  56.989  1.00  0.00     0.093 A 
ATOM      8  C   UNL     1     -16.243  26.145  56.831  1.00  0.00     0.123 A 
ATOM      9  C   UNL     1     -15.610  26.254  55.588  1.00  0.00     0.094 A 
ATOM     10  C   UNL     1     -16.279  26.829  54.503  1.00  0.00     0.146 A 
ATOM     11  O   UNL     1     -15.655  26.922  53.333  1.00  0.00    -0.456 OA
ENDROOT
BRANCH   1  12
ATOM     12  C   UNL     1     -15.423  27.508  50.992  1.00  0.00     0.021 A 
ATOM     13  C   UNL     1     -14.128  26.961  50.909  1.00  0.00     0.016 A 
ATOM     14  C   UNL     1     -13.412  27.014  49.711  1.00  0.00     0.051 A 
ATOM     15  C   UNL     1     -13.977  27.607  48.574  1.00  0.00     0.157 A 
ATOM     16  C   UNL     1     -15.988  28.089  49.843  1.00  0.00     0.062 A 
ATOM     17  C   UNL     1     -15.271  28.144  48.641  1.00  0.00     0.158 A 
BRANCH  15  18
ATOM     18  O   UNL     1     -13.257  27.658  47.381  1.00  0.00    -0.504 OA
ATOM     19  H   UNL     1     -12.247  27.722  47.372  1.00  0.00     0.293 HD
ENDBRANCH  15  18
BRANCH  17  20
ATOM     20  O   UNL     1     -15.864  28.737  47.527  1.00  0.00    -0.504 OA
ATOM     21  H   UNL     1     -16.649  28.314  47.046  1.00  0.00     0.293 HD
ENDBRANCH  17  20
ENDBRANCH   1  12
BRANCH   6  22
ATOM     22  O   UNL     1     -19.543  27.649  56.102  1.00  0.00    -0.507 OA
ATOM     23  H   UNL     1     -19.777  28.633  56.044  1.00  0.00     0.293 HD
ENDBRANCH   6  22
BRANCH   8  24
ATOM     24  O   UNL     1     -15.582  25.574  57.916  1.00  0.00    -0.508 OA
ATOM     25  H   UNL     1     -15.477  24.570  58.004  1.00  0.00     0.293 HD
ENDBRANCH   8  24
TORSDOF 5
ENDMDL
MODEL 6
REMARK VINA RESULT:    -6.534      1.458      6.952
REMARK INTER + INTRA:          -7.985
REMARK INTER:                  -7.689
REMARK INTRA:                  -0.296
REMARK UNBOUND:                -0.306
REMARK SMILES O=c1cc(-c2ccc(O)c(O)c2)oc2cc(O)cc(O)c12
REMARK SMILES IDX 4 1 3 2 2 3 1 4 21 5 19 6 18 7 16 8 15 9 14 10 13 11 5 12
REMARK SMILES IDX 6 13 7 14 8 15 12 16 10 17 9 18 11 20 20 22 17 24
REMARK H PARENT 9 19 11 21 20 23 17 25
REMARK Flexibility Score: inf
ROOT
ATOM      1  C   UNL     1     -16.259  27.762  52.675  1.00  0.00     0.138 A 
ATOM      2  C   UNL     1     -15.344  26.715  52.870  1.00  0.00     0.100 A 
ATOM      3  C   UNL     1     -15.358  26.005  54.072  1.00  0.00     0.197 A 
ATOM      4  O   UNL     1     -14.533  25.067  54.238  1.00  0.00    -0.289 OA
ATOM      5  C   UNL     1     -16.288  26.352  55.072  1.00  0.00     0.107 A 
ATOM      6  C   UNL     1     -16.370  25.683  56.317  1.00  0.00     0.134 A 
ATOM      7  C   UNL     1     -17.321  26.094  57.265  1.00  0.00     0.093 A 
ATOM      8  C   UNL     1     -18.186  27.156  56.992  1.00  0.00     0.123 A 
ATOM      9  C   UNL     1     -18.109  27.820  55.763  1.00  0.00     0.094 A 
ATOM     10  C   UNL     1     -17.170  27.425  54.805  1.00  0.00     0.146 A 
ATOM     11  O   UNL     1     -17.117  28.071  53.645  1.00  0.00    -0.456 OA
ENDROOT
BRANCH   1  12
ATOM     12  C   UNL     1     -16.288  28.552  51.418  1.00  0.00     0.021 A 
ATOM     13  C   UNL     1     -16.202  27.937  50.155  1.00  0.00     0.016 A 
ATOM     14  C   UNL     1     -16.243  28.704  48.988  1.00  0.00     0.051 A 
ATOM     15  C   UNL     1     -16.378  30.097  49.061  1.00  0.00     0.157 A 
ATOM     16  C   UNL     1     -16.437  29.949  51.482  1.00  0.00     0.062 A 
ATOM     17  C   UNL     1     -16.478  30.721  50.314  1.00  0.00     0.158 A 
BRANCH  15  18
ATOM     18  O   UNL     1     -16.417  30.859  47.894  1.00  0.00    -0.504 OA
ATOM     19  H   UNL     1     -15.889  31.718  47.803  1.00  0.00     0.293 HD
ENDBRANCH  15  18
BRANCH  17  20
ATOM     20  O   UNL     1     -16.617  32.104  50.422  1.00  0.00    -0.504 OA
ATOM     21  H   UNL     1     -15.846  32.703  50.692  1.00  0.00     0.293 HD
ENDBRANCH  17  20
ENDBRANCH   1  12
BRANCH   6  22
ATOM     22  O   UNL     1     -15.519  24.620  56.619  1.00  0.00    -0.507 OA
ATOM     23  H   UNL     1     -15.858  23.777  57.069  1.00  0.00     0.293 HD
ENDBRANCH   6  22
BRANCH   8  24
ATOM     24  O   UNL     1     -19.120  27.543  57.950  1.00  0.00    -0.508 OA
ATOM     25  H   UNL     1     -19.971  27.013  58.105  1.00  0.00     0.293 HD
ENDBRANCH   8  24
TORSDOF 5
ENDMDL
MODEL 7
REMARK VINA RESULT:    -6.467      2.830      3.409
REMARK INTER + INTRA:          -7.907
REMARK INTER:                  -7.633
REMARK INTRA:                  -0.274
REMARK UNBOUND:                -0.306
REMARK SMILES O=c1cc(-c2ccc(O)c(O)c2)oc2cc(O)cc(O)c12
REMARK SMILES IDX 4 1 3 2 2 3 1 4 21 5 19 6 18 7 16 8 15 9 14 10 13 11 5 12
REMARK SMILES IDX 6 13 7 14 8 15 12 16 10 17 9 18 11 20 20 22 17 24
REMARK H PARENT 9 19 11 21 20 23 17 25
REMARK Flexibility Score: inf
ROOT
ATOM      1  C   UNL     1     -15.909  26.799  52.155  1.00  0.00     0.138 A 
ATOM      2  C   UNL     1     -14.574  27.072  51.814  1.00  0.00     0.100 A 
ATOM      3  C   UNL     1     -14.230  27.251  50.473  1.00  0.00     0.197 A 
ATOM      4  O   UNL     1     -13.029  27.495  50.178  1.00  0.00    -0.289 OA
ATOM      5  C   UNL     1     -15.225  27.151  49.481  1.00  0.00     0.107 A 
ATOM      6  C   UNL     1     -14.962  27.319  48.101  1.00  0.00     0.134 A 
ATOM      7  C   UNL     1     -16.009  27.198  47.174  1.00  0.00     0.093 A 
ATOM      8  C   UNL     1     -17.308  26.912  47.600  1.00  0.00     0.123 A 
ATOM      9  C   UNL     1     -17.574  26.745  48.963  1.00  0.00     0.094 A 
ATOM     10  C   UNL     1     -16.545  26.863  49.902  1.00  0.00     0.146 A 
ATOM     11  O   UNL     1     -16.824  26.701  51.192  1.00  0.00    -0.456 OA
ENDROOT
BRANCH   1  12
ATOM     12  C   UNL     1     -16.333  26.598  53.564  1.00  0.00     0.021 A 
ATOM     13  C   UNL     1     -17.470  27.238  54.093  1.00  0.00     0.016 A 
ATOM     14  C   UNL     1     -17.852  27.022  55.419  1.00  0.00     0.051 A 
ATOM     15  C   UNL     1     -17.110  26.160  56.238  1.00  0.00     0.157 A 
ATOM     16  C   UNL     1     -15.602  25.724  54.388  1.00  0.00     0.062 A 
ATOM     17  C   UNL     1     -15.982  25.507  55.719  1.00  0.00     0.158 A 
BRANCH  15  18
ATOM     18  O   UNL     1     -17.494  25.950  57.561  1.00  0.00    -0.504 OA
ATOM     19  H   UNL     1     -16.826  25.678  58.272  1.00  0.00     0.293 HD
ENDBRANCH  15  18
BRANCH  17  20
ATOM     20  O   UNL     1     -15.225  24.640  56.505  1.00  0.00    -0.504 OA
ATOM     21  H   UNL     1     -14.571  23.981  56.102  1.00  0.00     0.293 HD
ENDBRANCH  17  20
ENDBRANCH   1  12
BRANCH   6  22
ATOM     22  O   UNL     1     -13.675  27.604  47.645  1.00  0.00    -0.507 OA
ATOM     23  H   UNL     1     -13.501  28.328  46.958  1.00  0.00     0.293 HD
ENDBRANCH   6  22
BRANCH   8  24
ATOM     24  O   UNL     1     -18.329  26.797  46.659  1.00  0.00    -0.508 OA
ATOM     25  H   UNL     1     -18.419  27.455  45.892  1.00  0.00     0.293 HD
ENDBRANCH   8  24
TORSDOF 5
ENDMDL
MODEL 8
REMARK VINA RESULT:    -6.414     15.653     17.413
REMARK INTER + INTRA:          -7.845
REMARK INTER:                  -7.575
REMARK INTRA:                  -0.270
REMARK UNBOUND:                -0.306
REMARK SMILES O=c1cc(-c2ccc(O)c(O)c2)oc2cc(O)cc(O)c12
REMARK SMILES IDX 4 1 3 2 2 3 1 4 21 5 19 6 18 7 16 8 15 9 14 10 13 11 5 12
REMARK SMILES IDX 6 13 7 14 8 15 12 16 10 17 9 18 11 20 20 22 17 24
REMARK H PARENT 9 19 11 21 20 23 17 25
REMARK Flexibility Score: inf
ROOT
ATOM      1  C   UNL     1      -4.246  35.875  59.621  1.00  0.00     0.138 A 
ATOM      2  C   UNL     1      -3.035  36.154  58.967  1.00  0.00     0.100 A 
ATOM      3  C   UNL     1      -1.979  35.246  59.059  1.00  0.00     0.197 A 
ATOM      4  O   UNL     1      -0.896  35.505  58.468  1.00  0.00    -0.289 OA
ATOM      5  C   UNL     1      -2.142  34.064  59.809  1.00  0.00     0.107 A 
ATOM      6  C   UNL     1      -1.124  33.092  59.953  1.00  0.00     0.134 A 
ATOM      7  C   UNL     1      -1.364  31.944  60.724  1.00  0.00     0.093 A 
ATOM      8  C   UNL     1      -2.597  31.751  61.351  1.00  0.00     0.123 A 
ATOM      9  C   UNL     1      -3.606  32.709  61.213  1.00  0.00     0.094 A 
ATOM     10  C   UNL     1      -3.388  33.859  60.448  1.00  0.00     0.146 A 
ATOM     11  O   UNL     1      -4.364  34.754  60.331  1.00  0.00    -0.456 OA
ENDROOT
BRANCH   1  12
ATOM     12  C   UNL     1      -5.402  36.805  59.559  1.00  0.00     0.021 A 
ATOM     13  C   UNL     1      -6.681  36.370  59.163  1.00  0.00     0.016 A 
ATOM     14  C   UNL     1      -7.754  37.264  59.125  1.00  0.00     0.051 A 
ATOM     15  C   UNL     1      -7.570  38.605  59.487  1.00  0.00     0.157 A 
ATOM     16  C   UNL     1      -5.230  38.149  59.934  1.00  0.00     0.062 A 
ATOM     17  C   UNL     1      -6.303  39.048  59.896  1.00  0.00     0.158 A 
BRANCH  15  18
ATOM     18  O   UNL     1      -8.643  39.494  59.446  1.00  0.00    -0.504 OA
ATOM     19  H   UNL     1      -9.488  39.284  58.928  1.00  0.00     0.293 HD
ENDBRANCH  15  18
BRANCH  17  20
ATOM     20  O   UNL     1      -6.088  40.374  60.267  1.00  0.00    -0.504 OA
ATOM     21  H   UNL     1      -5.161  40.783  60.288  1.00  0.00     0.293 HD
ENDBRANCH  17  20
ENDBRANCH   1  12
BRANCH   6  22
ATOM     22  O   UNL     1       0.118  33.256  59.339  1.00  0.00    -0.507 OA
ATOM     23  H   UNL     1       0.245  33.107  58.345  1.00  0.00     0.293 HD
ENDBRANCH   6  22
BRANCH   8  24
ATOM     24  O   UNL     1      -2.808  30.602  62.110  1.00  0.00    -0.508 OA
ATOM     25  H   UNL     1      -2.213  29.787  62.014  1.00  0.00     0.293 HD
ENDBRANCH   8  24
TORSDOF 5
ENDMDL
MODEL 9
REMARK VINA RESULT:    -6.387      1.700      2.490
REMARK INTER + INTRA:          -7.813
REMARK INTER:                  -7.541
REMARK INTRA:                  -0.272
REMARK UNBOUND:                -0.306
REMARK SMILES O=c1cc(-c2ccc(O)c(O)c2)oc2cc(O)cc(O)c12
REMARK SMILES IDX 4 1 3 2 2 3 1 4 21 5 19 6 18 7 16 8 15 9 14 10 13 11 5 12
REMARK SMILES IDX 6 13 7 14 8 15 12 16 10 17 9 18 11 20 20 22 17 24
REMARK H PARENT 9 19 11 21 20 23 17 25
REMARK Flexibility Score: inf
ROOT
ATOM      1  C   UNL     1     -16.426  28.737  50.241  1.00  0.00     0.138 A 
ATOM      2  C   UNL     1     -16.438  28.317  48.901  1.00  0.00     0.100 A 
ATOM      3  C   UNL     1     -16.561  29.265  47.885  1.00  0.00     0.197 A 
ATOM      4  O   UNL     1     -16.570  28.878  46.685  1.00  0.00    -0.289 OA
ATOM      5  C   UNL     1     -16.675  30.629  48.218  1.00  0.00     0.107 A 
ATOM      6  C   UNL     1     -16.802  31.654  47.250  1.00  0.00     0.134 A 
ATOM      7  C   UNL     1     -16.918  32.990  47.664  1.00  0.00     0.093 A 
ATOM      8  C   UNL     1     -16.909  33.319  49.022  1.00  0.00     0.123 A 
ATOM      9  C   UNL     1     -16.784  32.310  49.982  1.00  0.00     0.094 A 
ATOM     10  C   UNL     1     -16.666  30.973  49.591  1.00  0.00     0.146 A 
ATOM     11  O   UNL     1     -16.547  30.032  50.523  1.00  0.00    -0.456 OA
ENDROOT
BRANCH   1  12
ATOM     12  C   UNL     1     -16.300  27.772  51.364  1.00  0.00     0.021 A 
ATOM     13  C   UNL     1     -15.357  27.954  52.393  1.00  0.00     0.016 A 
ATOM     14  C   UNL     1     -15.267  27.037  53.442  1.00  0.00     0.051 A 
ATOM     15  C   UNL     1     -16.121  25.927  53.487  1.00  0.00     0.157 A 
ATOM     16  C   UNL     1     -17.162  26.663  51.423  1.00  0.00     0.062 A 
ATOM     17  C   UNL     1     -17.074  25.741  52.474  1.00  0.00     0.158 A 
BRANCH  15  18
ATOM     18  O   UNL     1     -16.026  25.013  54.536  1.00  0.00    -0.504 OA
ATOM     19  H   UNL     1     -15.962  25.316  55.500  1.00  0.00     0.293 HD
ENDBRANCH  15  18
BRANCH  17  20
ATOM     20  O   UNL     1     -17.941  24.650  52.491  1.00  0.00    -0.504 OA
ATOM     21  H   UNL     1     -18.883  24.705  52.123  1.00  0.00     0.293 HD
ENDBRANCH  17  20
ENDBRANCH   1  12
BRANCH   6  22
ATOM     22  O   UNL     1     -16.815  31.357  45.887  1.00  0.00    -0.507 OA
ATOM     23  H   UNL     1     -15.958  31.258  45.355  1.00  0.00     0.293 HD
ENDBRANCH   6  22
BRANCH   8  24
ATOM     24  O   UNL     1     -17.025  34.653  49.405  1.00  0.00    -0.508 OA
ATOM     25  H   UNL     1     -17.543  35.322  48.847  1.00  0.00     0.293 HD
ENDBRANCH   8  24
TORSDOF 5
ENDMDL
