MODEL 1
REMARK VINA RESULT:    -5.905      0.000      0.000
REMARK INTER + INTRA:         -10.742
REMARK INTER:                  -8.148
REMARK INTRA:                  -2.594
REMARK UNBOUND:                -2.594
REMARK SMILES CC[C@H](CC[C@H](C)[C@@H]1CC[C@H]2[C@H]3CC=C4C[C@@H](O)CC[C@@]4(C)[C@@H]3CC[C@]21C)C(C)C
REMARK SMILES IDX 5 1 4 2 3 3 2 4 1 5 28 6 29 7 30 8 6 9 7 10 8 11 9 12 26 13
REMARK SMILES IDX 10 14 11 15 25 16 27 17 12 18 24 19 23 20 13 21 21 22 14 23
REMARK SMILES IDX 15 24 20 25 22 26 16 27 19 28 17 29 18 30
REMARK H PARENT 18 31
REMARK Flexibility Score: inf
ROOT
ATOM      1  C   UNL     1       3.727  22.990  49.919  1.00  0.00     0.004 C 
ENDROOT
BRANCH   1   2
ATOM      2  C   UNL     1       2.564  23.948  49.567  1.00  0.00     0.004 C 
BRANCH   2   3
ATOM      3  C   UNL     1       2.267  24.998  50.689  1.00  0.00    -0.009 C 
BRANCH   3   4
ATOM      4  C   UNL     1       2.497  26.428  50.118  1.00  0.00     0.000 C 
ATOM      5  C   UNL     1       3.971  26.707  49.822  1.00  0.00     0.004 C 
ENDBRANCH   3   4
BRANCH   3   6
ATOM      6  C   UNL     1       0.824  24.852  51.298  1.00  0.00    -0.014 C 
ATOM      7  C   UNL     1       0.710  25.523  52.686  1.00  0.00     0.007 C 
ATOM      8  C   UNL     1       0.388  23.383  51.448  1.00  0.00     0.007 C 
ENDBRANCH   3   6
ENDBRANCH   2   3
ENDBRANCH   1   2
BRANCH   1   9
ATOM      9  C   UNL     1       4.632  23.480  51.089  1.00  0.00    -0.011 C 
ATOM     10  C   UNL     1       6.110  23.519  50.621  1.00  0.00     0.008 C 
BRANCH   9  11
ATOM     11  C   UNL     1       4.446  22.652  52.415  1.00  0.00    -0.002 C 
ATOM     12  C   UNL     1       3.270  21.657  52.316  1.00  0.00     0.005 C 
ATOM     13  C   UNL     1       4.218  23.431  53.781  1.00  0.00    -0.026 C 
ATOM     14  C   UNL     1       2.669  21.559  53.702  1.00  0.00     0.005 C 
ATOM     15  C   UNL     1       2.816  22.966  54.261  1.00  0.00    -0.001 C 
ATOM     16  C   UNL     1       5.317  22.973  54.788  1.00  0.00     0.007 C 
ATOM     17  C   UNL     1       4.223  24.980  53.678  1.00  0.00     0.012 C 
ATOM     18  C   UNL     1       2.525  23.127  55.793  1.00  0.00     0.000 C 
ATOM     19  C   UNL     1       5.009  23.344  56.236  1.00  0.00     0.005 C 
ATOM     20  C   UNL     1       3.692  22.687  56.709  1.00  0.00     0.003 C 
ATOM     21  C   UNL     1       1.237  22.390  56.197  1.00  0.00     0.031 C 
ATOM     22  C   UNL     1       3.378  22.950  58.241  1.00  0.00    -0.008 C 
ATOM     23  C   UNL     1       0.963  22.459  57.668  1.00  0.00    -0.027 C 
ATOM     24  C   UNL     1       1.938  22.544  58.597  1.00  0.00    -0.065 C 
ATOM     25  C   UNL     1       4.361  22.101  59.107  1.00  0.00     0.014 C 
ATOM     26  C   UNL     1       3.545  24.453  58.600  1.00  0.00     0.016 C 
ATOM     27  C   UNL     1       1.546  22.423  60.058  1.00  0.00     0.063 C 
ATOM     28  C   UNL     1       4.004  22.059  60.603  1.00  0.00     0.033 C 
ATOM     29  C   UNL     1       2.565  21.585  60.848  1.00  0.00     0.118 C 
BRANCH  29  30
ATOM     30  O   UNL     1       2.431  20.209  60.576  1.00  0.00    -0.393 OA
ATOM     31  H   UNL     1       2.450  20.083  59.592  1.00  0.00     0.210 HD
ENDBRANCH  29  30
ENDBRANCH   9  11
ENDBRANCH   1   9
TORSDOF 7
ENDMDL
MODEL 2
REMARK VINA RESULT:    -5.899      3.297      5.137
REMARK INTER + INTRA:         -10.734
REMARK INTER:                  -9.763
REMARK INTRA:                  -0.971
REMARK UNBOUND:                -2.594
REMARK SMILES CC[C@H](CC[C@H](C)[C@@H]1CC[C@H]2[C@H]3CC=C4C[C@@H](O)CC[C@@]4(C)[C@@H]3CC[C@]21C)C(C)C
REMARK SMILES IDX 5 1 4 2 3 3 2 4 1 5 28 6 29 7 30 8 6 9 7 10 8 11 9 12 26 13
REMARK SMILES IDX 10 14 11 15 25 16 27 17 12 18 24 19 23 20 13 21 21 22 14 23
REMARK SMILES IDX 15 24 20 25 22 26 16 27 19 28 17 29 18 30
REMARK H PARENT 18 31
REMARK Flexibility Score: inf
ROOT
ATOM      1  C   UNL     1       1.613  23.926  46.995  1.00  0.00     0.004 C 
ENDROOT
BRANCH   1   2
ATOM      2  C   UNL     1       1.579  24.436  45.535  1.00  0.00     0.004 C 
BRANCH   2   3
ATOM      3  C   UNL     1       2.898  24.141  44.746  1.00  0.00    -0.009 C 
BRANCH   3   4
ATOM      4  C   UNL     1       3.063  22.600  44.595  1.00  0.00     0.000 C 
ATOM      5  C   UNL     1       1.904  21.963  43.827  1.00  0.00     0.004 C 
ENDBRANCH   3   4
BRANCH   3   6
ATOM      6  C   UNL     1       2.950  24.859  43.348  1.00  0.00    -0.014 C 
ATOM      7  C   UNL     1       4.198  24.451  42.532  1.00  0.00     0.007 C 
ATOM      8  C   UNL     1       2.948  26.395  43.468  1.00  0.00     0.007 C 
ENDBRANCH   3   6
ENDBRANCH   2   3
ENDBRANCH   1   2
BRANCH   1   9
ATOM      9  C   UNL     1       1.634  25.054  48.071  1.00  0.00    -0.011 C 
ATOM     10  C   UNL     1       2.149  26.370  47.433  1.00  0.00     0.008 C 
BRANCH   9  11
ATOM     11  C   UNL     1       2.435  24.667  49.370  1.00  0.00    -0.002 C 
ATOM     12  C   UNL     1       2.590  23.138  49.520  1.00  0.00     0.005 C 
ATOM     13  C   UNL     1       1.900  25.170  50.780  1.00  0.00    -0.026 C 
ATOM     14  C   UNL     1       2.574  22.846  51.005  1.00  0.00     0.005 C 
ATOM     15  C   UNL     1       1.595  23.867  51.566  1.00  0.00    -0.001 C 
ATOM     16  C   UNL     1       3.047  25.968  51.474  1.00  0.00     0.007 C 
ATOM     17  C   UNL     1       0.616  26.041  50.737  1.00  0.00     0.012 C 
ATOM     18  C   UNL     1       1.561  23.997  53.127  1.00  0.00     0.000 C 
ATOM     19  C   UNL     1       2.817  26.190  52.966  1.00  0.00     0.005 C 
ATOM     20  C   UNL     1       2.715  24.843  53.718  1.00  0.00     0.003 C 
ATOM     21  C   UNL     1       1.529  22.615  53.802  1.00  0.00     0.031 C 
ATOM     22  C   UNL     1       2.584  25.013  55.288  1.00  0.00    -0.008 C 
ATOM     23  C   UNL     1       1.570  22.695  55.297  1.00  0.00    -0.027 C 
ATOM     24  C   UNL     1       2.190  23.689  55.966  1.00  0.00    -0.065 C 
ATOM     25  C   UNL     1       3.964  25.469  55.859  1.00  0.00     0.014 C 
ATOM     26  C   UNL     1       1.504  26.068  55.653  1.00  0.00     0.016 C 
ATOM     27  C   UNL     1       2.320  23.565  57.473  1.00  0.00     0.063 C 
ATOM     28  C   UNL     1       4.055  25.424  57.395  1.00  0.00     0.033 C 
ATOM     29  C   UNL     1       3.697  24.043  57.962  1.00  0.00     0.118 C 
BRANCH  29  30
ATOM     30  O   UNL     1       4.707  23.102  57.678  1.00  0.00    -0.393 OA
ATOM     31  H   UNL     1       4.739  22.967  56.695  1.00  0.00     0.210 HD
ENDBRANCH  29  30
ENDBRANCH   9  11
ENDBRANCH   1   9
TORSDOF 7
ENDMDL
MODEL 3
REMARK VINA RESULT:    -5.864      2.447      4.080
REMARK INTER + INTRA:         -10.686
REMARK INTER:                  -8.311
REMARK INTRA:                  -2.374
REMARK UNBOUND:                -2.594
REMARK SMILES CC[C@H](CC[C@H](C)[C@@H]1CC[C@H]2[C@H]3CC=C4C[C@@H](O)CC[C@@]4(C)[C@@H]3CC[C@]21C)C(C)C
REMARK SMILES IDX 5 1 4 2 3 3 2 4 1 5 28 6 29 7 30 8 6 9 7 10 8 11 9 12 26 13
REMARK SMILES IDX 10 14 11 15 25 16 27 17 12 18 24 19 23 20 13 21 21 22 14 23
REMARK SMILES IDX 15 24 20 25 22 26 16 27 19 28 17 29 18 30
REMARK H PARENT 18 31
REMARK Flexibility Score: inf
ROOT
ATOM      1  C   UNL     1       0.169  25.548  52.873  1.00  0.00     0.004 C 
ENDROOT
BRANCH   1   2
ATOM      2  C   UNL     1       0.091  26.522  54.072  1.00  0.00     0.004 C 
BRANCH   2   3
ATOM      3  C   UNL     1      -0.086  25.796  55.448  1.00  0.00    -0.009 C 
BRANCH   3   4
ATOM      4  C   UNL     1       0.537  26.678  56.570  1.00  0.00     0.000 C 
ATOM      5  C   UNL     1       1.348  25.857  57.574  1.00  0.00     0.004 C 
ENDBRANCH   3   4
BRANCH   3   6
ATOM      6  C   UNL     1      -1.586  25.444  55.766  1.00  0.00    -0.014 C 
ATOM      7  C   UNL     1      -2.114  26.219  56.996  1.00  0.00     0.007 C 
ATOM      8  C   UNL     1      -1.801  23.942  56.029  1.00  0.00     0.007 C 
ENDBRANCH   3   6
ENDBRANCH   2   3
ENDBRANCH   1   2
BRANCH   1   9
ATOM      9  C   UNL     1       1.618  25.231  52.395  1.00  0.00    -0.011 C 
ATOM     10  C   UNL     1       1.654  25.182  50.846  1.00  0.00     0.008 C 
BRANCH   9  11
ATOM     11  C   UNL     1       2.224  23.933  53.048  1.00  0.00    -0.002 C 
ATOM     12  C   UNL     1       1.128  22.993  53.592  1.00  0.00     0.005 C 
ATOM     13  C   UNL     1       3.266  24.088  54.238  1.00  0.00    -0.026 C 
ATOM     14  C   UNL     1       1.707  22.314  54.815  1.00  0.00     0.005 C 
ATOM     15  C   UNL     1       2.583  23.388  55.444  1.00  0.00    -0.001 C 
ATOM     16  C   UNL     1       4.571  23.332  53.839  1.00  0.00     0.007 C 
ATOM     17  C   UNL     1       3.615  25.547  54.638  1.00  0.00     0.012 C 
ATOM     18  C   UNL     1       3.536  22.907  56.591  1.00  0.00     0.000 C 
ATOM     19  C   UNL     1       5.510  23.077  55.015  1.00  0.00     0.005 C 
ATOM     20  C   UNL     1       4.824  22.208  56.094  1.00  0.00     0.003 C 
ATOM     21  C   UNL     1       2.798  21.995  57.585  1.00  0.00     0.031 C 
ATOM     22  C   UNL     1       5.790  21.820  57.289  1.00  0.00    -0.008 C 
ATOM     23  C   UNL     1       3.694  21.455  58.658  1.00  0.00    -0.027 C 
ATOM     24  C   UNL     1       5.009  21.221  58.471  1.00  0.00    -0.065 C 
ATOM     25  C   UNL     1       6.813  20.756  56.781  1.00  0.00     0.014 C 
ATOM     26  C   UNL     1       6.561  23.062  57.817  1.00  0.00     0.016 C 
ATOM     27  C   UNL     1       5.771  20.504  59.570  1.00  0.00     0.063 C 
ATOM     28  C   UNL     1       7.644  20.100  57.898  1.00  0.00     0.033 C 
ATOM     29  C   UNL     1       6.766  19.482  58.995  1.00  0.00     0.118 C 
BRANCH  29  30
ATOM     30  O   UNL     1       6.113  18.324  58.529  1.00  0.00    -0.393 OA
ATOM     31  H   UNL     1       6.798  17.625  58.366  1.00  0.00     0.210 HD
ENDBRANCH  29  30
ENDBRANCH   9  11
ENDBRANCH   1   9
TORSDOF 7
ENDMDL
MODEL 4
REMARK VINA RESULT:    -5.778      2.898      4.899
REMARK INTER + INTRA:         -10.567
REMARK INTER:                  -9.390
REMARK INTRA:                  -1.178
REMARK UNBOUND:                -2.594
REMARK SMILES CC[C@H](CC[C@H](C)[C@@H]1CC[C@H]2[C@H]3CC=C4C[C@@H](O)CC[C@@]4(C)[C@@H]3CC[C@]21C)C(C)C
REMARK SMILES IDX 5 1 4 2 3 3 2 4 1 5 28 6 29 7 30 8 6 9 7 10 8 11 9 12 26 13
REMARK SMILES IDX 10 14 11 15 25 16 27 17 12 18 24 19 23 20 13 21 21 22 14 23
REMARK SMILES IDX 15 24 20 25 22 26 16 27 19 28 17 29 18 30
REMARK H PARENT 18 31
REMARK Flexibility Score: inf
ROOT
ATOM      1  C   UNL     1       1.964  24.522  47.681  1.00  0.00     0.004 C 
ENDROOT
BRANCH   1   2
ATOM      2  C   UNL     1       1.113  24.117  46.455  1.00  0.00     0.004 C 
BRANCH   2   3
ATOM      3  C   UNL     1       1.902  24.185  45.105  1.00  0.00    -0.009 C 
BRANCH   3   4
ATOM      4  C   UNL     1       2.956  25.327  45.193  1.00  0.00     0.000 C 
ATOM      5  C   UNL     1       2.684  26.450  44.190  1.00  0.00     0.004 C 
ENDBRANCH   3   4
BRANCH   3   6
ATOM      6  C   UNL     1       2.574  22.817  44.718  1.00  0.00    -0.014 C 
ATOM      7  C   UNL     1       3.859  23.019  43.882  1.00  0.00     0.007 C 
ATOM      8  C   UNL     1       1.633  21.897  43.920  1.00  0.00     0.007 C 
ENDBRANCH   3   6
ENDBRANCH   2   3
ENDBRANCH   1   2
BRANCH   1   9
ATOM      9  C   UNL     1       1.231  25.451  48.696  1.00  0.00    -0.011 C 
ATOM     10  C   UNL     1       0.934  26.817  48.028  1.00  0.00     0.008 C 
BRANCH   9  11
ATOM     11  C   UNL     1       1.992  25.608  50.065  1.00  0.00    -0.002 C 
ATOM     12  C   UNL     1       3.516  25.422  49.905  1.00  0.00     0.005 C 
ATOM     13  C   UNL     1       1.585  24.669  51.282  1.00  0.00    -0.026 C 
ATOM     14  C   UNL     1       4.011  24.786  51.186  1.00  0.00     0.005 C 
ATOM     15  C   UNL     1       2.873  23.862  51.595  1.00  0.00    -0.001 C 
ATOM     16  C   UNL     1       1.208  25.581  52.490  1.00  0.00     0.007 C 
ATOM     17  C   UNL     1       0.426  23.674  51.002  1.00  0.00     0.012 C 
ATOM     18  C   UNL     1       2.971  23.252  53.035  1.00  0.00     0.000 C 
ATOM     19  C   UNL     1       1.159  24.837  53.821  1.00  0.00     0.005 C 
ATOM     20  C   UNL     1       2.534  24.219  54.162  1.00  0.00     0.003 C 
ATOM     21  C   UNL     1       4.386  22.721  53.323  1.00  0.00     0.031 C 
ATOM     22  C   UNL     1       2.570  23.526  55.588  1.00  0.00    -0.008 C 
ATOM     23  C   UNL     1       4.539  22.196  54.717  1.00  0.00    -0.027 C 
ATOM     24  C   UNL     1       3.839  22.675  55.767  1.00  0.00    -0.065 C 
ATOM     25  C   UNL     1       2.560  24.636  56.685  1.00  0.00     0.014 C 
ATOM     26  C   UNL     1       1.346  22.591  55.792  1.00  0.00     0.016 C 
ATOM     27  C   UNL     1       4.213  22.191  57.156  1.00  0.00     0.063 C 
ATOM     28  C   UNL     1       2.852  24.119  58.105  1.00  0.00     0.033 C 
ATOM     29  C   UNL     1       4.169  23.335  58.183  1.00  0.00     0.118 C 
BRANCH  29  30
ATOM     30  O   UNL     1       5.278  24.194  58.054  1.00  0.00    -0.393 OA
ATOM     31  H   UNL     1       5.044  24.911  57.410  1.00  0.00     0.210 HD
ENDBRANCH  29  30
ENDBRANCH   9  11
ENDBRANCH   1   9
TORSDOF 7
ENDMDL
MODEL 5
REMARK VINA RESULT:    -5.416      3.444      8.762
REMARK INTER + INTRA:         -10.067
REMARK INTER:                  -8.271
REMARK INTRA:                  -1.796
REMARK UNBOUND:                -2.594
REMARK SMILES CC[C@H](CC[C@H](C)[C@@H]1CC[C@H]2[C@H]3CC=C4C[C@@H](O)CC[C@@]4(C)[C@@H]3CC[C@]21C)C(C)C
REMARK SMILES IDX 5 1 4 2 3 3 2 4 1 5 28 6 29 7 30 8 6 9 7 10 8 11 9 12 26 13
REMARK SMILES IDX 10 14 11 15 25 16 27 17 12 18 24 19 23 20 13 21 21 22 14 23
REMARK SMILES IDX 15 24 20 25 22 26 16 27 19 28 17 29 18 30
REMARK H PARENT 18 31
REMARK Flexibility Score: inf
ROOT
ATOM      1  C   UNL     1      -0.786  24.763  57.738  1.00  0.00     0.004 C 
ENDROOT
BRANCH   1   2
ATOM      2  C   UNL     1       0.583  24.398  58.360  1.00  0.00     0.004 C 
BRANCH   2   3
ATOM      3  C   UNL     1       0.770  22.860  58.583  1.00  0.00    -0.009 C 
BRANCH   3   4
ATOM      4  C   UNL     1       1.016  22.175  57.207  1.00  0.00     0.000 C 
ATOM      5  C   UNL     1       2.172  22.816  56.436  1.00  0.00     0.004 C 
ENDBRANCH   3   4
BRANCH   3   6
ATOM      6  C   UNL     1       1.920  22.523  59.601  1.00  0.00    -0.014 C 
ATOM      7  C   UNL     1       1.741  21.126  60.238  1.00  0.00     0.007 C 
ATOM      8  C   UNL     1       2.022  23.551  60.744  1.00  0.00     0.007 C 
ENDBRANCH   3   6
ENDBRANCH   2   3
ENDBRANCH   1   2
BRANCH   1   9
ATOM      9  C   UNL     1      -0.792  26.101  56.938  1.00  0.00    -0.011 C 
ATOM     10  C   UNL     1      -1.836  27.068  57.553  1.00  0.00     0.008 C 
BRANCH   9  11
ATOM     11  C   UNL     1      -0.999  25.904  55.390  1.00  0.00    -0.002 C 
ATOM     12  C   UNL     1      -1.618  24.530  55.058  1.00  0.00     0.005 C 
ATOM     13  C   UNL     1       0.257  26.037  54.425  1.00  0.00    -0.026 C 
ATOM     14  C   UNL     1      -1.043  24.106  53.724  1.00  0.00     0.005 C 
ATOM     15  C   UNL     1       0.381  24.641  53.758  1.00  0.00    -0.001 C 
ATOM     16  C   UNL     1      -0.068  27.124  53.355  1.00  0.00     0.007 C 
ATOM     17  C   UNL     1       1.602  26.381  55.120  1.00  0.00     0.012 C 
ATOM     18  C   UNL     1       1.162  24.594  52.400  1.00  0.00     0.000 C 
ATOM     19  C   UNL     1       0.874  27.097  52.155  1.00  0.00     0.005 C 
ATOM     20  C   UNL     1       0.801  25.738  51.422  1.00  0.00     0.003 C 
ATOM     21  C   UNL     1       0.985  23.235  51.700  1.00  0.00     0.031 C 
ATOM     22  C   UNL     1       1.679  25.693  50.103  1.00  0.00    -0.008 C 
ATOM     23  C   UNL     1       1.657  23.176  50.363  1.00  0.00    -0.027 C 
ATOM     24  C   UNL     1       1.820  24.256  49.571  1.00  0.00    -0.065 C 
ATOM     25  C   UNL     1       0.982  26.560  49.007  1.00  0.00     0.014 C 
ATOM     26  C   UNL     1       3.110  26.242  50.359  1.00  0.00     0.016 C 
ATOM     27  C   UNL     1       2.349  24.039  48.165  1.00  0.00     0.063 C 
ATOM     28  C   UNL     1       1.586  26.399  47.601  1.00  0.00     0.033 C 
ATOM     29  C   UNL     1       1.625  24.934  47.145  1.00  0.00     0.118 C 
BRANCH  29  30
ATOM     30  O   UNL     1       0.331  24.457  46.860  1.00  0.00    -0.393 OA
ATOM     31  H   UNL     1      -0.290  24.810  47.548  1.00  0.00     0.210 HD
ENDBRANCH  29  30
ENDBRANCH   9  11
ENDBRANCH   1   9
TORSDOF 7
ENDMDL
MODEL 6
REMARK VINA RESULT:    -5.302      2.753      8.040
REMARK INTER + INTRA:          -9.910
REMARK INTER:                  -7.713
REMARK INTRA:                  -2.197
REMARK UNBOUND:                -2.594
REMARK SMILES CC[C@H](CC[C@H](C)[C@@H]1CC[C@H]2[C@H]3CC=C4C[C@@H](O)CC[C@@]4(C)[C@@H]3CC[C@]21C)C(C)C
REMARK SMILES IDX 5 1 4 2 3 3 2 4 1 5 28 6 29 7 30 8 6 9 7 10 8 11 9 12 26 13
REMARK SMILES IDX 10 14 11 15 25 16 27 17 12 18 24 19 23 20 13 21 21 22 14 23
REMARK SMILES IDX 15 24 20 25 22 26 16 27 19 28 17 29 18 30
REMARK H PARENT 18 31
REMARK Flexibility Score: inf
ROOT
ATOM      1  C   UNL     1       3.071  22.358  59.824  1.00  0.00     0.004 C 
ENDROOT
BRANCH   1   2
ATOM      2  C   UNL     1       4.570  21.991  59.928  1.00  0.00     0.004 C 
BRANCH   2   3
ATOM      3  C   UNL     1       4.938  20.674  59.167  1.00  0.00    -0.009 C 
BRANCH   3   4
ATOM      4  C   UNL     1       3.653  20.097  58.504  1.00  0.00     0.000 C 
ATOM      5  C   UNL     1       3.390  18.645  58.909  1.00  0.00     0.004 C 
ENDBRANCH   3   4
BRANCH   3   6
ATOM      6  C   UNL     1       6.083  20.878  58.107  1.00  0.00    -0.014 C 
ATOM      7  C   UNL     1       5.574  20.683  56.660  1.00  0.00     0.007 C 
ATOM      8  C   UNL     1       7.269  19.920  58.321  1.00  0.00     0.007 C 
ENDBRANCH   3   6
ENDBRANCH   2   3
ENDBRANCH   1   2
BRANCH   1   9
ATOM      9  C   UNL     1       2.799  23.836  59.409  1.00  0.00    -0.011 C 
ATOM     10  C   UNL     1       1.936  24.529  60.495  1.00  0.00     0.008 C 
BRANCH   9  11
ATOM     11  C   UNL     1       2.176  23.979  57.970  1.00  0.00    -0.002 C 
ATOM     12  C   UNL     1       1.247  22.797  57.621  1.00  0.00     0.005 C 
ATOM     13  C   UNL     1       3.151  24.123  56.723  1.00  0.00    -0.026 C 
ATOM     14  C   UNL     1       1.379  22.568  56.131  1.00  0.00     0.005 C 
ATOM     15  C   UNL     1       2.840  22.882  55.844  1.00  0.00    -0.001 C 
ATOM     16  C   UNL     1       2.777  25.433  55.965  1.00  0.00     0.007 C 
ATOM     17  C   UNL     1       4.668  24.132  57.056  1.00  0.00     0.012 C 
ATOM     18  C   UNL     1       3.230  22.994  54.330  1.00  0.00     0.000 C 
ATOM     19  C   UNL     1       3.365  25.512  54.559  1.00  0.00     0.005 C 
ATOM     20  C   UNL     1       2.857  24.347  53.679  1.00  0.00     0.003 C 
ATOM     21  C   UNL     1       2.632  21.838  53.511  1.00  0.00     0.031 C 
ATOM     22  C   UNL     1       3.350  24.441  52.175  1.00  0.00    -0.008 C 
ATOM     23  C   UNL     1       2.922  21.950  52.046  1.00  0.00    -0.027 C 
ATOM     24  C   UNL     1       3.081  23.131  51.414  1.00  0.00    -0.065 C 
ATOM     25  C   UNL     1       2.576  25.595  51.465  1.00  0.00     0.014 C 
ATOM     26  C   UNL     1       4.876  24.723  52.099  1.00  0.00     0.016 C 
ATOM     27  C   UNL     1       3.189  23.124  49.900  1.00  0.00     0.063 C 
ATOM     28  C   UNL     1       2.765  25.632  49.938  1.00  0.00     0.033 C 
ATOM     29  C   UNL     1       2.413  24.294  49.273  1.00  0.00     0.118 C 
BRANCH  29  30
ATOM     30  O   UNL     1       1.022  24.068  49.293  1.00  0.00    -0.393 OA
ATOM     31  H   UNL     1       0.779  23.550  48.482  1.00  0.00     0.210 HD
ENDBRANCH  29  30
ENDBRANCH   9  11
ENDBRANCH   1   9
TORSDOF 7
ENDMDL
MODEL 7
REMARK VINA RESULT:    -5.256      2.067      4.377
REMARK INTER + INTRA:          -9.847
REMARK INTER:                  -8.560
REMARK INTRA:                  -1.288
REMARK UNBOUND:                -2.594
REMARK SMILES CC[C@H](CC[C@H](C)[C@@H]1CC[C@H]2[C@H]3CC=C4C[C@@H](O)CC[C@@]4(C)[C@@H]3CC[C@]21C)C(C)C
REMARK SMILES IDX 5 1 4 2 3 3 2 4 1 5 28 6 29 7 30 8 6 9 7 10 8 11 9 12 26 13
REMARK SMILES IDX 10 14 11 15 25 16 27 17 12 18 24 19 23 20 13 21 21 22 14 23
REMARK SMILES IDX 15 24 20 25 22 26 16 27 19 28 17 29 18 30
REMARK H PARENT 18 31
REMARK Flexibility Score: inf
ROOT
ATOM      1  C   UNL     1      -0.366  25.892  54.336  1.00  0.00     0.004 C 
ENDROOT
BRANCH   1   2
ATOM      2  C   UNL     1      -0.118  24.758  53.313  1.00  0.00     0.004 C 
BRANCH   2   3
ATOM      3  C   UNL     1       0.933  25.136  52.216  1.00  0.00    -0.009 C 
BRANCH   3   4
ATOM      4  C   UNL     1       2.055  25.998  52.865  1.00  0.00     0.000 C 
ATOM      5  C   UNL     1       3.371  25.231  53.007  1.00  0.00     0.004 C 
ENDBRANCH   3   4
BRANCH   3   6
ATOM      6  C   UNL     1       1.532  23.880  51.483  1.00  0.00    -0.014 C 
ATOM      7  C   UNL     1       1.572  24.068  49.949  1.00  0.00     0.007 C 
ATOM      8  C   UNL     1       0.746  22.589  51.777  1.00  0.00     0.007 C 
ENDBRANCH   3   6
ENDBRANCH   2   3
ENDBRANCH   1   2
BRANCH   1   9
ATOM      9  C   UNL     1      -0.845  25.401  55.736  1.00  0.00    -0.011 C 
ATOM     10  C   UNL     1      -0.625  26.523  56.783  1.00  0.00     0.008 C 
BRANCH   9  11
ATOM     11  C   UNL     1      -0.195  24.036  56.178  1.00  0.00    -0.002 C 
ATOM     12  C   UNL     1      -0.933  23.406  57.378  1.00  0.00     0.005 C 
ATOM     13  C   UNL     1       1.343  24.012  56.577  1.00  0.00    -0.026 C 
ATOM     14  C   UNL     1       0.113  22.681  58.197  1.00  0.00     0.005 C 
ATOM     15  C   UNL     1       1.350  23.556  58.061  1.00  0.00    -0.001 C 
ATOM     16  C   UNL     1       2.058  22.955  55.680  1.00  0.00     0.007 C 
ATOM     17  C   UNL     1       2.085  25.371  56.467  1.00  0.00     0.012 C 
ATOM     18  C   UNL     1       2.690  22.933  58.583  1.00  0.00     0.000 C 
ATOM     19  C   UNL     1       3.438  22.555  56.194  1.00  0.00     0.005 C 
ATOM     20  C   UNL     1       3.345  21.930  57.604  1.00  0.00     0.003 C 
ATOM     21  C   UNL     1       2.500  22.272  59.959  1.00  0.00     0.031 C 
ATOM     22  C   UNL     1       4.738  21.396  58.143  1.00  0.00    -0.008 C 
ATOM     23  C   UNL     1       3.742  21.600  60.459  1.00  0.00    -0.027 C 
ATOM     24  C   UNL     1       4.668  21.059  59.642  1.00  0.00    -0.065 C 
ATOM     25  C   UNL     1       5.113  20.098  57.360  1.00  0.00     0.014 C 
ATOM     26  C   UNL     1       5.860  22.454  57.950  1.00  0.00     0.016 C 
ATOM     27  C   UNL     1       5.788  20.248  60.268  1.00  0.00     0.063 C 
ATOM     28  C   UNL     1       6.308  19.330  57.953  1.00  0.00     0.033 C 
ATOM     29  C   UNL     1       6.109  18.994  59.438  1.00  0.00     0.118 C 
BRANCH  29  30
ATOM     30  O   UNL     1       5.132  17.994  59.604  1.00  0.00    -0.393 OA
ATOM     31  H   UNL     1       5.446  17.363  60.303  1.00  0.00     0.210 HD
ENDBRANCH  29  30
ENDBRANCH   9  11
ENDBRANCH   1   9
TORSDOF 7
ENDMDL
MODEL 8
REMARK VINA RESULT:    -5.224      2.945      8.315
REMARK INTER + INTRA:          -9.802
REMARK INTER:                  -8.077
REMARK INTRA:                  -1.725
REMARK UNBOUND:                -2.594
REMARK SMILES CC[C@H](CC[C@H](C)[C@@H]1CC[C@H]2[C@H]3CC=C4C[C@@H](O)CC[C@@]4(C)[C@@H]3CC[C@]21C)C(C)C
REMARK SMILES IDX 5 1 4 2 3 3 2 4 1 5 28 6 29 7 30 8 6 9 7 10 8 11 9 12 26 13
REMARK SMILES IDX 10 14 11 15 25 16 27 17 12 18 24 19 23 20 13 21 21 22 14 23
REMARK SMILES IDX 15 24 20 25 22 26 16 27 19 28 17 29 18 30
REMARK H PARENT 18 31
REMARK Flexibility Score: inf
ROOT
ATOM      1  C   UNL     1       0.885  22.609  58.873  1.00  0.00     0.004 C 
ENDROOT
BRANCH   1   2
ATOM      2  C   UNL     1       1.605  21.498  59.672  1.00  0.00     0.004 C 
BRANCH   2   3
ATOM      3  C   UNL     1       3.092  21.283  59.229  1.00  0.00    -0.009 C 
BRANCH   3   4
ATOM      4  C   UNL     1       4.029  21.609  60.428  1.00  0.00     0.000 C 
ATOM      5  C   UNL     1       4.983  22.766  60.124  1.00  0.00     0.004 C 
ENDBRANCH   3   4
BRANCH   3   6
ATOM      6  C   UNL     1       3.362  19.837  58.672  1.00  0.00    -0.014 C 
ATOM      7  C   UNL     1       3.454  18.788  59.803  1.00  0.00     0.007 C 
ATOM      8  C   UNL     1       4.658  19.751  57.844  1.00  0.00     0.007 C 
ENDBRANCH   3   6
ENDBRANCH   2   3
ENDBRANCH   1   2
BRANCH   1   9
ATOM      9  C   UNL     1       1.773  23.850  58.552  1.00  0.00    -0.011 C 
ATOM     10  C   UNL     1       1.713  24.851  59.734  1.00  0.00     0.008 C 
BRANCH   9  11
ATOM     11  C   UNL     1       1.427  24.529  57.174  1.00  0.00    -0.002 C 
ATOM     12  C   UNL     1      -0.039  24.281  56.758  1.00  0.00     0.005 C 
ATOM     13  C   UNL     1       2.291  24.154  55.895  1.00  0.00    -0.026 C 
ATOM     14  C   UNL     1      -0.051  24.198  55.247  1.00  0.00     0.005 C 
ATOM     15  C   UNL     1       1.270  23.523  54.910  1.00  0.00    -0.001 C 
ATOM     16  C   UNL     1       2.875  25.473  55.302  1.00  0.00     0.007 C 
ATOM     17  C   UNL     1       3.442  23.141  56.137  1.00  0.00     0.012 C 
ATOM     18  C   UNL     1       1.676  23.534  53.396  1.00  0.00     0.000 C 
ATOM     19  C   UNL     1       3.407  25.318  53.880  1.00  0.00     0.005 C 
ATOM     20  C   UNL     1       2.286  24.872  52.914  1.00  0.00     0.003 C 
ATOM     21  C   UNL     1       0.490  23.146  52.496  1.00  0.00     0.031 C 
ATOM     22  C   UNL     1       2.757  24.800  51.402  1.00  0.00    -0.008 C 
ATOM     23  C   UNL     1       0.819  23.216  51.037  1.00  0.00    -0.027 C 
ATOM     24  C   UNL     1       1.721  24.078  50.524  1.00  0.00    -0.065 C 
ATOM     25  C   UNL     1       2.935  26.255  50.862  1.00  0.00     0.014 C 
ATOM     26  C   UNL     1       4.103  24.035  51.267  1.00  0.00     0.016 C 
ATOM     27  C   UNL     1       1.834  24.180  49.014  1.00  0.00     0.063 C 
ATOM     28  C   UNL     1       3.138  26.340  49.339  1.00  0.00     0.033 C 
ATOM     29  C   UNL     1       2.019  25.638  48.559  1.00  0.00     0.118 C 
BRANCH  29  30
ATOM     30  O   UNL     1       0.814  26.364  48.637  1.00  0.00    -0.393 OA
ATOM     31  H   UNL     1       0.064  25.718  48.701  1.00  0.00     0.210 HD
ENDBRANCH  29  30
ENDBRANCH   9  11
ENDBRANCH   1   9
TORSDOF 7
ENDMDL
MODEL 9
REMARK VINA RESULT:    -5.153      1.742      2.914
REMARK INTER + INTRA:          -9.704
REMARK INTER:                  -8.341
REMARK INTRA:                  -1.363
REMARK UNBOUND:                -2.594
REMARK SMILES CC[C@H](CC[C@H](C)[C@@H]1CC[C@H]2[C@H]3CC=C4C[C@@H](O)CC[C@@]4(C)[C@@H]3CC[C@]21C)C(C)C
REMARK SMILES IDX 5 1 4 2 3 3 2 4 1 5 28 6 29 7 30 8 6 9 7 10 8 11 9 12 26 13
REMARK SMILES IDX 10 14 11 15 25 16 27 17 12 18 24 19 23 20 13 21 21 22 14 23
REMARK SMILES IDX 15 24 20 25 22 26 16 27 19 28 17 29 18 30
REMARK H PARENT 18 31
REMARK Flexibility Score: inf
ROOT
ATOM      1  C   UNL     1       1.766  25.521  52.259  1.00  0.00     0.004 C 
ENDROOT
BRANCH   1   2
ATOM      2  C   UNL     1       2.411  25.308  50.869  1.00  0.00     0.004 C 
BRANCH   2   3
ATOM      3  C   UNL     1       1.834  24.069  50.104  1.00  0.00    -0.009 C 
BRANCH   3   4
ATOM      4  C   UNL     1       1.577  24.466  48.621  1.00  0.00     0.000 C 
ATOM      5  C   UNL     1       1.221  25.946  48.467  1.00  0.00     0.004 C 
ENDBRANCH   3   4
BRANCH   3   6
ATOM      6  C   UNL     1       2.761  22.803  50.203  1.00  0.00    -0.014 C 
ATOM      7  C   UNL     1       2.214  21.760  51.204  1.00  0.00     0.007 C 
ATOM      8  C   UNL     1       4.201  23.150  50.626  1.00  0.00     0.007 C 
ENDBRANCH   3   6
ENDBRANCH   2   3
ENDBRANCH   1   2
BRANCH   1   9
ATOM      9  C   UNL     1       2.756  25.382  53.456  1.00  0.00    -0.011 C 
ATOM     10  C   UNL     1       4.176  25.815  53.008  1.00  0.00     0.008 C 
BRANCH   9  11
ATOM     11  C   UNL     1       2.747  23.952  54.115  1.00  0.00    -0.002 C 
ATOM     12  C   UNL     1       1.312  23.422  54.327  1.00  0.00     0.005 C 
ATOM     13  C   UNL     1       3.476  23.747  55.512  1.00  0.00    -0.026 C 
ATOM     14  C   UNL     1       1.344  22.582  55.585  1.00  0.00     0.005 C 
ATOM     15  C   UNL     1       2.344  23.302  56.477  1.00  0.00    -0.001 C 
ATOM     16  C   UNL     1       4.527  22.606  55.345  1.00  0.00     0.007 C 
ATOM     17  C   UNL     1       4.168  25.006  56.099  1.00  0.00     0.012 C 
ATOM     18  C   UNL     1       2.799  22.526  57.760  1.00  0.00     0.000 C 
ATOM     19  C   UNL     1       5.034  22.047  56.671  1.00  0.00     0.005 C 
ATOM     20  C   UNL     1       3.875  21.446  57.499  1.00  0.00     0.003 C 
ATOM     21  C   UNL     1       1.598  21.901  58.490  1.00  0.00     0.031 C 
ATOM     22  C   UNL     1       4.361  20.752  58.839  1.00  0.00    -0.008 C 
ATOM     23  C   UNL     1       2.000  21.089  59.683  1.00  0.00    -0.027 C 
ATOM     24  C   UNL     1       3.177  20.435  59.768  1.00  0.00    -0.065 C 
ATOM     25  C   UNL     1       5.080  19.413  58.479  1.00  0.00     0.014 C 
ATOM     26  C   UNL     1       5.342  21.667  59.624  1.00  0.00     0.016 C 
ATOM     27  C   UNL     1       3.392  19.499  60.943  1.00  0.00     0.063 C 
ATOM     28  C   UNL     1       5.374  18.512  59.691  1.00  0.00     0.033 C 
ATOM     29  C   UNL     1       4.114  18.211  60.515  1.00  0.00     0.118 C 
BRANCH  29  30
ATOM     30  O   UNL     1       3.253  17.336  59.824  1.00  0.00    -0.393 OA
ATOM     31  H   UNL     1       3.639  17.164  58.926  1.00  0.00     0.210 HD
ENDBRANCH  29  30
ENDBRANCH   9  11
ENDBRANCH   1   9
TORSDOF 7
ENDMDL
