MODEL 1
REMARK VINA RESULT:    -4.639      0.000      0.000
REMARK INTER + INTRA:         -10.651
REMARK INTER:                  -8.979
REMARK INTRA:                  -1.672
REMARK UNBOUND:                -1.672
REMARK SMILES CCCCCCCCCCCCCCCCCC(=O)[O-]
REMARK SMILES IDX 10 1 11 2 12 3 13 4 14 5 15 6 16 7 17 8 18 9 19 10 20 11
REMARK SMILES IDX 9 12 8 13 7 14 6 15 5 16 4 17 3 18 2 19 1 20
REMARK H PARENT
REMARK Flexibility Score: inf
ROOT
ATOM      1  C   UNL     1      -2.613  11.643 -18.479  1.00  0.00     0.000 C 
ENDROOT
BRANCH   1   2
ATOM      2  C   UNL     1      -2.545  13.061 -19.083  1.00  0.00     0.000 C 
BRANCH   2   3
ATOM      3  C   UNL     1      -2.047  14.109 -18.071  1.00  0.00     0.000 C 
BRANCH   3   4
ATOM      4  C   UNL     1      -1.377  15.316 -18.762  1.00  0.00     0.000 C 
BRANCH   4   5
ATOM      5  C   UNL     1      -0.014  15.693 -18.159  1.00  0.00     0.000 C 
BRANCH   5   6
ATOM      6  C   UNL     1       1.025  16.079 -19.225  1.00  0.00     0.000 C 
BRANCH   6   7
ATOM      7  C   UNL     1       1.365  17.577 -19.204  1.00  0.00     0.006 C 
BRANCH   7   8
ATOM      8  C   UNL     1       0.197  18.453 -19.677  1.00  0.00     0.053 C 
BRANCH   8   9
ATOM      9  C   UNL     1      -0.238  19.378 -18.585  1.00  0.00     0.041 C 
ATOM     10  O   UNL     1       0.619  19.963 -17.872  1.00  0.00    -0.550 OA
ATOM     11  O   UNL     1      -1.590  19.554 -18.320  1.00  0.00    -0.550 OA
ENDBRANCH   8   9
ENDBRANCH   7   8
ENDBRANCH   6   7
ENDBRANCH   5   6
ENDBRANCH   4   5
ENDBRANCH   3   4
ENDBRANCH   2   3
ENDBRANCH   1   2
BRANCH   1  12
ATOM     12  C   UNL     1      -3.676  10.732 -19.125  1.00  0.00     0.000 C 
BRANCH  12  13
ATOM     13  C   UNL     1      -4.799  11.494 -19.856  1.00  0.00    -0.000 C 
BRANCH  13  14
ATOM     14  C   UNL     1      -6.128  11.460 -19.083  1.00  0.00    -0.000 C 
BRANCH  14  15
ATOM     15  C   UNL     1      -6.182  12.487 -17.938  1.00  0.00    -0.000 C 
BRANCH  15  16
ATOM     16  C   UNL     1      -6.479  11.895 -16.549  1.00  0.00    -0.000 C 
BRANCH  16  17
ATOM     17  C   UNL     1      -5.848  12.705 -15.407  1.00  0.00    -0.000 C 
BRANCH  17  18
ATOM     18  C   UNL     1      -4.353  12.939 -15.661  1.00  0.00    -0.000 C 
BRANCH  18  19
ATOM     19  C   UNL     1      -3.497  12.176 -14.645  1.00  0.00    -0.003 C 
ATOM     20  C   UNL     1      -3.343  10.711 -15.043  1.00  0.00     0.004 C 
ENDBRANCH  18  19
ENDBRANCH  17  18
ENDBRANCH  16  17
ENDBRANCH  15  16
ENDBRANCH  14  15
ENDBRANCH  13  14
ENDBRANCH  12  13
ENDBRANCH   1  12
TORSDOF 16
ENDMDL
MODEL 2
REMARK VINA RESULT:    -4.595      2.930      7.503
REMARK INTER + INTRA:         -10.564
REMARK INTER:                  -9.182
REMARK INTRA:                  -1.382
REMARK UNBOUND:                -1.672
REMARK SMILES CCCCCCCCCCCCCCCCCC(=O)[O-]
REMARK SMILES IDX 10 1 11 2 12 3 13 4 14 5 15 6 16 7 17 8 18 9 19 10 20 11
REMARK SMILES IDX 9 12 8 13 7 14 6 15 5 16 4 17 3 18 2 19 1 20
REMARK H PARENT
REMARK Flexibility Score: inf
ROOT
ATOM      1  C   UNL     1      -2.638  11.641 -18.456  1.00  0.00     0.000 C 
ENDROOT
BRANCH   1   2
ATOM      2  C   UNL     1      -3.691  10.740 -19.131  1.00  0.00     0.000 C 
BRANCH   2   3
ATOM      3  C   UNL     1      -4.833  11.547 -19.775  1.00  0.00     0.000 C 
BRANCH   3   4
ATOM      4  C   UNL     1      -6.122  11.516 -18.926  1.00  0.00     0.000 C 
BRANCH   4   5
ATOM      5  C   UNL     1      -6.126  12.535 -17.774  1.00  0.00     0.000 C 
BRANCH   5   6
ATOM      6  C   UNL     1      -6.212  11.871 -16.390  1.00  0.00     0.000 C 
BRANCH   6   7
ATOM      7  C   UNL     1      -5.526  12.699 -15.293  1.00  0.00     0.006 C 
BRANCH   7   8
ATOM      8  C   UNL     1      -4.026  12.892 -15.552  1.00  0.00     0.053 C 
BRANCH   8   9
ATOM      9  C   UNL     1      -3.232  11.859 -14.816  1.00  0.00     0.041 C 
ATOM     10  O   UNL     1      -2.197  12.190 -14.181  1.00  0.00    -0.550 OA
ATOM     11  O   UNL     1      -3.605  10.522 -14.876  1.00  0.00    -0.550 OA
ENDBRANCH   8   9
ENDBRANCH   7   8
ENDBRANCH   6   7
ENDBRANCH   5   6
ENDBRANCH   4   5
ENDBRANCH   3   4
ENDBRANCH   2   3
ENDBRANCH   1   2
BRANCH   1  12
ATOM     12  C   UNL     1      -2.531  13.054 -19.065  1.00  0.00     0.000 C 
BRANCH  12  13
ATOM     13  C   UNL     1      -2.023  14.127 -18.081  1.00  0.00    -0.000 C 
BRANCH  13  14
ATOM     14  C   UNL     1      -1.388  15.328 -18.802  1.00  0.00    -0.000 C 
BRANCH  14  15
ATOM     15  C   UNL     1       0.015  15.672 -18.271  1.00  0.00    -0.000 C 
BRANCH  15  16
ATOM     16  C   UNL     1       1.042  16.051 -19.352  1.00  0.00    -0.000 C 
BRANCH  16  17
ATOM     17  C   UNL     1       1.497  17.515 -19.256  1.00  0.00    -0.000 C 
BRANCH  17  18
ATOM     18  C   UNL     1       0.354  18.471 -19.626  1.00  0.00    -0.000 C 
BRANCH  18  19
ATOM     19  C   UNL     1       0.006  19.391 -18.451  1.00  0.00    -0.003 C 
ATOM     20  C   UNL     1      -1.483  19.727 -18.437  1.00  0.00     0.004 C 
ENDBRANCH  18  19
ENDBRANCH  17  18
ENDBRANCH  16  17
ENDBRANCH  15  16
ENDBRANCH  14  15
ENDBRANCH  13  14
ENDBRANCH  12  13
ENDBRANCH   1  12
TORSDOF 16
ENDMDL
MODEL 3
REMARK VINA RESULT:    -4.492      0.953      1.690
REMARK INTER + INTRA:         -10.365
REMARK INTER:                  -8.609
REMARK INTRA:                  -1.756
REMARK UNBOUND:                -1.672
REMARK SMILES CCCCCCCCCCCCCCCCCC(=O)[O-]
REMARK SMILES IDX 10 1 11 2 12 3 13 4 14 5 15 6 16 7 17 8 18 9 19 10 20 11
REMARK SMILES IDX 9 12 8 13 7 14 6 15 5 16 4 17 3 18 2 19 1 20
REMARK H PARENT
REMARK Flexibility Score: inf
ROOT
ATOM      1  C   UNL     1      -3.646  11.139 -19.196  1.00  0.00     0.000 C 
ENDROOT
BRANCH   1   2
ATOM      2  C   UNL     1      -2.373  11.834 -18.672  1.00  0.00     0.000 C 
BRANCH   2   3
ATOM      3  C   UNL     1      -2.597  13.327 -18.372  1.00  0.00     0.000 C 
BRANCH   3   4
ATOM      4  C   UNL     1      -1.618  14.232 -19.150  1.00  0.00     0.000 C 
BRANCH   4   5
ATOM      5  C   UNL     1      -1.112  15.435 -18.335  1.00  0.00     0.000 C 
BRANCH   5   6
ATOM      6  C   UNL     1       0.346  15.802 -18.657  1.00  0.00     0.000 C 
BRANCH   6   7
ATOM      7  C   UNL     1       0.511  17.278 -19.048  1.00  0.00     0.006 C 
BRANCH   7   8
ATOM      8  C   UNL     1      -0.822  18.038 -19.058  1.00  0.00     0.053 C 
BRANCH   8   9
ATOM      9  C   UNL     1      -0.683  19.347 -18.347  1.00  0.00     0.041 C 
ATOM     10  O   UNL     1      -1.701  20.046 -18.103  1.00  0.00    -0.550 OA
ATOM     11  O   UNL     1       0.576  19.820 -18.000  1.00  0.00    -0.550 OA
ENDBRANCH   8   9
ENDBRANCH   7   8
ENDBRANCH   6   7
ENDBRANCH   5   6
ENDBRANCH   4   5
ENDBRANCH   3   4
ENDBRANCH   2   3
ENDBRANCH   1   2
BRANCH   1  12
ATOM     12  C   UNL     1      -4.855  12.080 -19.367  1.00  0.00     0.000 C 
BRANCH  12  13
ATOM     13  C   UNL     1      -6.207  11.445 -18.981  1.00  0.00    -0.000 C 
BRANCH  13  14
ATOM     14  C   UNL     1      -6.676  11.874 -17.581  1.00  0.00    -0.000 C 
BRANCH  14  15
ATOM     15  C   UNL     1      -5.687  12.824 -16.883  1.00  0.00    -0.000 C 
BRANCH  15  16
ATOM     16  C   UNL     1      -5.215  12.362 -15.493  1.00  0.00    -0.000 C 
BRANCH  16  17
ATOM     17  C   UNL     1      -4.163  11.246 -15.560  1.00  0.00    -0.000 C 
BRANCH  17  18
ATOM     18  C   UNL     1      -2.941  11.590 -14.698  1.00  0.00    -0.000 C 
BRANCH  18  19
ATOM     19  C   UNL     1      -2.894  13.090 -14.386  1.00  0.00    -0.003 C 
ATOM     20  C   UNL     1      -1.809  13.789 -15.201  1.00  0.00     0.004 C 
ENDBRANCH  18  19
ENDBRANCH  17  18
ENDBRANCH  16  17
ENDBRANCH  15  16
ENDBRANCH  14  15
ENDBRANCH  13  14
ENDBRANCH  12  13
ENDBRANCH   1  12
TORSDOF 16
ENDMDL
MODEL 4
REMARK VINA RESULT:    -4.464      1.156      3.432
REMARK INTER + INTRA:         -10.311
REMARK INTER:                  -8.889
REMARK INTRA:                  -1.421
REMARK UNBOUND:                -1.672
REMARK SMILES CCCCCCCCCCCCCCCCCC(=O)[O-]
REMARK SMILES IDX 10 1 11 2 12 3 13 4 14 5 15 6 16 7 17 8 18 9 19 10 20 11
REMARK SMILES IDX 9 12 8 13 7 14 6 15 5 16 4 17 3 18 2 19 1 20
REMARK H PARENT
REMARK Flexibility Score: inf
ROOT
ATOM      1  C   UNL     1      -2.951  13.816 -16.158  1.00  0.00     0.000 C 
ENDROOT
BRANCH   1   2
ATOM      2  C   UNL     1      -1.623  14.453 -16.613  1.00  0.00     0.000 C 
BRANCH   2   3
ATOM      3  C   UNL     1      -1.561  14.663 -18.137  1.00  0.00     0.000 C 
BRANCH   3   4
ATOM      4  C   UNL     1      -0.836  15.972 -18.517  1.00  0.00     0.000 C 
BRANCH   4   5
ATOM      5  C   UNL     1       0.664  15.786 -18.799  1.00  0.00     0.000 C 
BRANCH   5   6
ATOM      6  C   UNL     1       1.406  17.120 -18.985  1.00  0.00     0.000 C 
BRANCH   6   7
ATOM      7  C   UNL     1       0.936  17.891 -20.227  1.00  0.00     0.006 C 
BRANCH   7   8
ATOM      8  C   UNL     1       0.824  19.401 -19.975  1.00  0.00     0.053 C 
BRANCH   8   9
ATOM      9  C   UNL     1       0.229  19.663 -18.629  1.00  0.00     0.041 C 
ATOM     10  O   UNL     1      -1.008  19.515 -18.443  1.00  0.00    -0.550 OA
ATOM     11  O   UNL     1       1.030  20.124 -17.592  1.00  0.00    -0.550 OA
ENDBRANCH   8   9
ENDBRANCH   7   8
ENDBRANCH   6   7
ENDBRANCH   5   6
ENDBRANCH   4   5
ENDBRANCH   3   4
ENDBRANCH   2   3
ENDBRANCH   1   2
BRANCH   1  12
ATOM     12  C   UNL     1      -2.903  13.194 -14.747  1.00  0.00     0.000 C 
BRANCH  12  13
ATOM     13  C   UNL     1      -2.871  11.653 -14.740  1.00  0.00    -0.000 C 
BRANCH  13  14
ATOM     14  C   UNL     1      -3.561  11.047 -15.973  1.00  0.00    -0.000 C 
BRANCH  14  15
ATOM     15  C   UNL     1      -2.577  10.340 -16.922  1.00  0.00    -0.000 C 
BRANCH  15  16
ATOM     16  C   UNL     1      -2.555  10.889 -18.360  1.00  0.00    -0.000 C 
BRANCH  16  17
ATOM     17  C   UNL     1      -3.762  11.784 -18.676  1.00  0.00    -0.000 C 
BRANCH  17  18
ATOM     18  C   UNL     1      -4.569  11.223 -19.853  1.00  0.00    -0.000 C 
BRANCH  18  19
ATOM     19  C   UNL     1      -6.075  11.359 -19.602  1.00  0.00    -0.003 C 
ATOM     20  C   UNL     1      -6.355  11.847 -18.183  1.00  0.00     0.004 C 
ENDBRANCH  18  19
ENDBRANCH  17  18
ENDBRANCH  16  17
ENDBRANCH  15  16
ENDBRANCH  14  15
ENDBRANCH  13  14
ENDBRANCH  12  13
ENDBRANCH   1  12
TORSDOF 16
ENDMDL
MODEL 5
REMARK VINA RESULT:    -4.423      3.591      8.000
REMARK INTER + INTRA:         -10.232
REMARK INTER:                  -8.596
REMARK INTRA:                  -1.636
REMARK UNBOUND:                -1.672
REMARK SMILES CCCCCCCCCCCCCCCCCC(=O)[O-]
REMARK SMILES IDX 10 1 11 2 12 3 13 4 14 5 15 6 16 7 17 8 18 9 19 10 20 11
REMARK SMILES IDX 9 12 8 13 7 14 6 15 5 16 4 17 3 18 2 19 1 20
REMARK H PARENT
REMARK Flexibility Score: inf
ROOT
ATOM      1  C   UNL     1      -1.689  14.422 -16.530  1.00  0.00     0.000 C 
ENDROOT
BRANCH   1   2
ATOM      2  C   UNL     1      -3.027  13.826 -16.047  1.00  0.00     0.000 C 
BRANCH   2   3
ATOM      3  C   UNL     1      -2.876  13.017 -14.746  1.00  0.00     0.000 C 
BRANCH   3   4
ATOM      4  C   UNL     1      -2.919  11.494 -14.997  1.00  0.00     0.000 C 
BRANCH   4   5
ATOM      5  C   UNL     1      -3.661  11.102 -16.285  1.00  0.00     0.000 C 
BRANCH   5   6
ATOM      6  C   UNL     1      -2.735  10.476 -17.341  1.00  0.00     0.000 C 
BRANCH   6   7
ATOM      7  C   UNL     1      -2.868  11.148 -18.716  1.00  0.00     0.006 C 
BRANCH   7   8
ATOM      8  C   UNL     1      -4.181  11.926 -18.867  1.00  0.00     0.053 C 
BRANCH   8   9
ATOM      9  C   UNL     1      -5.100  11.223 -19.815  1.00  0.00     0.041 C 
ATOM     10  O   UNL     1      -6.324  11.109 -19.544  1.00  0.00    -0.550 OA
ATOM     11  O   UNL     1      -4.595  10.646 -20.974  1.00  0.00    -0.550 OA
ENDBRANCH   8   9
ENDBRANCH   7   8
ENDBRANCH   6   7
ENDBRANCH   5   6
ENDBRANCH   4   5
ENDBRANCH   3   4
ENDBRANCH   2   3
ENDBRANCH   1   2
BRANCH   1  12
ATOM     12  C   UNL     1      -1.619  14.668 -18.051  1.00  0.00     0.000 C 
BRANCH  12  13
ATOM     13  C   UNL     1      -0.834  15.934 -18.448  1.00  0.00    -0.000 C 
BRANCH  13  14
ATOM     14  C   UNL     1       0.638  15.632 -18.775  1.00  0.00    -0.000 C 
BRANCH  14  15
ATOM     15  C   UNL     1       1.495  16.903 -18.903  1.00  0.00    -0.000 C 
BRANCH  15  16
ATOM     16  C   UNL     1       1.643  17.445 -20.336  1.00  0.00    -0.000 C 
BRANCH  16  17
ATOM     17  C   UNL     1       1.061  18.856 -20.504  1.00  0.00    -0.000 C 
BRANCH  17  18
ATOM     18  C   UNL     1       0.643  19.443 -19.149  1.00  0.00    -0.000 C 
BRANCH  18  19
ATOM     19  C   UNL     1      -0.830  19.867 -19.166  1.00  0.00    -0.003 C 
ATOM     20  C   UNL     1      -1.366  20.054 -17.749  1.00  0.00     0.004 C 
ENDBRANCH  18  19
ENDBRANCH  17  18
ENDBRANCH  16  17
ENDBRANCH  15  16
ENDBRANCH  14  15
ENDBRANCH  13  14
ENDBRANCH  12  13
ENDBRANCH   1  12
TORSDOF 16
ENDMDL
MODEL 6
REMARK VINA RESULT:    -4.405      1.292      2.716
REMARK INTER + INTRA:         -10.198
REMARK INTER:                  -8.650
REMARK INTRA:                  -1.548
REMARK UNBOUND:                -1.672
REMARK SMILES CCCCCCCCCCCCCCCCCC(=O)[O-]
REMARK SMILES IDX 10 1 11 2 12 3 13 4 14 5 15 6 16 7 17 8 18 9 19 10 20 11
REMARK SMILES IDX 9 12 8 13 7 14 6 15 5 16 4 17 3 18 2 19 1 20
REMARK H PARENT
REMARK Flexibility Score: inf
ROOT
ATOM      1  C   UNL     1      -4.910  11.529 -19.799  1.00  0.00     0.000 C 
ENDROOT
BRANCH   1   2
ATOM      2  C   UNL     1      -3.695  10.748 -19.260  1.00  0.00     0.000 C 
BRANCH   2   3
ATOM      3  C   UNL     1      -2.750  11.631 -18.424  1.00  0.00     0.000 C 
BRANCH   3   4
ATOM      4  C   UNL     1      -2.445  12.977 -19.115  1.00  0.00     0.000 C 
BRANCH   4   5
ATOM      5  C   UNL     1      -1.973  14.075 -18.146  1.00  0.00     0.000 C 
BRANCH   5   6
ATOM      6  C   UNL     1      -1.400  15.304 -18.870  1.00  0.00     0.000 C 
BRANCH   6   7
ATOM      7  C   UNL     1      -0.099  15.812 -18.231  1.00  0.00     0.006 C 
BRANCH   7   8
ATOM      8  C   UNL     1       1.101  15.716 -19.183  1.00  0.00     0.053 C 
BRANCH   8   9
ATOM      9  C   UNL     1       1.487  17.074 -19.676  1.00  0.00     0.041 C 
ATOM     10  O   UNL     1       1.580  18.038 -18.871  1.00  0.00    -0.550 OA
ATOM     11  O   UNL     1       1.693  17.289 -21.033  1.00  0.00    -0.550 OA
ENDBRANCH   8   9
ENDBRANCH   7   8
ENDBRANCH   6   7
ENDBRANCH   5   6
ENDBRANCH   4   5
ENDBRANCH   3   4
ENDBRANCH   2   3
ENDBRANCH   1   2
BRANCH   1  12
ATOM     12  C   UNL     1      -6.155  11.468 -18.892  1.00  0.00     0.000 C 
BRANCH  12  13
ATOM     13  C   UNL     1      -6.199  12.564 -17.809  1.00  0.00    -0.000 C 
BRANCH  13  14
ATOM     14  C   UNL     1      -6.597  12.009 -16.430  1.00  0.00    -0.000 C 
BRANCH  14  15
ATOM     15  C   UNL     1      -5.769  12.610 -15.281  1.00  0.00    -0.000 C 
BRANCH  15  16
ATOM     16  C   UNL     1      -4.434  13.246 -15.707  1.00  0.00    -0.000 C 
BRANCH  16  17
ATOM     17  C   UNL     1      -3.337  13.100 -14.643  1.00  0.00    -0.000 C 
BRANCH  17  18
ATOM     18  C   UNL     1      -2.515  11.825 -14.873  1.00  0.00    -0.000 C 
BRANCH  18  19
ATOM     19  C   UNL     1      -3.372  10.573 -14.659  1.00  0.00    -0.003 C 
ATOM     20  C   UNL     1      -3.079   9.929 -13.306  1.00  0.00     0.004 C 
ENDBRANCH  18  19
ENDBRANCH  17  18
ENDBRANCH  16  17
ENDBRANCH  15  16
ENDBRANCH  14  15
ENDBRANCH  13  14
ENDBRANCH  12  13
ENDBRANCH   1  12
TORSDOF 16
ENDMDL
MODEL 7
REMARK VINA RESULT:    -4.236      0.860      2.854
REMARK INTER + INTRA:          -9.870
REMARK INTER:                  -8.493
REMARK INTRA:                  -1.377
REMARK UNBOUND:                -1.672
REMARK SMILES CCCCCCCCCCCCCCCCCC(=O)[O-]
REMARK SMILES IDX 10 1 11 2 12 3 13 4 14 5 15 6 16 7 17 8 18 9 19 10 20 11
REMARK SMILES IDX 9 12 8 13 7 14 6 15 5 16 4 17 3 18 2 19 1 20
REMARK H PARENT
REMARK Flexibility Score: inf
ROOT
ATOM      1  C   UNL     1      -3.090  13.120 -14.652  1.00  0.00     0.000 C 
ENDROOT
BRANCH   1   2
ATOM      2  C   UNL     1      -1.988  13.726 -15.546  1.00  0.00     0.000 C 
BRANCH   2   3
ATOM      3  C   UNL     1      -2.548  14.321 -16.851  1.00  0.00     0.000 C 
BRANCH   3   4
ATOM      4  C   UNL     1      -1.486  14.379 -17.969  1.00  0.00     0.000 C 
BRANCH   4   5
ATOM      5  C   UNL     1      -1.018  15.806 -18.301  1.00  0.00     0.000 C 
BRANCH   5   6
ATOM      6  C   UNL     1       0.439  15.857 -18.791  1.00  0.00     0.000 C 
BRANCH   6   7
ATOM      7  C   UNL     1       0.995  17.288 -18.843  1.00  0.00     0.006 C 
BRANCH   7   8
ATOM      8  C   UNL     1       0.006  18.282 -19.467  1.00  0.00     0.053 C 
BRANCH   8   9
ATOM      9  C   UNL     1      -0.325  19.369 -18.495  1.00  0.00     0.041 C 
ATOM     10  O   UNL     1       0.593  19.954 -17.862  1.00  0.00    -0.550 OA
ATOM     11  O   UNL     1      -1.651  19.702 -18.247  1.00  0.00    -0.550 OA
ENDBRANCH   8   9
ENDBRANCH   7   8
ENDBRANCH   6   7
ENDBRANCH   5   6
ENDBRANCH   4   5
ENDBRANCH   3   4
ENDBRANCH   2   3
ENDBRANCH   1   2
BRANCH   1  12
ATOM     12  C   UNL     1      -4.104  12.239 -15.408  1.00  0.00     0.000 C 
BRANCH  12  13
ATOM     13  C   UNL     1      -5.538  12.802 -15.425  1.00  0.00    -0.000 C 
BRANCH  13  14
ATOM     14  C   UNL     1      -6.478  11.985 -16.328  1.00  0.00    -0.000 C 
BRANCH  14  15
ATOM     15  C   UNL     1      -6.448  12.446 -17.796  1.00  0.00    -0.000 C 
BRANCH  15  16
ATOM     16  C   UNL     1      -6.450  11.309 -18.833  1.00  0.00    -0.000 C 
BRANCH  16  17
ATOM     17  C   UNL     1      -5.566  11.611 -20.052  1.00  0.00    -0.000 C 
BRANCH  17  18
ATOM     18  C   UNL     1      -4.245  10.834 -19.980  1.00  0.00    -0.000 C 
BRANCH  18  19
ATOM     19  C   UNL     1      -3.217  11.577 -19.119  1.00  0.00    -0.003 C 
ATOM     20  C   UNL     1      -2.728  10.703 -17.967  1.00  0.00     0.004 C 
ENDBRANCH  18  19
ENDBRANCH  17  18
ENDBRANCH  16  17
ENDBRANCH  15  16
ENDBRANCH  14  15
ENDBRANCH  13  14
ENDBRANCH  12  13
ENDBRANCH   1  12
TORSDOF 16
ENDMDL
MODEL 8
REMARK VINA RESULT:    -4.186      0.956      2.973
REMARK INTER + INTRA:          -9.774
REMARK INTER:                  -8.234
REMARK INTRA:                  -1.540
REMARK UNBOUND:                -1.672
REMARK SMILES CCCCCCCCCCCCCCCCCC(=O)[O-]
REMARK SMILES IDX 10 1 11 2 12 3 13 4 14 5 15 6 16 7 17 8 18 9 19 10 20 11
REMARK SMILES IDX 9 12 8 13 7 14 6 15 5 16 4 17 3 18 2 19 1 20
REMARK H PARENT
REMARK Flexibility Score: inf
ROOT
ATOM      1  C   UNL     1      -1.647  14.500 -16.865  1.00  0.00     0.000 C 
ENDROOT
BRANCH   1   2
ATOM      2  C   UNL     1      -1.529  14.781 -18.377  1.00  0.00     0.000 C 
BRANCH   2   3
ATOM      3  C   UNL     1      -0.676  16.026 -18.681  1.00  0.00     0.000 C 
BRANCH   3   4
ATOM      4  C   UNL     1       0.829  15.695 -18.768  1.00  0.00     0.000 C 
BRANCH   4   5
ATOM      5  C   UNL     1       1.718  16.928 -19.007  1.00  0.00     0.000 C 
BRANCH   5   6
ATOM      6  C   UNL     1       1.357  17.684 -20.296  1.00  0.00     0.000 C 
BRANCH   6   7
ATOM      7  C   UNL     1       1.182  19.193 -20.066  1.00  0.00     0.006 C 
BRANCH   7   8
ATOM      8  C   UNL     1      -0.232  19.557 -19.596  1.00  0.00     0.053 C 
BRANCH   8   9
ATOM      9  C   UNL     1      -0.217  19.957 -18.155  1.00  0.00     0.041 C 
ATOM     10  O   UNL     1       0.878  20.124 -17.556  1.00  0.00    -0.550 OA
ATOM     11  O   UNL     1      -1.411  20.095 -17.459  1.00  0.00    -0.550 OA
ENDBRANCH   8   9
ENDBRANCH   7   8
ENDBRANCH   6   7
ENDBRANCH   5   6
ENDBRANCH   4   5
ENDBRANCH   3   4
ENDBRANCH   2   3
ENDBRANCH   1   2
BRANCH   1  12
ATOM     12  C   UNL     1      -2.956  13.797 -16.453  1.00  0.00     0.000 C 
BRANCH  12  13
ATOM     13  C   UNL     1      -2.822  12.900 -15.206  1.00  0.00    -0.000 C 
BRANCH  13  14
ATOM     14  C   UNL     1      -4.179  12.351 -14.732  1.00  0.00    -0.000 C 
BRANCH  14  15
ATOM     15  C   UNL     1      -5.364  12.900 -15.547  1.00  0.00    -0.000 C 
BRANCH  15  16
ATOM     16  C   UNL     1      -5.995  11.897 -16.529  1.00  0.00    -0.000 C 
BRANCH  16  17
ATOM     17  C   UNL     1      -6.150  12.465 -17.947  1.00  0.00    -0.000 C 
BRANCH  17  18
ATOM     18  C   UNL     1      -5.635  11.472 -18.997  1.00  0.00    -0.000 C 
BRANCH  18  19
ATOM     19  C   UNL     1      -4.231  11.857 -19.475  1.00  0.00    -0.003 C 
ATOM     20  C   UNL     1      -3.157  11.090 -18.708  1.00  0.00     0.004 C 
ENDBRANCH  18  19
ENDBRANCH  17  18
ENDBRANCH  16  17
ENDBRANCH  15  16
ENDBRANCH  14  15
ENDBRANCH  13  14
ENDBRANCH  12  13
ENDBRANCH   1  12
TORSDOF 16
ENDMDL
MODEL 9
REMARK VINA RESULT:    -4.060      2.872      7.994
REMARK INTER + INTRA:          -9.530
REMARK INTER:                  -8.009
REMARK INTRA:                  -1.521
REMARK UNBOUND:                -1.672
REMARK SMILES CCCCCCCCCCCCCCCCCC(=O)[O-]
REMARK SMILES IDX 10 1 11 2 12 3 13 4 14 5 15 6 16 7 17 8 18 9 19 10 20 11
REMARK SMILES IDX 9 12 8 13 7 14 6 15 5 16 4 17 3 18 2 19 1 20
REMARK H PARENT
REMARK Flexibility Score: inf
ROOT
ATOM      1  C   UNL     1      -2.367  14.140 -17.773  1.00  0.00     0.000 C 
ENDROOT
BRANCH   1   2
ATOM      2  C   UNL     1      -2.379  13.126 -18.935  1.00  0.00     0.000 C 
BRANCH   2   3
ATOM      3  C   UNL     1      -2.648  11.687 -18.459  1.00  0.00     0.000 C 
BRANCH   3   4
ATOM      4  C   UNL     1      -3.883  11.066 -19.146  1.00  0.00     0.000 C 
BRANCH   4   5
ATOM      5  C   UNL     1      -5.111  11.992 -19.163  1.00  0.00     0.000 C 
BRANCH   5   6
ATOM      6  C   UNL     1      -5.968  11.869 -17.893  1.00  0.00     0.000 C 
BRANCH   6   7
ATOM      7  C   UNL     1      -5.573  12.886 -16.812  1.00  0.00     0.006 C 
BRANCH   7   8
ATOM      8  C   UNL     1      -5.454  12.251 -15.420  1.00  0.00     0.053 C 
BRANCH   8   9
ATOM      9  C   UNL     1      -4.019  11.997 -15.083  1.00  0.00     0.041 C 
ATOM     10  O   UNL     1      -3.547  10.832 -15.156  1.00  0.00    -0.550 OA
ATOM     11  O   UNL     1      -3.215  13.039 -14.637  1.00  0.00    -0.550 OA
ENDBRANCH   8   9
ENDBRANCH   7   8
ENDBRANCH   6   7
ENDBRANCH   5   6
ENDBRANCH   4   5
ENDBRANCH   3   4
ENDBRANCH   2   3
ENDBRANCH   1   2
BRANCH   1  12
ATOM     12  C   UNL     1      -1.028  14.885 -17.598  1.00  0.00     0.000 C 
BRANCH  12  13
ATOM     13  C   UNL     1      -0.679  15.834 -18.762  1.00  0.00    -0.000 C 
BRANCH  13  14
ATOM     14  C   UNL     1       0.818  15.803 -19.114  1.00  0.00    -0.000 C 
BRANCH  14  15
ATOM     15  C   UNL     1       1.468  17.197 -19.090  1.00  0.00    -0.000 C 
BRANCH  15  16
ATOM     16  C   UNL     1       1.578  17.884 -20.463  1.00  0.00    -0.000 C 
BRANCH  16  17
ATOM     17  C   UNL     1       1.318  19.396 -20.396  1.00  0.00    -0.000 C 
BRANCH  17  18
ATOM     18  C   UNL     1       0.669  19.784 -19.061  1.00  0.00    -0.000 C 
BRANCH  18  19
ATOM     19  C   UNL     1      -0.813  20.124 -19.249  1.00  0.00    -0.003 C 
ATOM     20  C   UNL     1      -1.621  19.776 -18.002  1.00  0.00     0.004 C 
ENDBRANCH  18  19
ENDBRANCH  17  18
ENDBRANCH  16  17
ENDBRANCH  15  16
ENDBRANCH  14  15
ENDBRANCH  13  14
ENDBRANCH  12  13
ENDBRANCH   1  12
TORSDOF 16
ENDMDL
