MODEL 1
REMARK VINA RESULT:    -5.210      0.000      0.000
REMARK INTER + INTRA:         -18.792
REMARK INTER:                 -13.739
REMARK INTRA:                  -5.053
REMARK UNBOUND:                -5.053
REMARK SMILES CCCCCCCCCCCCCCCCCCCCCCCCCCCCCC(=O)[O-]
REMARK SMILES IDX 16 1 17 2 18 3 19 4 20 5 21 6 22 7 23 8 24 9 25 10 26 11
REMARK SMILES IDX 27 12 28 13 29 14 30 15 31 16 32 17 15 18 14 19 13 20 12 21
REMARK SMILES IDX 11 22 10 23 9 24 8 25 7 26 6 27 5 28 4 29 3 30 2 31 1 32
REMARK H PARENT
REMARK Flexibility Score: inf
ROOT
ATOM      1  C   UNL     1     -20.368 -23.887  13.499  1.00  0.00     0.000 C 
ENDROOT
BRANCH   1   2
ATOM      2  C   UNL     1     -19.505 -24.308  14.700  1.00  0.00     0.000 C 
BRANCH   2   3
ATOM      3  C   UNL     1     -18.261 -25.115  14.274  1.00  0.00     0.000 C 
BRANCH   3   4
ATOM      4  C   UNL     1     -17.783 -26.124  15.332  1.00  0.00     0.000 C 
BRANCH   4   5
ATOM      5  C   UNL     1     -18.235 -27.566  15.041  1.00  0.00     0.000 C 
BRANCH   5   6
ATOM      6  C   UNL     1     -18.661 -27.766  13.573  1.00  0.00     0.000 C 
BRANCH   6   7
ATOM      7  C   UNL     1     -20.168 -28.029  13.379  1.00  0.00     0.000 C 
BRANCH   7   8
ATOM      8  C   UNL     1     -20.552 -29.522  13.365  1.00  0.00     0.000 C 
BRANCH   8   9
ATOM      9  C   UNL     1     -21.716 -29.839  14.323  1.00  0.00     0.000 C 
BRANCH   9  10
ATOM     10  C   UNL     1     -21.327 -29.649  15.805  1.00  0.00     0.000 C 
BRANCH  10  11
ATOM     11  C   UNL     1     -22.128 -28.550  16.524  1.00  0.00     0.000 C 
BRANCH  11  12
ATOM     12  C   UNL     1     -21.308 -27.317  16.935  1.00  0.00     0.000 C 
BRANCH  12  13
ATOM     13  C   UNL     1     -21.973 -25.992  16.520  1.00  0.00     0.006 C 
BRANCH  13  14
ATOM     14  C   UNL     1     -23.257 -26.219  15.713  1.00  0.00     0.053 C 
BRANCH  14  15
ATOM     15  C   UNL     1     -24.449 -25.601  16.380  1.00  0.00     0.041 C 
ATOM     16  O   UNL     1     -25.129 -26.265  17.209  1.00  0.00    -0.550 OA
ATOM     17  O   UNL     1     -24.825 -24.302  16.067  1.00  0.00    -0.550 OA
ENDBRANCH  14  15
ENDBRANCH  13  14
ENDBRANCH  12  13
ENDBRANCH  11  12
ENDBRANCH  10  11
ENDBRANCH   9  10
ENDBRANCH   8   9
ENDBRANCH   7   8
ENDBRANCH   6   7
ENDBRANCH   5   6
ENDBRANCH   4   5
ENDBRANCH   3   4
ENDBRANCH   2   3
ENDBRANCH   1   2
BRANCH   1  18
ATOM     18  C   UNL     1     -20.158 -22.416  13.094  1.00  0.00     0.000 C 
BRANCH  18  19
ATOM     19  C   UNL     1     -19.175 -22.193  11.927  1.00  0.00     0.000 C 
BRANCH  19  20
ATOM     20  C   UNL     1     -19.070 -20.741  11.424  1.00  0.00     0.000 C 
BRANCH  20  21
ATOM     21  C   UNL     1     -19.807 -20.456  10.103  1.00  0.00     0.000 C 
BRANCH  21  22
ATOM     22  C   UNL     1     -20.041 -21.732   9.273  1.00  0.00     0.000 C 
BRANCH  22  23
ATOM     23  C   UNL     1     -21.413 -21.757   8.579  1.00  0.00     0.000 C 
BRANCH  23  24
ATOM     24  C   UNL     1     -22.323 -22.947   8.950  1.00  0.00    -0.000 C 
BRANCH  24  25
ATOM     25  C   UNL     1     -21.769 -23.850  10.072  1.00  0.00    -0.000 C 
BRANCH  25  26
ATOM     26  C   UNL     1     -21.044 -25.096   9.528  1.00  0.00    -0.000 C 
BRANCH  26  27
ATOM     27  C   UNL     1     -19.921 -25.585  10.463  1.00  0.00    -0.000 C 
BRANCH  27  28
ATOM     28  C   UNL     1     -18.497 -25.237   9.985  1.00  0.00    -0.000 C 
BRANCH  28  29
ATOM     29  C   UNL     1     -17.356 -25.907  10.778  1.00  0.00    -0.000 C 
BRANCH  29  30
ATOM     30  C   UNL     1     -16.107 -26.222   9.928  1.00  0.00    -0.000 C 
BRANCH  30  31
ATOM     31  C   UNL     1     -16.109 -27.669   9.408  1.00  0.00    -0.003 C 
ATOM     32  C   UNL     1     -16.963 -28.574  10.293  1.00  0.00     0.004 C 
ENDBRANCH  30  31
ENDBRANCH  29  30
ENDBRANCH  28  29
ENDBRANCH  27  28
ENDBRANCH  26  27
ENDBRANCH  25  26
ENDBRANCH  24  25
ENDBRANCH  23  24
ENDBRANCH  22  23
ENDBRANCH  21  22
ENDBRANCH  20  21
ENDBRANCH  19  20
ENDBRANCH  18  19
ENDBRANCH   1  18
TORSDOF 28
ENDMDL
MODEL 2
REMARK VINA RESULT:    -4.964      3.541      8.126
REMARK INTER + INTRA:         -18.143
REMARK INTER:                 -14.380
REMARK INTRA:                  -3.763
REMARK UNBOUND:                -5.053
REMARK SMILES CCCCCCCCCCCCCCCCCCCCCCCCCCCCCC(=O)[O-]
REMARK SMILES IDX 16 1 17 2 18 3 19 4 20 5 21 6 22 7 23 8 24 9 25 10 26 11
REMARK SMILES IDX 27 12 28 13 29 14 30 15 31 16 32 17 15 18 14 19 13 20 12 21
REMARK SMILES IDX 11 22 10 23 9 24 8 25 7 26 6 27 5 28 4 29 3 30 2 31 1 32
REMARK H PARENT
REMARK Flexibility Score: inf
ROOT
ATOM      1  C   UNL     1     -20.735 -26.261  14.446  1.00  0.00     0.000 C 
ENDROOT
BRANCH   1   2
ATOM      2  C   UNL     1     -20.064 -25.171  15.300  1.00  0.00     0.000 C 
BRANCH   2   3
ATOM      3  C   UNL     1     -19.480 -24.030  14.441  1.00  0.00     0.000 C 
BRANCH   3   4
ATOM      4  C   UNL     1     -20.440 -23.516  13.355  1.00  0.00     0.000 C 
BRANCH   4   5
ATOM      5  C   UNL     1     -19.861 -22.346  12.540  1.00  0.00     0.000 C 
BRANCH   5   6
ATOM      6  C   UNL     1     -19.490 -22.756  11.100  1.00  0.00     0.000 C 
BRANCH   6   7
ATOM      7  C   UNL     1     -20.650 -23.384  10.301  1.00  0.00     0.000 C 
BRANCH   7   8
ATOM      8  C   UNL     1     -20.403 -24.843   9.870  1.00  0.00     0.000 C 
BRANCH   8   9
ATOM      9  C   UNL     1     -19.002 -25.345  10.266  1.00  0.00     0.000 C 
BRANCH   9  10
ATOM     10  C   UNL     1     -19.059 -26.544  11.237  1.00  0.00     0.000 C 
BRANCH  10  11
ATOM     11  C   UNL     1     -17.758 -26.767  12.029  1.00  0.00     0.000 C 
BRANCH  11  12
ATOM     12  C   UNL     1     -16.939 -25.494  12.295  1.00  0.00     0.000 C 
BRANCH  12  13
ATOM     13  C   UNL     1     -16.018 -25.623  13.522  1.00  0.00     0.006 C 
BRANCH  13  14
ATOM     14  C   UNL     1     -16.688 -26.390  14.668  1.00  0.00     0.053 C 
BRANCH  14  15
ATOM     15  C   UNL     1     -15.747 -26.611  15.814  1.00  0.00     0.041 C 
ATOM     16  O   UNL     1     -14.925 -25.712  16.143  1.00  0.00    -0.550 OA
ATOM     17  O   UNL     1     -15.759 -27.817  16.501  1.00  0.00    -0.550 OA
ENDBRANCH  14  15
ENDBRANCH  13  14
ENDBRANCH  12  13
ENDBRANCH  11  12
ENDBRANCH  10  11
ENDBRANCH   9  10
ENDBRANCH   8   9
ENDBRANCH   7   8
ENDBRANCH   6   7
ENDBRANCH   5   6
ENDBRANCH   4   5
ENDBRANCH   3   4
ENDBRANCH   2   3
ENDBRANCH   1   2
BRANCH   1  18
ATOM     18  C   UNL     1     -20.228 -27.678  14.774  1.00  0.00     0.000 C 
BRANCH  18  19
ATOM     19  C   UNL     1     -21.237 -28.813  14.506  1.00  0.00     0.000 C 
BRANCH  19  20
ATOM     20  C   UNL     1     -21.619 -29.658  15.735  1.00  0.00     0.000 C 
BRANCH  20  21
ATOM     21  C   UNL     1     -21.568 -28.909  17.079  1.00  0.00     0.000 C 
BRANCH  21  22
ATOM     22  C   UNL     1     -22.940 -28.344  17.491  1.00  0.00     0.000 C 
BRANCH  22  23
ATOM     23  C   UNL     1     -23.228 -26.960  16.887  1.00  0.00     0.000 C 
BRANCH  23  24
ATOM     24  C   UNL     1     -24.622 -26.376  17.199  1.00  0.00    -0.000 C 
BRANCH  24  25
ATOM     25  C   UNL     1     -25.078 -25.259  16.236  1.00  0.00    -0.000 C 
BRANCH  25  26
ATOM     26  C   UNL     1     -26.594 -25.293  15.963  1.00  0.00    -0.000 C 
BRANCH  26  27
ATOM     27  C   UNL     1     -27.008 -24.374  14.798  1.00  0.00    -0.000 C 
BRANCH  27  28
ATOM     28  C   UNL     1     -27.687 -25.104  13.622  1.00  0.00    -0.000 C 
BRANCH  28  29
ATOM     29  C   UNL     1     -26.979 -24.956  12.259  1.00  0.00    -0.000 C 
BRANCH  29  30
ATOM     30  C   UNL     1     -27.756 -24.093  11.243  1.00  0.00    -0.000 C 
BRANCH  30  31
ATOM     31  C   UNL     1     -28.326 -24.930  10.086  1.00  0.00    -0.003 C 
ATOM     32  C   UNL     1     -27.394 -26.085   9.728  1.00  0.00     0.004 C 
ENDBRANCH  30  31
ENDBRANCH  29  30
ENDBRANCH  28  29
ENDBRANCH  27  28
ENDBRANCH  26  27
ENDBRANCH  25  26
ENDBRANCH  24  25
ENDBRANCH  23  24
ENDBRANCH  22  23
ENDBRANCH  21  22
ENDBRANCH  20  21
ENDBRANCH  19  20
ENDBRANCH  18  19
ENDBRANCH   1  18
TORSDOF 28
ENDMDL
MODEL 3
REMARK VINA RESULT:    -4.952      3.095      5.175
REMARK INTER + INTRA:         -18.112
REMARK INTER:                 -13.051
REMARK INTRA:                  -5.061
REMARK UNBOUND:                -5.053
REMARK SMILES CCCCCCCCCCCCCCCCCCCCCCCCCCCCCC(=O)[O-]
REMARK SMILES IDX 16 1 17 2 18 3 19 4 20 5 21 6 22 7 23 8 24 9 25 10 26 11
REMARK SMILES IDX 27 12 28 13 29 14 30 15 31 16 32 17 15 18 14 19 13 20 12 21
REMARK SMILES IDX 11 22 10 23 9 24 8 25 7 26 6 27 5 28 4 29 3 30 2 31 1 32
REMARK H PARENT
REMARK Flexibility Score: inf
ROOT
ATOM      1  C   UNL     1     -19.472 -23.911  14.564  1.00  0.00     0.000 C 
ENDROOT
BRANCH   1   2
ATOM      2  C   UNL     1     -20.330 -24.946  15.312  1.00  0.00     0.000 C 
BRANCH   2   3
ATOM      3  C   UNL     1     -20.684 -26.161  14.430  1.00  0.00     0.000 C 
BRANCH   3   4
ATOM      4  C   UNL     1     -21.504 -27.239  15.158  1.00  0.00     0.000 C 
BRANCH   4   5
ATOM      5  C   UNL     1     -20.780 -28.595  15.244  1.00  0.00     0.000 C 
BRANCH   5   6
ATOM      6  C   UNL     1     -21.680 -29.772  14.817  1.00  0.00     0.000 C 
BRANCH   6   7
ATOM      7  C   UNL     1     -21.305 -30.397  13.459  1.00  0.00     0.000 C 
BRANCH   7   8
ATOM      8  C   UNL     1     -20.114 -29.715  12.756  1.00  0.00     0.000 C 
BRANCH   8   9
ATOM      9  C   UNL     1     -19.234 -30.716  11.985  1.00  0.00     0.000 C 
BRANCH   9  10
ATOM     10  C   UNL     1     -18.211 -30.013  11.066  1.00  0.00     0.000 C 
BRANCH  10  11
ATOM     11  C   UNL     1     -18.579 -30.062   9.572  1.00  0.00     0.000 C 
BRANCH  11  12
ATOM     12  C   UNL     1     -20.073 -30.277   9.283  1.00  0.00     0.000 C 
BRANCH  12  13
ATOM     13  C   UNL     1     -20.371 -31.665   8.687  1.00  0.00     0.006 C 
BRANCH  13  14
ATOM     14  C   UNL     1     -21.863 -32.016   8.758  1.00  0.00     0.053 C 
BRANCH  14  15
ATOM     15  C   UNL     1     -22.343 -32.114  10.175  1.00  0.00     0.041 C 
ATOM     16  O   UNL     1     -23.253 -31.346  10.592  1.00  0.00    -0.550 OA
ATOM     17  O   UNL     1     -21.770 -33.034  11.041  1.00  0.00    -0.550 OA
ENDBRANCH  14  15
ENDBRANCH  13  14
ENDBRANCH  12  13
ENDBRANCH  11  12
ENDBRANCH  10  11
ENDBRANCH   9  10
ENDBRANCH   8   9
ENDBRANCH   7   8
ENDBRANCH   6   7
ENDBRANCH   5   6
ENDBRANCH   4   5
ENDBRANCH   3   4
ENDBRANCH   2   3
ENDBRANCH   1   2
BRANCH   1  18
ATOM     18  C   UNL     1     -20.029 -23.563  13.171  1.00  0.00     0.000 C 
BRANCH  18  19
ATOM     19  C   UNL     1     -19.031 -22.871  12.221  1.00  0.00     0.000 C 
BRANCH  19  20
ATOM     20  C   UNL     1     -19.453 -21.475  11.728  1.00  0.00     0.000 C 
BRANCH  20  21
ATOM     21  C   UNL     1     -19.570 -21.334  10.199  1.00  0.00     0.000 C 
BRANCH  21  22
ATOM     22  C   UNL     1     -19.536 -22.694   9.478  1.00  0.00     0.000 C 
BRANCH  22  23
ATOM     23  C   UNL     1     -20.897 -23.410   9.478  1.00  0.00     0.000 C 
BRANCH  23  24
ATOM     24  C   UNL     1     -20.850 -24.925   9.766  1.00  0.00    -0.000 C 
BRANCH  24  25
ATOM     25  C   UNL     1     -19.440 -25.548   9.684  1.00  0.00    -0.000 C 
BRANCH  25  26
ATOM     26  C   UNL     1     -19.088 -26.386  10.929  1.00  0.00    -0.000 C 
BRANCH  26  27
ATOM     27  C   UNL     1     -17.584 -26.349  11.262  1.00  0.00    -0.000 C 
BRANCH  27  28
ATOM     28  C   UNL     1     -17.267 -26.136  12.755  1.00  0.00    -0.000 C 
BRANCH  28  29
ATOM     29  C   UNL     1     -17.575 -27.338  13.671  1.00  0.00    -0.000 C 
BRANCH  29  30
ATOM     30  C   UNL     1     -17.069 -27.166  15.119  1.00  0.00    -0.000 C 
BRANCH  30  31
ATOM     31  C   UNL     1     -16.345 -25.826  15.325  1.00  0.00    -0.003 C 
ATOM     32  C   UNL     1     -15.594 -25.803  16.655  1.00  0.00     0.004 C 
ENDBRANCH  30  31
ENDBRANCH  29  30
ENDBRANCH  28  29
ENDBRANCH  27  28
ENDBRANCH  26  27
ENDBRANCH  25  26
ENDBRANCH  24  25
ENDBRANCH  23  24
ENDBRANCH  22  23
ENDBRANCH  21  22
ENDBRANCH  20  21
ENDBRANCH  19  20
ENDBRANCH  18  19
ENDBRANCH   1  18
TORSDOF 28
ENDMDL
MODEL 4
REMARK VINA RESULT:    -4.922      2.639      7.271
REMARK INTER + INTRA:         -18.031
REMARK INTER:                 -13.622
REMARK INTRA:                  -4.409
REMARK UNBOUND:                -5.053
REMARK SMILES CCCCCCCCCCCCCCCCCCCCCCCCCCCCCC(=O)[O-]
REMARK SMILES IDX 16 1 17 2 18 3 19 4 20 5 21 6 22 7 23 8 24 9 25 10 26 11
REMARK SMILES IDX 27 12 28 13 29 14 30 15 31 16 32 17 15 18 14 19 13 20 12 21
REMARK SMILES IDX 11 22 10 23 9 24 8 25 7 26 6 27 5 28 4 29 3 30 2 31 1 32
REMARK H PARENT
REMARK Flexibility Score: inf
ROOT
ATOM      1  C   UNL     1     -19.131 -27.200  15.444  1.00  0.00     0.000 C 
ENDROOT
BRANCH   1   2
ATOM      2  C   UNL     1     -17.809 -27.629  14.785  1.00  0.00     0.000 C 
BRANCH   2   3
ATOM      3  C   UNL     1     -16.666 -26.629  15.057  1.00  0.00     0.000 C 
BRANCH   3   4
ATOM      4  C   UNL     1     -16.312 -25.746  13.849  1.00  0.00     0.000 C 
BRANCH   4   5
ATOM      5  C   UNL     1     -16.968 -26.220  12.540  1.00  0.00     0.000 C 
BRANCH   5   6
ATOM      6  C   UNL     1     -17.345 -25.048  11.611  1.00  0.00     0.000 C 
BRANCH   6   7
ATOM      7  C   UNL     1     -18.821 -24.612  11.708  1.00  0.00     0.000 C 
BRANCH   7   8
ATOM      8  C   UNL     1     -19.096 -23.547  12.787  1.00  0.00     0.000 C 
BRANCH   8   9
ATOM      9  C   UNL     1     -19.951 -22.380  12.257  1.00  0.00     0.000 C 
BRANCH   9  10
ATOM     10  C   UNL     1     -19.097 -21.282  11.585  1.00  0.00     0.000 C 
BRANCH  10  11
ATOM     11  C   UNL     1     -19.571 -20.902  10.172  1.00  0.00     0.000 C 
BRANCH  11  12
ATOM     12  C   UNL     1     -19.849 -22.093   9.242  1.00  0.00     0.000 C 
BRANCH  12  13
ATOM     13  C   UNL     1     -21.104 -21.892   8.372  1.00  0.00     0.006 C 
BRANCH  13  14
ATOM     14  C   UNL     1     -22.331 -22.603   8.956  1.00  0.00     0.053 C 
BRANCH  14  15
ATOM     15  C   UNL     1     -23.304 -23.000   7.886  1.00  0.00     0.041 C 
ATOM     16  O   UNL     1     -23.236 -22.477   6.741  1.00  0.00    -0.550 OA
ATOM     17  O   UNL     1     -24.300 -23.926   8.162  1.00  0.00    -0.550 OA
ENDBRANCH  14  15
ENDBRANCH  13  14
ENDBRANCH  12  13
ENDBRANCH  11  12
ENDBRANCH  10  11
ENDBRANCH   9  10
ENDBRANCH   8   9
ENDBRANCH   7   8
ENDBRANCH   6   7
ENDBRANCH   5   6
ENDBRANCH   4   5
ENDBRANCH   3   4
ENDBRANCH   2   3
ENDBRANCH   1   2
BRANCH   1  18
ATOM     18  C   UNL     1     -20.168 -26.684  14.429  1.00  0.00     0.000 C 
BRANCH  18  19
ATOM     19  C   UNL     1     -21.300 -25.826  15.029  1.00  0.00     0.000 C 
BRANCH  19  20
ATOM     20  C   UNL     1     -22.551 -26.605  15.474  1.00  0.00     0.000 C 
BRANCH  20  21
ATOM     21  C   UNL     1     -22.580 -26.992  16.964  1.00  0.00     0.000 C 
BRANCH  21  22
ATOM     22  C   UNL     1     -22.808 -28.500  17.176  1.00  0.00     0.000 C 
BRANCH  22  23
ATOM     23  C   UNL     1     -21.663 -29.366  16.625  1.00  0.00     0.000 C 
BRANCH  23  24
ATOM     24  C   UNL     1     -22.052 -30.806  16.229  1.00  0.00    -0.000 C 
BRANCH  24  25
ATOM     25  C   UNL     1     -22.190 -31.036  14.708  1.00  0.00    -0.000 C 
BRANCH  25  26
ATOM     26  C   UNL     1     -21.395 -30.009  13.878  1.00  0.00    -0.000 C 
BRANCH  26  27
ATOM     27  C   UNL     1     -21.071 -30.517  12.460  1.00  0.00    -0.000 C 
BRANCH  27  28
ATOM     28  C   UNL     1     -19.600 -30.924  12.250  1.00  0.00    -0.000 C 
BRANCH  28  29
ATOM     29  C   UNL     1     -18.641 -29.768  11.899  1.00  0.00    -0.000 C 
BRANCH  29  30
ATOM     30  C   UNL     1     -18.964 -29.074  10.559  1.00  0.00    -0.000 C 
BRANCH  30  31
ATOM     31  C   UNL     1     -19.816 -27.808  10.750  1.00  0.00    -0.003 C 
ATOM     32  C   UNL     1     -20.456 -27.368   9.436  1.00  0.00     0.004 C 
ENDBRANCH  30  31
ENDBRANCH  29  30
ENDBRANCH  28  29
ENDBRANCH  27  28
ENDBRANCH  26  27
ENDBRANCH  25  26
ENDBRANCH  24  25
ENDBRANCH  23  24
ENDBRANCH  22  23
ENDBRANCH  21  22
ENDBRANCH  20  21
ENDBRANCH  19  20
ENDBRANCH  18  19
ENDBRANCH   1  18
TORSDOF 28
ENDMDL
MODEL 5
REMARK VINA RESULT:    -4.914      7.004     10.315
REMARK INTER + INTRA:         -18.011
REMARK INTER:                 -13.624
REMARK INTRA:                  -4.387
REMARK UNBOUND:                -5.053
REMARK SMILES CCCCCCCCCCCCCCCCCCCCCCCCCCCCCC(=O)[O-]
REMARK SMILES IDX 16 1 17 2 18 3 19 4 20 5 21 6 22 7 23 8 24 9 25 10 26 11
REMARK SMILES IDX 27 12 28 13 29 14 30 15 31 16 32 17 15 18 14 19 13 20 12 21
REMARK SMILES IDX 11 22 10 23 9 24 8 25 7 26 6 27 5 28 4 29 3 30 2 31 1 32
REMARK H PARENT
REMARK Flexibility Score: inf
ROOT
ATOM      1  C   UNL     1     -25.124 -28.152   4.791  1.00  0.00     0.000 C 
ENDROOT
BRANCH   1   2
ATOM      2  C   UNL     1     -26.421 -28.702   5.410  1.00  0.00     0.000 C 
BRANCH   2   3
ATOM      3  C   UNL     1     -26.154 -29.552   6.670  1.00  0.00     0.000 C 
BRANCH   3   4
ATOM      4  C   UNL     1     -27.035 -29.173   7.873  1.00  0.00     0.000 C 
BRANCH   4   5
ATOM      5  C   UNL     1     -26.262 -28.437   8.981  1.00  0.00     0.000 C 
BRANCH   5   6
ATOM      6  C   UNL     1     -26.481 -26.911   8.938  1.00  0.00     0.000 C 
BRANCH   6   7
ATOM      7  C   UNL     1     -25.180 -26.083   8.949  1.00  0.00     0.000 C 
BRANCH   7   8
ATOM      8  C   UNL     1     -24.237 -26.373   7.765  1.00  0.00     0.000 C 
BRANCH   8   9
ATOM      9  C   UNL     1     -22.986 -27.165   8.190  1.00  0.00     0.000 C 
BRANCH   9  10
ATOM     10  C   UNL     1     -22.841 -28.495   7.418  1.00  0.00     0.000 C 
BRANCH  10  11
ATOM     11  C   UNL     1     -21.419 -29.083   7.452  1.00  0.00     0.000 C 
BRANCH  11  12
ATOM     12  C   UNL     1     -21.292 -30.497   6.865  1.00  0.00     0.000 C 
BRANCH  12  13
ATOM     13  C   UNL     1     -22.648 -31.215   6.741  1.00  0.00     0.006 C 
BRANCH  13  14
ATOM     14  C   UNL     1     -22.645 -32.581   7.439  1.00  0.00     0.053 C 
BRANCH  14  15
ATOM     15  C   UNL     1     -22.162 -32.480   8.855  1.00  0.00     0.041 C 
ATOM     16  O   UNL     1     -21.203 -33.196   9.252  1.00  0.00    -0.550 OA
ATOM     17  O   UNL     1     -22.787 -31.614   9.742  1.00  0.00    -0.550 OA
ENDBRANCH  14  15
ENDBRANCH  13  14
ENDBRANCH  12  13
ENDBRANCH  11  12
ENDBRANCH  10  11
ENDBRANCH   9  10
ENDBRANCH   8   9
ENDBRANCH   7   8
ENDBRANCH   6   7
ENDBRANCH   5   6
ENDBRANCH   4   5
ENDBRANCH   3   4
ENDBRANCH   2   3
ENDBRANCH   1   2
BRANCH   1  18
ATOM     18  C   UNL     1     -24.439 -29.154   3.844  1.00  0.00     0.000 C 
BRANCH  18  19
ATOM     19  C   UNL     1     -22.899 -29.083   3.819  1.00  0.00     0.000 C 
BRANCH  19  20
ATOM     20  C   UNL     1     -22.201 -30.216   3.044  1.00  0.00     0.000 C 
BRANCH  20  21
ATOM     21  C   UNL     1     -20.673 -30.075   2.923  1.00  0.00     0.000 C 
BRANCH  21  22
ATOM     22  C   UNL     1     -20.132 -28.854   3.689  1.00  0.00     0.000 C 
BRANCH  22  23
ATOM     23  C   UNL     1     -19.229 -27.954   2.828  1.00  0.00     0.000 C 
BRANCH  23  24
ATOM     24  C   UNL     1     -19.744 -27.665   1.403  1.00  0.00    -0.000 C 
BRANCH  24  25
ATOM     25  C   UNL     1     -20.515 -26.336   1.258  1.00  0.00    -0.000 C 
BRANCH  25  26
ATOM     26  C   UNL     1     -22.009 -26.475   1.614  1.00  0.00    -0.000 C 
BRANCH  26  27
ATOM     27  C   UNL     1     -22.563 -25.235   2.341  1.00  0.00    -0.000 C 
BRANCH  27  28
ATOM     28  C   UNL     1     -22.903 -24.051   1.412  1.00  0.00    -0.000 C 
BRANCH  28  29
ATOM     29  C   UNL     1     -23.881 -23.014   2.001  1.00  0.00    -0.000 C 
BRANCH  29  30
ATOM     30  C   UNL     1     -23.395 -22.375   3.318  1.00  0.00    -0.000 C 
BRANCH  30  31
ATOM     31  C   UNL     1     -22.420 -21.211   3.074  1.00  0.00    -0.003 C 
ATOM     32  C   UNL     1     -23.060 -19.870   3.427  1.00  0.00     0.004 C 
ENDBRANCH  30  31
ENDBRANCH  29  30
ENDBRANCH  28  29
ENDBRANCH  27  28
ENDBRANCH  26  27
ENDBRANCH  25  26
ENDBRANCH  24  25
ENDBRANCH  23  24
ENDBRANCH  22  23
ENDBRANCH  21  22
ENDBRANCH  20  21
ENDBRANCH  19  20
ENDBRANCH  18  19
ENDBRANCH   1  18
TORSDOF 28
ENDMDL
MODEL 6
REMARK VINA RESULT:    -4.891      1.491      3.704
REMARK INTER + INTRA:         -17.951
REMARK INTER:                 -12.976
REMARK INTRA:                  -4.975
REMARK UNBOUND:                -5.053
REMARK SMILES CCCCCCCCCCCCCCCCCCCCCCCCCCCCCC(=O)[O-]
REMARK SMILES IDX 16 1 17 2 18 3 19 4 20 5 21 6 22 7 23 8 24 9 25 10 26 11
REMARK SMILES IDX 27 12 28 13 29 14 30 15 31 16 32 17 15 18 14 19 13 20 12 21
REMARK SMILES IDX 11 22 10 23 9 24 8 25 7 26 6 27 5 28 4 29 3 30 2 31 1 32
REMARK H PARENT
REMARK Flexibility Score: inf
ROOT
ATOM      1  C   UNL     1     -18.848 -28.331  13.175  1.00  0.00     0.000 C 
ENDROOT
BRANCH   1   2
ATOM      2  C   UNL     1     -17.987 -29.272  12.315  1.00  0.00     0.000 C 
BRANCH   2   3
ATOM      3  C   UNL     1     -18.829 -30.080  11.305  1.00  0.00     0.000 C 
BRANCH   3   4
ATOM      4  C   UNL     1     -20.338 -30.062  11.600  1.00  0.00     0.000 C 
BRANCH   4   5
ATOM      5  C   UNL     1     -20.918 -31.460  11.878  1.00  0.00     0.000 C 
BRANCH   5   6
ATOM      6  C   UNL     1     -21.693 -31.524  13.209  1.00  0.00     0.000 C 
BRANCH   6   7
ATOM      7  C   UNL     1     -21.613 -30.235  14.052  1.00  0.00     0.000 C 
BRANCH   7   8
ATOM      8  C   UNL     1     -21.923 -30.438  15.548  1.00  0.00     0.000 C 
BRANCH   8   9
ATOM      9  C   UNL     1     -21.666 -29.167  16.380  1.00  0.00     0.000 C 
BRANCH   9  10
ATOM     10  C   UNL     1     -21.773 -27.879  15.534  1.00  0.00     0.000 C 
BRANCH  10  11
ATOM     11  C   UNL     1     -22.359 -26.679  16.299  1.00  0.00     0.000 C 
BRANCH  11  12
ATOM     12  C   UNL     1     -23.173 -27.045  17.549  1.00  0.00     0.000 C 
BRANCH  12  13
ATOM     13  C   UNL     1     -24.583 -26.427  17.544  1.00  0.00     0.006 C 
BRANCH  13  14
ATOM     14  C   UNL     1     -24.796 -25.483  16.354  1.00  0.00     0.053 C 
BRANCH  14  15
ATOM     15  C   UNL     1     -26.252 -25.268  16.069  1.00  0.00     0.041 C 
ATOM     16  O   UNL     1     -27.115 -26.053  16.546  1.00  0.00    -0.550 OA
ATOM     17  O   UNL     1     -26.653 -24.218  15.254  1.00  0.00    -0.550 OA
ENDBRANCH  14  15
ENDBRANCH  13  14
ENDBRANCH  12  13
ENDBRANCH  11  12
ENDBRANCH  10  11
ENDBRANCH   9  10
ENDBRANCH   8   9
ENDBRANCH   7   8
ENDBRANCH   6   7
ENDBRANCH   5   6
ENDBRANCH   4   5
ENDBRANCH   3   4
ENDBRANCH   2   3
ENDBRANCH   1   2
BRANCH   1  18
ATOM     18  C   UNL     1     -18.040 -27.612  14.271  1.00  0.00     0.000 C 
BRANCH  18  19
ATOM     19  C   UNL     1     -18.463 -26.155  14.545  1.00  0.00     0.000 C 
BRANCH  19  20
ATOM     20  C   UNL     1     -19.554 -25.600  13.612  1.00  0.00     0.000 C 
BRANCH  20  21
ATOM     21  C   UNL     1     -20.363 -24.422  14.185  1.00  0.00     0.000 C 
BRANCH  21  22
ATOM     22  C   UNL     1     -20.234 -23.148  13.330  1.00  0.00     0.000 C 
BRANCH  22  23
ATOM     23  C   UNL     1     -19.161 -23.263  12.233  1.00  0.00     0.000 C 
BRANCH  23  24
ATOM     24  C   UNL     1     -19.524 -22.619  10.879  1.00  0.00    -0.000 C 
BRANCH  24  25
ATOM     25  C   UNL     1     -19.506 -23.594   9.682  1.00  0.00    -0.000 C 
BRANCH  25  26
ATOM     26  C   UNL     1     -20.373 -24.845   9.922  1.00  0.00    -0.000 C 
BRANCH  26  27
ATOM     27  C   UNL     1     -19.551 -26.147   9.910  1.00  0.00    -0.000 C 
BRANCH  27  28
ATOM     28  C   UNL     1     -18.250 -26.072   9.086  1.00  0.00    -0.000 C 
BRANCH  28  29
ATOM     29  C   UNL     1     -17.235 -27.201   9.356  1.00  0.00    -0.000 C 
BRANCH  29  30
ATOM     30  C   UNL     1     -16.113 -26.810  10.341  1.00  0.00    -0.000 C 
BRANCH  30  31
ATOM     31  C   UNL     1     -16.573 -25.749  11.353  1.00  0.00    -0.003 C 
ATOM     32  C   UNL     1     -15.469 -25.429  12.359  1.00  0.00     0.004 C 
ENDBRANCH  30  31
ENDBRANCH  29  30
ENDBRANCH  28  29
ENDBRANCH  27  28
ENDBRANCH  26  27
ENDBRANCH  25  26
ENDBRANCH  24  25
ENDBRANCH  23  24
ENDBRANCH  22  23
ENDBRANCH  21  22
ENDBRANCH  20  21
ENDBRANCH  19  20
ENDBRANCH  18  19
ENDBRANCH   1  18
TORSDOF 28
ENDMDL
MODEL 7
REMARK VINA RESULT:    -4.876      5.003      8.678
REMARK INTER + INTRA:         -17.911
REMARK INTER:                 -13.921
REMARK INTRA:                  -3.990
REMARK UNBOUND:                -5.053
REMARK SMILES CCCCCCCCCCCCCCCCCCCCCCCCCCCCCC(=O)[O-]
REMARK SMILES IDX 16 1 17 2 18 3 19 4 20 5 21 6 22 7 23 8 24 9 25 10 26 11
REMARK SMILES IDX 27 12 28 13 29 14 30 15 31 16 32 17 15 18 14 19 13 20 12 21
REMARK SMILES IDX 11 22 10 23 9 24 8 25 7 26 6 27 5 28 4 29 3 30 2 31 1 32
REMARK H PARENT
REMARK Flexibility Score: inf
ROOT
ATOM      1  C   UNL     1     -22.737 -26.418   8.403  1.00  0.00     0.000 C 
ENDROOT
BRANCH   1   2
ATOM      2  C   UNL     1     -23.801 -25.575   7.679  1.00  0.00     0.000 C 
BRANCH   2   3
ATOM      3  C   UNL     1     -24.035 -24.212   8.363  1.00  0.00     0.000 C 
BRANCH   3   4
ATOM      4  C   UNL     1     -22.783 -23.635   9.045  1.00  0.00     0.000 C 
BRANCH   4   5
ATOM      5  C   UNL     1     -22.469 -22.192   8.614  1.00  0.00     0.000 C 
BRANCH   5   6
ATOM      6  C   UNL     1     -20.955 -21.936   8.470  1.00  0.00     0.000 C 
BRANCH   6   7
ATOM      7  C   UNL     1     -20.402 -20.853   9.418  1.00  0.00     0.000 C 
BRANCH   7   8
ATOM      8  C   UNL     1     -19.190 -21.307  10.256  1.00  0.00     0.000 C 
BRANCH   8   9
ATOM      9  C   UNL     1     -19.502 -21.358  11.763  1.00  0.00     0.000 C 
BRANCH   9  10
ATOM     10  C   UNL     1     -19.285 -22.765  12.363  1.00  0.00     0.000 C 
BRANCH  10  11
ATOM     11  C   UNL     1     -19.594 -23.913  11.385  1.00  0.00     0.000 C 
BRANCH  11  12
ATOM     12  C   UNL     1     -18.557 -25.047  11.374  1.00  0.00     0.000 C 
BRANCH  12  13
ATOM     13  C   UNL     1     -17.441 -24.845  12.415  1.00  0.00     0.006 C 
BRANCH  13  14
ATOM     14  C   UNL     1     -17.184 -26.112  13.240  1.00  0.00     0.053 C 
BRANCH  14  15
ATOM     15  C   UNL     1     -17.740 -25.993  14.628  1.00  0.00     0.041 C 
ATOM     16  O   UNL     1     -17.007 -25.596  15.574  1.00  0.00    -0.550 OA
ATOM     17  O   UNL     1     -19.058 -26.346  14.881  1.00  0.00    -0.550 OA
ENDBRANCH  14  15
ENDBRANCH  13  14
ENDBRANCH  12  13
ENDBRANCH  11  12
ENDBRANCH  10  11
ENDBRANCH   9  10
ENDBRANCH   8   9
ENDBRANCH   7   8
ENDBRANCH   6   7
ENDBRANCH   5   6
ENDBRANCH   4   5
ENDBRANCH   3   4
ENDBRANCH   2   3
ENDBRANCH   1   2
BRANCH   1  18
ATOM     18  C   UNL     1     -22.507 -27.790   7.743  1.00  0.00     0.000 C 
BRANCH  18  19
ATOM     19  C   UNL     1     -22.223 -28.947   8.722  1.00  0.00     0.000 C 
BRANCH  19  20
ATOM     20  C   UNL     1     -23.025 -30.237   8.466  1.00  0.00     0.000 C 
BRANCH  20  21
ATOM     21  C   UNL     1     -22.346 -31.248   7.524  1.00  0.00     0.000 C 
BRANCH  21  22
ATOM     22  C   UNL     1     -23.276 -31.709   6.387  1.00  0.00     0.000 C 
BRANCH  22  23
ATOM     23  C   UNL     1     -22.709 -31.416   4.988  1.00  0.00     0.000 C 
BRANCH  23  24
ATOM     24  C   UNL     1     -21.912 -30.101   4.856  1.00  0.00    -0.000 C 
BRANCH  24  25
ATOM     25  C   UNL     1     -22.739 -28.901   4.348  1.00  0.00    -0.000 C 
BRANCH  25  26
ATOM     26  C   UNL     1     -24.174 -29.296   3.948  1.00  0.00    -0.000 C 
BRANCH  26  27
ATOM     27  C   UNL     1     -25.240 -28.395   4.599  1.00  0.00    -0.000 C 
BRANCH  27  28
ATOM     28  C   UNL     1     -25.380 -28.574   6.124  1.00  0.00    -0.000 C 
BRANCH  28  29
ATOM     29  C   UNL     1     -26.465 -29.575   6.571  1.00  0.00    -0.000 C 
BRANCH  29  30
ATOM     30  C   UNL     1     -27.210 -29.155   7.856  1.00  0.00    -0.000 C 
BRANCH  30  31
ATOM     31  C   UNL     1     -26.252 -28.621   8.935  1.00  0.00    -0.003 C 
ATOM     32  C   UNL     1     -26.719 -27.268   9.466  1.00  0.00     0.004 C 
ENDBRANCH  30  31
ENDBRANCH  29  30
ENDBRANCH  28  29
ENDBRANCH  27  28
ENDBRANCH  26  27
ENDBRANCH  25  26
ENDBRANCH  24  25
ENDBRANCH  23  24
ENDBRANCH  22  23
ENDBRANCH  21  22
ENDBRANCH  20  21
ENDBRANCH  19  20
ENDBRANCH  18  19
ENDBRANCH   1  18
TORSDOF 28
ENDMDL
MODEL 8
REMARK VINA RESULT:    -4.858      2.302      6.057
REMARK INTER + INTRA:         -17.862
REMARK INTER:                 -13.699
REMARK INTRA:                  -4.163
REMARK UNBOUND:                -5.053
REMARK SMILES CCCCCCCCCCCCCCCCCCCCCCCCCCCCCC(=O)[O-]
REMARK SMILES IDX 16 1 17 2 18 3 19 4 20 5 21 6 22 7 23 8 24 9 25 10 26 11
REMARK SMILES IDX 27 12 28 13 29 14 30 15 31 16 32 17 15 18 14 19 13 20 12 21
REMARK SMILES IDX 11 22 10 23 9 24 8 25 7 26 6 27 5 28 4 29 3 30 2 31 1 32
REMARK H PARENT
REMARK Flexibility Score: inf
ROOT
ATOM      1  C   UNL     1     -19.409 -30.828  12.095  1.00  0.00     0.000 C 
ENDROOT
BRANCH   1   2
ATOM      2  C   UNL     1     -20.849 -30.740  12.629  1.00  0.00     0.000 C 
BRANCH   2   3
ATOM      3  C   UNL     1     -20.994 -29.695  13.755  1.00  0.00     0.000 C 
BRANCH   3   4
ATOM      4  C   UNL     1     -21.922 -30.139  14.899  1.00  0.00     0.000 C 
BRANCH   4   5
ATOM      5  C   UNL     1     -21.315 -29.909  16.294  1.00  0.00     0.000 C 
BRANCH   5   6
ATOM      6  C   UNL     1     -22.210 -29.026  17.188  1.00  0.00     0.000 C 
BRANCH   6   7
ATOM      7  C   UNL     1     -22.632 -27.692  16.541  1.00  0.00     0.000 C 
BRANCH   7   8
ATOM      8  C   UNL     1     -22.386 -26.454  17.427  1.00  0.00     0.000 C 
BRANCH   8   9
ATOM      9  C   UNL     1     -23.644 -25.578  17.576  1.00  0.00     0.000 C 
BRANCH   9  10
ATOM     10  C   UNL     1     -24.266 -25.205  16.212  1.00  0.00     0.000 C 
BRANCH  10  11
ATOM     11  C   UNL     1     -25.760 -25.555  16.093  1.00  0.00     0.000 C 
BRANCH  11  12
ATOM     12  C   UNL     1     -26.635 -24.447  15.484  1.00  0.00     0.000 C 
BRANCH  12  13
ATOM     13  C   UNL     1     -28.141 -24.733  15.623  1.00  0.00     0.006 C 
BRANCH  13  14
ATOM     14  C   UNL     1     -28.583 -24.800  17.091  1.00  0.00     0.053 C 
BRANCH  14  15
ATOM     15  C   UNL     1     -29.255 -23.533  17.527  1.00  0.00     0.041 C 
ATOM     16  O   UNL     1     -30.110 -23.553  18.453  1.00  0.00    -0.550 OA
ATOM     17  O   UNL     1     -28.957 -22.334  16.894  1.00  0.00    -0.550 OA
ENDBRANCH  14  15
ENDBRANCH  13  14
ENDBRANCH  12  13
ENDBRANCH  11  12
ENDBRANCH  10  11
ENDBRANCH   9  10
ENDBRANCH   8   9
ENDBRANCH   7   8
ENDBRANCH   6   7
ENDBRANCH   5   6
ENDBRANCH   4   5
ENDBRANCH   3   4
ENDBRANCH   2   3
ENDBRANCH   1   2
BRANCH   1  18
ATOM     18  C   UNL     1     -18.584 -29.559  12.380  1.00  0.00     0.000 C 
BRANCH  18  19
ATOM     19  C   UNL     1     -18.377 -28.628  11.168  1.00  0.00     0.000 C 
BRANCH  19  20
ATOM     20  C   UNL     1     -18.630 -27.133  11.436  1.00  0.00     0.000 C 
BRANCH  20  21
ATOM     21  C   UNL     1     -17.476 -26.196  11.036  1.00  0.00     0.000 C 
BRANCH  21  22
ATOM     22  C   UNL     1     -17.146 -25.168  12.133  1.00  0.00     0.000 C 
BRANCH  22  23
ATOM     23  C   UNL     1     -16.282 -25.750  13.266  1.00  0.00     0.000 C 
BRANCH  23  24
ATOM     24  C   UNL     1     -16.941 -25.767  14.661  1.00  0.00    -0.000 C 
BRANCH  24  25
ATOM     25  C   UNL     1     -17.600 -27.111  15.040  1.00  0.00    -0.000 C 
BRANCH  25  26
ATOM     26  C   UNL     1     -19.043 -26.940  15.554  1.00  0.00    -0.000 C 
BRANCH  26  27
ATOM     27  C   UNL     1     -19.979 -26.321  14.499  1.00  0.00    -0.000 C 
BRANCH  27  28
ATOM     28  C   UNL     1     -20.234 -24.811  14.680  1.00  0.00    -0.000 C 
BRANCH  28  29
ATOM     29  C   UNL     1     -21.405 -24.238  13.857  1.00  0.00    -0.000 C 
BRANCH  29  30
ATOM     30  C   UNL     1     -20.964 -23.499  12.576  1.00  0.00    -0.000 C 
BRANCH  30  31
ATOM     31  C   UNL     1     -19.611 -22.791  12.750  1.00  0.00    -0.003 C 
ATOM     32  C   UNL     1     -19.366 -21.782  11.630  1.00  0.00     0.004 C 
ENDBRANCH  30  31
ENDBRANCH  29  30
ENDBRANCH  28  29
ENDBRANCH  27  28
ENDBRANCH  26  27
ENDBRANCH  25  26
ENDBRANCH  24  25
ENDBRANCH  23  24
ENDBRANCH  22  23
ENDBRANCH  21  22
ENDBRANCH  20  21
ENDBRANCH  19  20
ENDBRANCH  18  19
ENDBRANCH   1  18
TORSDOF 28
ENDMDL
MODEL 9
REMARK VINA RESULT:    -4.821      3.201      7.177
REMARK INTER + INTRA:         -17.766
REMARK INTER:                 -12.891
REMARK INTRA:                  -4.875
REMARK UNBOUND:                -5.053
REMARK SMILES CCCCCCCCCCCCCCCCCCCCCCCCCCCCCC(=O)[O-]
REMARK SMILES IDX 16 1 17 2 18 3 19 4 20 5 21 6 22 7 23 8 24 9 25 10 26 11
REMARK SMILES IDX 27 12 28 13 29 14 30 15 31 16 32 17 15 18 14 19 13 20 12 21
REMARK SMILES IDX 11 22 10 23 9 24 8 25 7 26 6 27 5 28 4 29 3 30 2 31 1 32
REMARK H PARENT
REMARK Flexibility Score: inf
ROOT
ATOM      1  C   UNL     1     -18.946 -26.974  10.826  1.00  0.00     0.000 C 
ENDROOT
BRANCH   1   2
ATOM      2  C   UNL     1     -18.062 -25.758  10.499  1.00  0.00     0.000 C 
BRANCH   2   3
ATOM      3  C   UNL     1     -16.711 -25.797  11.242  1.00  0.00     0.000 C 
BRANCH   3   4
ATOM      4  C   UNL     1     -16.726 -25.073  12.599  1.00  0.00     0.000 C 
BRANCH   4   5
ATOM      5  C   UNL     1     -16.596 -26.029  13.797  1.00  0.00     0.000 C 
BRANCH   5   6
ATOM      6  C   UNL     1     -17.716 -25.827  14.838  1.00  0.00     0.000 C 
BRANCH   6   7
ATOM      7  C   UNL     1     -19.108 -25.566  14.228  1.00  0.00     0.000 C 
BRANCH   7   8
ATOM      8  C   UNL     1     -19.731 -24.214  14.630  1.00  0.00     0.000 C 
BRANCH   8   9
ATOM      9  C   UNL     1     -20.854 -23.776  13.672  1.00  0.00     0.000 C 
BRANCH   9  10
ATOM     10  C   UNL     1     -20.339 -23.514  12.240  1.00  0.00     0.000 C 
BRANCH  10  11
ATOM     11  C   UNL     1     -19.289 -22.392  12.151  1.00  0.00     0.000 C 
BRANCH  11  12
ATOM     12  C   UNL     1     -19.209 -21.691  10.787  1.00  0.00     0.000 C 
BRANCH  12  13
ATOM     13  C   UNL     1     -19.807 -22.535   9.646  1.00  0.00     0.006 C 
BRANCH  13  14
ATOM     14  C   UNL     1     -20.639 -21.687   8.676  1.00  0.00     0.053 C 
BRANCH  14  15
ATOM     15  C   UNL     1     -22.094 -22.045   8.732  1.00  0.00     0.041 C 
ATOM     16  O   UNL     1     -22.962 -21.249   8.281  1.00  0.00    -0.550 OA
ATOM     17  O   UNL     1     -22.493 -23.245   9.304  1.00  0.00    -0.550 OA
ENDBRANCH  14  15
ENDBRANCH  13  14
ENDBRANCH  12  13
ENDBRANCH  11  12
ENDBRANCH  10  11
ENDBRANCH   9  10
ENDBRANCH   8   9
ENDBRANCH   7   8
ENDBRANCH   6   7
ENDBRANCH   5   6
ENDBRANCH   4   5
ENDBRANCH   3   4
ENDBRANCH   2   3
ENDBRANCH   1   2
BRANCH   1  18
ATOM     18  C   UNL     1     -18.130 -28.223  11.207  1.00  0.00     0.000 C 
BRANCH  18  19
ATOM     19  C   UNL     1     -18.734 -29.080  12.338  1.00  0.00     0.000 C 
BRANCH  19  20
ATOM     20  C   UNL     1     -20.260 -28.960  12.509  1.00  0.00     0.000 C 
BRANCH  20  21
ATOM     21  C   UNL     1     -20.767 -29.127  13.953  1.00  0.00     0.000 C 
BRANCH  21  22
ATOM     22  C   UNL     1     -21.722 -30.324  14.107  1.00  0.00     0.000 C 
BRANCH  22  23
ATOM     23  C   UNL     1     -21.585 -31.356  12.975  1.00  0.00     0.000 C 
BRANCH  23  24
ATOM     24  C   UNL     1     -22.781 -31.439  12.004  1.00  0.00    -0.000 C 
BRANCH  24  25
ATOM     25  C   UNL     1     -22.834 -32.734  11.165  1.00  0.00    -0.000 C 
BRANCH  25  26
ATOM     26  C   UNL     1     -22.085 -32.602   9.824  1.00  0.00    -0.000 C 
BRANCH  26  27
ATOM     27  C   UNL     1     -20.833 -31.711   9.930  1.00  0.00    -0.000 C 
BRANCH  27  28
ATOM     28  C   UNL     1     -20.344 -31.137   8.585  1.00  0.00    -0.000 C 
BRANCH  28  29
ATOM     29  C   UNL     1     -20.298 -29.598   8.504  1.00  0.00    -0.000 C 
BRANCH  29  30
ATOM     30  C   UNL     1     -21.581 -28.907   9.012  1.00  0.00    -0.000 C 
BRANCH  30  31
ATOM     31  C   UNL     1     -22.745 -29.038   8.016  1.00  0.00    -0.003 C 
ATOM     32  C   UNL     1     -24.000 -29.577   8.700  1.00  0.00     0.004 C 
ENDBRANCH  30  31
ENDBRANCH  29  30
ENDBRANCH  28  29
ENDBRANCH  27  28
ENDBRANCH  26  27
ENDBRANCH  25  26
ENDBRANCH  24  25
ENDBRANCH  23  24
ENDBRANCH  22  23
ENDBRANCH  21  22
ENDBRANCH  20  21
ENDBRANCH  19  20
ENDBRANCH  18  19
ENDBRANCH   1  18
TORSDOF 28
ENDMDL
