MODEL 1
REMARK VINA RESULT:    -7.238      0.000      0.000
REMARK INTER + INTRA:          -8.905
REMARK INTER:                  -8.719
REMARK INTRA:                  -0.186
REMARK UNBOUND:                -0.186
REMARK SMILES O=c1c(O)c(-c2ccc(O)c(O)c2)oc2cc(O)cc(O)c12
REMARK SMILES IDX 5 1 3 2 2 3 1 4 22 5 20 6 19 7 17 8 16 9 15 10 14 11 6 12
REMARK SMILES IDX 7 13 8 14 9 15 13 16 11 17 10 18 12 20 4 22 21 24 18 26
REMARK H PARENT 10 19 12 21 4 23 21 25 18 27
REMARK Flexibility Score: inf
ROOT
ATOM      1  C   UNL     1      14.277   1.130  19.495  1.00  0.00     0.180 A 
ATOM      2  C   UNL     1      13.928   1.971  20.565  1.00  0.00     0.208 A 
ATOM      3  C   UNL     1      14.080   1.499  21.880  1.00  0.00     0.238 A 
ATOM      4  O   UNL     1      13.836   2.283  22.833  1.00  0.00    -0.285 OA
ATOM      5  C   UNL     1      14.525   0.174  22.106  1.00  0.00     0.111 A 
ATOM      6  C   UNL     1      14.671  -0.425  23.394  1.00  0.00     0.134 A 
ATOM      7  C   UNL     1      15.221  -1.708  23.500  1.00  0.00     0.093 A 
ATOM      8  C   UNL     1      15.569  -2.439  22.362  1.00  0.00     0.123 A 
ATOM      9  C   UNL     1      15.377  -1.886  21.099  1.00  0.00     0.094 A 
ATOM     10  C   UNL     1      14.868  -0.593  20.962  1.00  0.00     0.146 A 
ATOM     11  O   UNL     1      14.722  -0.096  19.739  1.00  0.00    -0.452 OA
ENDROOT
BRANCH   1  12
ATOM     12  C   UNL     1      14.160   1.561  18.084  1.00  0.00     0.025 A 
ATOM     13  C   UNL     1      15.322   1.773  17.329  1.00  0.00     0.016 A 
ATOM     14  C   UNL     1      15.236   2.199  16.003  1.00  0.00     0.051 A 
ATOM     15  C   UNL     1      13.993   2.436  15.407  1.00  0.00     0.157 A 
ATOM     16  C   UNL     1      12.909   1.820  17.496  1.00  0.00     0.062 A 
ATOM     17  C   UNL     1      12.813   2.250  16.166  1.00  0.00     0.158 A 
BRANCH  15  18
ATOM     18  O   UNL     1      13.975   2.853  14.075  1.00  0.00    -0.504 OA
ATOM     19  H   UNL     1      14.168   3.799  13.777  1.00  0.00     0.293 HD
ENDBRANCH  15  18
BRANCH  17  20
ATOM     20  O   UNL     1      11.538   2.486  15.648  1.00  0.00    -0.504 OA
ATOM     21  H   UNL     1      11.166   2.023  14.833  1.00  0.00     0.293 HD
ENDBRANCH  17  20
ENDBRANCH   1  12
BRANCH   2  22
ATOM     22  O   UNL     1      13.418   3.249  20.320  1.00  0.00    -0.502 OA
ATOM     23  H   UNL     1      13.894   3.921  19.732  1.00  0.00     0.293 HD
ENDBRANCH   2  22
BRANCH   6  24
ATOM     24  O   UNL     1      14.274   0.183  24.589  1.00  0.00    -0.507 OA
ATOM     25  H   UNL     1      13.826  -0.292  25.357  1.00  0.00     0.293 HD
ENDBRANCH   6  24
BRANCH   8  26
ATOM     26  O   UNL     1      16.099  -3.723  22.477  1.00  0.00    -0.508 OA
ATOM     27  H   UNL     1      16.671  -4.128  21.745  1.00  0.00     0.293 HD
ENDBRANCH   8  26
TORSDOF 6
ENDMDL
MODEL 2
REMARK VINA RESULT:    -7.218      4.912      6.351
REMARK INTER + INTRA:          -8.881
REMARK INTER:                  -8.598
REMARK INTRA:                  -0.283
REMARK UNBOUND:                -0.186
REMARK SMILES O=c1c(O)c(-c2ccc(O)c(O)c2)oc2cc(O)cc(O)c12
REMARK SMILES IDX 5 1 3 2 2 3 1 4 22 5 20 6 19 7 17 8 16 9 15 10 14 11 6 12
REMARK SMILES IDX 7 13 8 14 9 15 13 16 11 17 10 18 12 20 4 22 21 24 18 26
REMARK H PARENT 10 19 12 21 4 23 21 25 18 27
REMARK Flexibility Score: inf
ROOT
ATOM      1  C   UNL     1      11.640  -2.578  17.361  1.00  0.00     0.180 A 
ATOM      2  C   UNL     1      12.369  -3.394  18.242  1.00  0.00     0.208 A 
ATOM      3  C   UNL     1      13.170  -2.789  19.225  1.00  0.00     0.238 A 
ATOM      4  O   UNL     1      13.762  -3.524  20.057  1.00  0.00    -0.285 OA
ATOM      5  C   UNL     1      13.274  -1.378  19.279  1.00  0.00     0.111 A 
ATOM      6  C   UNL     1      14.091  -0.658  20.203  1.00  0.00     0.134 A 
ATOM      7  C   UNL     1      14.033   0.740  20.232  1.00  0.00     0.093 A 
ATOM      8  C   UNL     1      13.238   1.447  19.328  1.00  0.00     0.123 A 
ATOM      9  C   UNL     1      12.480   0.757  18.386  1.00  0.00     0.094 A 
ATOM     10  C   UNL     1      12.487  -0.639  18.357  1.00  0.00     0.146 A 
ATOM     11  O   UNL     1      11.732  -1.258  17.456  1.00  0.00    -0.452 OA
ENDROOT
BRANCH   1  12
ATOM     12  C   UNL     1      10.763  -3.142  16.309  1.00  0.00     0.025 A 
ATOM     13  C   UNL     1       9.380  -3.207  16.528  1.00  0.00     0.016 A 
ATOM     14  C   UNL     1       8.536  -3.752  15.559  1.00  0.00     0.051 A 
ATOM     15  C   UNL     1       9.055  -4.256  14.361  1.00  0.00     0.157 A 
ATOM     16  C   UNL     1      11.290  -3.668  15.117  1.00  0.00     0.062 A 
ATOM     17  C   UNL     1      10.452  -4.220  14.140  1.00  0.00     0.158 A 
BRANCH  15  18
ATOM     18  O   UNL     1       8.157  -4.781  13.430  1.00  0.00    -0.504 OA
ATOM     19  H   UNL     1       8.435  -5.266  12.588  1.00  0.00     0.293 HD
ENDBRANCH  15  18
BRANCH  17  20
ATOM     20  O   UNL     1      11.045  -4.721  12.980  1.00  0.00    -0.504 OA
ATOM     21  H   UNL     1      10.585  -4.758  12.082  1.00  0.00     0.293 HD
ENDBRANCH  17  20
ENDBRANCH   1  12
BRANCH   2  22
ATOM     22  O   UNL     1      12.313  -4.785  18.124  1.00  0.00    -0.502 OA
ATOM     23  H   UNL     1      13.125  -5.376  18.254  1.00  0.00     0.293 HD
ENDBRANCH   2  22
BRANCH   6  24
ATOM     24  O   UNL     1      14.988  -1.262  21.090  1.00  0.00    -0.507 OA
ATOM     25  H   UNL     1      14.831  -2.137  21.565  1.00  0.00     0.293 HD
ENDBRANCH   6  24
BRANCH   8  26
ATOM     26  O   UNL     1      13.200   2.840  19.353  1.00  0.00    -0.508 OA
ATOM     27  H   UNL     1      12.925   3.378  18.539  1.00  0.00     0.293 HD
ENDBRANCH   8  26
TORSDOF 6
ENDMDL
MODEL 3
REMARK VINA RESULT:    -7.064      3.646      5.149
REMARK INTER + INTRA:          -8.695
REMARK INTER:                  -8.413
REMARK INTRA:                  -0.283
REMARK UNBOUND:                -0.186
REMARK SMILES O=c1c(O)c(-c2ccc(O)c(O)c2)oc2cc(O)cc(O)c12
REMARK SMILES IDX 5 1 3 2 2 3 1 4 22 5 20 6 19 7 17 8 16 9 15 10 14 11 6 12
REMARK SMILES IDX 7 13 8 14 9 15 13 16 11 17 10 18 12 20 4 22 21 24 18 26
REMARK H PARENT 10 19 12 21 4 23 21 25 18 27
REMARK Flexibility Score: inf
ROOT
ATOM      1  C   UNL     1      13.349  -1.506  18.868  1.00  0.00     0.180 A 
ATOM      2  C   UNL     1      12.741  -0.346  18.360  1.00  0.00     0.208 A 
ATOM      3  C   UNL     1      12.905   0.868  19.048  1.00  0.00     0.238 A 
ATOM      4  O   UNL     1      12.421   1.916  18.548  1.00  0.00    -0.285 OA
ATOM      5  C   UNL     1      13.628   0.894  20.266  1.00  0.00     0.111 A 
ATOM      6  C   UNL     1      13.820   2.058  21.071  1.00  0.00     0.134 A 
ATOM      7  C   UNL     1      14.643   1.987  22.202  1.00  0.00     0.093 A 
ATOM      8  C   UNL     1      15.229   0.781  22.592  1.00  0.00     0.123 A 
ATOM      9  C   UNL     1      15.003  -0.372  21.844  1.00  0.00     0.094 A 
ATOM     10  C   UNL     1      14.219  -0.325  20.690  1.00  0.00     0.146 A 
ATOM     11  O   UNL     1      14.048  -1.443  19.995  1.00  0.00    -0.452 OA
ENDROOT
BRANCH   1  12
ATOM     12  C   UNL     1      13.234  -2.817  18.191  1.00  0.00     0.025 A 
ATOM     13  C   UNL     1      14.017  -3.079  17.058  1.00  0.00     0.016 A 
ATOM     14  C   UNL     1      13.911  -4.300  16.392  1.00  0.00     0.051 A 
ATOM     15  C   UNL     1      13.013  -5.278  16.831  1.00  0.00     0.157 A 
ATOM     16  C   UNL     1      12.313  -3.788  18.622  1.00  0.00     0.062 A 
ATOM     17  C   UNL     1      12.198  -5.016  17.957  1.00  0.00     0.158 A 
BRANCH  15  18
ATOM     18  O   UNL     1      12.961  -6.482  16.125  1.00  0.00    -0.504 OA
ATOM     19  H   UNL     1      12.103  -6.957  15.881  1.00  0.00     0.293 HD
ENDBRANCH  15  18
BRANCH  17  20
ATOM     20  O   UNL     1      11.264  -5.934  18.443  1.00  0.00    -0.504 OA
ATOM     21  H   UNL     1      10.306  -5.982  18.130  1.00  0.00     0.293 HD
ENDBRANCH  17  20
ENDBRANCH   1  12
BRANCH   2  22
ATOM     22  O   UNL     1      11.967  -0.407  17.197  1.00  0.00    -0.502 OA
ATOM     23  H   UNL     1      11.962   0.332  16.507  1.00  0.00     0.293 HD
ENDBRANCH   2  22
BRANCH   6  24
ATOM     24  O   UNL     1      13.209   3.291  20.822  1.00  0.00    -0.507 OA
ATOM     25  H   UNL     1      12.775   3.873  21.521  1.00  0.00     0.293 HD
ENDBRANCH   6  24
BRANCH   8  26
ATOM     26  O   UNL     1      16.033   0.716  23.728  1.00  0.00    -0.508 OA
ATOM     27  H   UNL     1      17.039   0.832  23.674  1.00  0.00     0.293 HD
ENDBRANCH   8  26
TORSDOF 6
ENDMDL
MODEL 4
REMARK VINA RESULT:    -6.963      4.349      4.952
REMARK INTER + INTRA:          -8.574
REMARK INTER:                  -8.253
REMARK INTRA:                  -0.321
REMARK UNBOUND:                -0.186
REMARK SMILES O=c1c(O)c(-c2ccc(O)c(O)c2)oc2cc(O)cc(O)c12
REMARK SMILES IDX 5 1 3 2 2 3 1 4 22 5 20 6 19 7 17 8 16 9 15 10 14 11 6 12
REMARK SMILES IDX 7 13 8 14 9 15 13 16 11 17 10 18 12 20 4 22 21 24 18 26
REMARK H PARENT 10 19 12 21 4 23 21 25 18 27
REMARK Flexibility Score: inf
ROOT
ATOM      1  C   UNL     1      12.327  -2.382  17.790  1.00  0.00     0.180 A 
ATOM      2  C   UNL     1      12.570  -1.001  17.878  1.00  0.00     0.208 A 
ATOM      3  C   UNL     1      13.348  -0.513  18.941  1.00  0.00     0.238 A 
ATOM      4  O   UNL     1      13.624   0.715  18.972  1.00  0.00    -0.285 OA
ATOM      5  C   UNL     1      13.826  -1.404  19.932  1.00  0.00     0.111 A 
ATOM      6  C   UNL     1      14.585  -1.014  21.077  1.00  0.00     0.134 A 
ATOM      7  C   UNL     1      15.094  -1.997  21.935  1.00  0.00     0.093 A 
ATOM      8  C   UNL     1      14.818  -3.349  21.726  1.00  0.00     0.123 A 
ATOM      9  C   UNL     1      14.032  -3.736  20.643  1.00  0.00     0.094 A 
ATOM     10  C   UNL     1      13.542  -2.782  19.748  1.00  0.00     0.146 A 
ATOM     11  O   UNL     1      12.815  -3.197  18.717  1.00  0.00    -0.452 OA
ENDROOT
BRANCH   1  12
ATOM     12  C   UNL     1      11.530  -2.973  16.691  1.00  0.00     0.025 A 
ATOM     13  C   UNL     1      12.161  -3.310  15.486  1.00  0.00     0.016 A 
ATOM     14  C   UNL     1      11.426  -3.851  14.430  1.00  0.00     0.051 A 
ATOM     15  C   UNL     1      10.047  -4.051  14.548  1.00  0.00     0.157 A 
ATOM     16  C   UNL     1      10.140  -3.151  16.806  1.00  0.00     0.062 A 
ATOM     17  C   UNL     1       9.393  -3.690  15.750  1.00  0.00     0.158 A 
BRANCH  15  18
ATOM     18  O   UNL     1       9.371  -4.602  13.458  1.00  0.00    -0.504 OA
ATOM     19  H   UNL     1       8.418  -4.374  13.210  1.00  0.00     0.293 HD
ENDBRANCH  15  18
BRANCH  17  20
ATOM     20  O   UNL     1       8.018  -3.840  15.935  1.00  0.00    -0.504 OA
ATOM     21  H   UNL     1       7.331  -3.685  15.212  1.00  0.00     0.293 HD
ENDBRANCH  17  20
ENDBRANCH   1  12
BRANCH   2  22
ATOM     22  O   UNL     1      12.026  -0.128  16.932  1.00  0.00    -0.502 OA
ATOM     23  H   UNL     1      11.588   0.748  17.188  1.00  0.00     0.293 HD
ENDBRANCH   2  22
BRANCH   6  24
ATOM     24  O   UNL     1      14.844   0.314  21.429  1.00  0.00    -0.507 OA
ATOM     25  H   UNL     1      15.758   0.736  21.459  1.00  0.00     0.293 HD
ENDBRANCH   6  24
BRANCH   8  26
ATOM     26  O   UNL     1      15.314  -4.319  22.595  1.00  0.00    -0.508 OA
ATOM     27  H   UNL     1      15.595  -5.235  22.263  1.00  0.00     0.293 HD
ENDBRANCH   8  26
TORSDOF 6
ENDMDL
MODEL 5
REMARK VINA RESULT:    -6.916      4.781      7.067
REMARK INTER + INTRA:          -8.517
REMARK INTER:                  -8.212
REMARK INTRA:                  -0.305
REMARK UNBOUND:                -0.186
REMARK SMILES O=c1c(O)c(-c2ccc(O)c(O)c2)oc2cc(O)cc(O)c12
REMARK SMILES IDX 5 1 3 2 2 3 1 4 22 5 20 6 19 7 17 8 16 9 15 10 14 11 6 12
REMARK SMILES IDX 7 13 8 14 9 15 13 16 11 17 10 18 12 20 4 22 21 24 18 26
REMARK H PARENT 10 19 12 21 4 23 21 25 18 27
REMARK Flexibility Score: inf
ROOT
ATOM      1  C   UNL     1      12.754  -1.306  17.468  1.00  0.00     0.180 A 
ATOM      2  C   UNL     1      13.825  -1.880  16.763  1.00  0.00     0.208 A 
ATOM      3  C   UNL     1      13.576  -2.971  15.914  1.00  0.00     0.238 A 
ATOM      4  O   UNL     1      14.525  -3.433  15.230  1.00  0.00    -0.285 OA
ATOM      5  C   UNL     1      12.269  -3.509  15.824  1.00  0.00     0.111 A 
ATOM      6  C   UNL     1      11.910  -4.642  15.031  1.00  0.00     0.134 A 
ATOM      7  C   UNL     1      10.565  -5.020  14.937  1.00  0.00     0.093 A 
ATOM      8  C   UNL     1       9.575  -4.347  15.657  1.00  0.00     0.123 A 
ATOM      9  C   UNL     1       9.922  -3.276  16.476  1.00  0.00     0.094 A 
ATOM     10  C   UNL     1      11.250  -2.851  16.561  1.00  0.00     0.146 A 
ATOM     11  O   UNL     1      11.534  -1.812  17.338  1.00  0.00    -0.452 OA
ENDROOT
BRANCH   1  12
ATOM     12  C   UNL     1      12.935  -0.145  18.368  1.00  0.00     0.025 A 
ATOM     13  C   UNL     1      12.683   1.147  17.886  1.00  0.00     0.016 A 
ATOM     14  C   UNL     1      12.866   2.258  18.711  1.00  0.00     0.051 A 
ATOM     15  C   UNL     1      13.318   2.104  20.026  1.00  0.00     0.157 A 
ATOM     16  C   UNL     1      13.412  -0.301  19.681  1.00  0.00     0.062 A 
ATOM     17  C   UNL     1      13.601   0.808  20.515  1.00  0.00     0.158 A 
BRANCH  15  18
ATOM     18  O   UNL     1      13.473   3.255  20.801  1.00  0.00    -0.504 OA
ATOM     19  H   UNL     1      12.707   3.755  21.229  1.00  0.00     0.293 HD
ENDBRANCH  15  18
BRANCH  17  20
ATOM     20  O   UNL     1      14.075   0.577  21.809  1.00  0.00    -0.504 OA
ATOM     21  H   UNL     1      14.395   1.304  22.430  1.00  0.00     0.293 HD
ENDBRANCH  17  20
ENDBRANCH   1  12
BRANCH   2  22
ATOM     22  O   UNL     1      15.122  -1.383  16.924  1.00  0.00    -0.502 OA
ATOM     23  H   UNL     1      15.460  -0.574  16.420  1.00  0.00     0.293 HD
ENDBRANCH   2  22
BRANCH   6  24
ATOM     24  O   UNL     1      12.830  -5.439  14.343  1.00  0.00    -0.507 OA
ATOM     25  H   UNL     1      12.601  -6.062  13.585  1.00  0.00     0.293 HD
ENDBRANCH   6  24
BRANCH   8  26
ATOM     26  O   UNL     1       8.241  -4.741  15.570  1.00  0.00    -0.508 OA
ATOM     27  H   UNL     1       7.965  -5.570  15.056  1.00  0.00     0.293 HD
ENDBRANCH   8  26
TORSDOF 6
ENDMDL
MODEL 6
REMARK VINA RESULT:    -6.840      2.767      5.828
REMARK INTER + INTRA:          -8.425
REMARK INTER:                  -8.246
REMARK INTRA:                  -0.180
REMARK UNBOUND:                -0.186
REMARK SMILES O=c1c(O)c(-c2ccc(O)c(O)c2)oc2cc(O)cc(O)c12
REMARK SMILES IDX 5 1 3 2 2 3 1 4 22 5 20 6 19 7 17 8 16 9 15 10 14 11 6 12
REMARK SMILES IDX 7 13 8 14 9 15 13 16 11 17 10 18 12 20 4 22 21 24 18 26
REMARK H PARENT 10 19 12 21 4 23 21 25 18 27
REMARK Flexibility Score: inf
ROOT
ATOM      1  C   UNL     1      14.361   1.269  21.172  1.00  0.00     0.180 A 
ATOM      2  C   UNL     1      13.525   1.927  20.254  1.00  0.00     0.208 A 
ATOM      3  C   UNL     1      12.879   1.173  19.260  1.00  0.00     0.238 A 
ATOM      4  O   UNL     1      12.074   1.756  18.489  1.00  0.00    -0.285 OA
ATOM      5  C   UNL     1      13.121  -0.219  19.163  1.00  0.00     0.111 A 
ATOM      6  C   UNL     1      12.556  -1.073  18.167  1.00  0.00     0.134 A 
ATOM      7  C   UNL     1      12.783  -2.453  18.233  1.00  0.00     0.093 A 
ATOM      8  C   UNL     1      13.606  -3.002  19.219  1.00  0.00     0.123 A 
ATOM      9  C   UNL     1      14.206  -2.171  20.161  1.00  0.00     0.094 A 
ATOM     10  C   UNL     1      13.968  -0.795  20.145  1.00  0.00     0.146 A 
ATOM     11  O   UNL     1      14.543  -0.042  21.076  1.00  0.00    -0.452 OA
ENDROOT
BRANCH   1  12
ATOM     12  C   UNL     1      15.063   1.992  22.257  1.00  0.00     0.025 A 
ATOM     13  C   UNL     1      16.464   1.980  22.299  1.00  0.00     0.016 A 
ATOM     14  C   UNL     1      17.147   2.638  23.323  1.00  0.00     0.051 A 
ATOM     15  C   UNL     1      16.447   3.309  24.332  1.00  0.00     0.157 A 
ATOM     16  C   UNL     1      14.356   2.646  23.281  1.00  0.00     0.062 A 
ATOM     17  C   UNL     1      15.033   3.307  24.315  1.00  0.00     0.158 A 
BRANCH  15  18
ATOM     18  O   UNL     1      17.189   3.954  25.323  1.00  0.00    -0.504 OA
ATOM     19  H   UNL     1      17.039   4.912  25.607  1.00  0.00     0.293 HD
ENDBRANCH  15  18
BRANCH  17  20
ATOM     20  O   UNL     1      14.265   3.936  25.297  1.00  0.00    -0.504 OA
ATOM     21  H   UNL     1      14.578   4.090  26.244  1.00  0.00     0.293 HD
ENDBRANCH  17  20
ENDBRANCH   1  12
BRANCH   2  22
ATOM     22  O   UNL     1      13.358   3.313  20.320  1.00  0.00    -0.502 OA
ATOM     23  H   UNL     1      13.664   3.933  19.581  1.00  0.00     0.293 HD
ENDBRANCH   2  22
BRANCH   6  24
ATOM     24  O   UNL     1      11.792  -0.619  17.087  1.00  0.00    -0.507 OA
ATOM     25  H   UNL     1      10.799  -0.750  16.986  1.00  0.00     0.293 HD
ENDBRANCH   6  24
BRANCH   8  26
ATOM     26  O   UNL     1      13.840  -4.375  19.266  1.00  0.00    -0.508 OA
ATOM     27  H   UNL     1      13.994  -4.916  18.423  1.00  0.00     0.293 HD
ENDBRANCH   8  26
TORSDOF 6
ENDMDL
MODEL 7
REMARK VINA RESULT:    -6.809      1.496      3.010
REMARK INTER + INTRA:          -8.388
REMARK INTER:                  -8.065
REMARK INTRA:                  -0.323
REMARK UNBOUND:                -0.186
REMARK SMILES O=c1c(O)c(-c2ccc(O)c(O)c2)oc2cc(O)cc(O)c12
REMARK SMILES IDX 5 1 3 2 2 3 1 4 22 5 20 6 19 7 17 8 16 9 15 10 14 11 6 12
REMARK SMILES IDX 7 13 8 14 9 15 13 16 11 17 10 18 12 20 4 22 21 24 18 26
REMARK H PARENT 10 19 12 21 4 23 21 25 18 27
REMARK Flexibility Score: inf
ROOT
ATOM      1  C   UNL     1      14.197  -0.502  18.790  1.00  0.00     0.180 A 
ATOM      2  C   UNL     1      13.967  -1.889  18.780  1.00  0.00     0.208 A 
ATOM      3  C   UNL     1      14.091  -2.608  19.981  1.00  0.00     0.238 A 
ATOM      4  O   UNL     1      13.812  -3.835  19.980  1.00  0.00    -0.285 OA
ATOM      5  C   UNL     1      14.496  -1.942  21.162  1.00  0.00     0.111 A 
ATOM      6  C   UNL     1      14.698  -2.578  22.425  1.00  0.00     0.134 A 
ATOM      7  C   UNL     1      14.996  -1.800  23.550  1.00  0.00     0.093 A 
ATOM      8  C   UNL     1      15.164  -0.418  23.447  1.00  0.00     0.123 A 
ATOM      9  C   UNL     1      15.024   0.205  22.210  1.00  0.00     0.094 A 
ATOM     10  C   UNL     1      14.688  -0.538  21.076  1.00  0.00     0.146 A 
ATOM     11  O   UNL     1      14.543   0.100  19.920  1.00  0.00    -0.452 OA
ENDROOT
BRANCH   1  12
ATOM     12  C   UNL     1      14.071   0.325  17.569  1.00  0.00     0.025 A 
ATOM     13  C   UNL     1      15.179   0.483  16.725  1.00  0.00     0.016 A 
ATOM     14  C   UNL     1      15.089   1.274  15.579  1.00  0.00     0.051 A 
ATOM     15  C   UNL     1      13.899   1.935  15.260  1.00  0.00     0.157 A 
ATOM     16  C   UNL     1      12.880   1.006  17.263  1.00  0.00     0.062 A 
ATOM     17  C   UNL     1      12.780   1.805  16.117  1.00  0.00     0.158 A 
BRANCH  15  18
ATOM     18  O   UNL     1      13.872   2.706  14.096  1.00  0.00    -0.504 OA
ATOM     19  H   UNL     1      14.287   2.420  13.220  1.00  0.00     0.293 HD
ENDBRANCH  15  18
BRANCH  17  20
ATOM     20  O   UNL     1      11.566   2.451  15.875  1.00  0.00    -0.504 OA
ATOM     21  H   UNL     1      10.701   1.969  15.678  1.00  0.00     0.293 HD
ENDBRANCH  17  20
ENDBRANCH   1  12
BRANCH   2  22
ATOM     22  O   UNL     1      13.643  -2.541  17.587  1.00  0.00    -0.502 OA
ATOM     23  H   UNL     1      12.906  -3.232  17.528  1.00  0.00     0.293 HD
ENDBRANCH   2  22
BRANCH   6  24
ATOM     24  O   UNL     1      14.642  -3.962  22.622  1.00  0.00    -0.507 OA
ATOM     25  H   UNL     1      13.851  -4.545  22.403  1.00  0.00     0.293 HD
ENDBRANCH   6  24
BRANCH   8  26
ATOM     26  O   UNL     1      15.478   0.346  24.569  1.00  0.00    -0.508 OA
ATOM     27  H   UNL     1      15.109   1.282  24.694  1.00  0.00     0.293 HD
ENDBRANCH   8  26
TORSDOF 6
ENDMDL
MODEL 8
REMARK VINA RESULT:    -6.726      3.121      6.137
REMARK INTER + INTRA:          -8.288
REMARK INTER:                  -8.069
REMARK INTRA:                  -0.219
REMARK UNBOUND:                -0.186
REMARK SMILES O=c1c(O)c(-c2ccc(O)c(O)c2)oc2cc(O)cc(O)c12
REMARK SMILES IDX 5 1 3 2 2 3 1 4 22 5 20 6 19 7 17 8 16 9 15 10 14 11 6 12
REMARK SMILES IDX 7 13 8 14 9 15 13 16 11 17 10 18 12 20 4 22 21 24 18 26
REMARK H PARENT 10 19 12 21 4 23 21 25 18 27
REMARK Flexibility Score: inf
ROOT
ATOM      1  C   UNL     1      14.947   1.435  22.978  1.00  0.00     0.180 A 
ATOM      2  C   UNL     1      14.257   1.644  21.772  1.00  0.00     0.208 A 
ATOM      3  C   UNL     1      13.971   0.540  20.951  1.00  0.00     0.238 A 
ATOM      4  O   UNL     1      13.288   0.723  19.910  1.00  0.00    -0.285 OA
ATOM      5  C   UNL     1      14.428  -0.749  21.318  1.00  0.00     0.111 A 
ATOM      6  C   UNL     1      14.236  -1.931  20.540  1.00  0.00     0.134 A 
ATOM      7  C   UNL     1      14.640  -3.169  21.055  1.00  0.00     0.093 A 
ATOM      8  C   UNL     1      15.287  -3.260  22.289  1.00  0.00     0.123 A 
ATOM      9  C   UNL     1      15.529  -2.106  23.030  1.00  0.00     0.094 A 
ATOM     10  C   UNL     1      15.103  -0.861  22.562  1.00  0.00     0.146 A 
ATOM     11  O   UNL     1      15.335   0.210  23.311  1.00  0.00    -0.452 OA
ENDROOT
BRANCH   1  12
ATOM     12  C   UNL     1      15.270   2.545  23.902  1.00  0.00     0.025 A 
ATOM     13  C   UNL     1      16.612   2.883  24.131  1.00  0.00     0.016 A 
ATOM     14  C   UNL     1      16.940   3.913  25.014  1.00  0.00     0.051 A 
ATOM     15  C   UNL     1      15.942   4.615  25.696  1.00  0.00     0.157 A 
ATOM     16  C   UNL     1      14.265   3.233  24.604  1.00  0.00     0.062 A 
ATOM     17  C   UNL     1      14.586   4.266  25.494  1.00  0.00     0.158 A 
BRANCH  15  18
ATOM     18  O   UNL     1      16.336   5.639  26.559  1.00  0.00    -0.504 OA
ATOM     19  H   UNL     1      16.808   5.485  27.440  1.00  0.00     0.293 HD
ENDBRANCH  15  18
BRANCH  17  20
ATOM     20  O   UNL     1      13.535   4.907  26.154  1.00  0.00    -0.504 OA
ATOM     21  H   UNL     1      12.649   4.470  26.360  1.00  0.00     0.293 HD
ENDBRANCH  17  20
ENDBRANCH   1  12
BRANCH   2  22
ATOM     22  O   UNL     1      13.880   2.934  21.389  1.00  0.00    -0.502 OA
ATOM     23  H   UNL     1      13.217   3.110  20.646  1.00  0.00     0.293 HD
ENDBRANCH   2  22
BRANCH   6  24
ATOM     24  O   UNL     1      13.682  -1.942  19.256  1.00  0.00    -0.507 OA
ATOM     25  H   UNL     1      13.102  -2.676  18.883  1.00  0.00     0.293 HD
ENDBRANCH   6  24
BRANCH   8  26
ATOM     26  O   UNL     1      15.701  -4.495  22.786  1.00  0.00    -0.508 OA
ATOM     27  H   UNL     1      15.208  -5.350  22.557  1.00  0.00     0.293 HD
ENDBRANCH   8  26
TORSDOF 6
ENDMDL
MODEL 9
REMARK VINA RESULT:    -6.651      2.249      7.193
REMARK INTER + INTRA:          -8.197
REMARK INTER:                  -8.132
REMARK INTRA:                  -0.065
REMARK UNBOUND:                -0.186
REMARK SMILES O=c1c(O)c(-c2ccc(O)c(O)c2)oc2cc(O)cc(O)c12
REMARK SMILES IDX 5 1 3 2 2 3 1 4 22 5 20 6 19 7 17 8 16 9 15 10 14 11 6 12
REMARK SMILES IDX 7 13 8 14 9 15 13 16 11 17 10 18 12 20 4 22 21 24 18 26
REMARK H PARENT 10 19 12 21 4 23 21 25 18 27
REMARK Flexibility Score: inf
ROOT
ATOM      1  C   UNL     1      15.582  -0.767  22.779  1.00  0.00     0.180 A 
ATOM      2  C   UNL     1      15.320   0.482  23.369  1.00  0.00     0.208 A 
ATOM      3  C   UNL     1      14.611   1.447  22.634  1.00  0.00     0.238 A 
ATOM      4  O   UNL     1      14.315   2.534  23.194  1.00  0.00    -0.285 OA
ATOM      5  C   UNL     1      14.222   1.171  21.301  1.00  0.00     0.111 A 
ATOM      6  C   UNL     1      13.539   2.091  20.448  1.00  0.00     0.134 A 
ATOM      7  C   UNL     1      13.111   1.671  19.182  1.00  0.00     0.093 A 
ATOM      8  C   UNL     1      13.396   0.387  18.714  1.00  0.00     0.123 A 
ATOM      9  C   UNL     1      14.110  -0.499  19.517  1.00  0.00     0.094 A 
ATOM     10  C   UNL     1      14.517  -0.123  20.799  1.00  0.00     0.146 A 
ATOM     11  O   UNL     1      15.176  -1.007  21.539  1.00  0.00    -0.452 OA
ENDROOT
BRANCH   1  12
ATOM     12  C   UNL     1      16.310  -1.839  23.495  1.00  0.00     0.025 A 
ATOM     13  C   UNL     1      17.604  -1.593  23.973  1.00  0.00     0.016 A 
ATOM     14  C   UNL     1      18.316  -2.595  24.634  1.00  0.00     0.051 A 
ATOM     15  C   UNL     1      17.759  -3.865  24.818  1.00  0.00     0.157 A 
ATOM     16  C   UNL     1      15.755  -3.120  23.657  1.00  0.00     0.062 A 
ATOM     17  C   UNL     1      16.463  -4.133  24.317  1.00  0.00     0.158 A 
BRANCH  15  18
ATOM     18  O   UNL     1      18.520  -4.820  25.493  1.00  0.00    -0.504 OA
ATOM     19  H   UNL     1      18.854  -4.710  26.441  1.00  0.00     0.293 HD
ENDBRANCH  15  18
BRANCH  17  20
ATOM     20  O   UNL     1      15.849  -5.381  24.443  1.00  0.00    -0.504 OA
ATOM     21  H   UNL     1      16.276  -6.176  24.895  1.00  0.00     0.293 HD
ENDBRANCH  17  20
ENDBRANCH   1  12
BRANCH   2  22
ATOM     22  O   UNL     1      15.779   0.762  24.659  1.00  0.00    -0.502 OA
ATOM     23  H   UNL     1      16.043   0.036  25.312  1.00  0.00     0.293 HD
ENDBRANCH   2  22
BRANCH   6  24
ATOM     24  O   UNL     1      13.281   3.425  20.781  1.00  0.00    -0.507 OA
ATOM     25  H   UNL     1      12.970   4.132  20.135  1.00  0.00     0.293 HD
ENDBRANCH   6  24
BRANCH   8  26
ATOM     26  O   UNL     1      12.981  -0.016  17.447  1.00  0.00    -0.508 OA
ATOM     27  H   UNL     1      13.388  -0.822  16.986  1.00  0.00     0.293 HD
ENDBRANCH   8  26
TORSDOF 6
ENDMDL
