MODEL 1
REMARK VINA RESULT:    -7.377      0.000      0.000
REMARK INTER + INTRA:         -10.537
REMARK INTER:                 -10.180
REMARK INTRA:                  -0.357
REMARK UNBOUND:                -0.357
REMARK SMILES CC[C@@H](CC[C@@H](C)[C@H]1CC[C@H]2[C@@H]3CC=C4C[C@H](O)CC[C@@]4(C)[C@@H]3CC[C@@]12C)C(C)C
REMARK SMILES IDX 5 1 4 2 3 3 2 4 1 5 28 6 29 7 30 8 6 9 7 10 8 11 9 12 26 13
REMARK SMILES IDX 10 14 11 15 25 16 27 17 12 18 24 19 23 20 13 21 21 22 14 23
REMARK SMILES IDX 15 24 20 25 22 26 16 27 19 28 17 29 18 30
REMARK H PARENT 18 31
REMARK Flexibility Score: inf
ROOT
ATOM      1  C   UNL     1      13.557  12.301  31.466  1.00  0.00     0.004 C 
ENDROOT
BRANCH   1   2
ATOM      2  C   UNL     1      12.670  11.999  32.699  1.00  0.00     0.004 C 
BRANCH   2   3
ATOM      3  C   UNL     1      13.349  12.331  34.067  1.00  0.00    -0.009 C 
BRANCH   3   4
ATOM      4  C   UNL     1      12.876  11.345  35.172  1.00  0.00     0.000 C 
ATOM      5  C   UNL     1      14.008  10.946  36.125  1.00  0.00     0.004 C 
ENDBRANCH   3   4
BRANCH   3   6
ATOM      6  C   UNL     1      13.141  13.815  34.537  1.00  0.00    -0.014 C 
ATOM      7  C   UNL     1      12.155  14.624  33.672  1.00  0.00     0.007 C 
ATOM      8  C   UNL     1      14.460  14.586  34.677  1.00  0.00     0.007 C 
ENDBRANCH   3   6
ENDBRANCH   2   3
ENDBRANCH   1   2
BRANCH   1   9
ATOM      9  C   UNL     1      13.361  11.274  30.318  1.00  0.00    -0.011 C 
ATOM     10  C   UNL     1      11.878  10.913  30.180  1.00  0.00     0.008 C 
BRANCH   9  11
ATOM     11  C   UNL     1      14.122  11.669  28.994  1.00  0.00    -0.002 C 
ATOM     12  C   UNL     1      13.241  11.550  27.754  1.00  0.00     0.005 C 
ATOM     13  C   UNL     1      14.918  13.008  28.799  1.00  0.00    -0.026 C 
ATOM     14  C   UNL     1      14.029  12.213  26.627  1.00  0.00     0.005 C 
ATOM     15  C   UNL     1      15.241  12.922  27.271  1.00  0.00    -0.001 C 
ATOM     16  C   UNL     1      14.090  14.294  29.101  1.00  0.00     0.007 C 
ATOM     17  C   UNL     1      16.190  12.984  29.680  1.00  0.00     0.012 C 
ATOM     18  C   UNL     1      15.592  14.247  26.518  1.00  0.00     0.000 C 
ATOM     19  C   UNL     1      14.647  15.570  28.448  1.00  0.00     0.005 C 
ATOM     20  C   UNL     1      14.676  15.432  26.906  1.00  0.00     0.003 C 
ATOM     21  C   UNL     1      17.073  14.631  26.675  1.00  0.00     0.031 C 
ATOM     22  C   UNL     1      15.026  16.755  26.084  1.00  0.00    -0.008 C 
ATOM     23  C   UNL     1      17.395  15.858  25.886  1.00  0.00    -0.027 C 
ATOM     24  C   UNL     1      16.503  16.847  25.663  1.00  0.00    -0.065 C 
ATOM     25  C   UNL     1      14.188  16.740  24.766  1.00  0.00     0.014 C 
ATOM     26  C   UNL     1      14.655  18.027  26.895  1.00  0.00     0.016 C 
ATOM     27  C   UNL     1      16.898  17.969  24.723  1.00  0.00     0.063 C 
ATOM     28  C   UNL     1      14.548  17.864  23.772  1.00  0.00     0.033 C 
ATOM     29  C   UNL     1      16.052  17.885  23.447  1.00  0.00     0.118 C 
BRANCH  29  30
ATOM     30  O   UNL     1      16.352  18.986  22.627  1.00  0.00    -0.393 OA
ATOM     31  H   UNL     1      15.611  19.639  22.743  1.00  0.00     0.210 HD
ENDBRANCH  29  30
ENDBRANCH   9  11
ENDBRANCH   1   9
TORSDOF 7
ENDMDL
MODEL 2
REMARK VINA RESULT:    -6.571      3.160      8.615
REMARK INTER + INTRA:          -9.424
REMARK INTER:                  -9.219
REMARK INTRA:                  -0.205
REMARK UNBOUND:                -0.357
REMARK SMILES CC[C@@H](CC[C@@H](C)[C@H]1CC[C@H]2[C@@H]3CC=C4C[C@H](O)CC[C@@]4(C)[C@@H]3CC[C@@]12C)C(C)C
REMARK SMILES IDX 5 1 4 2 3 3 2 4 1 5 28 6 29 7 30 8 6 9 7 10 8 11 9 12 26 13
REMARK SMILES IDX 10 14 11 15 25 16 27 17 12 18 24 19 23 20 13 21 21 22 14 23
REMARK SMILES IDX 15 24 20 25 22 26 16 27 19 28 17 29 18 30
REMARK H PARENT 18 31
REMARK Flexibility Score: inf
ROOT
ATOM      1  C   UNL     1      16.375  16.637  26.774  1.00  0.00     0.004 C 
ENDROOT
BRANCH   1   2
ATOM      2  C   UNL     1      15.234  17.630  27.106  1.00  0.00     0.004 C 
BRANCH   2   3
ATOM      3  C   UNL     1      14.545  18.250  25.847  1.00  0.00    -0.009 C 
BRANCH   3   4
ATOM      4  C   UNL     1      13.010  18.015  25.886  1.00  0.00     0.000 C 
ATOM      5  C   UNL     1      12.579  17.149  27.076  1.00  0.00     0.004 C 
ENDBRANCH   3   4
BRANCH   3   6
ATOM      6  C   UNL     1      15.138  17.745  24.483  1.00  0.00    -0.014 C 
ATOM      7  C   UNL     1      16.538  18.300  24.154  1.00  0.00     0.007 C 
ATOM      8  C   UNL     1      14.194  17.986  23.298  1.00  0.00     0.007 C 
ENDBRANCH   3   6
ENDBRANCH   2   3
ENDBRANCH   1   2
BRANCH   1   9
ATOM      9  C   UNL     1      15.854  15.294  26.194  1.00  0.00    -0.011 C 
ATOM     10  C   UNL     1      16.538  14.995  24.856  1.00  0.00     0.008 C 
BRANCH   9  11
ATOM     11  C   UNL     1      15.830  14.127  27.256  1.00  0.00    -0.002 C 
ATOM     12  C   UNL     1      16.930  14.264  28.303  1.00  0.00     0.005 C 
ATOM     13  C   UNL     1      14.555  13.692  28.061  1.00  0.00    -0.026 C 
ATOM     14  C   UNL     1      16.602  13.233  29.379  1.00  0.00     0.005 C 
ATOM     15  C   UNL     1      15.192  12.681  29.070  1.00  0.00    -0.001 C 
ATOM     16  C   UNL     1      13.858  14.854  28.833  1.00  0.00     0.007 C 
ATOM     17  C   UNL     1      13.544  13.020  27.102  1.00  0.00     0.012 C 
ATOM     18  C   UNL     1      14.407  12.359  30.384  1.00  0.00     0.000 C 
ATOM     19  C   UNL     1      12.963  14.393  29.994  1.00  0.00     0.005 C 
ATOM     20  C   UNL     1      13.785  13.612  31.048  1.00  0.00     0.003 C 
ATOM     21  C   UNL     1      13.340  11.272  30.172  1.00  0.00     0.031 C 
ATOM     22  C   UNL     1      13.035  13.258  32.411  1.00  0.00    -0.008 C 
ATOM     23  C   UNL     1      12.658  10.933  31.457  1.00  0.00    -0.027 C 
ATOM     24  C   UNL     1      12.461  11.830  32.447  1.00  0.00    -0.065 C 
ATOM     25  C   UNL     1      14.076  13.347  33.573  1.00  0.00     0.014 C 
ATOM     26  C   UNL     1      11.888  14.267  32.692  1.00  0.00     0.016 C 
ATOM     27  C   UNL     1      11.894  11.334  33.762  1.00  0.00     0.063 C 
ATOM     28  C   UNL     1      13.549  12.856  34.937  1.00  0.00     0.033 C 
ATOM     29  C   UNL     1      12.969  11.433  34.850  1.00  0.00     0.118 C 
BRANCH  29  30
ATOM     30  O   UNL     1      12.404  11.068  36.084  1.00  0.00    -0.393 OA
ATOM     31  H   UNL     1      11.642  11.686  36.245  1.00  0.00     0.210 HD
ENDBRANCH  29  30
ENDBRANCH   9  11
ENDBRANCH   1   9
TORSDOF 7
ENDMDL
MODEL 3
REMARK VINA RESULT:    -5.355      1.272      2.563
REMARK INTER + INTRA:          -7.746
REMARK INTER:                  -6.941
REMARK INTRA:                  -0.805
REMARK UNBOUND:                -0.357
REMARK SMILES CC[C@@H](CC[C@@H](C)[C@H]1CC[C@H]2[C@@H]3CC=C4C[C@H](O)CC[C@@]4(C)[C@@H]3CC[C@@]12C)C(C)C
REMARK SMILES IDX 5 1 4 2 3 3 2 4 1 5 28 6 29 7 30 8 6 9 7 10 8 11 9 12 26 13
REMARK SMILES IDX 10 14 11 15 25 16 27 17 12 18 24 19 23 20 13 21 21 22 14 23
REMARK SMILES IDX 15 24 20 25 22 26 16 27 19 28 17 29 18 30
REMARK H PARENT 18 31
REMARK Flexibility Score: inf
ROOT
ATOM      1  C   UNL     1      13.523  12.764  32.865  1.00  0.00     0.004 C 
ENDROOT
BRANCH   1   2
ATOM      2  C   UNL     1      12.450  13.154  33.911  1.00  0.00     0.004 C 
BRANCH   2   3
ATOM      3  C   UNL     1      12.992  13.237  35.375  1.00  0.00    -0.009 C 
BRANCH   3   4
ATOM      4  C   UNL     1      14.403  13.888  35.405  1.00  0.00     0.000 C 
ATOM      5  C   UNL     1      14.366  15.385  35.077  1.00  0.00     0.004 C 
ENDBRANCH   3   4
BRANCH   3   6
ATOM      6  C   UNL     1      13.014  11.858  36.125  1.00  0.00    -0.014 C 
ATOM      7  C   UNL     1      14.368  11.124  36.067  1.00  0.00     0.007 C 
ATOM      8  C   UNL     1      11.894  10.914  35.669  1.00  0.00     0.007 C 
ENDBRANCH   3   6
ENDBRANCH   2   3
ENDBRANCH   1   2
BRANCH   1   9
ATOM      9  C   UNL     1      13.040  11.652  31.895  1.00  0.00    -0.011 C 
ATOM     10  C   UNL     1      11.876  10.875  32.520  1.00  0.00     0.008 C 
BRANCH   9  11
ATOM     11  C   UNL     1      12.840  12.161  30.415  1.00  0.00    -0.002 C 
ATOM     12  C   UNL     1      11.991  13.426  30.340  1.00  0.00     0.005 C 
ATOM     13  C   UNL     1      14.011  12.396  29.397  1.00  0.00    -0.026 C 
ATOM     14  C   UNL     1      12.122  13.922  28.902  1.00  0.00     0.005 C 
ATOM     15  C   UNL     1      13.232  13.084  28.228  1.00  0.00    -0.001 C 
ATOM     16  C   UNL     1      15.135  13.341  29.922  1.00  0.00     0.007 C 
ATOM     17  C   UNL     1      14.619  11.034  28.987  1.00  0.00     0.012 C 
ATOM     18  C   UNL     1      14.047  13.939  27.203  1.00  0.00     0.000 C 
ATOM     19  C   UNL     1      15.989  13.980  28.815  1.00  0.00     0.005 C 
ATOM     20  C   UNL     1      15.114  14.840  27.870  1.00  0.00     0.003 C 
ATOM     21  C   UNL     1      14.679  13.076  26.098  1.00  0.00     0.031 C 
ATOM     22  C   UNL     1      15.893  15.737  26.805  1.00  0.00    -0.008 C 
ATOM     23  C   UNL     1      15.389  13.926  25.095  1.00  0.00    -0.027 C 
ATOM     24  C   UNL     1      15.989  15.093  25.410  1.00  0.00    -0.065 C 
ATOM     25  C   UNL     1      15.101  17.071  26.625  1.00  0.00     0.014 C 
ATOM     26  C   UNL     1      17.326  16.072  27.303  1.00  0.00     0.016 C 
ATOM     27  C   UNL     1      16.545  15.941  24.282  1.00  0.00     0.063 C 
ATOM     28  C   UNL     1      15.627  17.974  25.491  1.00  0.00     0.033 C 
ATOM     29  C   UNL     1      15.714  17.222  24.150  1.00  0.00     0.118 C 
BRANCH  29  30
ATOM     30  O   UNL     1      16.297  18.046  23.173  1.00  0.00    -0.393 OA
ATOM     31  H   UNL     1      17.275  17.870  23.197  1.00  0.00     0.210 HD
ENDBRANCH  29  30
ENDBRANCH   9  11
ENDBRANCH   1   9
TORSDOF 7
ENDMDL
MODEL 4
REMARK VINA RESULT:    -4.776      1.355      2.568
REMARK INTER + INTRA:          -6.947
REMARK INTER:                  -5.497
REMARK INTRA:                  -1.451
REMARK UNBOUND:                -0.357
REMARK SMILES CC[C@@H](CC[C@@H](C)[C@H]1CC[C@H]2[C@@H]3CC=C4C[C@H](O)CC[C@@]4(C)[C@@H]3CC[C@@]12C)C(C)C
REMARK SMILES IDX 5 1 4 2 3 3 2 4 1 5 28 6 29 7 30 8 6 9 7 10 8 11 9 12 26 13
REMARK SMILES IDX 10 14 11 15 25 16 27 17 12 18 24 19 23 20 13 21 21 22 14 23
REMARK SMILES IDX 15 24 20 25 22 26 16 27 19 28 17 29 18 30
REMARK H PARENT 18 31
REMARK Flexibility Score: inf
ROOT
ATOM      1  C   UNL     1      11.876  13.524  33.346  1.00  0.00     0.004 C 
ENDROOT
BRANCH   1   2
ATOM      2  C   UNL     1      12.433  13.178  34.749  1.00  0.00     0.004 C 
BRANCH   2   3
ATOM      3  C   UNL     1      13.937  12.754  34.748  1.00  0.00    -0.009 C 
BRANCH   3   4
ATOM      4  C   UNL     1      14.169  11.541  35.692  1.00  0.00     0.000 C 
ATOM      5  C   UNL     1      12.858  10.875  36.124  1.00  0.00     0.004 C 
ENDBRANCH   3   4
BRANCH   3   6
ATOM      6  C   UNL     1      14.927  13.919  35.107  1.00  0.00    -0.014 C 
ATOM      7  C   UNL     1      14.249  15.169  35.702  1.00  0.00     0.007 C 
ATOM      8  C   UNL     1      15.820  14.327  33.928  1.00  0.00     0.007 C 
ENDBRANCH   3   6
ENDBRANCH   2   3
ENDBRANCH   1   2
BRANCH   1   9
ATOM      9  C   UNL     1      12.427  12.590  32.234  1.00  0.00    -0.011 C 
ATOM     10  C   UNL     1      11.880  11.171  32.417  1.00  0.00     0.008 C 
BRANCH   9  11
ATOM     11  C   UNL     1      12.315  13.213  30.788  1.00  0.00    -0.002 C 
ATOM     12  C   UNL     1      12.002  14.706  30.815  1.00  0.00     0.005 C 
ATOM     13  C   UNL     1      13.402  13.046  29.668  1.00  0.00    -0.026 C 
ATOM     14  C   UNL     1      12.193  15.190  29.381  1.00  0.00     0.005 C 
ATOM     15  C   UNL     1      12.847  14.034  28.590  1.00  0.00    -0.001 C 
ATOM     16  C   UNL     1      14.837  13.473  30.102  1.00  0.00     0.007 C 
ATOM     17  C   UNL     1      13.416  11.577  29.180  1.00  0.00     0.012 C 
ATOM     18  C   UNL     1      13.839  14.574  27.509  1.00  0.00     0.000 C 
ATOM     19  C   UNL     1      15.777  13.803  28.930  1.00  0.00     0.005 C 
ATOM     20  C   UNL     1      15.217  14.975  28.088  1.00  0.00     0.003 C 
ATOM     21  C   UNL     1      14.008  13.596  26.334  1.00  0.00     0.031 C 
ATOM     22  C   UNL     1      16.188  15.569  26.970  1.00  0.00    -0.008 C 
ATOM     23  C   UNL     1      14.902  14.169  25.283  1.00  0.00    -0.027 C 
ATOM     24  C   UNL     1      15.922  15.010  25.561  1.00  0.00    -0.065 C 
ATOM     25  C   UNL     1      15.946  17.110  26.888  1.00  0.00     0.014 C 
ATOM     26  C   UNL     1      17.677  15.318  27.336  1.00  0.00     0.016 C 
ATOM     27  C   UNL     1      16.663  15.645  24.400  1.00  0.00     0.063 C 
ATOM     28  C   UNL     1      16.680  17.809  25.725  1.00  0.00     0.033 C 
ATOM     29  C   UNL     1      16.368  17.148  24.369  1.00  0.00     0.118 C 
BRANCH  29  30
ATOM     30  O   UNL     1      17.138  17.744  23.356  1.00  0.00    -0.393 OA
ATOM     31  H   UNL     1      17.978  17.216  23.286  1.00  0.00     0.210 HD
ENDBRANCH  29  30
ENDBRANCH   9  11
ENDBRANCH   1   9
TORSDOF 7
ENDMDL
