MODEL 1
REMARK VINA RESULT:    -3.037      0.000      0.000
REMARK INTER + INTRA:          -6.980
REMARK INTER:                  -5.523
REMARK INTRA:                  -1.456
REMARK UNBOUND:                -1.456
REMARK SMILES CCCCCCCCCCCCCCCC(=O)[O-]
REMARK SMILES IDX 9 1 10 2 11 3 12 4 13 5 14 6 15 7 16 8 17 9 18 10 8 11 7 12
REMARK SMILES IDX 6 13 5 14 4 15 3 16 2 17 1 18
REMARK H PARENT
REMARK Flexibility Score: inf
ROOT
ATOM      1  C   UNL     1     -21.195  14.177 -21.264  1.00  0.00     0.000 C 
ENDROOT
BRANCH   1   2
ATOM      2  C   UNL     1     -20.920  14.685 -19.840  1.00  0.00     0.000 C 
BRANCH   2   3
ATOM      3  C   UNL     1     -21.184  13.617 -18.770  1.00  0.00     0.000 C 
BRANCH   3   4
ATOM      4  C   UNL     1     -21.909  14.222 -17.558  1.00  0.00     0.000 C 
BRANCH   4   5
ATOM      5  C   UNL     1     -22.881  13.237 -16.884  1.00  0.00     0.000 C 
BRANCH   5   6
ATOM      6  C   UNL     1     -22.760  13.148 -15.349  1.00  0.00     0.006 C 
BRANCH   6   7
ATOM      7  C   UNL     1     -22.004  11.911 -14.841  1.00  0.00     0.053 C 
BRANCH   7   8
ATOM      8  C   UNL     1     -20.542  11.980 -15.152  1.00  0.00     0.041 C 
ATOM      9  O   UNL     1     -20.040  11.215 -16.019  1.00  0.00    -0.550 OA
ATOM     10  O   UNL     1     -19.737  12.912 -14.510  1.00  0.00    -0.550 OA
ENDBRANCH   7   8
ENDBRANCH   6   7
ENDBRANCH   5   6
ENDBRANCH   4   5
ENDBRANCH   3   4
ENDBRANCH   2   3
ENDBRANCH   1   2
BRANCH   1  11
ATOM     11  C   UNL     1     -21.811  15.255 -22.169  1.00  0.00     0.000 C 
BRANCH  11  12
ATOM     12  C   UNL     1     -22.152  14.684 -23.550  1.00  0.00    -0.000 C 
BRANCH  12  13
ATOM     13  C   UNL     1     -21.921  13.169 -23.594  1.00  0.00    -0.000 C 
BRANCH  13  14
ATOM     14  C   UNL     1     -21.111  12.773 -24.838  1.00  0.00    -0.000 C 
BRANCH  14  15
ATOM     15  C   UNL     1     -19.811  13.581 -24.983  1.00  0.00    -0.000 C 
BRANCH  15  16
ATOM     16  C   UNL     1     -18.604  12.881 -24.336  1.00  0.00    -0.000 C 
BRANCH  16  17
ATOM     17  C   UNL     1     -18.031  13.671 -23.149  1.00  0.00    -0.003 C 
ATOM     18  C   UNL     1     -18.262  15.177 -23.272  1.00  0.00     0.004 C 
ENDBRANCH  16  17
ENDBRANCH  15  16
ENDBRANCH  14  15
ENDBRANCH  13  14
ENDBRANCH  12  13
ENDBRANCH  11  12
ENDBRANCH   1  11
TORSDOF 14
ENDMDL
MODEL 2
REMARK VINA RESULT:    -2.886     14.689     16.591
REMARK INTER + INTRA:          -6.704
REMARK INTER:                  -4.605
REMARK INTRA:                  -2.098
REMARK UNBOUND:                -1.456
REMARK SMILES CCCCCCCCCCCCCCCC(=O)[O-]
REMARK SMILES IDX 9 1 10 2 11 3 12 4 13 5 14 6 15 7 16 8 17 9 18 10 8 11 7 12
REMARK SMILES IDX 6 13 5 14 4 15 3 16 2 17 1 18
REMARK H PARENT
REMARK Flexibility Score: inf
ROOT
ATOM      1  C   UNL     1     -23.255  28.118 -21.882  1.00  0.00     0.000 C 
ENDROOT
BRANCH   1   2
ATOM      2  C   UNL     1     -21.795  27.861 -21.480  1.00  0.00     0.000 C 
BRANCH   2   3
ATOM      3  C   UNL     1     -21.313  28.802 -20.366  1.00  0.00     0.000 C 
BRANCH   3   4
ATOM      4  C   UNL     1     -20.440  28.048 -19.351  1.00  0.00     0.000 C 
BRANCH   4   5
ATOM      5  C   UNL     1     -19.825  28.971 -18.284  1.00  0.00     0.000 C 
BRANCH   5   6
ATOM      6  C   UNL     1     -18.491  29.634 -18.685  1.00  0.00     0.006 C 
BRANCH   6   7
ATOM      7  C   UNL     1     -17.728  28.904 -19.801  1.00  0.00     0.053 C 
BRANCH   7   8
ATOM      8  C   UNL     1     -17.455  29.799 -20.970  1.00  0.00     0.041 C 
ATOM      9  O   UNL     1     -17.577  29.362 -22.146  1.00  0.00    -0.550 OA
ATOM     10  O   UNL     1     -17.098  31.125 -20.764  1.00  0.00    -0.550 OA
ENDBRANCH   7   8
ENDBRANCH   6   7
ENDBRANCH   5   6
ENDBRANCH   4   5
ENDBRANCH   3   4
ENDBRANCH   2   3
ENDBRANCH   1   2
BRANCH   1  11
ATOM     11  C   UNL     1     -23.653  29.596 -21.754  1.00  0.00     0.000 C 
BRANCH  11  12
ATOM     12  C   UNL     1     -25.033  29.739 -21.099  1.00  0.00    -0.000 C 
BRANCH  12  13
ATOM     13  C   UNL     1     -25.049  29.109 -19.701  1.00  0.00    -0.000 C 
BRANCH  13  14
ATOM     14  C   UNL     1     -24.338  30.013 -18.683  1.00  0.00    -0.000 C 
BRANCH  14  15
ATOM     15  C   UNL     1     -23.590  29.215 -17.602  1.00  0.00    -0.000 C 
BRANCH  15  16
ATOM     16  C   UNL     1     -23.904  27.710 -17.654  1.00  0.00    -0.000 C 
BRANCH  16  17
ATOM     17  C   UNL     1     -22.879  26.868 -16.879  1.00  0.00    -0.003 C 
ATOM     18  C   UNL     1     -22.264  27.620 -15.699  1.00  0.00     0.004 C 
ENDBRANCH  16  17
ENDBRANCH  15  16
ENDBRANCH  14  15
ENDBRANCH  13  14
ENDBRANCH  12  13
ENDBRANCH  11  12
ENDBRANCH   1  11
TORSDOF 14
ENDMDL
MODEL 3
REMARK VINA RESULT:    -2.855      3.619      7.271
REMARK INTER + INTRA:          -6.648
REMARK INTER:                  -4.832
REMARK INTRA:                  -1.817
REMARK UNBOUND:                -1.456
REMARK SMILES CCCCCCCCCCCCCCCC(=O)[O-]
REMARK SMILES IDX 9 1 10 2 11 3 12 4 13 5 14 6 15 7 16 8 17 9 18 10 8 11 7 12
REMARK SMILES IDX 6 13 5 14 4 15 3 16 2 17 1 18
REMARK H PARENT
REMARK Flexibility Score: inf
ROOT
ATOM      1  C   UNL     1     -20.364  15.536 -20.944  1.00  0.00     0.000 C 
ENDROOT
BRANCH   1   2
ATOM      2  C   UNL     1     -21.092  14.274 -21.431  1.00  0.00     0.000 C 
BRANCH   2   3
ATOM      3  C   UNL     1     -21.784  14.475 -22.787  1.00  0.00     0.000 C 
BRANCH   3   4
ATOM      4  C   UNL     1     -21.987  13.131 -23.504  1.00  0.00     0.000 C 
BRANCH   4   5
ATOM      5  C   UNL     1     -21.214  13.035 -24.831  1.00  0.00     0.000 C 
BRANCH   5   6
ATOM      6  C   UNL     1     -19.808  13.670 -24.815  1.00  0.00     0.006 C 
BRANCH   6   7
ATOM      7  C   UNL     1     -18.687  12.723 -24.362  1.00  0.00     0.053 C 
BRANCH   7   8
ATOM      8  C   UNL     1     -17.329  13.273 -24.672  1.00  0.00     0.041 C 
ATOM      9  O   UNL     1     -17.087  14.498 -24.504  1.00  0.00    -0.550 OA
ATOM     10  O   UNL     1     -16.321  12.428 -25.116  1.00  0.00    -0.550 OA
ENDBRANCH   7   8
ENDBRANCH   6   7
ENDBRANCH   5   6
ENDBRANCH   4   5
ENDBRANCH   3   4
ENDBRANCH   2   3
ENDBRANCH   1   2
BRANCH   1  11
ATOM     11  C   UNL     1     -18.851  15.487 -21.208  1.00  0.00     0.000 C 
BRANCH  11  12
ATOM     12  C   UNL     1     -18.309  14.064 -21.033  1.00  0.00    -0.000 C 
BRANCH  12  13
ATOM     13  C   UNL     1     -17.496  13.937 -19.740  1.00  0.00    -0.000 C 
BRANCH  13  14
ATOM     14  C   UNL     1     -18.105  12.879 -18.808  1.00  0.00    -0.000 C 
BRANCH  14  15
ATOM     15  C   UNL     1     -19.120  13.473 -17.817  1.00  0.00    -0.000 C 
BRANCH  15  16
ATOM     16  C   UNL     1     -20.345  12.568 -17.611  1.00  0.00    -0.000 C 
BRANCH  16  17
ATOM     17  C   UNL     1     -21.655  13.239 -18.055  1.00  0.00    -0.003 C 
ATOM     18  C   UNL     1     -22.224  14.185 -16.997  1.00  0.00     0.004 C 
ENDBRANCH  16  17
ENDBRANCH  15  16
ENDBRANCH  14  15
ENDBRANCH  13  14
ENDBRANCH  12  13
ENDBRANCH  11  12
ENDBRANCH   1  11
TORSDOF 14
ENDMDL
MODEL 4
REMARK VINA RESULT:    -2.841     14.953     16.892
REMARK INTER + INTRA:          -6.622
REMARK INTER:                  -4.848
REMARK INTRA:                  -1.774
REMARK UNBOUND:                -1.456
REMARK SMILES CCCCCCCCCCCCCCCC(=O)[O-]
REMARK SMILES IDX 9 1 10 2 11 3 12 4 13 5 14 6 15 7 16 8 17 9 18 10 8 11 7 12
REMARK SMILES IDX 6 13 5 14 4 15 3 16 2 17 1 18
REMARK H PARENT
REMARK Flexibility Score: inf
ROOT
ATOM      1  C   UNL     1     -21.472  26.938 -20.569  1.00  0.00     0.000 C 
ENDROOT
BRANCH   1   2
ATOM      2  C   UNL     1     -21.230  27.354 -19.110  1.00  0.00     0.000 C 
BRANCH   2   3
ATOM      3  C   UNL     1     -20.954  28.857 -18.961  1.00  0.00     0.000 C 
BRANCH   3   4
ATOM      4  C   UNL     1     -19.758  29.104 -18.028  1.00  0.00     0.000 C 
BRANCH   4   5
ATOM      5  C   UNL     1     -18.416  28.664 -18.641  1.00  0.00     0.000 C 
BRANCH   5   6
ATOM      6  C   UNL     1     -17.552  29.808 -19.210  1.00  0.00     0.006 C 
BRANCH   6   7
ATOM      7  C   UNL     1     -17.968  30.284 -20.610  1.00  0.00     0.053 C 
BRANCH   7   8
ATOM      8  C   UNL     1     -16.854  30.150 -21.601  1.00  0.00     0.041 C 
ATOM      9  O   UNL     1     -15.704  30.583 -21.327  1.00  0.00    -0.550 OA
ATOM     10  O   UNL     1     -17.078  29.515 -22.816  1.00  0.00    -0.550 OA
ENDBRANCH   7   8
ENDBRANCH   6   7
ENDBRANCH   5   6
ENDBRANCH   4   5
ENDBRANCH   3   4
ENDBRANCH   2   3
ENDBRANCH   1   2
BRANCH   1  11
ATOM     11  C   UNL     1     -21.800  28.131 -21.479  1.00  0.00     0.000 C 
BRANCH  11  12
ATOM     12  C   UNL     1     -23.273  28.108 -21.905  1.00  0.00    -0.000 C 
BRANCH  12  13
ATOM     13  C   UNL     1     -23.833  29.530 -22.035  1.00  0.00    -0.000 C 
BRANCH  13  14
ATOM     14  C   UNL     1     -24.525  29.970 -20.737  1.00  0.00    -0.000 C 
BRANCH  14  15
ATOM     15  C   UNL     1     -25.117  28.789 -19.950  1.00  0.00    -0.000 C 
BRANCH  15  16
ATOM     16  C   UNL     1     -24.722  28.811 -18.464  1.00  0.00    -0.000 C 
BRANCH  16  17
ATOM     17  C   UNL     1     -24.361  30.221 -17.972  1.00  0.00    -0.003 C 
ATOM     18  C   UNL     1     -24.992  30.557 -16.620  1.00  0.00     0.004 C 
ENDBRANCH  16  17
ENDBRANCH  15  16
ENDBRANCH  14  15
ENDBRANCH  13  14
ENDBRANCH  12  13
ENDBRANCH  11  12
ENDBRANCH   1  11
TORSDOF 14
ENDMDL
MODEL 5
REMARK VINA RESULT:    -2.779     14.070     16.196
REMARK INTER + INTRA:          -6.509
REMARK INTER:                  -4.627
REMARK INTRA:                  -1.882
REMARK UNBOUND:                -1.456
REMARK SMILES CCCCCCCCCCCCCCCC(=O)[O-]
REMARK SMILES IDX 9 1 10 2 11 3 12 4 13 5 14 6 15 7 16 8 17 9 18 10 8 11 7 12
REMARK SMILES IDX 6 13 5 14 4 15 3 16 2 17 1 18
REMARK H PARENT
REMARK Flexibility Score: inf
ROOT
ATOM      1  C   UNL     1     -22.107  27.633 -21.522  1.00  0.00     0.000 C 
ENDROOT
BRANCH   1   2
ATOM      2  C   UNL     1     -21.226  28.780 -21.000  1.00  0.00     0.000 C 
BRANCH   2   3
ATOM      3  C   UNL     1     -20.589  28.465 -19.639  1.00  0.00     0.000 C 
BRANCH   3   4
ATOM      4  C   UNL     1     -19.070  28.277 -19.776  1.00  0.00     0.000 C 
BRANCH   4   5
ATOM      5  C   UNL     1     -18.417  29.313 -20.708  1.00  0.00     0.000 C 
BRANCH   5   6
ATOM      6  C   UNL     1     -17.557  28.720 -21.842  1.00  0.00     0.006 C 
BRANCH   6   7
ATOM      7  C   UNL     1     -17.327  27.204 -21.742  1.00  0.00     0.053 C 
BRANCH   7   8
ATOM      8  C   UNL     1     -17.957  26.466 -22.882  1.00  0.00     0.041 C 
ATOM      9  O   UNL     1     -17.336  26.330 -23.970  1.00  0.00    -0.550 OA
ATOM     10  O   UNL     1     -19.215  25.898 -22.734  1.00  0.00    -0.550 OA
ENDBRANCH   7   8
ENDBRANCH   6   7
ENDBRANCH   5   6
ENDBRANCH   4   5
ENDBRANCH   3   4
ENDBRANCH   2   3
ENDBRANCH   1   2
BRANCH   1  11
ATOM     11  C   UNL     1     -23.424  28.130 -22.136  1.00  0.00     0.000 C 
BRANCH  11  12
ATOM     12  C   UNL     1     -23.635  29.622 -21.851  1.00  0.00    -0.000 C 
BRANCH  12  13
ATOM     13  C   UNL     1     -24.882  29.849 -20.988  1.00  0.00    -0.000 C 
BRANCH  13  14
ATOM     14  C   UNL     1     -24.513  29.924 -19.499  1.00  0.00    -0.000 C 
BRANCH  14  15
ATOM     15  C   UNL     1     -24.914  28.658 -18.724  1.00  0.00    -0.000 C 
BRANCH  15  16
ATOM     16  C   UNL     1     -23.842  28.218 -17.713  1.00  0.00    -0.000 C 
BRANCH  16  17
ATOM     17  C   UNL     1     -23.084  29.409 -17.104  1.00  0.00    -0.003 C 
ATOM     18  C   UNL     1     -21.936  28.976 -16.191  1.00  0.00     0.004 C 
ENDBRANCH  16  17
ENDBRANCH  15  16
ENDBRANCH  14  15
ENDBRANCH  13  14
ENDBRANCH  12  13
ENDBRANCH  11  12
ENDBRANCH   1  11
TORSDOF 14
ENDMDL
MODEL 6
REMARK VINA RESULT:    -2.768     14.369     16.108
REMARK INTER + INTRA:          -6.490
REMARK INTER:                  -3.893
REMARK INTRA:                  -2.597
REMARK UNBOUND:                -1.456
REMARK SMILES CCCCCCCCCCCCCCCC(=O)[O-]
REMARK SMILES IDX 9 1 10 2 11 3 12 4 13 5 14 6 15 7 16 8 17 9 18 10 8 11 7 12
REMARK SMILES IDX 6 13 5 14 4 15 3 16 2 17 1 18
REMARK H PARENT
REMARK Flexibility Score: inf
ROOT
ATOM      1  C   UNL     1     -23.607  28.112 -21.630  1.00  0.00     0.000 C 
ENDROOT
BRANCH   1   2
ATOM      2  C   UNL     1     -22.132  27.680 -21.608  1.00  0.00     0.000 C 
BRANCH   2   3
ATOM      3  C   UNL     1     -21.216  28.734 -20.971  1.00  0.00     0.000 C 
BRANCH   3   4
ATOM      4  C   UNL     1     -20.331  28.107 -19.884  1.00  0.00     0.000 C 
BRANCH   4   5
ATOM      5  C   UNL     1     -20.095  29.044 -18.686  1.00  0.00     0.000 C 
BRANCH   5   6
ATOM      6  C   UNL     1     -19.481  28.371 -17.441  1.00  0.00     0.006 C 
BRANCH   6   7
ATOM      7  C   UNL     1     -20.067  28.851 -16.104  1.00  0.00     0.053 C 
BRANCH   7   8
ATOM      8  C   UNL     1     -19.336  30.041 -15.567  1.00  0.00     0.041 C 
ATOM      9  O   UNL     1     -19.805  30.688 -14.593  1.00  0.00    -0.550 OA
ATOM     10  O   UNL     1     -18.119  30.419 -16.120  1.00  0.00    -0.550 OA
ENDBRANCH   7   8
ENDBRANCH   6   7
ENDBRANCH   5   6
ENDBRANCH   4   5
ENDBRANCH   3   4
ENDBRANCH   2   3
ENDBRANCH   1   2
BRANCH   1  11
ATOM     11  C   UNL     1     -23.777  29.631 -21.778  1.00  0.00     0.000 C 
BRANCH  11  12
ATOM     12  C   UNL     1     -24.799  30.171 -20.770  1.00  0.00    -0.000 C 
BRANCH  12  13
ATOM     13  C   UNL     1     -24.877  29.273 -19.529  1.00  0.00    -0.000 C 
BRANCH  13  14
ATOM     14  C   UNL     1     -24.068  29.870 -18.368  1.00  0.00    -0.000 C 
BRANCH  14  15
ATOM     15  C   UNL     1     -23.598  28.805 -17.363  1.00  0.00    -0.000 C 
BRANCH  15  16
ATOM     16  C   UNL     1     -23.430  27.418 -18.007  1.00  0.00    -0.000 C 
BRANCH  16  17
ATOM     17  C   UNL     1     -22.794  26.397 -17.050  1.00  0.00    -0.003 C 
ATOM     18  C   UNL     1     -21.851  25.425 -17.760  1.00  0.00     0.004 C 
ENDBRANCH  16  17
ENDBRANCH  15  16
ENDBRANCH  14  15
ENDBRANCH  13  14
ENDBRANCH  12  13
ENDBRANCH  11  12
ENDBRANCH   1  11
TORSDOF 14
ENDMDL
MODEL 7
REMARK VINA RESULT:    -2.766      1.969      3.705
REMARK INTER + INTRA:          -6.487
REMARK INTER:                  -4.547
REMARK INTRA:                  -1.940
REMARK UNBOUND:                -1.456
REMARK SMILES CCCCCCCCCCCCCCCC(=O)[O-]
REMARK SMILES IDX 9 1 10 2 11 3 12 4 13 5 14 6 15 7 16 8 17 9 18 10 8 11 7 12
REMARK SMILES IDX 6 13 5 14 4 15 3 16 2 17 1 18
REMARK H PARENT
REMARK Flexibility Score: inf
ROOT
ATOM      1  C   UNL     1     -17.599  15.420 -21.652  1.00  0.00     0.000 C 
ENDROOT
BRANCH   1   2
ATOM      2  C   UNL     1     -16.517  14.539 -21.008  1.00  0.00     0.000 C 
BRANCH   2   3
ATOM      3  C   UNL     1     -16.929  14.012 -19.626  1.00  0.00     0.000 C 
BRANCH   3   4
ATOM      4  C   UNL     1     -18.416  13.627 -19.606  1.00  0.00     0.000 C 
BRANCH   4   5
ATOM      5  C   UNL     1     -19.085  13.884 -18.244  1.00  0.00     0.000 C 
BRANCH   5   6
ATOM      6  C   UNL     1     -20.215  12.901 -17.877  1.00  0.00     0.006 C 
BRANCH   6   7
ATOM      7  C   UNL     1     -21.629  13.408 -18.197  1.00  0.00     0.053 C 
BRANCH   7   8
ATOM      8  C   UNL     1     -22.507  13.423 -16.984  1.00  0.00     0.041 C 
ATOM      9  O   UNL     1     -23.288  14.390 -16.778  1.00  0.00    -0.550 OA
ATOM     10  O   UNL     1     -22.489  12.354 -16.098  1.00  0.00    -0.550 OA
ENDBRANCH   7   8
ENDBRANCH   6   7
ENDBRANCH   5   6
ENDBRANCH   4   5
ENDBRANCH   3   4
ENDBRANCH   2   3
ENDBRANCH   1   2
BRANCH   1  11
ATOM     11  C   UNL     1     -17.902  15.020 -23.104  1.00  0.00     0.000 C 
BRANCH  11  12
ATOM     12  C   UNL     1     -17.866  13.497 -23.273  1.00  0.00    -0.000 C 
BRANCH  12  13
ATOM     13  C   UNL     1     -18.462  13.076 -24.622  1.00  0.00    -0.000 C 
BRANCH  13  14
ATOM     14  C   UNL     1     -19.793  13.796 -24.884  1.00  0.00    -0.000 C 
BRANCH  14  15
ATOM     15  C   UNL     1     -21.000  13.043 -24.301  1.00  0.00    -0.000 C 
BRANCH  15  16
ATOM     16  C   UNL     1     -21.863  13.927 -23.385  1.00  0.00    -0.000 C 
BRANCH  16  17
ATOM     17  C   UNL     1     -21.315  14.001 -21.952  1.00  0.00    -0.003 C 
ATOM     18  C   UNL     1     -21.304  15.425 -21.394  1.00  0.00     0.004 C 
ENDBRANCH  16  17
ENDBRANCH  15  16
ENDBRANCH  14  15
ENDBRANCH  13  14
ENDBRANCH  12  13
ENDBRANCH  11  12
ENDBRANCH   1  11
TORSDOF 14
ENDMDL
MODEL 8
REMARK VINA RESULT:    -2.751     14.784     17.025
REMARK INTER + INTRA:          -6.458
REMARK INTER:                  -4.907
REMARK INTRA:                  -1.551
REMARK UNBOUND:                -1.456
REMARK SMILES CCCCCCCCCCCCCCCC(=O)[O-]
REMARK SMILES IDX 9 1 10 2 11 3 12 4 13 5 14 6 15 7 16 8 17 9 18 10 8 11 7 12
REMARK SMILES IDX 6 13 5 14 4 15 3 16 2 17 1 18
REMARK H PARENT
REMARK Flexibility Score: inf
ROOT
ATOM      1  C   UNL     1     -21.000  27.408 -20.665  1.00  0.00     0.000 C 
ENDROOT
BRANCH   1   2
ATOM      2  C   UNL     1     -20.622  28.554 -19.715  1.00  0.00     0.000 C 
BRANCH   2   3
ATOM      3  C   UNL     1     -19.109  28.812 -19.670  1.00  0.00     0.000 C 
BRANCH   3   4
ATOM      4  C   UNL     1     -18.555  29.074 -21.079  1.00  0.00     0.000 C 
BRANCH   4   5
ATOM      5  C   UNL     1     -17.275  28.274 -21.380  1.00  0.00     0.000 C 
BRANCH   5   6
ATOM      6  C   UNL     1     -16.886  28.201 -22.871  1.00  0.00     0.006 C 
BRANCH   6   7
ATOM      7  C   UNL     1     -16.660  29.565 -23.538  1.00  0.00     0.053 C 
BRANCH   7   8
ATOM      8  C   UNL     1     -15.238  29.751 -23.967  1.00  0.00     0.041 C 
ATOM      9  O   UNL     1     -14.675  28.887 -24.690  1.00  0.00    -0.550 OA
ATOM     10  O   UNL     1     -14.543  30.895 -23.595  1.00  0.00    -0.550 OA
ENDBRANCH   7   8
ENDBRANCH   6   7
ENDBRANCH   5   6
ENDBRANCH   4   5
ENDBRANCH   3   4
ENDBRANCH   2   3
ENDBRANCH   1   2
BRANCH   1  11
ATOM     11  C   UNL     1     -22.265  27.709 -21.483  1.00  0.00     0.000 C 
BRANCH  11  12
ATOM     12  C   UNL     1     -22.609  29.203 -21.434  1.00  0.00    -0.000 C 
BRANCH  12  13
ATOM     13  C   UNL     1     -24.088  29.440 -21.758  1.00  0.00    -0.000 C 
BRANCH  13  14
ATOM     14  C   UNL     1     -24.969  29.190 -20.524  1.00  0.00    -0.000 C 
BRANCH  14  15
ATOM     15  C   UNL     1     -24.411  29.851 -19.253  1.00  0.00    -0.000 C 
BRANCH  15  16
ATOM     16  C   UNL     1     -24.723  29.044 -17.981  1.00  0.00    -0.000 C 
BRANCH  16  17
ATOM     17  C   UNL     1     -23.453  28.529 -17.285  1.00  0.00    -0.003 C 
ATOM     18  C   UNL     1     -23.171  27.055 -17.580  1.00  0.00     0.004 C 
ENDBRANCH  16  17
ENDBRANCH  15  16
ENDBRANCH  14  15
ENDBRANCH  13  14
ENDBRANCH  12  13
ENDBRANCH  11  12
ENDBRANCH   1  11
TORSDOF 14
ENDMDL
MODEL 9
REMARK VINA RESULT:    -2.064     14.827     16.809
REMARK INTER + INTRA:          -5.210
REMARK INTER:                  -3.308
REMARK INTRA:                  -1.902
REMARK UNBOUND:                -1.456
REMARK SMILES CCCCCCCCCCCCCCCC(=O)[O-]
REMARK SMILES IDX 9 1 10 2 11 3 12 4 13 5 14 6 15 7 16 8 17 9 18 10 8 11 7 12
REMARK SMILES IDX 6 13 5 14 4 15 3 16 2 17 1 18
REMARK H PARENT
REMARK Flexibility Score: inf
ROOT
ATOM      1  C   UNL     1     -19.253  28.681 -18.255  1.00  0.00     0.000 C 
ENDROOT
BRANCH   1   2
ATOM      2  C   UNL     1     -18.476  29.996 -18.083  1.00  0.00     0.000 C 
BRANCH   2   3
ATOM      3  C   UNL     1     -16.958  29.781 -18.008  1.00  0.00     0.000 C 
BRANCH   3   4
ATOM      4  C   UNL     1     -16.220  30.748 -18.947  1.00  0.00     0.000 C 
BRANCH   4   5
ATOM      5  C   UNL     1     -17.045  31.125 -20.190  1.00  0.00     0.000 C 
BRANCH   5   6
ATOM      6  C   UNL     1     -16.792  30.247 -21.432  1.00  0.00     0.006 C 
BRANCH   6   7
ATOM      7  C   UNL     1     -17.925  29.263 -21.758  1.00  0.00     0.053 C 
BRANCH   7   8
ATOM      8  C   UNL     1     -17.568  27.855 -21.394  1.00  0.00     0.041 C 
ATOM      9  O   UNL     1     -18.345  26.907 -21.685  1.00  0.00    -0.550 OA
ATOM     10  O   UNL     1     -16.360  27.585 -20.764  1.00  0.00    -0.550 OA
ENDBRANCH   7   8
ENDBRANCH   6   7
ENDBRANCH   5   6
ENDBRANCH   4   5
ENDBRANCH   3   4
ENDBRANCH   2   3
ENDBRANCH   1   2
BRANCH   1  11
ATOM     11  C   UNL     1     -20.729  28.908 -18.616  1.00  0.00     0.000 C 
BRANCH  11  12
ATOM     12  C   UNL     1     -21.226  27.837 -19.595  1.00  0.00    -0.000 C 
BRANCH  12  13
ATOM     13  C   UNL     1     -21.455  28.429 -20.991  1.00  0.00    -0.000 C 
BRANCH  13  14
ATOM     14  C   UNL     1     -22.925  28.289 -21.413  1.00  0.00    -0.000 C 
BRANCH  14  15
ATOM     15  C   UNL     1     -23.561  29.632 -21.806  1.00  0.00    -0.000 C 
BRANCH  15  16
ATOM     16  C   UNL     1     -24.745  30.014 -20.902  1.00  0.00    -0.000 C 
BRANCH  16  17
ATOM     17  C   UNL     1     -24.787  29.186 -19.607  1.00  0.00    -0.003 C 
ATOM     18  C   UNL     1     -24.369  29.990 -18.375  1.00  0.00     0.004 C 
ENDBRANCH  16  17
ENDBRANCH  15  16
ENDBRANCH  14  15
ENDBRANCH  13  14
ENDBRANCH  12  13
ENDBRANCH  11  12
ENDBRANCH   1  11
TORSDOF 14
ENDMDL
