MODEL 1
REMARK VINA RESULT:    -7.016      0.000      0.000
REMARK INTER + INTRA:          -8.444
REMARK INTER:                  -8.247
REMARK INTRA:                  -0.198
REMARK UNBOUND:                -0.198
REMARK SMILES O=c1c(O)c(-c2ccc(O)cc2)oc2cc(O)cc(O)c12
REMARK SMILES IDX 5 1 3 2 2 3 1 4 21 5 19 6 18 7 16 8 15 9 14 10 13 11 6 12
REMARK SMILES IDX 7 13 8 14 9 15 12 16 11 17 10 18 4 20 20 22 17 24
REMARK H PARENT 10 19 4 21 20 23 17 25
REMARK Flexibility Score: inf
ROOT
ATOM      1  C   UNL     1     183.672 -19.472  24.473  1.00  0.00     0.180 A 
ATOM      2  C   UNL     1     183.409 -19.806  25.813  1.00  0.00     0.208 A 
ATOM      3  C   UNL     1     182.602 -20.921  26.091  1.00  0.00     0.238 A 
ATOM      4  O   UNL     1     182.416 -21.247  27.292  1.00  0.00    -0.285 OA
ATOM      5  C   UNL     1     182.054 -21.676  25.027  1.00  0.00     0.111 A 
ATOM      6  C   UNL     1     181.190 -22.801  25.191  1.00  0.00     0.134 A 
ATOM      7  C   UNL     1     180.813 -23.552  24.072  1.00  0.00     0.093 A 
ATOM      8  C   UNL     1     181.216 -23.182  22.787  1.00  0.00     0.123 A 
ATOM      9  C   UNL     1     182.010 -22.052  22.610  1.00  0.00     0.094 A 
ATOM     10  C   UNL     1     182.432 -21.303  23.711  1.00  0.00     0.146 A 
ATOM     11  O   UNL     1     183.197 -20.238  23.499  1.00  0.00    -0.452 OA
ENDROOT
BRANCH   1  12
ATOM     12  C   UNL     1     184.493 -18.296  24.101  1.00  0.00     0.021 A 
ATOM     13  C   UNL     1     185.730 -18.491  23.463  1.00  0.00     0.016 A 
ATOM     14  C   UNL     1     186.510 -17.394  23.083  1.00  0.00     0.047 A 
ATOM     15  C   UNL     1     186.057 -16.092  23.322  1.00  0.00     0.115 A 
ATOM     16  C   UNL     1     184.036 -16.984  24.319  1.00  0.00     0.016 A 
ATOM     17  C   UNL     1     184.818 -15.890  23.937  1.00  0.00     0.047 A 
BRANCH  15  18
ATOM     18  O   UNL     1     186.826 -14.992  22.947  1.00  0.00    -0.508 OA
ATOM     19  H   UNL     1     187.728 -15.104  22.499  1.00  0.00     0.293 HD
ENDBRANCH  15  18
ENDBRANCH   1  12
BRANCH   2  20
ATOM     20  O   UNL     1     183.979 -19.060  26.849  1.00  0.00    -0.502 OA
ATOM     21  H   UNL     1     184.455 -18.181  26.687  1.00  0.00     0.293 HD
ENDBRANCH   2  20
BRANCH   6  22
ATOM     22  O   UNL     1     180.657 -23.201  26.420  1.00  0.00    -0.507 OA
ATOM     23  H   UNL     1     179.818 -23.749  26.532  1.00  0.00     0.293 HD
ENDBRANCH   6  22
BRANCH   8  24
ATOM     24  O   UNL     1     180.823 -23.926  21.676  1.00  0.00    -0.508 OA
ATOM     25  H   UNL     1     179.845 -24.077  21.458  1.00  0.00     0.293 HD
ENDBRANCH   8  24
TORSDOF 5
ENDMDL
MODEL 2
REMARK VINA RESULT:    -6.864     11.159     13.744
REMARK INTER + INTRA:          -8.266
REMARK INTER:                  -7.972
REMARK INTRA:                  -0.294
REMARK UNBOUND:                -0.198
REMARK SMILES O=c1c(O)c(-c2ccc(O)cc2)oc2cc(O)cc(O)c12
REMARK SMILES IDX 5 1 3 2 2 3 1 4 21 5 19 6 18 7 16 8 15 9 14 10 13 11 6 12
REMARK SMILES IDX 7 13 8 14 9 15 12 16 11 17 10 18 4 20 20 22 17 24
REMARK H PARENT 10 19 4 21 20 23 17 25
REMARK Flexibility Score: inf
ROOT
ATOM      1  C   UNL     1     183.060 -25.161  35.431  1.00  0.00     0.180 A 
ATOM      2  C   UNL     1     183.484 -23.946  35.998  1.00  0.00     0.208 A 
ATOM      3  C   UNL     1     183.434 -23.791  37.392  1.00  0.00     0.238 A 
ATOM      4  O   UNL     1     183.866 -22.722  37.896  1.00  0.00    -0.285 OA
ATOM      5  C   UNL     1     182.946 -24.845  38.201  1.00  0.00     0.111 A 
ATOM      6  C   UNL     1     182.813 -24.782  39.622  1.00  0.00     0.134 A 
ATOM      7  C   UNL     1     182.443 -25.931  40.332  1.00  0.00     0.093 A 
ATOM      8  C   UNL     1     182.137 -27.121  39.668  1.00  0.00     0.123 A 
ATOM      9  C   UNL     1     182.206 -27.175  38.278  1.00  0.00     0.094 A 
ATOM     10  C   UNL     1     182.607 -26.056  37.544  1.00  0.00     0.146 A 
ATOM     11  O   UNL     1     182.669 -26.154  36.221  1.00  0.00    -0.452 OA
ENDROOT
BRANCH   1  12
ATOM     12  C   UNL     1     183.059 -25.391  33.968  1.00  0.00     0.021 A 
ATOM     13  C   UNL     1     184.196 -25.942  33.354  1.00  0.00     0.016 A 
ATOM     14  C   UNL     1     184.207 -26.188  31.977  1.00  0.00     0.047 A 
ATOM     15  C   UNL     1     183.079 -25.899  31.201  1.00  0.00     0.115 A 
ATOM     16  C   UNL     1     181.922 -25.122  33.185  1.00  0.00     0.016 A 
ATOM     17  C   UNL     1     181.937 -25.370  31.809  1.00  0.00     0.047 A 
BRANCH  15  18
ATOM     18  O   UNL     1     183.079 -26.140  29.829  1.00  0.00    -0.508 OA
ATOM     19  H   UNL     1     183.100 -25.381  29.158  1.00  0.00     0.293 HD
ENDBRANCH  15  18
ENDBRANCH   1  12
BRANCH   2  20
ATOM     20  O   UNL     1     183.983 -22.927  35.182  1.00  0.00    -0.502 OA
ATOM     21  H   UNL     1     184.957 -22.651  35.192  1.00  0.00     0.293 HD
ENDBRANCH   2  20
BRANCH   6  22
ATOM     22  O   UNL     1     183.007 -23.619  40.372  1.00  0.00    -0.507 OA
ATOM     23  H   UNL     1     182.730 -22.694  40.080  1.00  0.00     0.293 HD
ENDBRANCH   6  22
BRANCH   8  24
ATOM     24  O   UNL     1     181.753 -28.254  40.381  1.00  0.00    -0.508 OA
ATOM     25  H   UNL     1     181.487 -28.201  41.359  1.00  0.00     0.293 HD
ENDBRANCH   8  24
TORSDOF 5
ENDMDL
MODEL 3
REMARK VINA RESULT:    -6.860      6.059      8.659
REMARK INTER + INTRA:          -8.261
REMARK INTER:                  -7.981
REMARK INTRA:                  -0.280
REMARK UNBOUND:                -0.198
REMARK SMILES O=c1c(O)c(-c2ccc(O)cc2)oc2cc(O)cc(O)c12
REMARK SMILES IDX 5 1 3 2 2 3 1 4 21 5 19 6 18 7 16 8 15 9 14 10 13 11 6 12
REMARK SMILES IDX 7 13 8 14 9 15 12 16 11 17 10 18 4 20 20 22 17 24
REMARK H PARENT 10 19 4 21 20 23 17 25
REMARK Flexibility Score: inf
ROOT
ATOM      1  C   UNL     1     179.882 -14.563  26.768  1.00  0.00     0.180 A 
ATOM      2  C   UNL     1     179.827 -15.858  26.224  1.00  0.00     0.208 A 
ATOM      3  C   UNL     1     181.006 -16.441  25.732  1.00  0.00     0.238 A 
ATOM      4  O   UNL     1     180.959 -17.621  25.296  1.00  0.00    -0.285 OA
ATOM      5  C   UNL     1     182.220 -15.716  25.773  1.00  0.00     0.111 A 
ATOM      6  C   UNL     1     183.467 -16.191  25.266  1.00  0.00     0.134 A 
ATOM      7  C   UNL     1     184.631 -15.442  25.479  1.00  0.00     0.093 A 
ATOM      8  C   UNL     1     184.583 -14.204  26.123  1.00  0.00     0.123 A 
ATOM      9  C   UNL     1     183.362 -13.703  26.570  1.00  0.00     0.094 A 
ATOM     10  C   UNL     1     182.189 -14.444  26.404  1.00  0.00     0.146 A 
ATOM     11  O   UNL     1     181.048 -13.934  26.853  1.00  0.00    -0.452 OA
ENDROOT
BRANCH   1  12
ATOM     12  C   UNL     1     178.677 -13.872  27.284  1.00  0.00     0.021 A 
ATOM     13  C   UNL     1     178.271 -14.089  28.611  1.00  0.00     0.016 A 
ATOM     14  C   UNL     1     177.150 -13.430  29.125  1.00  0.00     0.047 A 
ATOM     15  C   UNL     1     176.430 -12.537  28.323  1.00  0.00     0.115 A 
ATOM     16  C   UNL     1     177.960 -12.959  26.491  1.00  0.00     0.016 A 
ATOM     17  C   UNL     1     176.840 -12.301  27.007  1.00  0.00     0.047 A 
BRANCH  15  18
ATOM     18  O   UNL     1     175.311 -11.875  28.824  1.00  0.00    -0.508 OA
ATOM     19  H   UNL     1     174.543 -12.381  29.249  1.00  0.00     0.293 HD
ENDBRANCH  15  18
ENDBRANCH   1  12
BRANCH   2  20
ATOM     20  O   UNL     1     178.621 -16.565  26.213  1.00  0.00    -0.502 OA
ATOM     21  H   UNL     1     178.557 -17.536  26.493  1.00  0.00     0.293 HD
ENDBRANCH   2  20
BRANCH   6  22
ATOM     22  O   UNL     1     183.609 -17.371  24.529  1.00  0.00    -0.507 OA
ATOM     23  H   UNL     1     184.314 -17.527  23.825  1.00  0.00     0.293 HD
ENDBRANCH   6  22
BRANCH   8  24
ATOM     24  O   UNL     1     185.743 -13.458  26.317  1.00  0.00    -0.508 OA
ATOM     25  H   UNL     1     186.659 -13.836  26.101  1.00  0.00     0.293 HD
ENDBRANCH   8  24
TORSDOF 5
ENDMDL
MODEL 4
REMARK VINA RESULT:    -6.628      3.603      7.397
REMARK INTER + INTRA:          -7.989
REMARK INTER:                  -7.693
REMARK INTRA:                  -0.296
REMARK UNBOUND:                -0.198
REMARK SMILES O=c1c(O)c(-c2ccc(O)cc2)oc2cc(O)cc(O)c12
REMARK SMILES IDX 5 1 3 2 2 3 1 4 21 5 19 6 18 7 16 8 15 9 14 10 13 11 6 12
REMARK SMILES IDX 7 13 8 14 9 15 12 16 11 17 10 18 4 20 20 22 17 24
REMARK H PARENT 10 19 4 21 20 23 17 25
REMARK Flexibility Score: inf
ROOT
ATOM      1  C   UNL     1     181.037 -18.275  25.800  1.00  0.00     0.180 A 
ATOM      2  C   UNL     1     179.900 -17.470  25.992  1.00  0.00     0.208 A 
ATOM      3  C   UNL     1     180.071 -16.131  26.379  1.00  0.00     0.238 A 
ATOM      4  O   UNL     1     179.052 -15.402  26.495  1.00  0.00    -0.285 OA
ATOM      5  C   UNL     1     181.374 -15.619  26.587  1.00  0.00     0.111 A 
ATOM      6  C   UNL     1     181.663 -14.289  27.020  1.00  0.00     0.134 A 
ATOM      7  C   UNL     1     182.992 -13.852  27.066  1.00  0.00     0.093 A 
ATOM      8  C   UNL     1     184.046 -14.715  26.758  1.00  0.00     0.123 A 
ATOM      9  C   UNL     1     183.777 -16.032  26.392  1.00  0.00     0.094 A 
ATOM     10  C   UNL     1     182.460 -16.487  26.302  1.00  0.00     0.146 A 
ATOM     11  O   UNL     1     182.247 -17.747  25.940  1.00  0.00    -0.452 OA
ENDROOT
BRANCH   1  12
ATOM     12  C   UNL     1     180.937 -19.702  25.417  1.00  0.00     0.021 A 
ATOM     13  C   UNL     1     180.957 -20.055  24.057  1.00  0.00     0.016 A 
ATOM     14  C   UNL     1     180.887 -21.399  23.674  1.00  0.00     0.047 A 
ATOM     15  C   UNL     1     180.808 -22.404  24.645  1.00  0.00     0.115 A 
ATOM     16  C   UNL     1     180.878 -20.719  26.386  1.00  0.00     0.016 A 
ATOM     17  C   UNL     1     180.808 -22.061  26.000  1.00  0.00     0.047 A 
BRANCH  15  18
ATOM     18  O   UNL     1     180.737 -23.745  24.275  1.00  0.00    -0.508 OA
ATOM     19  H   UNL     1     180.999 -24.053  23.345  1.00  0.00     0.293 HD
ENDBRANCH  15  18
ENDBRANCH   1  12
BRANCH   2  20
ATOM     20  O   UNL     1     178.624 -17.990  25.759  1.00  0.00    -0.502 OA
ATOM     21  H   UNL     1     177.785 -17.559  26.129  1.00  0.00     0.293 HD
ENDBRANCH   2  20
BRANCH   6  22
ATOM     22  O   UNL     1     180.690 -13.377  27.437  1.00  0.00    -0.507 OA
ATOM     23  H   UNL     1     180.646 -12.411  27.148  1.00  0.00     0.293 HD
ENDBRANCH   6  22
BRANCH   8  24
ATOM     24  O   UNL     1     185.366 -14.276  26.821  1.00  0.00    -0.508 OA
ATOM     25  H   UNL     1     186.084 -14.820  27.288  1.00  0.00     0.293 HD
ENDBRANCH   8  24
TORSDOF 5
ENDMDL
MODEL 5
REMARK VINA RESULT:    -6.615      4.254      5.719
REMARK INTER + INTRA:          -7.973
REMARK INTER:                  -7.684
REMARK INTRA:                  -0.289
REMARK UNBOUND:                -0.198
REMARK SMILES O=c1c(O)c(-c2ccc(O)cc2)oc2cc(O)cc(O)c12
REMARK SMILES IDX 5 1 3 2 2 3 1 4 21 5 19 6 18 7 16 8 15 9 14 10 13 11 6 12
REMARK SMILES IDX 7 13 8 14 9 15 12 16 11 17 10 18 4 20 20 22 17 24
REMARK H PARENT 10 19 4 21 20 23 17 25
REMARK Flexibility Score: inf
ROOT
ATOM      1  C   UNL     1     180.316 -18.038  26.439  1.00  0.00     0.180 A 
ATOM      2  C   UNL     1     179.561 -18.927  25.655  1.00  0.00     0.208 A 
ATOM      3  C   UNL     1     180.145 -20.134  25.239  1.00  0.00     0.238 A 
ATOM      4  O   UNL     1     179.444 -20.949  24.583  1.00  0.00    -0.285 OA
ATOM      5  C   UNL     1     181.482 -20.430  25.597  1.00  0.00     0.111 A 
ATOM      6  C   UNL     1     182.188 -21.604  25.196  1.00  0.00     0.134 A 
ATOM      7  C   UNL     1     183.463 -21.855  25.718  1.00  0.00     0.093 A 
ATOM      8  C   UNL     1     184.084 -20.942  26.573  1.00  0.00     0.123 A 
ATOM      9  C   UNL     1     183.427 -19.765  26.923  1.00  0.00     0.094 A 
ATOM     10  C   UNL     1     182.140 -19.503  26.447  1.00  0.00     0.146 A 
ATOM     11  O   UNL     1     181.545 -18.374  26.813  1.00  0.00    -0.452 OA
ENDROOT
BRANCH   1  12
ATOM     12  C   UNL     1     179.779 -16.735  26.894  1.00  0.00     0.021 A 
ATOM     13  C   UNL     1     179.931 -15.602  26.078  1.00  0.00     0.016 A 
ATOM     14  C   UNL     1     179.411 -14.366  26.479  1.00  0.00     0.047 A 
ATOM     15  C   UNL     1     178.722 -14.253  27.692  1.00  0.00     0.115 A 
ATOM     16  C   UNL     1     179.068 -16.617  28.102  1.00  0.00     0.016 A 
ATOM     17  C   UNL     1     178.549 -15.381  28.499  1.00  0.00     0.047 A 
BRANCH  15  18
ATOM     18  O   UNL     1     178.201 -13.028  28.101  1.00  0.00    -0.508 OA
ATOM     19  H   UNL     1     178.550 -12.552  28.925  1.00  0.00     0.293 HD
ENDBRANCH  15  18
ENDBRANCH   1  12
BRANCH   2  20
ATOM     20  O   UNL     1     178.235 -18.625  25.331  1.00  0.00    -0.502 OA
ATOM     21  H   UNL     1     177.977 -17.795  24.812  1.00  0.00     0.293 HD
ENDBRANCH   2  20
BRANCH   6  22
ATOM     22  O   UNL     1     181.695 -22.534  24.276  1.00  0.00    -0.507 OA
ATOM     23  H   UNL     1     181.550 -23.513  24.470  1.00  0.00     0.293 HD
ENDBRANCH   6  22
BRANCH   8  24
ATOM     24  O   UNL     1     185.359 -21.192  27.075  1.00  0.00    -0.508 OA
ATOM     25  H   UNL     1     185.707 -20.716  27.900  1.00  0.00     0.293 HD
ENDBRANCH   8  24
TORSDOF 5
ENDMDL
MODEL 6
REMARK VINA RESULT:    -6.553      1.732      3.194
REMARK INTER + INTRA:          -7.901
REMARK INTER:                  -7.667
REMARK INTRA:                  -0.233
REMARK UNBOUND:                -0.198
REMARK SMILES O=c1c(O)c(-c2ccc(O)cc2)oc2cc(O)cc(O)c12
REMARK SMILES IDX 5 1 3 2 2 3 1 4 21 5 19 6 18 7 16 8 15 9 14 10 13 11 6 12
REMARK SMILES IDX 7 13 8 14 9 15 12 16 11 17 10 18 4 20 20 22 17 24
REMARK H PARENT 10 19 4 21 20 23 17 25
REMARK Flexibility Score: inf
ROOT
ATOM      1  C   UNL     1     183.097 -19.842  24.819  1.00  0.00     0.180 A 
ATOM      2  C   UNL     1     181.896 -20.055  24.120  1.00  0.00     0.208 A 
ATOM      3  C   UNL     1     180.952 -20.953  24.645  1.00  0.00     0.238 A 
ATOM      4  O   UNL     1     179.857 -21.097  24.042  1.00  0.00    -0.285 OA
ATOM      5  C   UNL     1     181.228 -21.638  25.852  1.00  0.00     0.111 A 
ATOM      6  C   UNL     1     180.362 -22.600  26.454  1.00  0.00     0.134 A 
ATOM      7  C   UNL     1     180.677 -23.118  27.716  1.00  0.00     0.093 A 
ATOM      8  C   UNL     1     181.858 -22.759  28.368  1.00  0.00     0.123 A 
ATOM      9  C   UNL     1     182.739 -21.867  27.762  1.00  0.00     0.094 A 
ATOM     10  C   UNL     1     182.435 -21.305  26.520  1.00  0.00     0.146 A 
ATOM     11  O   UNL     1     183.298 -20.450  25.981  1.00  0.00    -0.452 OA
ENDROOT
BRANCH   1  12
ATOM     12  C   UNL     1     184.151 -18.931  24.316  1.00  0.00     0.021 A 
ATOM     13  C   UNL     1     185.288 -19.468  23.690  1.00  0.00     0.016 A 
ATOM     14  C   UNL     1     186.285 -18.625  23.188  1.00  0.00     0.047 A 
ATOM     15  C   UNL     1     186.150 -17.236  23.294  1.00  0.00     0.115 A 
ATOM     16  C   UNL     1     184.014 -17.534  24.401  1.00  0.00     0.016 A 
ATOM     17  C   UNL     1     185.012 -16.694  23.898  1.00  0.00     0.047 A 
BRANCH  15  18
ATOM     18  O   UNL     1     187.137 -16.386  22.798  1.00  0.00    -0.508 OA
ATOM     19  H   UNL     1     187.975 -16.181  23.329  1.00  0.00     0.293 HD
ENDBRANCH  15  18
ENDBRANCH   1  12
BRANCH   2  20
ATOM     20  O   UNL     1     181.635 -19.351  22.941  1.00  0.00    -0.502 OA
ATOM     21  H   UNL     1     182.304 -18.713  22.529  1.00  0.00     0.293 HD
ENDBRANCH   2  20
BRANCH   6  22
ATOM     22  O   UNL     1     179.204 -23.095  25.846  1.00  0.00    -0.507 OA
ATOM     23  H   UNL     1     178.642 -23.849  26.209  1.00  0.00     0.293 HD
ENDBRANCH   6  22
BRANCH   8  24
ATOM     24  O   UNL     1     182.171 -23.292  29.617  1.00  0.00    -0.508 OA
ATOM     25  H   UNL     1     183.066 -23.735  29.795  1.00  0.00     0.293 HD
ENDBRANCH   8  24
TORSDOF 5
ENDMDL
MODEL 7
REMARK VINA RESULT:    -6.546      2.024      6.980
REMARK INTER + INTRA:          -7.891
REMARK INTER:                  -7.602
REMARK INTRA:                  -0.289
REMARK UNBOUND:                -0.198
REMARK SMILES O=c1c(O)c(-c2ccc(O)cc2)oc2cc(O)cc(O)c12
REMARK SMILES IDX 5 1 3 2 2 3 1 4 21 5 19 6 18 7 16 8 15 9 14 10 13 11 6 12
REMARK SMILES IDX 7 13 8 14 9 15 12 16 11 17 10 18 4 20 20 22 17 24
REMARK H PARENT 10 19 4 21 20 23 17 25
REMARK Flexibility Score: inf
ROOT
ATOM      1  C   UNL     1     183.359 -18.028  24.675  1.00  0.00     0.180 A 
ATOM      2  C   UNL     1     182.958 -17.263  25.784  1.00  0.00     0.208 A 
ATOM      3  C   UNL     1     183.624 -16.059  26.059  1.00  0.00     0.238 A 
ATOM      4  O   UNL     1     183.224 -15.353  27.021  1.00  0.00    -0.285 OA
ATOM      5  C   UNL     1     184.695 -15.642  25.232  1.00  0.00     0.111 A 
ATOM      6  C   UNL     1     185.469 -14.460  25.441  1.00  0.00     0.134 A 
ATOM      7  C   UNL     1     186.418 -14.079  24.485  1.00  0.00     0.093 A 
ATOM      8  C   UNL     1     186.668 -14.870  23.362  1.00  0.00     0.123 A 
ATOM      9  C   UNL     1     185.961 -16.056  23.180  1.00  0.00     0.094 A 
ATOM     10  C   UNL     1     184.982 -16.445  24.097  1.00  0.00     0.146 A 
ATOM     11  O   UNL     1     184.323 -17.578  23.881  1.00  0.00    -0.452 OA
ENDROOT
BRANCH   1  12
ATOM     12  C   UNL     1     182.721 -19.321  24.335  1.00  0.00     0.021 A 
ATOM     13  C   UNL     1     183.213 -20.505  24.909  1.00  0.00     0.016 A 
ATOM     14  C   UNL     1     182.611 -21.734  24.619  1.00  0.00     0.047 A 
ATOM     15  C   UNL     1     181.504 -21.792  23.765  1.00  0.00     0.115 A 
ATOM     16  C   UNL     1     181.596 -19.385  23.494  1.00  0.00     0.016 A 
ATOM     17  C   UNL     1     180.997 -20.615  23.208  1.00  0.00     0.047 A 
BRANCH  15  18
ATOM     18  O   UNL     1     180.897 -23.011  23.469  1.00  0.00    -0.508 OA
ATOM     19  H   UNL     1     180.903 -23.391  22.531  1.00  0.00     0.293 HD
ENDBRANCH  15  18
ENDBRANCH   1  12
BRANCH   2  20
ATOM     20  O   UNL     1     181.883 -17.682  26.574  1.00  0.00    -0.502 OA
ATOM     21  H   UNL     1     181.710 -17.308  27.499  1.00  0.00     0.293 HD
ENDBRANCH   2  20
BRANCH   6  22
ATOM     22  O   UNL     1     185.361 -13.649  26.574  1.00  0.00    -0.507 OA
ATOM     23  H   UNL     1     184.645 -13.737  27.278  1.00  0.00     0.293 HD
ENDBRANCH   6  22
BRANCH   8  24
ATOM     24  O   UNL     1     187.626 -14.491  22.424  1.00  0.00    -0.508 OA
ATOM     25  H   UNL     1     188.611 -14.690  22.561  1.00  0.00     0.293 HD
ENDBRANCH   8  24
TORSDOF 5
ENDMDL
MODEL 8
REMARK VINA RESULT:    -6.542      3.477      4.114
REMARK INTER + INTRA:          -7.887
REMARK INTER:                  -7.598
REMARK INTRA:                  -0.289
REMARK UNBOUND:                -0.198
REMARK SMILES O=c1c(O)c(-c2ccc(O)cc2)oc2cc(O)cc(O)c12
REMARK SMILES IDX 5 1 3 2 2 3 1 4 21 5 19 6 18 7 16 8 15 9 14 10 13 11 6 12
REMARK SMILES IDX 7 13 8 14 9 15 12 16 11 17 10 18 4 20 20 22 17 24
REMARK H PARENT 10 19 4 21 20 23 17 25
REMARK Flexibility Score: inf
ROOT
ATOM      1  C   UNL     1     180.738 -18.205  26.373  1.00  0.00     0.180 A 
ATOM      2  C   UNL     1     180.112 -19.048  27.307  1.00  0.00     0.208 A 
ATOM      3  C   UNL     1     179.849 -20.381  26.952  1.00  0.00     0.238 A 
ATOM      4  O   UNL     1     179.339 -21.145  27.812  1.00  0.00    -0.285 OA
ATOM      5  C   UNL     1     180.199 -20.849  25.662  1.00  0.00     0.111 A 
ATOM      6  C   UNL     1     179.942 -22.168  25.181  1.00  0.00     0.134 A 
ATOM      7  C   UNL     1     180.449 -22.560  23.936  1.00  0.00     0.093 A 
ATOM      8  C   UNL     1     181.146 -21.660  23.127  1.00  0.00     0.123 A 
ATOM      9  C   UNL     1     181.351 -20.353  23.562  1.00  0.00     0.094 A 
ATOM     10  C   UNL     1     180.888 -19.943  24.814  1.00  0.00     0.146 A 
ATOM     11  O   UNL     1     181.113 -18.690  25.195  1.00  0.00    -0.452 OA
ENDROOT
BRANCH   1  12
ATOM     12  C   UNL     1     181.025 -16.781  26.664  1.00  0.00     0.021 A 
ATOM     13  C   UNL     1     180.057 -15.806  26.368  1.00  0.00     0.016 A 
ATOM     14  C   UNL     1     180.299 -14.459  26.656  1.00  0.00     0.047 A 
ATOM     15  C   UNL     1     181.504 -14.073  27.254  1.00  0.00     0.115 A 
ATOM     16  C   UNL     1     182.224 -16.387  27.284  1.00  0.00     0.016 A 
ATOM     17  C   UNL     1     182.462 -15.040  27.570  1.00  0.00     0.047 A 
BRANCH  15  18
ATOM     18  O   UNL     1     181.755 -12.733  27.545  1.00  0.00    -0.508 OA
ATOM     19  H   UNL     1     181.934 -12.057  26.812  1.00  0.00     0.293 HD
ENDBRANCH  15  18
ENDBRANCH   1  12
BRANCH   2  20
ATOM     20  O   UNL     1     179.796 -18.572  28.582  1.00  0.00    -0.502 OA
ATOM     21  H   UNL     1     180.383 -18.745  29.388  1.00  0.00     0.293 HD
ENDBRANCH   2  20
BRANCH   6  22
ATOM     22  O   UNL     1     179.179 -23.114  25.870  1.00  0.00    -0.507 OA
ATOM     23  H   UNL     1     178.181 -23.058  26.009  1.00  0.00     0.293 HD
ENDBRANCH   6  22
BRANCH   8  24
ATOM     24  O   UNL     1     181.634 -22.053  21.882  1.00  0.00    -0.508 OA
ATOM     25  H   UNL     1     182.382 -22.733  21.796  1.00  0.00     0.293 HD
ENDBRANCH   8  24
TORSDOF 5
ENDMDL
MODEL 9
REMARK VINA RESULT:    -6.410      3.739      5.595
REMARK INTER + INTRA:          -7.731
REMARK INTER:                  -7.432
REMARK INTRA:                  -0.299
REMARK UNBOUND:                -0.198
REMARK SMILES O=c1c(O)c(-c2ccc(O)cc2)oc2cc(O)cc(O)c12
REMARK SMILES IDX 5 1 3 2 2 3 1 4 21 5 19 6 18 7 16 8 15 9 14 10 13 11 6 12
REMARK SMILES IDX 7 13 8 14 9 15 12 16 11 17 10 18 4 20 20 22 17 24
REMARK H PARENT 10 19 4 21 20 23 17 25
REMARK Flexibility Score: inf
ROOT
ATOM      1  C   UNL     1     183.464 -20.006  28.101  1.00  0.00     0.180 A 
ATOM      2  C   UNL     1     184.065 -20.794  27.104  1.00  0.00     0.208 A 
ATOM      3  C   UNL     1     183.359 -21.045  25.916  1.00  0.00     0.238 A 
ATOM      4  O   UNL     1     183.925 -21.704  25.006  1.00  0.00    -0.285 OA
ATOM      5  C   UNL     1     182.055 -20.521  25.748  1.00  0.00     0.111 A 
ATOM      6  C   UNL     1     181.232 -20.745  24.603  1.00  0.00     0.134 A 
ATOM      7  C   UNL     1     180.012 -20.069  24.487  1.00  0.00     0.093 A 
ATOM      8  C   UNL     1     179.554 -19.229  25.503  1.00  0.00     0.123 A 
ATOM      9  C   UNL     1     180.322 -19.049  26.651  1.00  0.00     0.094 A 
ATOM     10  C   UNL     1     181.561 -19.681  26.780  1.00  0.00     0.146 A 
ATOM     11  O   UNL     1     182.266 -19.475  27.886  1.00  0.00    -0.452 OA
ENDROOT
BRANCH   1  12
ATOM     12  C   UNL     1     184.134 -19.719  29.390  1.00  0.00     0.021 A 
ATOM     13  C   UNL     1     184.865 -18.528  29.539  1.00  0.00     0.016 A 
ATOM     14  C   UNL     1     185.487 -18.227  30.755  1.00  0.00     0.047 A 
ATOM     15  C   UNL     1     185.375 -19.105  31.839  1.00  0.00     0.115 A 
ATOM     16  C   UNL     1     184.010 -20.586  30.490  1.00  0.00     0.016 A 
ATOM     17  C   UNL     1     184.633 -20.281  31.704  1.00  0.00     0.047 A 
BRANCH  15  18
ATOM     18  O   UNL     1     185.991 -18.815  33.055  1.00  0.00    -0.508 OA
ATOM     19  H   UNL     1     185.489 -18.360  33.808  1.00  0.00     0.293 HD
ENDBRANCH  15  18
ENDBRANCH   1  12
BRANCH   2  20
ATOM     20  O   UNL     1     185.362 -21.283  27.282  1.00  0.00    -0.502 OA
ATOM     21  H   UNL     1     186.031 -20.838  27.898  1.00  0.00     0.293 HD
ENDBRANCH   2  20
BRANCH   6  22
ATOM     22  O   UNL     1     181.554 -21.635  23.574  1.00  0.00    -0.507 OA
ATOM     23  H   UNL     1     181.204 -22.578  23.499  1.00  0.00     0.293 HD
ENDBRANCH   6  22
BRANCH   8  24
ATOM     24  O   UNL     1     178.331 -18.572  25.386  1.00  0.00    -0.508 OA
ATOM     25  H   UNL     1     178.276 -17.565  25.288  1.00  0.00     0.293 HD
ENDBRANCH   8  24
TORSDOF 5
ENDMDL
