MODEL 1
REMARK VINA RESULT:    -2.599      0.000      0.000
REMARK INTER + INTRA:          -9.858
REMARK INTER:                  -5.638
REMARK INTRA:                  -4.220
REMARK UNBOUND:                -4.220
REMARK SMILES CCCCCCCCCCCCCCCCCCCCCC(=O)[O-]
REMARK SMILES IDX 12 1 11 2 10 3 9 4 8 5 7 6 6 7 5 8 4 9 3 10 2 11 1 12 13 13
REMARK SMILES IDX 14 14 15 15 16 16 17 17 18 18 19 19 20 20 21 21 22 22 23 23
REMARK SMILES IDX 24 24
REMARK H PARENT
REMARK Flexibility Score: inf
ROOT
ATOM      1  C   UNL     1     149.686 164.545 154.648  1.00  0.00     0.000 C 
ENDROOT
BRANCH   1   2
ATOM      2  C   UNL     1     150.287 164.283 153.257  1.00  0.00     0.000 C 
BRANCH   2   3
ATOM      3  C   UNL     1     149.656 165.171 152.169  1.00  0.00     0.000 C 
BRANCH   3   4
ATOM      4  C   UNL     1     148.672 166.203 152.743  1.00  0.00    -0.000 C 
BRANCH   4   5
ATOM      5  C   UNL     1     147.542 166.554 151.763  1.00  0.00    -0.000 C 
BRANCH   5   6
ATOM      6  C   UNL     1     148.014 167.447 150.602  1.00  0.00    -0.000 C 
BRANCH   6   7
ATOM      7  C   UNL     1     147.846 166.794 149.214  1.00  0.00    -0.000 C 
BRANCH   7   8
ATOM      8  C   UNL     1     147.119 165.440 149.295  1.00  0.00    -0.000 C 
BRANCH   8   9
ATOM      9  C   UNL     1     148.006 164.267 148.847  1.00  0.00    -0.000 C 
BRANCH   9  10
ATOM     10  C   UNL     1     149.420 164.726 148.445  1.00  0.00    -0.000 C 
BRANCH  10  11
ATOM     11  C   UNL     1     150.517 163.793 148.981  1.00  0.00    -0.003 C 
ATOM     12  C   UNL     1     150.783 162.601 148.062  1.00  0.00     0.004 C 
ENDBRANCH  10  11
ENDBRANCH   9  10
ENDBRANCH   8   9
ENDBRANCH   7   8
ENDBRANCH   6   7
ENDBRANCH   5   6
ENDBRANCH   4   5
ENDBRANCH   3   4
ENDBRANCH   2   3
ENDBRANCH   1   2
BRANCH   1  13
ATOM     13  C   UNL     1     149.118 163.268 155.293  1.00  0.00     0.000 C 
BRANCH  13  14
ATOM     14  C   UNL     1     147.621 163.388 155.617  1.00  0.00     0.000 C 
BRANCH  14  15
ATOM     15  C   UNL     1     146.746 162.497 154.719  1.00  0.00     0.000 C 
BRANCH  15  16
ATOM     16  C   UNL     1     146.116 163.270 153.546  1.00  0.00     0.000 C 
BRANCH  16  17
ATOM     17  C   UNL     1     146.754 162.990 152.174  1.00  0.00     0.000 C 
BRANCH  17  18
ATOM     18  C   UNL     1     147.384 161.590 152.079  1.00  0.00     0.000 C 
BRANCH  18  19
ATOM     19  C   UNL     1     148.696 161.600 151.269  1.00  0.00     0.000 C 
BRANCH  19  20
ATOM     20  C   UNL     1     149.751 160.600 151.776  1.00  0.00     0.006 C 
BRANCH  20  21
ATOM     21  C   UNL     1     149.807 160.466 153.309  1.00  0.00     0.053 C 
BRANCH  21  22
ATOM     22  C   UNL     1     150.488 159.208 153.764  1.00  0.00     0.041 C 
ATOM     23  O   UNL     1     151.179 158.531 152.958  1.00  0.00    -0.550 OA
ATOM     24  O   UNL     1     150.414 158.821 155.095  1.00  0.00    -0.550 OA
ENDBRANCH  21  22
ENDBRANCH  20  21
ENDBRANCH  19  20
ENDBRANCH  18  19
ENDBRANCH  17  18
ENDBRANCH  16  17
ENDBRANCH  15  16
ENDBRANCH  14  15
ENDBRANCH  13  14
ENDBRANCH   1  13
TORSDOF 20
ENDMDL
MODEL 2
REMARK VINA RESULT:    -2.565      1.756      4.437
REMARK INTER + INTRA:          -9.783
REMARK INTER:                  -6.120
REMARK INTRA:                  -3.663
REMARK UNBOUND:                -4.220
REMARK SMILES CCCCCCCCCCCCCCCCCCCCCC(=O)[O-]
REMARK SMILES IDX 12 1 11 2 10 3 9 4 8 5 7 6 6 7 5 8 4 9 3 10 2 11 1 12 13 13
REMARK SMILES IDX 14 14 15 15 16 16 17 17 18 18 19 19 20 20 21 21 22 22 23 23
REMARK SMILES IDX 24 24
REMARK H PARENT
REMARK Flexibility Score: inf
ROOT
ATOM      1  C   UNL     1     150.309 164.039 153.850  1.00  0.00     0.000 C 
ENDROOT
BRANCH   1   2
ATOM      2  C   UNL     1     149.415 165.131 154.461  1.00  0.00     0.000 C 
BRANCH   2   3
ATOM      3  C   UNL     1     148.427 165.720 153.438  1.00  0.00     0.000 C 
BRANCH   3   4
ATOM      4  C   UNL     1     146.997 165.831 153.991  1.00  0.00    -0.000 C 
BRANCH   4   5
ATOM      5  C   UNL     1     146.955 165.846 155.528  1.00  0.00    -0.000 C 
BRANCH   5   6
ATOM      6  C   UNL     1     146.175 164.657 156.116  1.00  0.00    -0.000 C 
BRANCH   6   7
ATOM      7  C   UNL     1     145.876 163.546 155.088  1.00  0.00    -0.000 C 
BRANCH   7   8
ATOM      8  C   UNL     1     146.934 162.429 155.117  1.00  0.00    -0.000 C 
BRANCH   8   9
ATOM      9  C   UNL     1     147.286 161.913 153.713  1.00  0.00    -0.000 C 
BRANCH   9  10
ATOM     10  C   UNL     1     146.228 162.308 152.666  1.00  0.00    -0.000 C 
BRANCH  10  11
ATOM     11  C   UNL     1     146.843 162.586 151.285  1.00  0.00    -0.003 C 
ATOM     12  C   UNL     1     146.541 163.994 150.773  1.00  0.00     0.004 C 
ENDBRANCH  10  11
ENDBRANCH   9  10
ENDBRANCH   8   9
ENDBRANCH   7   8
ENDBRANCH   6   7
ENDBRANCH   5   6
ENDBRANCH   4   5
ENDBRANCH   3   4
ENDBRANCH   2   3
ENDBRANCH   1   2
BRANCH   1  13
ATOM     13  C   UNL     1     150.199 163.979 152.316  1.00  0.00     0.000 C 
BRANCH  13  14
ATOM     14  C   UNL     1     151.538 164.265 151.618  1.00  0.00     0.000 C 
BRANCH  14  15
ATOM     15  C   UNL     1     151.513 163.914 150.120  1.00  0.00     0.000 C 
BRANCH  15  16
ATOM     16  C   UNL     1     152.120 162.531 149.823  1.00  0.00     0.000 C 
BRANCH  16  17
ATOM     17  C   UNL     1     151.128 161.500 149.256  1.00  0.00     0.000 C 
BRANCH  17  18
ATOM     18  C   UNL     1     150.922 160.291 150.184  1.00  0.00     0.000 C 
BRANCH  18  19
ATOM     19  C   UNL     1     149.860 160.567 151.268  1.00  0.00     0.000 C 
BRANCH  19  20
ATOM     20  C   UNL     1     150.293 160.154 152.687  1.00  0.00     0.006 C 
BRANCH  20  21
ATOM     21  C   UNL     1     151.098 158.842 152.742  1.00  0.00     0.053 C 
BRANCH  21  22
ATOM     22  C   UNL     1     151.284 158.327 154.140  1.00  0.00     0.041 C 
ATOM     23  O   UNL     1     152.231 157.543 154.409  1.00  0.00    -0.550 OA
ATOM     24  O   UNL     1     150.449 158.767 155.159  1.00  0.00    -0.550 OA
ENDBRANCH  21  22
ENDBRANCH  20  21
ENDBRANCH  19  20
ENDBRANCH  18  19
ENDBRANCH  17  18
ENDBRANCH  16  17
ENDBRANCH  15  16
ENDBRANCH  14  15
ENDBRANCH  13  14
ENDBRANCH   1  13
TORSDOF 20
ENDMDL
MODEL 3
REMARK VINA RESULT:    -2.523      2.543      4.486
REMARK INTER + INTRA:          -9.693
REMARK INTER:                  -5.714
REMARK INTRA:                  -3.979
REMARK UNBOUND:                -4.220
REMARK SMILES CCCCCCCCCCCCCCCCCCCCCC(=O)[O-]
REMARK SMILES IDX 12 1 11 2 10 3 9 4 8 5 7 6 6 7 5 8 4 9 3 10 2 11 1 12 13 13
REMARK SMILES IDX 14 14 15 15 16 16 17 17 18 18 19 19 20 20 21 21 22 22 23 23
REMARK SMILES IDX 24 24
REMARK H PARENT
REMARK Flexibility Score: inf
ROOT
ATOM      1  C   UNL     1     151.091 163.460 151.105  1.00  0.00     0.000 C 
ENDROOT
BRANCH   1   2
ATOM      2  C   UNL     1     150.770 162.772 149.768  1.00  0.00     0.000 C 
BRANCH   2   3
ATOM      3  C   UNL     1     149.814 163.605 148.895  1.00  0.00     0.000 C 
BRANCH   3   4
ATOM      4  C   UNL     1     148.767 164.368 149.723  1.00  0.00    -0.000 C 
BRANCH   4   5
ATOM      5  C   UNL     1     147.577 164.847 148.878  1.00  0.00    -0.000 C 
BRANCH   5   6
ATOM      6  C   UNL     1     147.762 166.278 148.343  1.00  0.00    -0.000 C 
BRANCH   6   7
ATOM      7  C   UNL     1     147.320 167.371 149.339  1.00  0.00    -0.000 C 
BRANCH   7   8
ATOM      8  C   UNL     1     148.433 168.403 149.597  1.00  0.00    -0.000 C 
BRANCH   8   9
ATOM      9  C   UNL     1     149.154 168.170 150.934  1.00  0.00    -0.000 C 
BRANCH   9  10
ATOM     10  C   UNL     1     150.456 167.365 150.761  1.00  0.00    -0.000 C 
BRANCH  10  11
ATOM     11  C   UNL     1     151.138 167.056 152.104  1.00  0.00    -0.003 C 
ATOM     12  C   UNL     1     151.850 168.269 152.701  1.00  0.00     0.004 C 
ENDBRANCH  10  11
ENDBRANCH   9  10
ENDBRANCH   8   9
ENDBRANCH   7   8
ENDBRANCH   6   7
ENDBRANCH   5   6
ENDBRANCH   4   5
ENDBRANCH   3   4
ENDBRANCH   2   3
ENDBRANCH   1   2
BRANCH   1  13
ATOM     13  C   UNL     1     150.739 162.580 152.319  1.00  0.00     0.000 C 
BRANCH  13  14
ATOM     14  C   UNL     1     149.676 161.521 151.989  1.00  0.00     0.000 C 
BRANCH  14  15
ATOM     15  C   UNL     1     148.343 161.772 152.716  1.00  0.00     0.000 C 
BRANCH  15  16
ATOM     16  C   UNL     1     147.120 161.378 151.868  1.00  0.00     0.000 C 
BRANCH  16  17
ATOM     17  C   UNL     1     146.184 162.544 151.507  1.00  0.00     0.000 C 
BRANCH  17  18
ATOM     18  C   UNL     1     146.019 163.558 152.652  1.00  0.00     0.000 C 
BRANCH  18  19
ATOM     19  C   UNL     1     145.946 165.009 152.134  1.00  0.00     0.000 C 
BRANCH  19  20
ATOM     20  C   UNL     1     146.932 165.969 152.825  1.00  0.00     0.006 C 
BRANCH  20  21
ATOM     21  C   UNL     1     148.201 165.286 153.366  1.00  0.00     0.053 C 
BRANCH  21  22
ATOM     22  C   UNL     1     148.241 165.225 154.865  1.00  0.00     0.041 C 
ATOM     23  O   UNL     1     149.107 164.526 155.452  1.00  0.00    -0.550 OA
ATOM     24  O   UNL     1     147.361 165.995 155.615  1.00  0.00    -0.550 OA
ENDBRANCH  21  22
ENDBRANCH  20  21
ENDBRANCH  19  20
ENDBRANCH  18  19
ENDBRANCH  17  18
ENDBRANCH  16  17
ENDBRANCH  15  16
ENDBRANCH  14  15
ENDBRANCH  13  14
ENDBRANCH   1  13
TORSDOF 20
ENDMDL
MODEL 4
REMARK VINA RESULT:    -2.518      3.570      5.557
REMARK INTER + INTRA:          -9.681
REMARK INTER:                  -6.216
REMARK INTRA:                  -3.466
REMARK UNBOUND:                -4.220
REMARK SMILES CCCCCCCCCCCCCCCCCCCCCC(=O)[O-]
REMARK SMILES IDX 12 1 11 2 10 3 9 4 8 5 7 6 6 7 5 8 4 9 3 10 2 11 1 12 13 13
REMARK SMILES IDX 14 14 15 15 16 16 17 17 18 18 19 19 20 20 21 21 22 22 23 23
REMARK SMILES IDX 24 24
REMARK H PARENT
REMARK Flexibility Score: inf
ROOT
ATOM      1  C   UNL     1     146.634 163.093 151.085  1.00  0.00     0.000 C 
ENDROOT
BRANCH   1   2
ATOM      2  C   UNL     1     148.050 163.666 150.911  1.00  0.00     0.000 C 
BRANCH   2   3
ATOM      3  C   UNL     1     148.064 165.205 150.903  1.00  0.00     0.000 C 
BRANCH   3   4
ATOM      4  C   UNL     1     146.823 165.812 151.577  1.00  0.00    -0.000 C 
BRANCH   4   5
ATOM      5  C   UNL     1     147.095 166.266 153.020  1.00  0.00    -0.000 C 
BRANCH   5   6
ATOM      6  C   UNL     1     146.285 165.472 154.059  1.00  0.00    -0.000 C 
BRANCH   6   7
ATOM      7  C   UNL     1     147.152 164.560 154.952  1.00  0.00    -0.000 C 
BRANCH   7   8
ATOM      8  C   UNL     1     148.647 164.653 154.596  1.00  0.00    -0.000 C 
BRANCH   8   9
ATOM      9  C   UNL     1     149.539 163.904 155.599  1.00  0.00    -0.000 C 
BRANCH   9  10
ATOM     10  C   UNL     1     150.989 163.767 155.099  1.00  0.00    -0.000 C 
BRANCH  10  11
ATOM     11  C   UNL     1     151.113 163.992 153.584  1.00  0.00    -0.003 C 
ATOM     12  C   UNL     1     151.355 162.697 152.809  1.00  0.00     0.004 C 
ENDBRANCH  10  11
ENDBRANCH   9  10
ENDBRANCH   8   9
ENDBRANCH   7   8
ENDBRANCH   6   7
ENDBRANCH   5   6
ENDBRANCH   4   5
ENDBRANCH   3   4
ENDBRANCH   2   3
ENDBRANCH   1   2
BRANCH   1  13
ATOM     13  C   UNL     1     146.622 161.793 151.909  1.00  0.00     0.000 C 
BRANCH  13  14
ATOM     14  C   UNL     1     147.962 161.532 152.615  1.00  0.00     0.000 C 
BRANCH  14  15
ATOM     15  C   UNL     1     147.784 161.049 154.065  1.00  0.00     0.000 C 
BRANCH  15  16
ATOM     16  C   UNL     1     149.045 160.366 154.624  1.00  0.00     0.000 C 
BRANCH  16  17
ATOM     17  C   UNL     1     149.054 160.180 156.152  1.00  0.00     0.000 C 
BRANCH  17  18
ATOM     18  C   UNL     1     147.692 160.481 156.801  1.00  0.00     0.000 C 
BRANCH  18  19
ATOM     19  C   UNL     1     146.959 159.195 157.231  1.00  0.00     0.000 C 
BRANCH  19  20
ATOM     20  C   UNL     1     147.585 158.498 158.454  1.00  0.00     0.006 C 
BRANCH  20  21
ATOM     21  C   UNL     1     146.744 158.605 159.739  1.00  0.00     0.053 C 
BRANCH  21  22
ATOM     22  C   UNL     1     146.637 157.305 160.480  1.00  0.00     0.041 C 
ATOM     23  O   UNL     1     146.506 157.293 161.732  1.00  0.00    -0.550 OA
ATOM     24  O   UNL     1     146.613 156.106 159.778  1.00  0.00    -0.550 OA
ENDBRANCH  21  22
ENDBRANCH  20  21
ENDBRANCH  19  20
ENDBRANCH  18  19
ENDBRANCH  17  18
ENDBRANCH  16  17
ENDBRANCH  15  16
ENDBRANCH  14  15
ENDBRANCH  13  14
ENDBRANCH   1  13
TORSDOF 20
ENDMDL
MODEL 5
REMARK VINA RESULT:    -2.516      2.354      5.015
REMARK INTER + INTRA:          -9.679
REMARK INTER:                  -6.025
REMARK INTRA:                  -3.654
REMARK UNBOUND:                -4.220
REMARK SMILES CCCCCCCCCCCCCCCCCCCCCC(=O)[O-]
REMARK SMILES IDX 12 1 11 2 10 3 9 4 8 5 7 6 6 7 5 8 4 9 3 10 2 11 1 12 13 13
REMARK SMILES IDX 14 14 15 15 16 16 17 17 18 18 19 19 20 20 21 21 22 22 23 23
REMARK SMILES IDX 24 24
REMARK H PARENT
REMARK Flexibility Score: inf
ROOT
ATOM      1  C   UNL     1     146.733 163.468 152.222  1.00  0.00     0.000 C 
ENDROOT
BRANCH   1   2
ATOM      2  C   UNL     1     146.593 164.663 151.266  1.00  0.00     0.000 C 
BRANCH   2   3
ATOM      3  C   UNL     1     146.795 166.012 151.979  1.00  0.00     0.000 C 
BRANCH   3   4
ATOM      4  C   UNL     1     148.212 166.576 151.789  1.00  0.00    -0.000 C 
BRANCH   4   5
ATOM      5  C   UNL     1     149.086 165.693 150.884  1.00  0.00    -0.000 C 
BRANCH   5   6
ATOM      6  C   UNL     1     150.277 165.067 151.630  1.00  0.00    -0.000 C 
BRANCH   6   7
ATOM      7  C   UNL     1     150.592 165.752 152.976  1.00  0.00    -0.000 C 
BRANCH   7   8
ATOM      8  C   UNL     1     150.659 164.743 154.137  1.00  0.00    -0.000 C 
BRANCH   8   9
ATOM      9  C   UNL     1     149.313 164.046 154.390  1.00  0.00    -0.000 C 
BRANCH   9  10
ATOM     10  C   UNL     1     148.578 164.623 155.614  1.00  0.00    -0.000 C 
BRANCH  10  11
ATOM     11  C   UNL     1     147.081 164.277 155.619  1.00  0.00    -0.003 C 
ATOM     12  C   UNL     1     146.186 165.514 155.547  1.00  0.00     0.004 C 
ENDBRANCH  10  11
ENDBRANCH   9  10
ENDBRANCH   8   9
ENDBRANCH   7   8
ENDBRANCH   6   7
ENDBRANCH   5   6
ENDBRANCH   4   5
ENDBRANCH   3   4
ENDBRANCH   2   3
ENDBRANCH   1   2
BRANCH   1  13
ATOM     13  C   UNL     1     146.280 162.144 151.579  1.00  0.00     0.000 C 
BRANCH  13  14
ATOM     14  C   UNL     1     147.386 161.078 151.586  1.00  0.00     0.000 C 
BRANCH  14  15
ATOM     15  C   UNL     1     148.797 161.685 151.494  1.00  0.00     0.000 C 
BRANCH  15  16
ATOM     16  C   UNL     1     149.903 160.679 151.862  1.00  0.00     0.000 C 
BRANCH  16  17
ATOM     17  C   UNL     1     151.032 161.254 152.735  1.00  0.00     0.000 C 
BRANCH  17  18
ATOM     18  C   UNL     1     150.985 160.749 154.187  1.00  0.00     0.000 C 
BRANCH  18  19
ATOM     19  C   UNL     1     149.741 159.879 154.457  1.00  0.00     0.000 C 
BRANCH  19  20
ATOM     20  C   UNL     1     148.686 160.558 155.349  1.00  0.00     0.006 C 
BRANCH  20  21
ATOM     21  C   UNL     1     148.458 159.857 156.701  1.00  0.00     0.053 C 
BRANCH  21  22
ATOM     22  C   UNL     1     147.024 159.889 157.144  1.00  0.00     0.041 C 
ATOM     23  O   UNL     1     146.422 158.822 157.432  1.00  0.00    -0.550 OA
ATOM     24  O   UNL     1     146.374 161.106 157.303  1.00  0.00    -0.550 OA
ENDBRANCH  21  22
ENDBRANCH  20  21
ENDBRANCH  19  20
ENDBRANCH  18  19
ENDBRANCH  17  18
ENDBRANCH  16  17
ENDBRANCH  15  16
ENDBRANCH  14  15
ENDBRANCH  13  14
ENDBRANCH   1  13
TORSDOF 20
ENDMDL
MODEL 6
REMARK VINA RESULT:    -2.492      1.358      3.140
REMARK INTER + INTRA:          -9.627
REMARK INTER:                  -5.494
REMARK INTRA:                  -4.133
REMARK UNBOUND:                -4.220
REMARK SMILES CCCCCCCCCCCCCCCCCCCCCC(=O)[O-]
REMARK SMILES IDX 12 1 11 2 10 3 9 4 8 5 7 6 6 7 5 8 4 9 3 10 2 11 1 12 13 13
REMARK SMILES IDX 14 14 15 15 16 16 17 17 18 18 19 19 20 20 21 21 22 22 23 23
REMARK SMILES IDX 24 24
REMARK H PARENT
REMARK Flexibility Score: inf
ROOT
ATOM      1  C   UNL     1     147.404 162.223 151.813  1.00  0.00     0.000 C 
ENDROOT
BRANCH   1   2
ATOM      2  C   UNL     1     146.224 162.934 151.130  1.00  0.00     0.000 C 
BRANCH   2   3
ATOM      3  C   UNL     1     146.637 164.269 150.485  1.00  0.00     0.000 C 
BRANCH   3   4
ATOM      4  C   UNL     1     146.065 165.487 151.226  1.00  0.00    -0.000 C 
BRANCH   4   5
ATOM      5  C   UNL     1     147.073 166.114 152.203  1.00  0.00    -0.000 C 
BRANCH   5   6
ATOM      6  C   UNL     1     148.486 166.240 151.605  1.00  0.00    -0.000 C 
BRANCH   6   7
ATOM      7  C   UNL     1     149.499 165.241 152.201  1.00  0.00    -0.000 C 
BRANCH   7   8
ATOM      8  C   UNL     1     150.922 165.468 151.661  1.00  0.00    -0.000 C 
BRANCH   8   9
ATOM      9  C   UNL     1     151.002 165.325 150.132  1.00  0.00    -0.000 C 
BRANCH   9  10
ATOM     10  C   UNL     1     151.207 163.863 149.694  1.00  0.00    -0.000 C 
BRANCH  10  11
ATOM     11  C   UNL     1     149.998 163.306 148.925  1.00  0.00    -0.003 C 
ATOM     12  C   UNL     1     149.304 164.361 148.064  1.00  0.00     0.004 C 
ENDBRANCH  10  11
ENDBRANCH   9  10
ENDBRANCH   8   9
ENDBRANCH   7   8
ENDBRANCH   6   7
ENDBRANCH   5   6
ENDBRANCH   4   5
ENDBRANCH   3   4
ENDBRANCH   2   3
ENDBRANCH   1   2
BRANCH   1  13
ATOM     13  C   UNL     1     147.141 161.947 153.305  1.00  0.00     0.000 C 
BRANCH  13  14
ATOM     14  C   UNL     1     146.054 162.863 153.890  1.00  0.00     0.000 C 
BRANCH  14  15
ATOM     15  C   UNL     1     146.604 163.838 154.945  1.00  0.00     0.000 C 
BRANCH  15  16
ATOM     16  C   UNL     1     147.893 163.325 155.615  1.00  0.00     0.000 C 
BRANCH  16  17
ATOM     17  C   UNL     1     149.057 164.331 155.624  1.00  0.00     0.000 C 
BRANCH  17  18
ATOM     18  C   UNL     1     150.423 163.671 155.371  1.00  0.00     0.000 C 
BRANCH  18  19
ATOM     19  C   UNL     1     150.281 162.214 154.887  1.00  0.00     0.000 C 
BRANCH  19  20
ATOM     20  C   UNL     1     151.426 161.745 153.970  1.00  0.00     0.006 C 
BRANCH  20  21
ATOM     21  C   UNL     1     151.041 161.642 152.483  1.00  0.00     0.053 C 
BRANCH  21  22
ATOM     22  C   UNL     1     150.580 160.269 152.091  1.00  0.00     0.041 C 
ATOM     23  O   UNL     1     150.239 160.026 150.903  1.00  0.00    -0.550 OA
ATOM     24  O   UNL     1     150.592 159.240 153.023  1.00  0.00    -0.550 OA
ENDBRANCH  21  22
ENDBRANCH  20  21
ENDBRANCH  19  20
ENDBRANCH  18  19
ENDBRANCH  17  18
ENDBRANCH  16  17
ENDBRANCH  15  16
ENDBRANCH  14  15
ENDBRANCH  13  14
ENDBRANCH   1  13
TORSDOF 20
ENDMDL
MODEL 7
REMARK VINA RESULT:    -2.466      1.432      3.674
REMARK INTER + INTRA:          -9.569
REMARK INTER:                  -5.545
REMARK INTRA:                  -4.025
REMARK UNBOUND:                -4.220
REMARK SMILES CCCCCCCCCCCCCCCCCCCCCC(=O)[O-]
REMARK SMILES IDX 12 1 11 2 10 3 9 4 8 5 7 6 6 7 5 8 4 9 3 10 2 11 1 12 13 13
REMARK SMILES IDX 14 14 15 15 16 16 17 17 18 18 19 19 20 20 21 21 22 22 23 23
REMARK SMILES IDX 24 24
REMARK H PARENT
REMARK Flexibility Score: inf
ROOT
ATOM      1  C   UNL     1     148.564 164.734 155.314  1.00  0.00     0.000 C 
ENDROOT
BRANCH   1   2
ATOM      2  C   UNL     1     147.275 163.918 155.122  1.00  0.00     0.000 C 
BRANCH   2   3
ATOM      3  C   UNL     1     147.545 162.404 155.049  1.00  0.00     0.000 C 
BRANCH   3   4
ATOM      4  C   UNL     1     147.085 161.784 153.720  1.00  0.00    -0.000 C 
BRANCH   4   5
ATOM      5  C   UNL     1     146.023 162.635 153.005  1.00  0.00    -0.000 C 
BRANCH   5   6
ATOM      6  C   UNL     1     146.190 162.638 151.475  1.00  0.00    -0.000 C 
BRANCH   6   7
ATOM      7  C   UNL     1     146.290 164.052 150.868  1.00  0.00    -0.000 C 
BRANCH   7   8
ATOM      8  C   UNL     1     146.080 165.152 151.924  1.00  0.00    -0.000 C 
BRANCH   8   9
ATOM      9  C   UNL     1     147.261 166.132 151.997  1.00  0.00    -0.000 C 
BRANCH   9  10
ATOM     10  C   UNL     1     147.836 166.456 150.605  1.00  0.00    -0.000 C 
BRANCH  10  11
ATOM     11  C   UNL     1     149.315 166.058 150.472  1.00  0.00    -0.003 C 
ATOM     12  C   UNL     1     149.816 166.107 149.029  1.00  0.00     0.004 C 
ENDBRANCH  10  11
ENDBRANCH   9  10
ENDBRANCH   8   9
ENDBRANCH   7   8
ENDBRANCH   6   7
ENDBRANCH   5   6
ENDBRANCH   4   5
ENDBRANCH   3   4
ENDBRANCH   2   3
ENDBRANCH   1   2
BRANCH   1  13
ATOM     13  C   UNL     1     149.676 164.315 154.334  1.00  0.00     0.000 C 
BRANCH  13  14
ATOM     14  C   UNL     1     150.497 165.512 153.829  1.00  0.00     0.000 C 
BRANCH  14  15
ATOM     15  C   UNL     1     151.764 165.084 153.068  1.00  0.00     0.000 C 
BRANCH  15  16
ATOM     16  C   UNL     1     151.691 163.632 152.560  1.00  0.00     0.000 C 
BRANCH  16  17
ATOM     17  C   UNL     1     152.106 163.443 151.090  1.00  0.00     0.000 C 
BRANCH  17  18
ATOM     18  C   UNL     1     151.039 162.717 150.254  1.00  0.00     0.000 C 
BRANCH  18  19
ATOM     19  C   UNL     1     149.785 162.377 151.084  1.00  0.00     0.000 C 
BRANCH  19  20
ATOM     20  C   UNL     1     149.452 160.874 151.126  1.00  0.00     0.006 C 
BRANCH  20  21
ATOM     21  C   UNL     1     150.681 159.962 151.300  1.00  0.00     0.053 C 
BRANCH  21  22
ATOM     22  C   UNL     1     150.889 159.523 152.720  1.00  0.00     0.041 C 
ATOM     23  O   UNL     1     150.025 159.781 153.599  1.00  0.00    -0.550 OA
ATOM     24  O   UNL     1     152.006 158.770 153.058  1.00  0.00    -0.550 OA
ENDBRANCH  21  22
ENDBRANCH  20  21
ENDBRANCH  19  20
ENDBRANCH  18  19
ENDBRANCH  17  18
ENDBRANCH  16  17
ENDBRANCH  15  16
ENDBRANCH  14  15
ENDBRANCH  13  14
ENDBRANCH   1  13
TORSDOF 20
ENDMDL
MODEL 8
REMARK VINA RESULT:    -2.461      3.852      7.048
REMARK INTER + INTRA:          -9.558
REMARK INTER:                  -5.629
REMARK INTRA:                  -3.929
REMARK UNBOUND:                -4.220
REMARK SMILES CCCCCCCCCCCCCCCCCCCCCC(=O)[O-]
REMARK SMILES IDX 12 1 11 2 10 3 9 4 8 5 7 6 6 7 5 8 4 9 3 10 2 11 1 12 13 13
REMARK SMILES IDX 14 14 15 15 16 16 17 17 18 18 19 19 20 20 21 21 22 22 23 23
REMARK SMILES IDX 24 24
REMARK H PARENT
REMARK Flexibility Score: inf
ROOT
ATOM      1  C   UNL     1     149.624 163.741 148.983  1.00  0.00     0.000 C 
ENDROOT
BRANCH   1   2
ATOM      2  C   UNL     1     150.843 163.416 149.862  1.00  0.00     0.000 C 
BRANCH   2   3
ATOM      3  C   UNL     1     150.448 163.082 151.312  1.00  0.00     0.000 C 
BRANCH   3   4
ATOM      4  C   UNL     1     148.928 162.950 151.496  1.00  0.00    -0.000 C 
BRANCH   4   5
ATOM      5  C   UNL     1     148.508 161.553 151.981  1.00  0.00    -0.000 C 
BRANCH   5   6
ATOM      6  C   UNL     1     146.985 161.337 151.934  1.00  0.00    -0.000 C 
BRANCH   6   7
ATOM      7  C   UNL     1     146.172 162.610 152.244  1.00  0.00    -0.000 C 
BRANCH   7   8
ATOM      8  C   UNL     1     145.876 162.757 153.748  1.00  0.00    -0.000 C 
BRANCH   8   9
ATOM      9  C   UNL     1     145.886 164.223 154.210  1.00  0.00    -0.000 C 
BRANCH   9  10
ATOM     10  C   UNL     1     146.730 164.428 155.481  1.00  0.00    -0.000 C 
BRANCH  10  11
ATOM     11  C   UNL     1     148.112 163.763 155.383  1.00  0.00    -0.003 C 
ATOM     12  C   UNL     1     149.179 164.693 154.807  1.00  0.00     0.004 C 
ENDBRANCH  10  11
ENDBRANCH   9  10
ENDBRANCH   8   9
ENDBRANCH   7   8
ENDBRANCH   6   7
ENDBRANCH   5   6
ENDBRANCH   4   5
ENDBRANCH   3   4
ENDBRANCH   2   3
ENDBRANCH   1   2
BRANCH   1  13
ATOM     13  C   UNL     1     149.761 165.096 148.265  1.00  0.00     0.000 C 
BRANCH  13  14
ATOM     14  C   UNL     1     148.424 165.847 148.166  1.00  0.00     0.000 C 
BRANCH  14  15
ATOM     15  C   UNL     1     147.285 165.133 148.914  1.00  0.00     0.000 C 
BRANCH  15  16
ATOM     16  C   UNL     1     146.520 166.069 149.867  1.00  0.00     0.000 C 
BRANCH  16  17
ATOM     17  C   UNL     1     146.878 165.907 151.355  1.00  0.00     0.000 C 
BRANCH  17  18
ATOM     18  C   UNL     1     147.834 166.998 151.865  1.00  0.00     0.000 C 
BRANCH  18  19
ATOM     19  C   UNL     1     149.314 166.603 151.683  1.00  0.00     0.000 C 
BRANCH  19  20
ATOM     20  C   UNL     1     150.255 167.799 151.449  1.00  0.00     0.006 C 
BRANCH  20  21
ATOM     21  C   UNL     1     149.988 168.563 150.140  1.00  0.00     0.053 C 
BRANCH  21  22
ATOM     22  C   UNL     1     149.695 170.019 150.360  1.00  0.00     0.041 C 
ATOM     23  O   UNL     1     148.969 170.653 149.550  1.00  0.00    -0.550 OA
ATOM     24  O   UNL     1     150.169 170.658 151.498  1.00  0.00    -0.550 OA
ENDBRANCH  21  22
ENDBRANCH  20  21
ENDBRANCH  19  20
ENDBRANCH  18  19
ENDBRANCH  17  18
ENDBRANCH  16  17
ENDBRANCH  15  16
ENDBRANCH  14  15
ENDBRANCH  13  14
ENDBRANCH   1  13
TORSDOF 20
ENDMDL
MODEL 9
REMARK VINA RESULT:    -2.417      2.101      3.750
REMARK INTER + INTRA:          -9.462
REMARK INTER:                  -5.579
REMARK INTRA:                  -3.883
REMARK UNBOUND:                -4.220
REMARK SMILES CCCCCCCCCCCCCCCCCCCCCC(=O)[O-]
REMARK SMILES IDX 12 1 11 2 10 3 9 4 8 5 7 6 6 7 5 8 4 9 3 10 2 11 1 12 13 13
REMARK SMILES IDX 14 14 15 15 16 16 17 17 18 18 19 19 20 20 21 21 22 22 23 23
REMARK SMILES IDX 24 24
REMARK H PARENT
REMARK Flexibility Score: inf
ROOT
ATOM      1  C   UNL     1     148.750 164.928 153.921  1.00  0.00     0.000 C 
ENDROOT
BRANCH   1   2
ATOM      2  C   UNL     1     147.541 165.824 153.602  1.00  0.00     0.000 C 
BRANCH   2   3
ATOM      3  C   UNL     1     147.202 165.839 152.101  1.00  0.00     0.000 C 
BRANCH   3   4
ATOM      4  C   UNL     1     147.048 164.427 151.514  1.00  0.00    -0.000 C 
BRANCH   4   5
ATOM      5  C   UNL     1     145.875 163.651 152.135  1.00  0.00    -0.000 C 
BRANCH   5   6
ATOM      6  C   UNL     1     146.206 162.170 152.387  1.00  0.00    -0.000 C 
BRANCH   6   7
ATOM      7  C   UNL     1     147.410 161.658 151.570  1.00  0.00    -0.000 C 
BRANCH   7   8
ATOM      8  C   UNL     1     148.572 161.207 152.473  1.00  0.00    -0.000 C 
BRANCH   8   9
ATOM      9  C   UNL     1     149.857 162.014 152.228  1.00  0.00    -0.000 C 
BRANCH   9  10
ATOM     10  C   UNL     1     150.079 162.316 150.734  1.00  0.00    -0.000 C 
BRANCH  10  11
ATOM     11  C   UNL     1     150.750 161.150 149.991  1.00  0.00    -0.003 C 
ATOM     12  C   UNL     1     151.999 160.632 150.704  1.00  0.00     0.004 C 
ENDBRANCH  10  11
ENDBRANCH   9  10
ENDBRANCH   8   9
ENDBRANCH   7   8
ENDBRANCH   6   7
ENDBRANCH   5   6
ENDBRANCH   4   5
ENDBRANCH   3   4
ENDBRANCH   2   3
ENDBRANCH   1   2
BRANCH   1  13
ATOM     13  C   UNL     1     148.475 163.962 155.087  1.00  0.00     0.000 C 
BRANCH  13  14
ATOM     14  C   UNL     1     147.050 164.101 155.643  1.00  0.00     0.000 C 
BRANCH  14  15
ATOM     15  C   UNL     1     146.485 162.770 156.170  1.00  0.00     0.000 C 
BRANCH  15  16
ATOM     16  C   UNL     1     147.366 161.562 155.800  1.00  0.00     0.000 C 
BRANCH  16  17
ATOM     17  C   UNL     1     147.324 160.402 156.810  1.00  0.00     0.000 C 
BRANCH  17  18
ATOM     18  C   UNL     1     148.669 159.667 156.936  1.00  0.00     0.000 C 
BRANCH  18  19
ATOM     19  C   UNL     1     149.725 160.220 155.959  1.00  0.00     0.000 C 
BRANCH  19  20
ATOM     20  C   UNL     1     150.387 159.143 155.079  1.00  0.00     0.006 C 
BRANCH  20  21
ATOM     21  C   UNL     1     151.625 159.635 154.306  1.00  0.00     0.053 C 
BRANCH  21  22
ATOM     22  C   UNL     1     152.481 160.572 155.105  1.00  0.00     0.041 C 
ATOM     23  O   UNL     1     153.205 160.135 156.039  1.00  0.00    -0.550 OA
ATOM     24  O   UNL     1     152.531 161.920 154.775  1.00  0.00    -0.550 OA
ENDBRANCH  21  22
ENDBRANCH  20  21
ENDBRANCH  19  20
ENDBRANCH  18  19
ENDBRANCH  17  18
ENDBRANCH  16  17
ENDBRANCH  15  16
ENDBRANCH  14  15
ENDBRANCH  13  14
ENDBRANCH   1  13
TORSDOF 20
ENDMDL
