MODEL 1
REMARK VINA RESULT:    -3.617      0.000      0.000
REMARK INTER + INTRA:         -10.748
REMARK INTER:                  -7.847
REMARK INTRA:                  -2.902
REMARK UNBOUND:                -2.902
REMARK SMILES CCCCCCCCCCCCCCCCCCCCCC(=O)[O-]
REMARK SMILES IDX 12 1 11 2 10 3 9 4 8 5 7 6 6 7 5 8 4 9 3 10 2 11 1 12 13 13
REMARK SMILES IDX 14 14 15 15 16 16 17 17 18 18 19 19 20 20 21 21 22 22 23 23
REMARK SMILES IDX 24 24
REMARK H PARENT
REMARK Flexibility Score: inf
ROOT
ATOM      1  C   UNL     1     -94.741 148.139 235.480  1.00  0.00     0.000 C 
ENDROOT
BRANCH   1   2
ATOM      2  C   UNL     1     -93.916 148.102 236.785  1.00  0.00     0.000 C 
BRANCH   2   3
ATOM      3  C   UNL     1     -94.550 148.887 237.948  1.00  0.00     0.000 C 
BRANCH   3   4
ATOM      4  C   UNL     1     -95.349 148.035 238.951  1.00  0.00    -0.000 C 
BRANCH   4   5
ATOM      5  C   UNL     1     -96.711 148.626 239.369  1.00  0.00    -0.000 C 
BRANCH   5   6
ATOM      6  C   UNL     1     -96.846 150.151 239.190  1.00  0.00    -0.000 C 
BRANCH   6   7
ATOM      7  C   UNL     1     -98.124 150.613 238.467  1.00  0.00    -0.000 C 
BRANCH   7   8
ATOM      8  C   UNL     1     -98.592 149.615 237.392  1.00  0.00    -0.000 C 
BRANCH   8   9
ATOM      9  C   UNL     1     -99.820 150.118 236.616  1.00  0.00    -0.000 C 
BRANCH   9  10
ATOM     10  C   UNL     1     -99.991 151.646 236.704  1.00  0.00    -0.000 C 
BRANCH  10  11
ATOM     11  C   UNL     1     -99.629 152.357 235.390  1.00  0.00    -0.003 C 
ATOM     12  C   UNL     1     -99.745 151.441 234.173  1.00  0.00     0.004 C 
ENDBRANCH  10  11
ENDBRANCH   9  10
ENDBRANCH   8   9
ENDBRANCH   7   8
ENDBRANCH   6   7
ENDBRANCH   5   6
ENDBRANCH   4   5
ENDBRANCH   3   4
ENDBRANCH   2   3
ENDBRANCH   1   2
BRANCH   1  13
ATOM     13  C   UNL     1     -95.385 149.512 235.226  1.00  0.00     0.000 C 
BRANCH  13  14
ATOM     14  C   UNL     1     -96.704 149.415 234.443  1.00  0.00     0.000 C 
BRANCH  14  15
ATOM     15  C   UNL     1     -96.551 149.828 232.968  1.00  0.00     0.000 C 
BRANCH  15  16
ATOM     16  C   UNL     1     -95.511 150.944 232.781  1.00  0.00     0.000 C 
BRANCH  16  17
ATOM     17  C   UNL     1     -95.847 151.864 231.593  1.00  0.00     0.000 C 
BRANCH  17  18
ATOM     18  C   UNL     1     -96.972 152.864 231.914  1.00  0.00     0.000 C 
BRANCH  18  19
ATOM     19  C   UNL     1     -96.755 153.706 233.187  1.00  0.00     0.000 C 
BRANCH  19  20
ATOM     20  C   UNL     1     -97.768 154.851 233.394  1.00  0.00     0.006 C 
BRANCH  20  21
ATOM     21  C   UNL     1     -98.862 154.934 232.317  1.00  0.00     0.053 C 
BRANCH  21  22
ATOM     22  C   UNL     1     -98.799 156.220 231.552  1.00  0.00     0.041 C 
ATOM     23  O   UNL     1     -98.925 156.219 230.299  1.00  0.00    -0.550 OA
ATOM     24  O   UNL     1     -98.567 157.416 232.221  1.00  0.00    -0.550 OA
ENDBRANCH  21  22
ENDBRANCH  20  21
ENDBRANCH  19  20
ENDBRANCH  18  19
ENDBRANCH  17  18
ENDBRANCH  16  17
ENDBRANCH  15  16
ENDBRANCH  14  15
ENDBRANCH  13  14
ENDBRANCH   1  13
TORSDOF 20
ENDMDL
MODEL 2
REMARK VINA RESULT:    -3.571      3.796      7.026
REMARK INTER + INTRA:         -10.648
REMARK INTER:                  -7.753
REMARK INTRA:                  -2.895
REMARK UNBOUND:                -2.902
REMARK SMILES CCCCCCCCCCCCCCCCCCCCCC(=O)[O-]
REMARK SMILES IDX 12 1 11 2 10 3 9 4 8 5 7 6 6 7 5 8 4 9 3 10 2 11 1 12 13 13
REMARK SMILES IDX 14 14 15 15 16 16 17 17 18 18 19 19 20 20 21 21 22 22 23 23
REMARK SMILES IDX 24 24
REMARK H PARENT
REMARK Flexibility Score: inf
ROOT
ATOM      1  C   UNL     1     -96.628 149.499 234.953  1.00  0.00     0.000 C 
ENDROOT
BRANCH   1   2
ATOM      2  C   UNL     1     -97.401 148.270 235.483  1.00  0.00     0.000 C 
BRANCH   2   3
ATOM      3  C   UNL     1     -98.831 148.588 235.958  1.00  0.00     0.000 C 
BRANCH   3   4
ATOM      4  C   UNL     1     -99.103 150.073 236.261  1.00  0.00    -0.000 C 
BRANCH   4   5
ATOM      5  C   UNL     1     -99.981 150.800 235.222  1.00  0.00    -0.000 C 
BRANCH   5   6
ATOM      6  C   UNL     1     -99.570 152.254 234.918  1.00  0.00    -0.000 C 
BRANCH   6   7
ATOM      7  C   UNL     1     -99.634 152.656 233.434  1.00  0.00    -0.000 C 
BRANCH   7   8
ATOM      8  C   UNL     1     -99.051 154.056 233.172  1.00  0.00    -0.000 C 
BRANCH   8   9
ATOM      9  C   UNL     1     -97.628 154.001 232.591  1.00  0.00    -0.000 C 
BRANCH   9  10
ATOM     10  C   UNL     1     -97.584 153.355 231.194  1.00  0.00    -0.000 C 
BRANCH  10  11
ATOM     11  C   UNL     1     -96.359 152.449 231.001  1.00  0.00    -0.003 C 
ATOM     12  C   UNL     1     -95.783 151.947 232.324  1.00  0.00     0.004 C 
ENDBRANCH  10  11
ENDBRANCH   9  10
ENDBRANCH   8   9
ENDBRANCH   7   8
ENDBRANCH   6   7
ENDBRANCH   5   6
ENDBRANCH   4   5
ENDBRANCH   3   4
ENDBRANCH   2   3
ENDBRANCH   1   2
BRANCH   1  13
ATOM     13  C   UNL     1     -95.107 149.367 235.140  1.00  0.00     0.000 C 
BRANCH  13  14
ATOM     14  C   UNL     1     -94.618 147.914 235.037  1.00  0.00     0.000 C 
BRANCH  14  15
ATOM     15  C   UNL     1     -93.763 147.488 236.242  1.00  0.00     0.000 C 
BRANCH  15  16
ATOM     16  C   UNL     1     -93.985 148.395 237.464  1.00  0.00     0.000 C 
BRANCH  16  17
ATOM     17  C   UNL     1     -94.739 147.675 238.597  1.00  0.00     0.000 C 
BRANCH  17  18
ATOM     18  C   UNL     1     -96.087 148.337 238.930  1.00  0.00     0.000 C 
BRANCH  18  19
ATOM     19  C   UNL     1     -96.146 149.859 238.690  1.00  0.00     0.000 C 
BRANCH  19  20
ATOM     20  C   UNL     1     -97.332 150.581 239.361  1.00  0.00     0.006 C 
BRANCH  20  21
ATOM     21  C   UNL     1     -98.444 149.647 239.863  1.00  0.00     0.053 C 
BRANCH  21  22
ATOM     22  C   UNL     1     -98.529 149.628 241.358  1.00  0.00     0.041 C 
ATOM     23  O   UNL     1     -98.349 148.553 241.989  1.00  0.00    -0.550 OA
ATOM     24  O   UNL     1     -98.842 150.791 242.051  1.00  0.00    -0.550 OA
ENDBRANCH  21  22
ENDBRANCH  20  21
ENDBRANCH  19  20
ENDBRANCH  18  19
ENDBRANCH  17  18
ENDBRANCH  16  17
ENDBRANCH  15  16
ENDBRANCH  14  15
ENDBRANCH  13  14
ENDBRANCH   1  13
TORSDOF 20
ENDMDL
MODEL 3
REMARK VINA RESULT:    -3.543      1.329      2.068
REMARK INTER + INTRA:         -10.587
REMARK INTER:                  -7.467
REMARK INTRA:                  -3.120
REMARK UNBOUND:                -2.902
REMARK SMILES CCCCCCCCCCCCCCCCCCCCCC(=O)[O-]
REMARK SMILES IDX 12 1 11 2 10 3 9 4 8 5 7 6 6 7 5 8 4 9 3 10 2 11 1 12 13 13
REMARK SMILES IDX 14 14 15 15 16 16 17 17 18 18 19 19 20 20 21 21 22 22 23 23
REMARK SMILES IDX 24 24
REMARK H PARENT
REMARK Flexibility Score: inf
ROOT
ATOM      1  C   UNL     1     -94.689 148.780 235.834  1.00  0.00     0.000 C 
ENDROOT
BRANCH   1   2
ATOM      2  C   UNL     1     -94.196 148.762 237.298  1.00  0.00     0.000 C 
BRANCH   2   3
ATOM      3  C   UNL     1     -95.024 147.851 238.225  1.00  0.00     0.000 C 
BRANCH   3   4
ATOM      4  C   UNL     1     -96.264 148.512 238.852  1.00  0.00    -0.000 C 
BRANCH   4   5
ATOM      5  C   UNL     1     -96.219 150.053 238.917  1.00  0.00    -0.000 C 
BRANCH   5   6
ATOM      6  C   UNL     1     -97.546 150.732 239.307  1.00  0.00    -0.000 C 
BRANCH   6   7
ATOM      7  C   UNL     1     -98.773 149.803 239.333  1.00  0.00    -0.000 C 
BRANCH   7   8
ATOM      8  C   UNL     1     -99.911 150.296 238.422  1.00  0.00    -0.000 C 
BRANCH   8   9
ATOM      9  C   UNL     1     -99.402 151.178 237.269  1.00  0.00    -0.000 C 
BRANCH   9  10
ATOM     10  C   UNL     1     -99.497 150.475 235.902  1.00  0.00    -0.000 C 
BRANCH  10  11
ATOM     11  C   UNL     1     -98.221 149.697 235.548  1.00  0.00    -0.003 C 
ATOM     12  C   UNL     1     -98.356 148.197 235.802  1.00  0.00     0.004 C 
ENDBRANCH  10  11
ENDBRANCH   9  10
ENDBRANCH   8   9
ENDBRANCH   7   8
ENDBRANCH   6   7
ENDBRANCH   5   6
ENDBRANCH   4   5
ENDBRANCH   3   4
ENDBRANCH   2   3
ENDBRANCH   1   2
BRANCH   1  13
ATOM     13  C   UNL     1     -94.151 147.595 235.015  1.00  0.00     0.000 C 
BRANCH  13  14
ATOM     14  C   UNL     1     -94.354 147.777 233.502  1.00  0.00     0.000 C 
BRANCH  14  15
ATOM     15  C   UNL     1     -95.835 147.725 233.091  1.00  0.00     0.000 C 
BRANCH  15  16
ATOM     16  C   UNL     1     -96.316 149.050 232.477  1.00  0.00     0.000 C 
BRANCH  16  17
ATOM     17  C   UNL     1     -95.148 149.928 231.991  1.00  0.00     0.000 C 
BRANCH  17  18
ATOM     18  C   UNL     1     -95.365 151.423 232.283  1.00  0.00     0.000 C 
BRANCH  18  19
ATOM     19  C   UNL     1     -96.693 151.767 232.985  1.00  0.00     0.000 C 
BRANCH  19  20
ATOM     20  C   UNL     1     -97.543 152.846 232.284  1.00  0.00     0.006 C 
BRANCH  20  21
ATOM     21  C   UNL     1     -98.265 153.808 233.240  1.00  0.00     0.053 C 
BRANCH  21  22
ATOM     22  C   UNL     1     -98.235 155.221 232.744  1.00  0.00     0.041 C 
ATOM     23  O   UNL     1     -97.581 156.098 233.367  1.00  0.00    -0.550 OA
ATOM     24  O   UNL     1     -98.959 155.575 231.611  1.00  0.00    -0.550 OA
ENDBRANCH  21  22
ENDBRANCH  20  21
ENDBRANCH  19  20
ENDBRANCH  18  19
ENDBRANCH  17  18
ENDBRANCH  16  17
ENDBRANCH  15  16
ENDBRANCH  14  15
ENDBRANCH  13  14
ENDBRANCH   1  13
TORSDOF 20
ENDMDL
MODEL 4
REMARK VINA RESULT:    -3.515      1.726      3.081
REMARK INTER + INTRA:         -10.526
REMARK INTER:                  -7.116
REMARK INTRA:                  -3.410
REMARK UNBOUND:                -2.902
REMARK SMILES CCCCCCCCCCCCCCCCCCCCCC(=O)[O-]
REMARK SMILES IDX 12 1 11 2 10 3 9 4 8 5 7 6 6 7 5 8 4 9 3 10 2 11 1 12 13 13
REMARK SMILES IDX 14 14 15 15 16 16 17 17 18 18 19 19 20 20 21 21 22 22 23 23
REMARK SMILES IDX 24 24
REMARK H PARENT
REMARK Flexibility Score: inf
ROOT
ATOM      1  C   UNL     1     -94.989 149.165 236.978  1.00  0.00     0.000 C 
ENDROOT
BRANCH   1   2
ATOM      2  C   UNL     1     -95.091 149.064 238.516  1.00  0.00     0.000 C 
BRANCH   2   3
ATOM      3  C   UNL     1     -95.317 147.631 239.035  1.00  0.00     0.000 C 
BRANCH   3   4
ATOM      4  C   UNL     1     -96.790 147.245 239.263  1.00  0.00    -0.000 C 
BRANCH   4   5
ATOM      5  C   UNL     1     -97.166 146.952 240.730  1.00  0.00    -0.000 C 
BRANCH   5   6
ATOM      6  C   UNL     1     -98.222 147.897 241.337  1.00  0.00    -0.000 C 
BRANCH   6   7
ATOM      7  C   UNL     1     -98.909 148.840 240.333  1.00  0.00    -0.000 C 
BRANCH   7   8
ATOM      8  C   UNL     1     -98.315 150.260 240.350  1.00  0.00    -0.000 C 
BRANCH   8   9
ATOM      9  C   UNL     1     -98.116 150.833 238.937  1.00  0.00    -0.000 C 
BRANCH   9  10
ATOM     10  C   UNL     1     -99.203 150.365 237.952  1.00  0.00    -0.000 C 
BRANCH  10  11
ATOM     11  C   UNL     1     -98.637 149.500 236.815  1.00  0.00    -0.003 C 
ATOM     12  C   UNL     1     -98.694 150.200 235.458  1.00  0.00     0.004 C 
ENDBRANCH  10  11
ENDBRANCH   9  10
ENDBRANCH   8   9
ENDBRANCH   7   8
ENDBRANCH   6   7
ENDBRANCH   5   6
ENDBRANCH   4   5
ENDBRANCH   3   4
ENDBRANCH   2   3
ENDBRANCH   1   2
BRANCH   1  13
ATOM     13  C   UNL     1     -93.912 148.235 236.394  1.00  0.00     0.000 C 
BRANCH  13  14
ATOM     14  C   UNL     1     -94.455 147.315 235.289  1.00  0.00     0.000 C 
BRANCH  14  15
ATOM     15  C   UNL     1     -95.963 147.047 235.428  1.00  0.00     0.000 C 
BRANCH  15  16
ATOM     16  C   UNL     1     -96.730 147.343 234.129  1.00  0.00     0.000 C 
BRANCH  16  17
ATOM     17  C   UNL     1     -95.824 147.945 233.039  1.00  0.00     0.000 C 
BRANCH  17  18
ATOM     18  C   UNL     1     -96.265 149.356 232.611  1.00  0.00     0.000 C 
BRANCH  18  19
ATOM     19  C   UNL     1     -95.645 150.510 233.423  1.00  0.00     0.000 C 
BRANCH  19  20
ATOM     20  C   UNL     1     -95.919 151.922 232.867  1.00  0.00     0.006 C 
BRANCH  20  21
ATOM     21  C   UNL     1     -97.274 152.074 232.157  1.00  0.00     0.053 C 
BRANCH  21  22
ATOM     22  C   UNL     1     -98.023 153.283 232.630  1.00  0.00     0.041 C 
ATOM     23  O   UNL     1     -98.478 153.327 233.802  1.00  0.00    -0.550 OA
ATOM     24  O   UNL     1     -98.246 154.345 231.762  1.00  0.00    -0.550 OA
ENDBRANCH  21  22
ENDBRANCH  20  21
ENDBRANCH  19  20
ENDBRANCH  18  19
ENDBRANCH  17  18
ENDBRANCH  16  17
ENDBRANCH  15  16
ENDBRANCH  14  15
ENDBRANCH  13  14
ENDBRANCH   1  13
TORSDOF 20
ENDMDL
MODEL 5
REMARK VINA RESULT:    -3.510      3.187      6.570
REMARK INTER + INTRA:         -10.516
REMARK INTER:                  -7.416
REMARK INTRA:                  -3.100
REMARK UNBOUND:                -2.902
REMARK SMILES CCCCCCCCCCCCCCCCCCCCCC(=O)[O-]
REMARK SMILES IDX 12 1 11 2 10 3 9 4 8 5 7 6 6 7 5 8 4 9 3 10 2 11 1 12 13 13
REMARK SMILES IDX 14 14 15 15 16 16 17 17 18 18 19 19 20 20 21 21 22 22 23 23
REMARK SMILES IDX 24 24
REMARK H PARENT
REMARK Flexibility Score: inf
ROOT
ATOM      1  C   UNL     1     -96.614 149.237 235.200  1.00  0.00     0.000 C 
ENDROOT
BRANCH   1   2
ATOM      2  C   UNL     1     -96.786 147.871 234.501  1.00  0.00     0.000 C 
BRANCH   2   3
ATOM      3  C   UNL     1     -96.911 147.964 232.968  1.00  0.00     0.000 C 
BRANCH   3   4
ATOM      4  C   UNL     1     -95.615 147.672 232.189  1.00  0.00    -0.000 C 
BRANCH   4   5
ATOM      5  C   UNL     1     -94.672 148.880 232.018  1.00  0.00    -0.000 C 
BRANCH   5   6
ATOM      6  C   UNL     1     -95.327 150.144 231.426  1.00  0.00    -0.000 C 
BRANCH   6   7
ATOM      7  C   UNL     1     -95.431 151.338 232.391  1.00  0.00    -0.000 C 
BRANCH   7   8
ATOM      8  C   UNL     1     -96.649 152.233 232.100  1.00  0.00    -0.000 C 
BRANCH   8   9
ATOM      9  C   UNL     1     -97.876 151.852 232.946  1.00  0.00    -0.000 C 
BRANCH   9  10
ATOM     10  C   UNL     1     -98.509 153.066 233.650  1.00  0.00    -0.000 C 
BRANCH  10  11
ATOM     11  C   UNL     1     -98.551 154.313 232.753  1.00  0.00    -0.003 C 
ATOM     12  C   UNL     1     -97.754 155.482 233.331  1.00  0.00     0.004 C 
ENDBRANCH  10  11
ENDBRANCH   9  10
ENDBRANCH   8   9
ENDBRANCH   7   8
ENDBRANCH   6   7
ENDBRANCH   5   6
ENDBRANCH   4   5
ENDBRANCH   3   4
ENDBRANCH   2   3
ENDBRANCH   1   2
BRANCH   1  13
ATOM     13  C   UNL     1     -95.171 149.483 235.672  1.00  0.00     0.000 C 
BRANCH  13  14
ATOM     14  C   UNL     1     -94.315 148.207 235.658  1.00  0.00     0.000 C 
BRANCH  14  15
ATOM     15  C   UNL     1     -93.820 147.809 237.059  1.00  0.00     0.000 C 
BRANCH  15  16
ATOM     16  C   UNL     1     -94.483 148.641 238.169  1.00  0.00     0.000 C 
BRANCH  16  17
ATOM     17  C   UNL     1     -95.499 147.823 238.986  1.00  0.00     0.000 C 
BRANCH  17  18
ATOM     18  C   UNL     1     -96.784 148.610 239.300  1.00  0.00     0.000 C 
BRANCH  18  19
ATOM     19  C   UNL     1     -96.676 150.137 239.121  1.00  0.00     0.000 C 
BRANCH  19  20
ATOM     20  C   UNL     1     -98.022 150.889 239.095  1.00  0.00     0.006 C 
BRANCH  20  21
ATOM     21  C   UNL     1     -98.919 150.547 237.894  1.00  0.00     0.053 C 
BRANCH  21  22
ATOM     22  C   UNL     1    -100.265 150.050 238.323  1.00  0.00     0.041 C 
ATOM     23  O   UNL     1    -101.243 150.840 238.381  1.00  0.00    -0.550 OA
ATOM     24  O   UNL     1    -100.430 148.719 238.690  1.00  0.00    -0.550 OA
ENDBRANCH  21  22
ENDBRANCH  20  21
ENDBRANCH  19  20
ENDBRANCH  18  19
ENDBRANCH  17  18
ENDBRANCH  16  17
ENDBRANCH  15  16
ENDBRANCH  14  15
ENDBRANCH  13  14
ENDBRANCH   1  13
TORSDOF 20
ENDMDL
MODEL 6
REMARK VINA RESULT:    -3.502      2.724      4.535
REMARK INTER + INTRA:         -10.499
REMARK INTER:                  -7.960
REMARK INTRA:                  -2.538
REMARK UNBOUND:                -2.902
REMARK SMILES CCCCCCCCCCCCCCCCCCCCCC(=O)[O-]
REMARK SMILES IDX 12 1 11 2 10 3 9 4 8 5 7 6 6 7 5 8 4 9 3 10 2 11 1 12 13 13
REMARK SMILES IDX 14 14 15 15 16 16 17 17 18 18 19 19 20 20 21 21 22 22 23 23
REMARK SMILES IDX 24 24
REMARK H PARENT
REMARK Flexibility Score: inf
ROOT
ATOM      1  C   UNL     1     -95.084 147.791 238.741  1.00  0.00     0.000 C 
ENDROOT
BRANCH   1   2
ATOM      2  C   UNL     1     -96.476 148.400 239.021  1.00  0.00     0.000 C 
BRANCH   2   3
ATOM      3  C   UNL     1     -96.495 149.940 239.026  1.00  0.00     0.000 C 
BRANCH   3   4
ATOM      4  C   UNL     1     -97.830 150.577 238.597  1.00  0.00    -0.000 C 
BRANCH   4   5
ATOM      5  C   UNL     1     -99.014 149.595 238.487  1.00  0.00    -0.000 C 
BRANCH   5   6
ATOM      6  C   UNL     1    -100.008 149.633 239.665  1.00  0.00    -0.000 C 
BRANCH   6   7
ATOM      7  C   UNL     1     -99.738 148.609 240.781  1.00  0.00    -0.000 C 
BRANCH   7   8
ATOM      8  C   UNL     1     -98.795 149.151 241.870  1.00  0.00    -0.000 C 
BRANCH   8   9
ATOM      9  C   UNL     1     -99.043 150.637 242.177  1.00  0.00    -0.000 C 
BRANCH   9  10
ATOM     10  C   UNL     1    -100.187 150.850 243.185  1.00  0.00    -0.000 C 
BRANCH  10  11
ATOM     11  C   UNL     1     -99.681 151.289 244.568  1.00  0.00    -0.003 C 
ATOM     12  C   UNL     1     -98.407 152.128 244.490  1.00  0.00     0.004 C 
ENDBRANCH  10  11
ENDBRANCH   9  10
ENDBRANCH   8   9
ENDBRANCH   7   8
ENDBRANCH   6   7
ENDBRANCH   5   6
ENDBRANCH   4   5
ENDBRANCH   3   4
ENDBRANCH   2   3
ENDBRANCH   1   2
BRANCH   1  13
ATOM     13  C   UNL     1     -94.203 148.704 237.871  1.00  0.00     0.000 C 
BRANCH  13  14
ATOM     14  C   UNL     1     -94.282 148.358 236.375  1.00  0.00     0.000 C 
BRANCH  14  15
ATOM     15  C   UNL     1     -95.065 149.405 235.564  1.00  0.00     0.000 C 
BRANCH  15  16
ATOM     16  C   UNL     1     -96.489 148.934 235.226  1.00  0.00     0.000 C 
BRANCH  16  17
ATOM     17  C   UNL     1     -97.292 150.003 234.462  1.00  0.00     0.000 C 
BRANCH  17  18
ATOM     18  C   UNL     1     -97.125 149.897 232.936  1.00  0.00     0.000 C 
BRANCH  18  19
ATOM     19  C   UNL     1     -95.891 150.622 232.362  1.00  0.00     0.000 C 
BRANCH  19  20
ATOM     20  C   UNL     1     -95.844 152.141 232.625  1.00  0.00     0.006 C 
BRANCH  20  21
ATOM     21  C   UNL     1     -97.060 152.916 232.094  1.00  0.00     0.053 C 
BRANCH  21  22
ATOM     22  C   UNL     1     -97.749 153.689 233.177  1.00  0.00     0.041 C 
ATOM     23  O   UNL     1     -98.768 153.214 233.744  1.00  0.00    -0.550 OA
ATOM     24  O   UNL     1     -97.284 154.949 233.535  1.00  0.00    -0.550 OA
ENDBRANCH  21  22
ENDBRANCH  20  21
ENDBRANCH  19  20
ENDBRANCH  18  19
ENDBRANCH  17  18
ENDBRANCH  16  17
ENDBRANCH  15  16
ENDBRANCH  14  15
ENDBRANCH  13  14
ENDBRANCH   1  13
TORSDOF 20
ENDMDL
MODEL 7
REMARK VINA RESULT:    -3.494      2.161      3.706
REMARK INTER + INTRA:         -10.480
REMARK INTER:                  -7.201
REMARK INTRA:                  -3.279
REMARK UNBOUND:                -2.902
REMARK SMILES CCCCCCCCCCCCCCCCCCCCCC(=O)[O-]
REMARK SMILES IDX 12 1 11 2 10 3 9 4 8 5 7 6 6 7 5 8 4 9 3 10 2 11 1 12 13 13
REMARK SMILES IDX 14 14 15 15 16 16 17 17 18 18 19 19 20 20 21 21 22 22 23 23
REMARK SMILES IDX 24 24
REMARK H PARENT
REMARK Flexibility Score: inf
ROOT
ATOM      1  C   UNL     1     -97.618 149.949 234.451  1.00  0.00     0.000 C 
ENDROOT
BRANCH   1   2
ATOM      2  C   UNL     1     -97.499 148.726 235.386  1.00  0.00     0.000 C 
BRANCH   2   3
ATOM      3  C   UNL     1     -96.077 148.141 235.474  1.00  0.00     0.000 C 
BRANCH   3   4
ATOM      4  C   UNL     1     -94.969 149.163 235.788  1.00  0.00    -0.000 C 
BRANCH   4   5
ATOM      5  C   UNL     1     -94.038 148.776 236.955  1.00  0.00    -0.000 C 
BRANCH   5   6
ATOM      6  C   UNL     1     -94.372 147.439 237.646  1.00  0.00    -0.000 C 
BRANCH   6   7
ATOM      7  C   UNL     1     -94.956 147.565 239.064  1.00  0.00    -0.000 C 
BRANCH   7   8
ATOM      8  C   UNL     1     -96.492 147.468 239.084  1.00  0.00    -0.000 C 
BRANCH   8   9
ATOM      9  C   UNL     1     -97.151 148.694 239.737  1.00  0.00    -0.000 C 
BRANCH   9  10
ATOM     10  C   UNL     1     -97.002 149.969 238.886  1.00  0.00    -0.000 C 
BRANCH  10  11
ATOM     11  C   UNL     1     -98.209 150.910 239.016  1.00  0.00    -0.003 C 
ATOM     12  C   UNL     1     -99.148 150.833 237.812  1.00  0.00     0.004 C 
ENDBRANCH  10  11
ENDBRANCH   9  10
ENDBRANCH   8   9
ENDBRANCH   7   8
ENDBRANCH   6   7
ENDBRANCH   5   6
ENDBRANCH   4   5
ENDBRANCH   3   4
ENDBRANCH   2   3
ENDBRANCH   1   2
BRANCH   1  13
ATOM     13  C   UNL     1     -97.744 149.551 232.970  1.00  0.00     0.000 C 
BRANCH  13  14
ATOM     14  C   UNL     1     -96.436 149.749 232.187  1.00  0.00     0.000 C 
BRANCH  14  15
ATOM     15  C   UNL     1     -95.798 151.127 232.435  1.00  0.00     0.000 C 
BRANCH  15  16
ATOM     16  C   UNL     1     -96.006 152.086 231.252  1.00  0.00     0.000 C 
BRANCH  16  17
ATOM     17  C   UNL     1     -97.132 153.103 231.515  1.00  0.00     0.000 C 
BRANCH  17  18
ATOM     18  C   UNL     1     -97.072 153.705 232.930  1.00  0.00     0.000 C 
BRANCH  18  19
ATOM     19  C   UNL     1     -98.414 153.727 233.689  1.00  0.00     0.000 C 
BRANCH  19  20
ATOM     20  C   UNL     1     -99.611 153.135 232.917  1.00  0.00     0.006 C 
BRANCH  20  21
ATOM     21  C   UNL     1    -100.430 152.102 233.707  1.00  0.00     0.053 C 
BRANCH  21  22
ATOM     22  C   UNL     1    -101.517 152.745 234.513  1.00  0.00     0.041 C 
ATOM     23  O   UNL     1    -102.635 152.989 233.988  1.00  0.00    -0.550 OA
ATOM     24  O   UNL     1    -101.281 153.106 235.834  1.00  0.00    -0.550 OA
ENDBRANCH  21  22
ENDBRANCH  20  21
ENDBRANCH  19  20
ENDBRANCH  18  19
ENDBRANCH  17  18
ENDBRANCH  16  17
ENDBRANCH  15  16
ENDBRANCH  14  15
ENDBRANCH  13  14
ENDBRANCH   1  13
TORSDOF 20
ENDMDL
MODEL 8
REMARK VINA RESULT:    -3.480      3.869      7.121
REMARK INTER + INTRA:         -10.451
REMARK INTER:                  -8.055
REMARK INTRA:                  -2.396
REMARK UNBOUND:                -2.902
REMARK SMILES CCCCCCCCCCCCCCCCCCCCCC(=O)[O-]
REMARK SMILES IDX 12 1 11 2 10 3 9 4 8 5 7 6 6 7 5 8 4 9 3 10 2 11 1 12 13 13
REMARK SMILES IDX 14 14 15 15 16 16 17 17 18 18 19 19 20 20 21 21 22 22 23 23
REMARK SMILES IDX 24 24
REMARK H PARENT
REMARK Flexibility Score: inf
ROOT
ATOM      1  C   UNL     1     -95.233 148.132 232.488  1.00  0.00     0.000 C 
ENDROOT
BRANCH   1   2
ATOM      2  C   UNL     1     -95.079 149.550 231.895  1.00  0.00     0.000 C 
BRANCH   2   3
ATOM      3  C   UNL     1     -95.704 150.661 232.760  1.00  0.00     0.000 C 
BRANCH   3   4
ATOM      4  C   UNL     1     -95.634 152.075 232.156  1.00  0.00    -0.000 C 
BRANCH   4   5
ATOM      5  C   UNL     1     -96.194 152.201 230.725  1.00  0.00    -0.000 C 
BRANCH   5   6
ATOM      6  C   UNL     1     -97.515 152.988 230.604  1.00  0.00    -0.000 C 
BRANCH   6   7
ATOM      7  C   UNL     1     -97.825 153.928 231.782  1.00  0.00    -0.000 C 
BRANCH   7   8
ATOM      8  C   UNL     1     -99.060 153.485 232.586  1.00  0.00    -0.000 C 
BRANCH   8   9
ATOM      9  C   UNL     1     -98.687 152.762 233.891  1.00  0.00    -0.000 C 
BRANCH   9  10
ATOM     10  C   UNL     1     -99.207 151.313 233.933  1.00  0.00    -0.000 C 
BRANCH  10  11
ATOM     11  C   UNL     1     -98.958 150.636 235.290  1.00  0.00    -0.003 C 
ATOM     12  C   UNL     1     -99.882 151.161 236.388  1.00  0.00     0.004 C 
ENDBRANCH  10  11
ENDBRANCH   9  10
ENDBRANCH   8   9
ENDBRANCH   7   8
ENDBRANCH   6   7
ENDBRANCH   5   6
ENDBRANCH   4   5
ENDBRANCH   3   4
ENDBRANCH   2   3
ENDBRANCH   1   2
BRANCH   1  13
ATOM     13  C   UNL     1     -93.908 147.571 233.032  1.00  0.00     0.000 C 
BRANCH  13  14
ATOM     14  C   UNL     1     -93.951 147.307 234.546  1.00  0.00     0.000 C 
BRANCH  14  15
ATOM     15  C   UNL     1     -95.239 147.832 235.204  1.00  0.00     0.000 C 
BRANCH  15  16
ATOM     16  C   UNL     1     -94.987 149.078 236.067  1.00  0.00     0.000 C 
BRANCH  16  17
ATOM     17  C   UNL     1     -94.345 148.731 237.423  1.00  0.00     0.000 C 
BRANCH  17  18
ATOM     18  C   UNL     1     -95.245 149.091 238.618  1.00  0.00     0.000 C 
BRANCH  18  19
ATOM     19  C   UNL     1     -96.673 149.542 238.249  1.00  0.00     0.000 C 
BRANCH  19  20
ATOM     20  C   UNL     1     -97.264 150.643 239.153  1.00  0.00     0.006 C 
BRANCH  20  21
ATOM     21  C   UNL     1     -98.618 150.287 239.787  1.00  0.00     0.053 C 
BRANCH  21  22
ATOM     22  C   UNL     1     -98.471 149.848 241.212  1.00  0.00     0.041 C 
ATOM     23  O   UNL     1     -98.064 148.687 241.478  1.00  0.00    -0.550 OA
ATOM     24  O   UNL     1     -98.818 150.712 242.244  1.00  0.00    -0.550 OA
ENDBRANCH  21  22
ENDBRANCH  20  21
ENDBRANCH  19  20
ENDBRANCH  18  19
ENDBRANCH  17  18
ENDBRANCH  16  17
ENDBRANCH  15  16
ENDBRANCH  14  15
ENDBRANCH  13  14
ENDBRANCH   1  13
TORSDOF 20
ENDMDL
MODEL 9
REMARK VINA RESULT:    -3.439      3.830      7.155
REMARK INTER + INTRA:         -10.362
REMARK INTER:                  -7.355
REMARK INTRA:                  -3.006
REMARK UNBOUND:                -2.902
REMARK SMILES CCCCCCCCCCCCCCCCCCCCCC(=O)[O-]
REMARK SMILES IDX 12 1 11 2 10 3 9 4 8 5 7 6 6 7 5 8 4 9 3 10 2 11 1 12 13 13
REMARK SMILES IDX 14 14 15 15 16 16 17 17 18 18 19 19 20 20 21 21 22 22 23 23
REMARK SMILES IDX 24 24
REMARK H PARENT
REMARK Flexibility Score: inf
ROOT
ATOM      1  C   UNL     1     -97.158 148.007 235.646  1.00  0.00     0.000 C 
ENDROOT
BRANCH   1   2
ATOM      2  C   UNL     1     -97.378 149.503 235.333  1.00  0.00     0.000 C 
BRANCH   2   3
ATOM      3  C   UNL     1     -98.253 149.760 234.091  1.00  0.00     0.000 C 
BRANCH   3   4
ATOM      4  C   UNL     1     -97.482 150.176 232.825  1.00  0.00    -0.000 C 
BRANCH   4   5
ATOM      5  C   UNL     1     -96.078 150.760 233.080  1.00  0.00    -0.000 C 
BRANCH   5   6
ATOM      6  C   UNL     1     -95.819 152.143 232.450  1.00  0.00    -0.000 C 
BRANCH   6   7
ATOM      7  C   UNL     1     -96.729 152.501 231.262  1.00  0.00    -0.000 C 
BRANCH   7   8
ATOM      8  C   UNL     1     -97.724 153.628 231.594  1.00  0.00    -0.000 C 
BRANCH   8   9
ATOM      9  C   UNL     1     -97.693 154.022 233.080  1.00  0.00    -0.000 C 
BRANCH   9  10
ATOM     10  C   UNL     1     -98.996 153.661 233.815  1.00  0.00    -0.000 C 
BRANCH  10  11
ATOM     11  C   UNL     1    -100.151 153.348 232.851  1.00  0.00    -0.003 C 
ATOM     12  C   UNL     1    -100.920 152.087 233.242  1.00  0.00     0.004 C 
ENDBRANCH  10  11
ENDBRANCH   9  10
ENDBRANCH   8   9
ENDBRANCH   7   8
ENDBRANCH   6   7
ENDBRANCH   5   6
ENDBRANCH   4   5
ENDBRANCH   3   4
ENDBRANCH   2   3
ENDBRANCH   1   2
BRANCH   1  13
ATOM     13  C   UNL     1     -95.749 147.524 235.262  1.00  0.00     0.000 C 
BRANCH  13  14
ATOM     14  C   UNL     1     -94.655 148.547 235.604  1.00  0.00     0.000 C 
BRANCH  14  15
ATOM     15  C   UNL     1     -93.878 148.182 236.880  1.00  0.00     0.000 C 
BRANCH  15  16
ATOM     16  C   UNL     1     -94.451 148.871 238.129  1.00  0.00     0.000 C 
BRANCH  16  17
ATOM     17  C   UNL     1     -95.322 147.922 238.972  1.00  0.00     0.000 C 
BRANCH  17  18
ATOM     18  C   UNL     1     -96.705 148.514 239.298  1.00  0.00     0.000 C 
BRANCH  18  19
ATOM     19  C   UNL     1     -96.812 150.045 239.151  1.00  0.00     0.000 C 
BRANCH  19  20
ATOM     20  C   UNL     1     -98.244 150.611 239.236  1.00  0.00     0.006 C 
BRANCH  20  21
ATOM     21  C   UNL     1     -99.260 149.674 239.908  1.00  0.00     0.053 C 
BRANCH  21  22
ATOM     22  C   UNL     1     -99.208 149.767 241.402  1.00  0.00     0.041 C 
ATOM     23  O   UNL     1     -99.565 148.789 242.111  1.00  0.00    -0.550 OA
ATOM     24  O   UNL     1     -98.796 150.947 242.010  1.00  0.00    -0.550 OA
ENDBRANCH  21  22
ENDBRANCH  20  21
ENDBRANCH  19  20
ENDBRANCH  18  19
ENDBRANCH  17  18
ENDBRANCH  16  17
ENDBRANCH  15  16
ENDBRANCH  14  15
ENDBRANCH  13  14
ENDBRANCH   1  13
TORSDOF 20
ENDMDL
