MODEL 1
REMARK VINA RESULT:    -7.390      0.000      0.000
REMARK INTER + INTRA:         -12.480
REMARK INTER:                 -10.847
REMARK INTRA:                  -1.634
REMARK UNBOUND:                -1.634
REMARK SMILES C[C@@H]1O[C@@H](OC[C@@H]2O[C@H](Oc3c(-c4ccc(O)c(O)c4)oc4cc(O)cc(O)c4c3=O)[C@@H](O)[C@@H](O)[C@H]2O)[C@@H](O)[C@H](O)[C@H]1O
REMARK SMILES IDX 7 1 36 2 34 3 32 4 9 5 8 6 6 7 5 8 4 9 1 10 2 11 42 12 3 13
REMARK SMILES IDX 40 14 38 15 43 16 41 18 39 20 37 22 35 24 10 26 11 27 12 28
REMARK SMILES IDX 30 29 21 30 29 31 31 32 22 33 27 34 23 35 26 36 24 37 13 38
REMARK SMILES IDX 20 39 14 40 18 41 15 42 16 43 19 44 17 46 28 48 25 50 33 52
REMARK H PARENT 43 17 41 19 39 21 37 23 35 25 19 45 17 47 28 49 25 51 33 53
REMARK Flexibility Score: inf
ROOT
ATOM      1  C   UNL     1     -12.358  11.580 -12.723  1.00  0.00     0.180 C 
ATOM      2  C   UNL     1     -12.264  12.622 -11.577  1.00  0.00     0.177 C 
ATOM      3  C   UNL     1     -10.846  12.233 -10.881  1.00  0.00     0.180 C 
ATOM      4  C   UNL     1      -9.929  10.896 -11.320  1.00  0.00     0.214 C 
ATOM      5  C   UNL     1     -10.171  10.720 -13.015  1.00  0.00     0.339 C 
ATOM      6  O   UNL     1     -11.100  11.698 -13.378  1.00  0.00    -0.332 OA
ENDROOT
BRANCH   1   7
ATOM      7  C   UNL     1     -13.189  10.031 -12.569  1.00  0.00     0.198 C 
BRANCH   7   8
ATOM      8  O   UNL     1     -13.933   9.330 -11.236  1.00  0.00    -0.347 OA
BRANCH   8   9
ATOM      9  C   UNL     1     -15.369   8.653 -11.123  1.00  0.00     0.281 C 
ATOM     10  C   UNL     1     -17.563   6.876  -8.897  1.00  0.00     0.041 C 
ATOM     11  C   UNL     1     -17.296   6.875 -10.476  1.00  0.00     0.150 C 
ATOM     12  C   UNL     1     -18.314   7.743 -11.241  1.00  0.00     0.174 C 
ATOM     13  O   UNL     1     -16.125   7.004 -11.298  1.00  0.00    -0.344 OA
ATOM     14  C   UNL     1     -17.730   9.406 -11.378  1.00  0.00     0.179 C 
ATOM     15  C   UNL     1     -16.314  10.286 -11.169  1.00  0.00     0.202 C 
BRANCH  12  16
ATOM     16  O   UNL     1     -18.373   7.179 -12.592  1.00  0.00    -0.388 OA
ATOM     17  H   UNL     1     -17.842   7.717 -13.271  1.00  0.00     0.211 HD
ENDBRANCH  12  16
BRANCH  14  18
ATOM     18  O   UNL     1     -18.765  10.286 -11.496  1.00  0.00    -0.387 OA
ATOM     19  H   UNL     1     -18.567  11.045 -12.122  1.00  0.00     0.211 HD
ENDBRANCH  14  18
BRANCH  15  20
ATOM     20  O   UNL     1     -16.019  10.560 -12.588  1.00  0.00    -0.385 OA
ATOM     21  H   UNL     1     -16.785  11.222 -12.849  1.00  0.00     0.211 HD
ENDBRANCH  15  20
ENDBRANCH   8   9
ENDBRANCH   7   8
ENDBRANCH   1   7
BRANCH   2  22
ATOM     22  O   UNL     1     -12.422  13.997 -11.974  1.00  0.00    -0.387 OA
ATOM     23  H   UNL     1     -13.076  13.969 -12.783  1.00  0.00     0.211 HD
ENDBRANCH   2  22
BRANCH   3  24
ATOM     24  O   UNL     1     -10.089  13.430 -10.677  1.00  0.00    -0.387 OA
ATOM     25  H   UNL     1     -10.213  13.642  -9.725  1.00  0.00     0.211 HD
ENDBRANCH   3  24
BRANCH   5  26
ATOM     26  O   UNL     1     -10.509   9.396 -13.794  1.00  0.00    -0.454 OA
BRANCH  26  27
ATOM     27  C   UNL     1     -10.118   8.050 -13.154  1.00  0.00     0.214 A 
ATOM     28  C   UNL     1      -8.668   8.003 -12.781  1.00  0.00     0.180 A 
ATOM     29  C   UNL     1     -10.895   7.365 -12.123  1.00  0.00     0.239 A 
ATOM     30  O   UNL     1      -8.212   7.252 -11.808  1.00  0.00    -0.452 OA
ATOM     31  C   UNL     1     -10.348   7.203 -10.810  1.00  0.00     0.111 A 
ATOM     32  O   UNL     1     -12.110   6.953 -12.245  1.00  0.00    -0.285 OA
ATOM     33  C   UNL     1      -8.971   7.191 -10.722  1.00  0.00     0.146 A 
ATOM     34  C   UNL     1     -11.126   7.375  -9.550  1.00  0.00     0.134 A 
ATOM     35  C   UNL     1      -8.354   6.915  -9.503  1.00  0.00     0.094 A 
ATOM     36  C   UNL     1     -10.447   7.743  -8.348  1.00  0.00     0.093 A 
ATOM     37  C   UNL     1      -9.145   7.215  -8.306  1.00  0.00     0.123 A 
BRANCH  28  38
ATOM     38  C   UNL     1      -7.383   8.497 -13.232  1.00  0.00     0.025 A 
ATOM     39  C   UNL     1      -7.128   8.916 -14.600  1.00  0.00     0.062 A 
ATOM     40  C   UNL     1      -6.289   8.712 -12.238  1.00  0.00     0.016 A 
ATOM     41  C   UNL     1      -5.749   8.999 -14.993  1.00  0.00     0.158 A 
ATOM     42  C   UNL     1      -4.967   9.119 -12.746  1.00  0.00     0.051 A 
ATOM     43  C   UNL     1      -4.897   9.624 -14.080  1.00  0.00     0.157 A 
BRANCH  41  44
ATOM     44  O   UNL     1      -5.339   8.006 -15.932  1.00  0.00    -0.504 OA
ATOM     45  H   UNL     1      -4.920   7.042 -15.726  1.00  0.00     0.293 HD
ENDBRANCH  41  44
BRANCH  43  46
ATOM     46  O   UNL     1      -4.338  10.888 -14.312  1.00  0.00    -0.504 OA
ATOM     47  H   UNL     1      -4.025  11.415 -13.430  1.00  0.00     0.293 HD
ENDBRANCH  43  46
ENDBRANCH  28  38
BRANCH  34  48
ATOM     48  O   UNL     1     -12.454   6.882  -9.489  1.00  0.00    -0.507 OA
ATOM     49  H   UNL     1     -12.971   6.915  -8.583  1.00  0.00     0.293 HD
ENDBRANCH  34  48
BRANCH  37  50
ATOM     50  O   UNL     1      -8.539   6.983  -7.046  1.00  0.00    -0.508 OA
ATOM     51  H   UNL     1      -8.260   7.517  -6.168  1.00  0.00     0.293 HD
ENDBRANCH  37  50
ENDBRANCH  26  27
ENDBRANCH   5  26
BRANCH   4  52
ATOM     52  O   UNL     1      -8.540  10.864 -10.655  1.00  0.00    -0.384 OA
ATOM     53  H   UNL     1      -7.624  11.521 -10.682  1.00  0.00     0.211 HD
ENDBRANCH   4  52
TORSDOF 16
ENDMDL
MODEL 2
REMARK VINA RESULT:    -7.172      2.775      6.944
REMARK INTER + INTRA:         -12.160
REMARK INTER:                 -10.539
REMARK INTRA:                  -1.621
REMARK UNBOUND:                -1.634
REMARK SMILES C[C@@H]1O[C@@H](OC[C@@H]2O[C@H](Oc3c(-c4ccc(O)c(O)c4)oc4cc(O)cc(O)c4c3=O)[C@@H](O)[C@@H](O)[C@H]2O)[C@@H](O)[C@H](O)[C@H]1O
REMARK SMILES IDX 7 1 36 2 34 3 32 4 9 5 8 6 6 7 5 8 4 9 1 10 2 11 42 12 3 13
REMARK SMILES IDX 40 14 38 15 43 16 41 18 39 20 37 22 35 24 10 26 11 27 12 28
REMARK SMILES IDX 30 29 21 30 29 31 31 32 22 33 27 34 23 35 26 36 24 37 13 38
REMARK SMILES IDX 20 39 14 40 18 41 15 42 16 43 19 44 17 46 28 48 25 50 33 52
REMARK H PARENT 43 17 41 19 39 21 37 23 35 25 19 45 17 47 28 49 25 51 33 53
REMARK Flexibility Score: inf
ROOT
ATOM      1  C   UNL     1     -14.294   7.319 -10.268  1.00  0.00     0.180 C 
ATOM      2  C   UNL     1     -15.710   7.861  -9.936  1.00  0.00     0.177 C 
ATOM      3  C   UNL     1     -15.765   9.227 -10.818  1.00  0.00     0.180 C 
ATOM      4  C   UNL     1     -14.457   9.833 -11.679  1.00  0.00     0.214 C 
ATOM      5  C   UNL     1     -13.599   8.447 -12.231  1.00  0.00     0.339 C 
ATOM      6  O   UNL     1     -14.260   7.341 -11.691  1.00  0.00    -0.332 OA
ENDROOT
BRANCH   1   7
ATOM      7  C   UNL     1     -12.864   7.662  -9.293  1.00  0.00     0.198 C 
BRANCH   7   8
ATOM      8  O   UNL     1     -12.374   7.010  -7.826  1.00  0.00    -0.347 OA
BRANCH   8   9
ATOM      9  C   UNL     1     -12.455   7.639  -6.366  1.00  0.00     0.281 C 
ATOM     10  C   UNL     1     -14.231   7.486  -3.244  1.00  0.00     0.041 C 
ATOM     11  C   UNL     1     -13.497   8.636  -4.083  1.00  0.00     0.150 C 
ATOM     12  C   UNL     1     -12.066   8.903  -3.579  1.00  0.00     0.174 C 
ATOM     13  O   UNL     1     -13.377   8.938  -5.481  1.00  0.00    -0.344 OA
ATOM     14  C   UNL     1     -10.909   7.870  -4.426  1.00  0.00     0.179 C 
ATOM     15  C   UNL     1     -10.832   6.875  -5.779  1.00  0.00     0.202 C 
BRANCH  12  16
ATOM     16  O   UNL     1     -11.774  10.291  -3.946  1.00  0.00    -0.388 OA
ATOM     17  H   UNL     1     -10.997  10.376  -4.595  1.00  0.00     0.211 HD
ENDBRANCH  12  16
BRANCH  14  18
ATOM     18  O   UNL     1      -9.801   7.639  -3.665  1.00  0.00    -0.387 OA
ATOM     19  H   UNL     1     -10.018   7.309  -2.742  1.00  0.00     0.211 HD
ENDBRANCH  14  18
BRANCH  15  20
ATOM     20  O   UNL     1      -9.980   7.729  -6.625  1.00  0.00    -0.385 OA
ATOM     21  H   UNL     1      -9.264   8.073  -5.945  1.00  0.00     0.211 HD
ENDBRANCH  15  20
ENDBRANCH   8   9
ENDBRANCH   7   8
ENDBRANCH   1   7
BRANCH   2  22
ATOM     22  O   UNL     1     -16.793   6.932 -10.134  1.00  0.00    -0.387 OA
ATOM     23  H   UNL     1     -16.335   6.050 -10.443  1.00  0.00     0.211 HD
ENDBRANCH   2  22
BRANCH   3  24
ATOM     24  O   UNL     1     -17.010   9.272 -11.522  1.00  0.00    -0.387 OA
ATOM     25  H   UNL     1     -16.813   8.870 -12.398  1.00  0.00     0.211 HD
ENDBRANCH   3  24
BRANCH   5  26
ATOM     26  O   UNL     1     -12.049   8.193 -12.147  1.00  0.00    -0.454 OA
BRANCH  26  27
ATOM     27  C   UNL     1     -11.100   9.259 -12.727  1.00  0.00     0.214 A 
ATOM     28  C   UNL     1     -10.519  10.137 -11.661  1.00  0.00     0.180 A 
ATOM     29  C   UNL     1     -10.074   8.996 -13.735  1.00  0.00     0.239 A 
ATOM     30  O   UNL     1      -9.359  10.733 -11.789  1.00  0.00    -0.452 OA
ATOM     31  C   UNL     1      -8.691   9.141 -13.397  1.00  0.00     0.111 A 
ATOM     32  O   UNL     1     -10.285   8.539 -14.922  1.00  0.00    -0.285 OA
ATOM     33  C   UNL     1      -8.404  10.017 -12.371  1.00  0.00     0.146 A 
ATOM     34  C   UNL     1      -7.618   8.203 -13.833  1.00  0.00     0.134 A 
ATOM     35  C   UNL     1      -7.079  10.313 -12.058  1.00  0.00     0.094 A 
ATOM     36  C   UNL     1      -6.430   8.078 -13.049  1.00  0.00     0.093 A 
ATOM     37  C   UNL     1      -6.095   9.289 -12.420  1.00  0.00     0.123 A 
BRANCH  28  38
ATOM     38  C   UNL     1     -10.871  10.721 -10.383  1.00  0.00     0.025 A 
ATOM     39  C   UNL     1     -12.115  10.429  -9.691  1.00  0.00     0.062 A 
ATOM     40  C   UNL     1      -9.873  11.569  -9.665  1.00  0.00     0.016 A 
ATOM     41  C   UNL     1     -12.504  11.356  -8.664  1.00  0.00     0.158 A 
ATOM     42  C   UNL     1     -10.301  12.229  -8.418  1.00  0.00     0.051 A 
ATOM     43  C   UNL     1     -11.489  11.748  -7.789  1.00  0.00     0.157 A 
BRANCH  41  44
ATOM     44  O   UNL     1     -13.648  12.146  -8.982  1.00  0.00    -0.504 OA
ATOM     45  H   UNL     1     -14.659  11.996  -8.663  1.00  0.00     0.293 HD
ENDBRANCH  41  44
BRANCH  43  46
ATOM     46  O   UNL     1     -11.443  11.330  -6.452  1.00  0.00    -0.504 OA
ATOM     47  H   UNL     1     -12.382  11.371  -5.930  1.00  0.00     0.293 HD
ENDBRANCH  43  46
ENDBRANCH  28  38
BRANCH  34  48
ATOM     48  O   UNL     1      -7.651   7.686 -15.153  1.00  0.00    -0.507 OA
ATOM     49  H   UNL     1      -8.545   7.302 -15.531  1.00  0.00     0.293 HD
ENDBRANCH  34  48
BRANCH  37  50
ATOM     50  O   UNL     1      -4.739   9.536 -12.086  1.00  0.00    -0.508 OA
ATOM     51  H   UNL     1      -3.776   9.515 -12.536  1.00  0.00     0.293 HD
ENDBRANCH  37  50
ENDBRANCH  26  27
ENDBRANCH   5  26
BRANCH   4  52
ATOM     52  O   UNL     1     -14.822  11.021 -12.589  1.00  0.00    -0.384 OA
ATOM     53  H   UNL     1     -14.977  11.163 -13.696  1.00  0.00     0.211 HD
ENDBRANCH   4  52
TORSDOF 16
ENDMDL
MODEL 3
REMARK VINA RESULT:    -7.130      2.542      8.369
REMARK INTER + INTRA:         -12.098
REMARK INTER:                 -10.143
REMARK INTRA:                  -1.955
REMARK UNBOUND:                -1.634
REMARK SMILES C[C@@H]1O[C@@H](OC[C@@H]2O[C@H](Oc3c(-c4ccc(O)c(O)c4)oc4cc(O)cc(O)c4c3=O)[C@@H](O)[C@@H](O)[C@H]2O)[C@@H](O)[C@H](O)[C@H]1O
REMARK SMILES IDX 7 1 36 2 34 3 32 4 9 5 8 6 6 7 5 8 4 9 1 10 2 11 42 12 3 13
REMARK SMILES IDX 40 14 38 15 43 16 41 18 39 20 37 22 35 24 10 26 11 27 12 28
REMARK SMILES IDX 30 29 21 30 29 31 31 32 22 33 27 34 23 35 26 36 24 37 13 38
REMARK SMILES IDX 20 39 14 40 18 41 15 42 16 43 19 44 17 46 28 48 25 50 33 52
REMARK H PARENT 43 17 41 19 39 21 37 23 35 25 19 45 17 47 28 49 25 51 33 53
REMARK Flexibility Score: inf
ROOT
ATOM      1  C   UNL     1     -11.274  11.482 -11.849  1.00  0.00     0.180 C 
ATOM      2  C   UNL     1     -12.354  12.445 -12.409  1.00  0.00     0.177 C 
ATOM      3  C   UNL     1     -13.650  12.063 -11.504  1.00  0.00     0.180 C 
ATOM      4  C   UNL     1     -13.676  10.797 -10.402  1.00  0.00     0.214 C 
ATOM      5  C   UNL     1     -12.083  10.730  -9.755  1.00  0.00     0.339 C 
ATOM      6  O   UNL     1     -11.344  11.694 -10.443  1.00  0.00    -0.332 OA
ENDROOT
BRANCH   1   7
ATOM      7  C   UNL     1     -10.927   9.896 -12.539  1.00  0.00     0.198 C 
BRANCH   7   8
ATOM      8  O   UNL     1      -9.532   8.965 -12.462  1.00  0.00    -0.347 OA
BRANCH   8   9
ATOM      9  C   UNL     1      -8.080   9.274 -13.034  1.00  0.00     0.281 C 
ATOM     10  C   UNL     1      -4.574   9.168 -12.242  1.00  0.00     0.041 C 
ATOM     11  C   UNL     1      -5.513  10.109 -13.135  1.00  0.00     0.150 C 
ATOM     12  C   UNL     1      -5.477   9.724 -14.627  1.00  0.00     0.174 C 
ATOM     13  O   UNL     1      -6.849  10.618 -12.997  1.00  0.00    -0.344 OA
ATOM     14  C   UNL     1      -6.727   8.528 -14.988  1.00  0.00     0.179 C 
ATOM     15  C   UNL     1      -8.105   7.866 -14.290  1.00  0.00     0.202 C 
BRANCH  12  16
ATOM     16  O   UNL     1      -5.809  10.950 -15.356  1.00  0.00    -0.388 OA
ATOM     17  H   UNL     1      -6.201  10.771 -16.276  1.00  0.00     0.211 HD
ENDBRANCH  12  16
BRANCH  14  18
ATOM     18  O   UNL     1      -6.382   7.759 -16.060  1.00  0.00    -0.387 OA
ATOM     19  H   UNL     1      -7.168   7.499 -16.628  1.00  0.00     0.211 HD
ENDBRANCH  14  18
BRANCH  15  20
ATOM     20  O   UNL     1      -9.112   8.496 -15.162  1.00  0.00    -0.385 OA
ATOM     21  H   UNL     1      -9.746   8.958 -14.471  1.00  0.00     0.211 HD
ENDBRANCH  15  20
ENDBRANCH   8   9
ENDBRANCH   7   8
ENDBRANCH   1   7
BRANCH   2  22
ATOM     22  O   UNL     1     -11.988  13.838 -12.441  1.00  0.00    -0.387 OA
ATOM     23  H   UNL     1     -11.373  13.972 -11.613  1.00  0.00     0.211 HD
ENDBRANCH   2  22
BRANCH   3  24
ATOM     24  O   UNL     1     -14.256  13.271 -11.032  1.00  0.00    -0.387 OA
ATOM     25  H   UNL     1     -14.517  13.752 -11.849  1.00  0.00     0.211 HD
ENDBRANCH   3  24
BRANCH   5  26
ATOM     26  O   UNL     1     -11.186   9.451  -9.568  1.00  0.00    -0.454 OA
BRANCH  26  27
ATOM     27  C   UNL     1     -11.882   8.090  -9.377  1.00  0.00     0.214 A 
ATOM     28  C   UNL     1     -12.621   8.011  -8.076  1.00  0.00     0.180 A 
ATOM     29  C   UNL     1     -12.663   7.406 -10.407  1.00  0.00     0.239 A 
ATOM     30  O   UNL     1     -13.665   7.240  -7.901  1.00  0.00    -0.452 OA
ATOM     31  C   UNL     1     -14.070   7.217 -10.225  1.00  0.00     0.111 A 
ATOM     32  O   UNL     1     -12.220   7.018 -11.554  1.00  0.00    -0.285 OA
ATOM     33  C   UNL     1     -14.514   7.178  -8.919  1.00  0.00     0.146 A 
ATOM     34  C   UNL     1     -15.086   7.386 -11.302  1.00  0.00     0.134 A 
ATOM     35  C   UNL     1     -15.847   6.875  -8.646  1.00  0.00     0.094 A 
ATOM     36  C   UNL     1     -16.430   7.726 -10.956  1.00  0.00     0.093 A 
ATOM     37  C   UNL     1     -16.801   7.174  -9.717  1.00  0.00     0.123 A 
BRANCH  28  38
ATOM     38  C   UNL     1     -12.529   8.488  -6.711  1.00  0.00     0.025 A 
ATOM     39  C   UNL     1     -12.979   7.715  -5.566  1.00  0.00     0.062 A 
ATOM     40  C   UNL     1     -11.831   9.779  -6.431  1.00  0.00     0.016 A 
ATOM     41  C   UNL     1     -13.195   8.447  -4.349  1.00  0.00     0.158 A 
ATOM     42  C   UNL     1     -11.845  10.283  -5.047  1.00  0.00     0.051 A 
ATOM     43  C   UNL     1     -12.197   9.364  -4.012  1.00  0.00     0.157 A 
BRANCH  41  44
ATOM     44  O   UNL     1     -14.562   8.561  -3.961  1.00  0.00    -0.504 OA
ATOM     45  H   UNL     1     -14.988   9.239  -3.250  1.00  0.00     0.293 HD
ENDBRANCH  41  44
BRANCH  43  46
ATOM     46  O   UNL     1     -11.318   9.162  -2.938  1.00  0.00    -0.504 OA
ATOM     47  H   UNL     1     -10.418   9.747  -2.972  1.00  0.00     0.293 HD
ENDBRANCH  43  46
ENDBRANCH  28  38
BRANCH  34  48
ATOM     48  O   UNL     1     -14.789   6.917 -12.607  1.00  0.00    -0.507 OA
ATOM     49  H   UNL     1     -15.565   6.794 -13.295  1.00  0.00     0.293 HD
ENDBRANCH  34  48
BRANCH  37  50
ATOM     50  O   UNL     1     -18.172   6.914  -9.465  1.00  0.00    -0.508 OA
ATOM     51  H   UNL     1     -19.124   7.077  -9.911  1.00  0.00     0.293 HD
ENDBRANCH  37  50
ENDBRANCH  26  27
ENDBRANCH   5  26
BRANCH   4  52
ATOM     52  O   UNL     1     -14.946  10.771  -9.530  1.00  0.00    -0.384 OA
ATOM     53  H   UNL     1     -15.469  11.508  -8.856  1.00  0.00     0.211 HD
ENDBRANCH   4  52
TORSDOF 16
ENDMDL
MODEL 4
REMARK VINA RESULT:    -6.983      2.594      8.289
REMARK INTER + INTRA:         -11.882
REMARK INTER:                 -10.576
REMARK INTRA:                  -1.306
REMARK UNBOUND:                -1.634
REMARK SMILES C[C@@H]1O[C@@H](OC[C@@H]2O[C@H](Oc3c(-c4ccc(O)c(O)c4)oc4cc(O)cc(O)c4c3=O)[C@@H](O)[C@@H](O)[C@H]2O)[C@@H](O)[C@H](O)[C@H]1O
REMARK SMILES IDX 7 1 36 2 34 3 32 4 9 5 8 6 6 7 5 8 4 9 1 10 2 11 42 12 3 13
REMARK SMILES IDX 40 14 38 15 43 16 41 18 39 20 37 22 35 24 10 26 11 27 12 28
REMARK SMILES IDX 30 29 21 30 29 31 31 32 22 33 27 34 23 35 26 36 24 37 13 38
REMARK SMILES IDX 20 39 14 40 18 41 15 42 16 43 19 44 17 46 28 48 25 50 33 52
REMARK H PARENT 43 17 41 19 39 21 37 23 35 25 19 45 17 47 28 49 25 51 33 53
REMARK Flexibility Score: inf
ROOT
ATOM      1  C   UNL     1     -11.211  11.571 -11.577  1.00  0.00     0.180 C 
ATOM      2  C   UNL     1     -12.325  12.499 -12.129  1.00  0.00     0.177 C 
ATOM      3  C   UNL     1     -13.582  12.129 -11.165  1.00  0.00     0.180 C 
ATOM      4  C   UNL     1     -13.549  10.900 -10.021  1.00  0.00     0.214 C 
ATOM      5  C   UNL     1     -11.932  10.878  -9.431  1.00  0.00     0.339 C 
ATOM      6  O   UNL     1     -11.234  11.829 -10.177  1.00  0.00    -0.332 OA
ENDROOT
BRANCH   1   7
ATOM      7  C   UNL     1     -10.865   9.967 -12.227  1.00  0.00     0.198 C 
BRANCH   7   8
ATOM      8  O   UNL     1      -9.469   9.040 -12.130  1.00  0.00    -0.347 OA
BRANCH   8   9
ATOM      9  C   UNL     1      -8.151   9.106 -13.020  1.00  0.00     0.281 C 
ATOM     10  C   UNL     1      -6.905   8.774 -16.377  1.00  0.00     0.041 C 
ATOM     11  C   UNL     1      -6.328   8.480 -14.912  1.00  0.00     0.150 C 
ATOM     12  C   UNL     1      -5.438   9.626 -14.394  1.00  0.00     0.174 C 
ATOM     13  O   UNL     1      -6.892   7.973 -13.692  1.00  0.00    -0.344 OA
ATOM     14  C   UNL     1      -6.409  10.817 -13.519  1.00  0.00     0.179 C 
ATOM     15  C   UNL     1      -7.943  10.974 -12.850  1.00  0.00     0.202 C 
BRANCH  12  16
ATOM     16  O   UNL     1      -4.521   9.007 -13.434  1.00  0.00    -0.388 OA
ATOM     17  H   UNL     1      -4.998   8.600 -12.634  1.00  0.00     0.211 HD
ENDBRANCH  12  16
BRANCH  14  18
ATOM     18  O   UNL     1      -5.833  12.052 -13.559  1.00  0.00    -0.387 OA
ATOM     19  H   UNL     1      -4.853  12.023 -13.774  1.00  0.00     0.211 HD
ENDBRANCH  14  18
BRANCH  15  20
ATOM     20  O   UNL     1      -7.563  10.927 -11.426  1.00  0.00    -0.385 OA
ATOM     21  H   UNL     1      -8.402  11.340 -10.959  1.00  0.00     0.211 HD
ENDBRANCH  15  20
ENDBRANCH   8   9
ENDBRANCH   7   8
ENDBRANCH   1   7
BRANCH   2  22
ATOM     22  O   UNL     1     -11.983  13.895 -12.221  1.00  0.00    -0.387 OA
ATOM     23  H   UNL     1     -12.834  14.401 -11.902  1.00  0.00     0.211 HD
ENDBRANCH   2  22
BRANCH   3  24
ATOM     24  O   UNL     1     -14.189  13.344 -10.712  1.00  0.00    -0.387 OA
ATOM     25  H   UNL     1     -14.268  13.897 -11.520  1.00  0.00     0.211 HD
ENDBRANCH   3  24
BRANCH   5  26
ATOM     26  O   UNL     1     -11.010   9.619  -9.235  1.00  0.00    -0.454 OA
BRANCH  26  27
ATOM     27  C   UNL     1     -11.674   8.233  -9.134  1.00  0.00     0.214 A 
ATOM     28  C   UNL     1     -12.442   8.067  -7.858  1.00  0.00     0.180 A 
ATOM     29  C   UNL     1     -12.411   7.585 -10.217  1.00  0.00     0.239 A 
ATOM     30  O   UNL     1     -13.470   7.261  -7.751  1.00  0.00    -0.452 OA
ATOM     31  C   UNL     1     -13.816   7.351 -10.082  1.00  0.00     0.111 A 
ATOM     32  O   UNL     1     -11.930   7.269 -11.371  1.00  0.00    -0.285 OA
ATOM     33  C   UNL     1     -14.292   7.232  -8.792  1.00  0.00     0.146 A 
ATOM     34  C   UNL     1     -14.810   7.552 -11.175  1.00  0.00     0.134 A 
ATOM     35  C   UNL     1     -15.622   6.882  -8.571  1.00  0.00     0.094 A 
ATOM     36  C   UNL     1     -16.170   7.839 -10.847  1.00  0.00     0.093 A 
ATOM     37  C   UNL     1     -16.557   7.213  -9.649  1.00  0.00     0.123 A 
BRANCH  28  38
ATOM     38  C   UNL     1     -12.397   8.473  -6.468  1.00  0.00     0.025 A 
ATOM     39  C   UNL     1     -11.160   8.771  -5.766  1.00  0.00     0.062 A 
ATOM     40  C   UNL     1     -13.674   8.723  -5.735  1.00  0.00     0.016 A 
ATOM     41  C   UNL     1     -11.226   8.768  -4.332  1.00  0.00     0.158 A 
ATOM     42  C   UNL     1     -13.593   9.036  -4.298  1.00  0.00     0.051 A 
ATOM     43  C   UNL     1     -12.323   9.429  -3.776  1.00  0.00     0.157 A 
BRANCH  41  44
ATOM     44  O   UNL     1     -10.533   7.688  -3.709  1.00  0.00    -0.504 OA
ATOM     45  H   UNL     1     -10.523   6.658  -4.002  1.00  0.00     0.293 HD
ENDBRANCH  41  44
BRANCH  43  46
ATOM     46  O   UNL     1     -12.203  10.648  -3.094  1.00  0.00    -0.504 OA
ATOM     47  H   UNL     1     -12.994  10.858  -2.397  1.00  0.00     0.293 HD
ENDBRANCH  43  46
ENDBRANCH  28  38
BRANCH  34  48
ATOM     48  O   UNL     1     -14.469   7.160 -12.495  1.00  0.00    -0.507 OA
ATOM     49  H   UNL     1     -13.597   7.533 -12.931  1.00  0.00     0.293 HD
ENDBRANCH  34  48
BRANCH  37  50
ATOM     50  O   UNL     1     -17.926   6.906  -9.447  1.00  0.00    -0.508 OA
ATOM     51  H   UNL     1     -18.634   6.152  -9.696  1.00  0.00     0.293 HD
ENDBRANCH  37  50
ENDBRANCH  26  27
ENDBRANCH   5  26
BRANCH   4  52
ATOM     52  O   UNL     1     -14.786  10.886  -9.103  1.00  0.00    -0.384 OA
ATOM     53  H   UNL     1     -15.146  11.510  -8.236  1.00  0.00     0.211 HD
ENDBRANCH   4  52
TORSDOF 16
ENDMDL
MODEL 5
REMARK VINA RESULT:    -6.731      2.539      7.103
REMARK INTER + INTRA:         -11.512
REMARK INTER:                  -9.606
REMARK INTRA:                  -1.906
REMARK UNBOUND:                -1.634
REMARK SMILES C[C@@H]1O[C@@H](OC[C@@H]2O[C@H](Oc3c(-c4ccc(O)c(O)c4)oc4cc(O)cc(O)c4c3=O)[C@@H](O)[C@@H](O)[C@H]2O)[C@@H](O)[C@H](O)[C@H]1O
REMARK SMILES IDX 7 1 36 2 34 3 32 4 9 5 8 6 6 7 5 8 4 9 1 10 2 11 42 12 3 13
REMARK SMILES IDX 40 14 38 15 43 16 41 18 39 20 37 22 35 24 10 26 11 27 12 28
REMARK SMILES IDX 30 29 21 30 29 31 31 32 22 33 27 34 23 35 26 36 24 37 13 38
REMARK SMILES IDX 20 39 14 40 18 41 15 42 16 43 19 44 17 46 28 48 25 50 33 52
REMARK H PARENT 43 17 41 19 39 21 37 23 35 25 19 45 17 47 28 49 25 51 33 53
REMARK Flexibility Score: inf
ROOT
ATOM      1  C   UNL     1     -11.252   9.982  -5.682  1.00  0.00     0.180 C 
ATOM      2  C   UNL     1     -12.255   9.882  -4.501  1.00  0.00     0.177 C 
ATOM      3  C   UNL     1     -13.288   8.742  -5.030  1.00  0.00     0.180 C 
ATOM      4  C   UNL     1     -13.227   8.072  -6.569  1.00  0.00     0.214 C 
ATOM      5  C   UNL     1     -11.556   8.021  -6.973  1.00  0.00     0.339 C 
ATOM      6  O   UNL     1     -10.881   8.627  -5.912  1.00  0.00    -0.332 OA
ENDROOT
BRANCH   1   7
ATOM      7  C   UNL     1     -11.407  11.145  -6.999  1.00  0.00     0.198 C 
BRANCH   7   8
ATOM      8  O   UNL     1     -12.518  11.214  -8.256  1.00  0.00    -0.347 OA
BRANCH   8   9
ATOM      9  C   UNL     1     -12.290  11.602  -9.782  1.00  0.00     0.281 C 
ATOM     10  C   UNL     1     -10.416  10.763 -12.734  1.00  0.00     0.041 C 
ATOM     11  C   UNL     1     -11.025  12.109 -12.114  1.00  0.00     0.150 C 
ATOM     12  C   UNL     1     -12.384  12.476 -12.740  1.00  0.00     0.174 C 
ATOM     13  O   UNL     1     -11.164  12.629 -10.783  1.00  0.00    -0.344 OA
ATOM     14  C   UNL     1     -13.705  11.735 -11.829  1.00  0.00     0.179 C 
ATOM     15  C   UNL     1     -13.973  10.971 -10.356  1.00  0.00     0.202 C 
BRANCH  12  16
ATOM     16  O   UNL     1     -12.503  13.929 -12.593  1.00  0.00    -0.388 OA
ATOM     17  H   UNL     1     -13.282  14.207 -12.002  1.00  0.00     0.211 HD
ENDBRANCH  12  16
BRANCH  14  18
ATOM     18  O   UNL     1     -14.800  11.535 -12.617  1.00  0.00    -0.387 OA
ATOM     19  H   UNL     1     -14.595  11.594 -13.598  1.00  0.00     0.211 HD
ENDBRANCH  14  18
BRANCH  15  20
ATOM     20  O   UNL     1     -14.740  12.042  -9.694  1.00  0.00    -0.385 OA
ATOM     21  H   UNL     1     -14.889  11.649  -8.737  1.00  0.00     0.211 HD
ENDBRANCH  15  20
ENDBRANCH   8   9
ENDBRANCH   7   8
ENDBRANCH   1   7
BRANCH   2  22
ATOM     22  O   UNL     1     -11.668   9.657  -3.205  1.00  0.00    -0.387 OA
ATOM     23  H   UNL     1     -11.591  10.603  -2.779  1.00  0.00     0.211 HD
ENDBRANCH   2  22
BRANCH   3  24
ATOM     24  O   UNL     1     -13.506   7.794  -3.980  1.00  0.00    -0.387 OA
ATOM     25  H   UNL     1     -13.991   7.055  -4.411  1.00  0.00     0.211 HD
ENDBRANCH   3  24
BRANCH   5  26
ATOM     26  O   UNL     1     -10.889   8.485  -8.320  1.00  0.00    -0.454 OA
BRANCH  26  27
ATOM     27  C   UNL     1     -10.463   7.407  -9.336  1.00  0.00     0.214 A 
ATOM     28  C   UNL     1     -11.427   7.293 -10.476  1.00  0.00     0.180 A 
ATOM     29  C   UNL     1      -9.103   7.242  -9.848  1.00  0.00     0.239 A 
ATOM     30  O   UNL     1     -11.071   6.875 -11.665  1.00  0.00    -0.452 OA
ATOM     31  C   UNL     1      -8.831   7.475 -11.233  1.00  0.00     0.111 A 
ATOM     32  O   UNL     1      -8.058   6.986  -9.138  1.00  0.00    -0.285 OA
ATOM     33  C   UNL     1      -9.892   7.304 -12.099  1.00  0.00     0.146 A 
ATOM     34  C   UNL     1      -7.623   8.183 -11.744  1.00  0.00     0.134 A 
ATOM     35  C   UNL     1      -9.689   7.389 -13.475  1.00  0.00     0.094 A 
ATOM     36  C   UNL     1      -7.678   8.850 -13.006  1.00  0.00     0.093 A 
ATOM     37  C   UNL     1      -8.542   8.196 -13.901  1.00  0.00     0.123 A 
BRANCH  28  38
ATOM     38  C   UNL     1     -12.844   7.416 -10.755  1.00  0.00     0.025 A 
ATOM     39  C   UNL     1     -13.762   8.150  -9.900  1.00  0.00     0.062 A 
ATOM     40  C   UNL     1     -13.389   6.875 -12.036  1.00  0.00     0.016 A 
ATOM     41  C   UNL     1     -15.159   7.860 -10.071  1.00  0.00     0.158 A 
ATOM     42  C   UNL     1     -14.847   6.926 -12.240  1.00  0.00     0.051 A 
ATOM     43  C   UNL     1     -15.604   7.790 -11.392  1.00  0.00     0.157 A 
BRANCH  41  44
ATOM     44  O   UNL     1     -15.757   7.165  -8.978  1.00  0.00    -0.504 OA
ATOM     45  H   UNL     1     -16.647   7.426  -8.442  1.00  0.00     0.293 HD
ENDBRANCH  41  44
BRANCH  43  46
ATOM     46  O   UNL     1     -16.431   8.768 -11.963  1.00  0.00    -0.504 OA
ATOM     47  H   UNL     1     -17.485   8.585 -11.866  1.00  0.00     0.293 HD
ENDBRANCH  43  46
ENDBRANCH  28  38
BRANCH  34  48
ATOM     48  O   UNL     1      -6.369   7.932 -11.132  1.00  0.00    -0.507 OA
ATOM     49  H   UNL     1      -6.294   7.952 -10.090  1.00  0.00     0.293 HD
ENDBRANCH  34  48
BRANCH  37  50
ATOM     50  O   UNL     1      -8.322   8.337 -15.294  1.00  0.00    -0.508 OA
ATOM     51  H   UNL     1      -8.166   9.102 -16.017  1.00  0.00     0.293 HD
ENDBRANCH  37  50
ENDBRANCH  26  27
ENDBRANCH   5  26
BRANCH   4  52
ATOM     52  O   UNL     1     -14.181   6.877  -6.753  1.00  0.00    -0.384 OA
ATOM     53  H   UNL     1     -14.433   5.955  -6.154  1.00  0.00     0.211 HD
ENDBRANCH   4  52
TORSDOF 16
ENDMDL
MODEL 6
REMARK VINA RESULT:    -6.537      1.928      2.448
REMARK INTER + INTRA:         -11.227
REMARK INTER:                 -10.732
REMARK INTRA:                  -0.496
REMARK UNBOUND:                -1.634
REMARK SMILES C[C@@H]1O[C@@H](OC[C@@H]2O[C@H](Oc3c(-c4ccc(O)c(O)c4)oc4cc(O)cc(O)c4c3=O)[C@@H](O)[C@@H](O)[C@H]2O)[C@@H](O)[C@H](O)[C@H]1O
REMARK SMILES IDX 7 1 36 2 34 3 32 4 9 5 8 6 6 7 5 8 4 9 1 10 2 11 42 12 3 13
REMARK SMILES IDX 40 14 38 15 43 16 41 18 39 20 37 22 35 24 10 26 11 27 12 28
REMARK SMILES IDX 30 29 21 30 29 31 31 32 22 33 27 34 23 35 26 36 24 37 13 38
REMARK SMILES IDX 20 39 14 40 18 41 15 42 16 43 19 44 17 46 28 48 25 50 33 52
REMARK H PARENT 43 17 41 19 39 21 37 23 35 25 19 45 17 47 28 49 25 51 33 53
REMARK Flexibility Score: inf
ROOT
ATOM      1  C   UNL     1     -14.118  11.432 -11.545  1.00  0.00     0.180 C 
ATOM      2  C   UNL     1     -14.670  12.278 -10.366  1.00  0.00     0.177 C 
ATOM      3  C   UNL     1     -13.713  11.810  -9.137  1.00  0.00     0.180 C 
ATOM      4  C   UNL     1     -12.576  10.580  -9.258  1.00  0.00     0.214 C 
ATOM      5  C   UNL     1     -11.979  10.675 -10.869  1.00  0.00     0.339 C 
ATOM      6  O   UNL     1     -12.717  11.680 -11.498  1.00  0.00    -0.332 OA
ENDROOT
BRANCH   1   7
ATOM      7  C   UNL     1     -14.775   9.863 -12.013  1.00  0.00     0.198 C 
BRANCH   7   8
ATOM      8  O   UNL     1     -15.719   8.782 -11.141  1.00  0.00    -0.347 OA
BRANCH   8   9
ATOM      9  C   UNL     1     -17.238   8.363 -11.364  1.00  0.00     0.281 C 
ATOM     10  C   UNL     1     -20.098   6.886  -9.761  1.00  0.00     0.041 C 
ATOM     11  C   UNL     1     -19.518   6.919 -11.254  1.00  0.00     0.150 C 
ATOM     12  C   UNL     1     -20.205   7.990 -12.123  1.00  0.00     0.174 C 
ATOM     13  O   UNL     1     -18.199   6.883 -11.821  1.00  0.00    -0.344 OA
ATOM     14  C   UNL     1     -19.344   9.530 -12.004  1.00  0.00     0.179 C 
ATOM     15  C   UNL     1     -17.877  10.136 -11.452  1.00  0.00     0.202 C 
BRANCH  12  16
ATOM     16  O   UNL     1     -20.077   7.515 -13.503  1.00  0.00    -0.388 OA
ATOM     17  H   UNL     1     -19.274   7.907 -13.986  1.00  0.00     0.211 HD
ENDBRANCH  12  16
BRANCH  14  18
ATOM     18  O   UNL     1     -20.177  10.583 -12.243  1.00  0.00    -0.387 OA
ATOM     19  H   UNL     1     -19.860  11.438 -11.825  1.00  0.00     0.211 HD
ENDBRANCH  14  18
BRANCH  15  20
ATOM     20  O   UNL     1     -17.259  10.426 -12.759  1.00  0.00    -0.385 OA
ATOM     21  H   UNL     1     -16.357   9.901 -12.698  1.00  0.00     0.211 HD
ENDBRANCH  15  20
ENDBRANCH   8   9
ENDBRANCH   7   8
ENDBRANCH   1   7
BRANCH   2  22
ATOM     22  O   UNL     1     -14.753  13.696 -10.604  1.00  0.00    -0.387 OA
ATOM     23  H   UNL     1     -14.618  13.803 -11.631  1.00  0.00     0.211 HD
ENDBRANCH   2  22
BRANCH   3  24
ATOM     24  O   UNL     1     -13.257  12.973  -8.440  1.00  0.00    -0.387 OA
ATOM     25  H   UNL     1     -13.700  13.724  -8.893  1.00  0.00     0.211 HD
ENDBRANCH   3  24
BRANCH   5  26
ATOM     26  O   UNL     1     -11.786   9.488 -11.882  1.00  0.00    -0.454 OA
BRANCH  26  27
ATOM     27  C   UNL     1     -11.337   8.121 -11.332  1.00  0.00     0.214 A 
ATOM     28  C   UNL     1      -9.848   8.027 -11.199  1.00  0.00     0.180 A 
ATOM     29  C   UNL     1     -11.957   7.440 -10.196  1.00  0.00     0.239 A 
ATOM     30  O   UNL     1      -9.263   7.248 -10.324  1.00  0.00    -0.452 OA
ATOM     31  C   UNL     1     -11.210   7.240  -8.992  1.00  0.00     0.111 A 
ATOM     32  O   UNL     1     -13.188   7.063 -10.124  1.00  0.00    -0.285 OA
ATOM     33  C   UNL     1      -9.837   7.188  -9.129  1.00  0.00     0.146 A 
ATOM     34  C   UNL     1     -11.767   7.411  -7.620  1.00  0.00     0.134 A 
ATOM     35  C   UNL     1      -9.040   6.875  -8.030  1.00  0.00     0.094 A 
ATOM     36  C   UNL     1     -10.892   7.740  -6.540  1.00  0.00     0.093 A 
ATOM     37  C   UNL     1      -9.616   7.176  -6.717  1.00  0.00     0.123 A 
BRANCH  28  38
ATOM     38  C   UNL     1      -8.639   8.494 -11.848  1.00  0.00     0.025 A 
ATOM     39  C   UNL     1      -7.896   9.660 -11.401  1.00  0.00     0.062 A 
ATOM     40  C   UNL     1      -8.041   7.686 -12.952  1.00  0.00     0.016 A 
ATOM     41  C   UNL     1      -6.976  10.229 -12.346  1.00  0.00     0.158 A 
ATOM     42  C   UNL     1      -6.871   8.241 -13.656  1.00  0.00     0.051 A 
ATOM     43  C   UNL     1      -6.170   9.316 -13.029  1.00  0.00     0.157 A 
BRANCH  41  44
ATOM     44  O   UNL     1      -7.363  11.504 -12.856  1.00  0.00    -0.504 OA
ATOM     45  H   UNL     1      -7.009  11.992 -13.741  1.00  0.00     0.293 HD
ENDBRANCH  41  44
BRANCH  43  46
ATOM     46  O   UNL     1      -4.795   9.196 -12.786  1.00  0.00    -0.504 OA
ATOM     47  H   UNL     1      -4.524   8.440 -12.072  1.00  0.00     0.293 HD
ENDBRANCH  43  46
ENDBRANCH  28  38
BRANCH  34  48
ATOM     48  O   UNL     1     -13.082   6.954  -7.350  1.00  0.00    -0.507 OA
ATOM     49  H   UNL     1     -13.896   7.475  -7.745  1.00  0.00     0.293 HD
ENDBRANCH  34  48
BRANCH  37  50
ATOM     50  O   UNL     1      -8.821   6.905  -5.575  1.00  0.00    -0.508 OA
ATOM     51  H   UNL     1      -8.247   6.114  -5.155  1.00  0.00     0.293 HD
ENDBRANCH  37  50
ENDBRANCH  26  27
ENDBRANCH   5  26
BRANCH   4  52
ATOM     52  O   UNL     1     -11.664  10.468  -8.021  1.00  0.00    -0.384 OA
ATOM     53  H   UNL     1     -11.754  10.748  -6.933  1.00  0.00     0.211 HD
ENDBRANCH   4  52
TORSDOF 16
ENDMDL
MODEL 7
REMARK VINA RESULT:    -6.533      1.571      8.693
REMARK INTER + INTRA:         -11.221
REMARK INTER:                  -8.654
REMARK INTRA:                  -2.568
REMARK UNBOUND:                -1.634
REMARK SMILES C[C@@H]1O[C@@H](OC[C@@H]2O[C@H](Oc3c(-c4ccc(O)c(O)c4)oc4cc(O)cc(O)c4c3=O)[C@@H](O)[C@@H](O)[C@H]2O)[C@@H](O)[C@H](O)[C@H]1O
REMARK SMILES IDX 7 1 36 2 34 3 32 4 9 5 8 6 6 7 5 8 4 9 1 10 2 11 42 12 3 13
REMARK SMILES IDX 40 14 38 15 43 16 41 18 39 20 37 22 35 24 10 26 11 27 12 28
REMARK SMILES IDX 30 29 21 30 29 31 31 32 22 33 27 34 23 35 26 36 24 37 13 38
REMARK SMILES IDX 20 39 14 40 18 41 15 42 16 43 19 44 17 46 28 48 25 50 33 52
REMARK H PARENT 43 17 41 19 39 21 37 23 35 25 19 45 17 47 28 49 25 51 33 53
REMARK Flexibility Score: inf
ROOT
ATOM      1  C   UNL     1     -10.233   6.884  -8.668  1.00  0.00     0.180 C 
ATOM      2  C   UNL     1      -9.896   7.664  -7.370  1.00  0.00     0.177 C 
ATOM      3  C   UNL     1     -10.697   9.062  -7.597  1.00  0.00     0.180 C 
ATOM      4  C   UNL     1     -11.497   9.456  -9.020  1.00  0.00     0.214 C 
ATOM      5  C   UNL     1     -12.113   7.965  -9.619  1.00  0.00     0.339 C 
ATOM      6  O   UNL     1     -11.651   6.976  -8.747  1.00  0.00    -0.332 OA
ENDROOT
BRANCH   1   7
ATOM      7  C   UNL     1      -9.214   6.898 -10.109  1.00  0.00     0.198 C 
BRANCH   7   8
ATOM      8  O   UNL     1      -7.692   7.563 -10.350  1.00  0.00    -0.347 OA
BRANCH   8   9
ATOM      9  C   UNL     1      -7.151   8.428 -11.572  1.00  0.00     0.281 C 
ATOM     10  C   UNL     1      -4.235  10.063 -12.895  1.00  0.00     0.041 C 
ATOM     11  C   UNL     1      -5.814  10.332 -12.943  1.00  0.00     0.150 C 
ATOM     12  C   UNL     1      -6.455   9.807 -14.242  1.00  0.00     0.174 C 
ATOM     13  O   UNL     1      -6.888  10.179 -12.003  1.00  0.00    -0.344 OA
ATOM     14  C   UNL     1      -6.982   8.132 -14.040  1.00  0.00     0.179 C 
ATOM     15  C   UNL     1      -7.240   7.010 -12.815  1.00  0.00     0.202 C 
BRANCH  12  16
ATOM     16  O   UNL     1      -7.652  10.628 -14.447  1.00  0.00    -0.388 OA
ATOM     17  H   UNL     1      -8.487  10.076 -14.623  1.00  0.00     0.211 HD
ENDBRANCH  12  16
BRANCH  14  18
ATOM     18  O   UNL     1      -7.000   7.471 -15.233  1.00  0.00    -0.387 OA
ATOM     19  H   UNL     1      -6.531   7.969 -15.967  1.00  0.00     0.211 HD
ENDBRANCH  14  18
BRANCH  15  20
ATOM     20  O   UNL     1      -8.713   6.977 -12.860  1.00  0.00    -0.385 OA
ATOM     21  H   UNL     1      -8.897   6.643 -13.834  1.00  0.00     0.211 HD
ENDBRANCH  15  20
ENDBRANCH   8   9
ENDBRANCH   7   8
ENDBRANCH   1   7
BRANCH   2  22
ATOM     22  O   UNL     1     -10.168   6.968  -6.139  1.00  0.00    -0.387 OA
ATOM     23  H   UNL     1      -9.785   6.011  -6.283  1.00  0.00     0.211 HD
ENDBRANCH   2  22
BRANCH   3  24
ATOM     24  O   UNL     1     -11.420   9.378  -6.404  1.00  0.00    -0.387 OA
ATOM     25  H   UNL     1     -12.241   8.840  -6.462  1.00  0.00     0.211 HD
ENDBRANCH   3  24
BRANCH   5  26
ATOM     26  O   UNL     1     -12.017   7.419 -11.091  1.00  0.00    -0.454 OA
BRANCH  26  27
ATOM     27  C   UNL     1     -12.242   8.404 -12.254  1.00  0.00     0.214 A 
ATOM     28  C   UNL     1     -13.597   9.041 -12.199  1.00  0.00     0.180 A 
ATOM     29  C   UNL     1     -11.268   9.401 -12.697  1.00  0.00     0.239 A 
ATOM     30  O   UNL     1     -13.844  10.224 -12.706  1.00  0.00    -0.452 OA
ATOM     31  C   UNL     1     -11.560  10.794 -12.552  1.00  0.00     0.111 A 
ATOM     32  O   UNL     1     -10.083   9.150 -13.139  1.00  0.00    -0.285 OA
ATOM     33  C   UNL     1     -12.897  11.137 -12.530  1.00  0.00     0.146 A 
ATOM     34  C   UNL     1     -10.571  11.818 -12.110  1.00  0.00     0.134 A 
ATOM     35  C   UNL     1     -13.271  12.479 -12.516  1.00  0.00     0.094 A 
ATOM     36  C   UNL     1     -11.029  13.012 -11.473  1.00  0.00     0.093 A 
ATOM     37  C   UNL     1     -12.285  13.410 -11.963  1.00  0.00     0.123 A 
BRANCH  28  38
ATOM     38  C   UNL     1     -14.958   8.736 -11.805  1.00  0.00     0.025 A 
ATOM     39  C   UNL     1     -16.048   9.690 -11.908  1.00  0.00     0.062 A 
ATOM     40  C   UNL     1     -15.304   7.346 -11.385  1.00  0.00     0.016 A 
ATOM     41  C   UNL     1     -17.221   9.402 -11.131  1.00  0.00     0.158 A 
ATOM     42  C   UNL     1     -16.671   7.095 -10.894  1.00  0.00     0.051 A 
ATOM     43  C   UNL     1     -17.667   8.079 -11.178  1.00  0.00     0.157 A 
BRANCH  41  44
ATOM     44  O   UNL     1     -17.440  10.289 -10.036  1.00  0.00    -0.504 OA
ATOM     45  H   UNL     1     -16.760  11.010  -9.630  1.00  0.00     0.293 HD
ENDBRANCH  41  44
BRANCH  43  46
ATOM     46  O   UNL     1     -18.840   7.701 -11.845  1.00  0.00    -0.504 OA
ATOM     47  H   UNL     1     -18.918   8.048 -12.859  1.00  0.00     0.293 HD
ENDBRANCH  43  46
ENDBRANCH  28  38
BRANCH  34  48
ATOM     48  O   UNL     1      -9.239  11.740 -12.591  1.00  0.00    -0.507 OA
ATOM     49  H   UNL     1      -8.672  10.886 -12.394  1.00  0.00     0.293 HD
ENDBRANCH  34  48
BRANCH  37  50
ATOM     50  O   UNL     1     -12.642  14.781 -11.898  1.00  0.00    -0.508 OA
ATOM     51  H   UNL     1     -12.190  15.742 -11.965  1.00  0.00     0.293 HD
ENDBRANCH  37  50
ENDBRANCH  26  27
ENDBRANCH   5  26
BRANCH   4  52
ATOM     52  O   UNL     1     -12.342  10.739  -8.910  1.00  0.00    -0.384 OA
ATOM     53  H   UNL     1     -12.630  11.438  -8.074  1.00  0.00     0.211 HD
ENDBRANCH   4  52
TORSDOF 16
ENDMDL
MODEL 8
REMARK VINA RESULT:    -6.005      2.184      3.499
REMARK INTER + INTRA:         -10.447
REMARK INTER:                  -8.469
REMARK INTRA:                  -1.978
REMARK UNBOUND:                -1.634
REMARK SMILES C[C@@H]1O[C@@H](OC[C@@H]2O[C@H](Oc3c(-c4ccc(O)c(O)c4)oc4cc(O)cc(O)c4c3=O)[C@@H](O)[C@@H](O)[C@H]2O)[C@@H](O)[C@H](O)[C@H]1O
REMARK SMILES IDX 7 1 36 2 34 3 32 4 9 5 8 6 6 7 5 8 4 9 1 10 2 11 42 12 3 13
REMARK SMILES IDX 40 14 38 15 43 16 41 18 39 20 37 22 35 24 10 26 11 27 12 28
REMARK SMILES IDX 30 29 21 30 29 31 31 32 22 33 27 34 23 35 26 36 24 37 13 38
REMARK SMILES IDX 20 39 14 40 18 41 15 42 16 43 19 44 17 46 28 48 25 50 33 52
REMARK H PARENT 43 17 41 19 39 21 37 23 35 25 19 45 17 47 28 49 25 51 33 53
REMARK Flexibility Score: inf
ROOT
ATOM      1  C   UNL     1     -12.469  11.770 -12.592  1.00  0.00     0.180 C 
ATOM      2  C   UNL     1     -12.141  12.864 -11.542  1.00  0.00     0.177 C 
ATOM      3  C   UNL     1     -10.690  12.377 -10.989  1.00  0.00     0.180 C 
ATOM      4  C   UNL     1      -9.960  10.933 -11.436  1.00  0.00     0.214 C 
ATOM      5  C   UNL     1     -10.423  10.682 -13.074  1.00  0.00     0.339 C 
ATOM      6  O   UNL     1     -11.295  11.724 -13.395  1.00  0.00    -0.332 OA
ENDROOT
BRANCH   1   7
ATOM      7  C   UNL     1     -13.414  10.324 -12.234  1.00  0.00     0.198 C 
BRANCH   7   8
ATOM      8  O   UNL     1     -13.555   9.450 -10.807  1.00  0.00    -0.347 OA
BRANCH   8   9
ATOM      9  C   UNL     1     -12.896   9.727  -9.386  1.00  0.00     0.281 C 
ATOM     10  C   UNL     1     -11.656  12.321  -7.226  1.00  0.00     0.041 C 
ATOM     11  C   UNL     1     -11.284  10.787  -7.495  1.00  0.00     0.150 C 
ATOM     12  C   UNL     1     -11.923   9.841  -6.460  1.00  0.00     0.174 C 
ATOM     13  O   UNL     1     -11.238   9.954  -8.664  1.00  0.00    -0.344 OA
ATOM     14  C   UNL     1     -13.517   9.309  -7.009  1.00  0.00     0.179 C 
ATOM     15  C   UNL     1     -14.450   9.296  -8.407  1.00  0.00     0.202 C 
BRANCH  12  16
ATOM     16  O   UNL     1     -11.052   8.664  -6.415  1.00  0.00    -0.388 OA
ATOM     17  H   UNL     1     -11.567   7.788  -6.407  1.00  0.00     0.211 HD
ENDBRANCH  12  16
BRANCH  14  18
ATOM     18  O   UNL     1     -14.322   8.988  -5.957  1.00  0.00    -0.387 OA
ATOM     19  H   UNL     1     -15.266   9.311  -6.070  1.00  0.00     0.211 HD
ENDBRANCH  14  18
BRANCH  15  20
ATOM     20  O   UNL     1     -14.383   7.852  -8.697  1.00  0.00    -0.385 OA
ATOM     21  H   UNL     1     -13.841   7.487  -7.882  1.00  0.00     0.211 HD
ENDBRANCH  15  20
ENDBRANCH   8   9
ENDBRANCH   7   8
ENDBRANCH   1   7
BRANCH   2  22
ATOM     22  O   UNL     1     -12.219  14.222 -12.014  1.00  0.00    -0.387 OA
ATOM     23  H   UNL     1     -11.690  14.780 -11.313  1.00  0.00     0.211 HD
ENDBRANCH   2  22
BRANCH   3  24
ATOM     24  O   UNL     1      -9.807  13.503 -10.959  1.00  0.00    -0.387 OA
ATOM     25  H   UNL     1      -9.076  13.260 -11.570  1.00  0.00     0.211 HD
ENDBRANCH   3  24
BRANCH   5  26
ATOM     26  O   UNL     1     -10.973   9.354 -13.713  1.00  0.00    -0.454 OA
BRANCH  26  27
ATOM     27  C   UNL     1     -10.426   8.010 -13.195  1.00  0.00     0.214 A 
ATOM     28  C   UNL     1      -8.929   7.958 -13.230  1.00  0.00     0.180 A 
ATOM     29  C   UNL     1     -10.894   7.335 -11.985  1.00  0.00     0.239 A 
ATOM     30  O   UNL     1      -8.227   7.212 -12.414  1.00  0.00    -0.452 OA
ATOM     31  C   UNL     1     -10.011   7.179 -10.870  1.00  0.00     0.111 A 
ATOM     32  O   UNL     1     -12.098   6.928 -11.769  1.00  0.00    -0.285 OA
ATOM     33  C   UNL     1      -8.662   7.160 -11.161  1.00  0.00     0.146 A 
ATOM     34  C   UNL     1     -10.414   7.361  -9.448  1.00  0.00     0.134 A 
ATOM     35  C   UNL     1      -7.737   6.889 -10.155  1.00  0.00     0.094 A 
ATOM     36  C   UNL     1      -9.433   7.734  -8.479  1.00  0.00     0.093 A 
ATOM     37  C   UNL     1      -8.170   7.201  -8.790  1.00  0.00     0.123 A 
BRANCH  28  38
ATOM     38  C   UNL     1      -7.815   8.444 -14.019  1.00  0.00     0.025 A 
ATOM     39  C   UNL     1      -6.944   9.524 -13.585  1.00  0.00     0.062 A 
ATOM     40  C   UNL     1      -7.449   7.738 -15.283  1.00  0.00     0.016 A 
ATOM     41  C   UNL     1      -6.156  10.155 -14.607  1.00  0.00     0.158 A 
ATOM     42  C   UNL     1      -6.377   8.320 -16.111  1.00  0.00     0.051 A 
ATOM     43  C   UNL     1      -5.524   9.290 -15.502  1.00  0.00     0.157 A 
BRANCH  41  44
ATOM     44  O   UNL     1      -6.546  11.492 -14.914  1.00  0.00    -0.504 OA
ATOM     45  H   UNL     1      -6.546  12.342 -14.261  1.00  0.00     0.293 HD
ENDBRANCH  41  44
BRANCH  43  46
ATOM     46  O   UNL     1      -4.137   9.089 -15.504  1.00  0.00    -0.504 OA
ATOM     47  H   UNL     1      -3.549   9.970 -15.323  1.00  0.00     0.293 HD
ENDBRANCH  43  46
ENDBRANCH  28  38
BRANCH  34  48
ATOM     48  O   UNL     1     -11.677   6.875  -9.023  1.00  0.00    -0.507 OA
ATOM     49  H   UNL     1     -12.159   7.334  -8.218  1.00  0.00     0.293 HD
ENDBRANCH  34  48
BRANCH  37  50
ATOM     50  O   UNL     1      -7.244   6.973  -7.741  1.00  0.00    -0.508 OA
ATOM     51  H   UNL     1      -7.232   6.817  -6.688  1.00  0.00     0.293 HD
ENDBRANCH  37  50
ENDBRANCH  26  27
ENDBRANCH   5  26
BRANCH   4  52
ATOM     52  O   UNL     1      -8.509  10.801 -10.935  1.00  0.00    -0.384 OA
ATOM     53  H   UNL     1      -7.944  11.142 -10.021  1.00  0.00     0.211 HD
ENDBRANCH   4  52
TORSDOF 16
ENDMDL
MODEL 9
REMARK VINA RESULT:    -5.734      2.474      6.937
REMARK INTER + INTRA:         -10.050
REMARK INTER:                  -9.572
REMARK INTRA:                  -0.477
REMARK UNBOUND:                -1.634
REMARK SMILES C[C@@H]1O[C@@H](OC[C@@H]2O[C@H](Oc3c(-c4ccc(O)c(O)c4)oc4cc(O)cc(O)c4c3=O)[C@@H](O)[C@@H](O)[C@H]2O)[C@@H](O)[C@H](O)[C@H]1O
REMARK SMILES IDX 7 1 36 2 34 3 32 4 9 5 8 6 6 7 5 8 4 9 1 10 2 11 42 12 3 13
REMARK SMILES IDX 40 14 38 15 43 16 41 18 39 20 37 22 35 24 10 26 11 27 12 28
REMARK SMILES IDX 30 29 21 30 29 31 31 32 22 33 27 34 23 35 26 36 24 37 13 38
REMARK SMILES IDX 20 39 14 40 18 41 15 42 16 43 19 44 17 46 28 48 25 50 33 52
REMARK H PARENT 43 17 41 19 39 21 37 23 35 25 19 45 17 47 28 49 25 51 33 53
REMARK Flexibility Score: inf
ROOT
ATOM      1  C   UNL     1     -11.528  11.862 -11.837  1.00  0.00     0.180 C 
ATOM      2  C   UNL     1     -12.634  12.166 -12.882  1.00  0.00     0.177 C 
ATOM      3  C   UNL     1     -13.885  11.297 -12.312  1.00  0.00     0.180 C 
ATOM      4  C   UNL     1     -13.774  10.254 -11.001  1.00  0.00     0.214 C 
ATOM      5  C   UNL     1     -12.636  10.986  -9.938  1.00  0.00     0.339 C 
ATOM      6  O   UNL     1     -12.170  12.126 -10.594  1.00  0.00    -0.332 OA
ENDROOT
BRANCH   1   7
ATOM      7  C   UNL     1     -10.339  10.571 -12.020  1.00  0.00     0.198 C 
BRANCH   7   8
ATOM      8  O   UNL     1      -9.574   9.993 -13.398  1.00  0.00    -0.347 OA
BRANCH   8   9
ATOM      9  C   UNL     1      -8.110  10.298 -13.942  1.00  0.00     0.281 C 
ATOM     10  C   UNL     1      -4.752  11.086 -12.927  1.00  0.00     0.041 C 
ATOM     11  C   UNL     1      -5.677  11.446 -14.184  1.00  0.00     0.150 C 
ATOM     12  C   UNL     1      -5.399  10.533 -15.394  1.00  0.00     0.174 C 
ATOM     13  O   UNL     1      -7.073  11.739 -14.353  1.00  0.00    -0.344 OA
ATOM     14  C   UNL     1      -6.431   9.100 -15.340  1.00  0.00     0.179 C 
ATOM     15  C   UNL     1      -7.795   8.534 -14.535  1.00  0.00     0.202 C 
BRANCH  12  16
ATOM     16  O   UNL     1      -5.785  11.316 -16.571  1.00  0.00    -0.388 OA
ATOM     17  H   UNL     1      -6.057  12.268 -16.344  1.00  0.00     0.211 HD
ENDBRANCH  12  16
BRANCH  14  18
ATOM     18  O   UNL     1      -5.856   8.049 -15.992  1.00  0.00    -0.387 OA
ATOM     19  H   UNL     1      -4.866   8.158 -16.118  1.00  0.00     0.211 HD
ENDBRANCH  14  18
BRANCH  15  20
ATOM     20  O   UNL     1      -8.751   8.608 -15.655  1.00  0.00    -0.385 OA
ATOM     21  H   UNL     1      -8.120   8.569 -16.488  1.00  0.00     0.211 HD
ENDBRANCH  15  20
ENDBRANCH   8   9
ENDBRANCH   7   8
ENDBRANCH   1   7
BRANCH   2  22
ATOM     22  O   UNL     1     -12.888  13.562 -13.129  1.00  0.00    -0.387 OA
ATOM     23  H   UNL     1     -11.967  14.029 -13.002  1.00  0.00     0.211 HD
ENDBRANCH   2  22
BRANCH   3  24
ATOM     24  O   UNL     1     -15.058  12.118 -12.318  1.00  0.00    -0.387 OA
ATOM     25  H   UNL     1     -15.330  12.152 -13.262  1.00  0.00     0.211 HD
ENDBRANCH   3  24
BRANCH   5  26
ATOM     26  O   UNL     1     -11.422  10.289  -9.220  1.00  0.00    -0.454 OA
BRANCH  26  27
ATOM     27  C   UNL     1     -11.650   8.915  -8.561  1.00  0.00     0.214 A 
ATOM     28  C   UNL     1     -10.398   8.095  -8.517  1.00  0.00     0.180 A 
ATOM     29  C   UNL     1     -12.399   8.703  -7.324  1.00  0.00     0.239 A 
ATOM     30  O   UNL     1     -10.183   7.179  -7.605  1.00  0.00    -0.452 OA
ATOM     31  C   UNL     1     -11.723   8.225  -6.156  1.00  0.00     0.111 A 
ATOM     32  O   UNL     1     -13.639   8.999  -7.134  1.00  0.00    -0.285 OA
ATOM     33  C   UNL     1     -10.580   7.484  -6.376  1.00  0.00     0.146 A 
ATOM     34  C   UNL     1     -11.972   8.730  -4.777  1.00  0.00     0.134 A 
ATOM     35  C   UNL     1      -9.928   6.877  -5.305  1.00  0.00     0.094 A 
ATOM     36  C   UNL     1     -10.937   8.637  -3.795  1.00  0.00     0.093 A 
ATOM     37  C   UNL     1     -10.135   7.501  -3.995  1.00  0.00     0.123 A 
BRANCH  28  38
ATOM     38  C   UNL     1      -9.194   7.855  -9.287  1.00  0.00     0.025 A 
ATOM     39  C   UNL     1      -9.011   8.333 -10.647  1.00  0.00     0.062 A 
ATOM     40  C   UNL     1      -8.025   7.195  -8.633  1.00  0.00     0.016 A 
ATOM     41  C   UNL     1      -7.972   7.700 -11.410  1.00  0.00     0.158 A 
ATOM     42  C   UNL     1      -6.856   6.875  -9.472  1.00  0.00     0.051 A 
ATOM     43  C   UNL     1      -6.758   7.520 -10.743  1.00  0.00     0.157 A 
BRANCH  41  44
ATOM     44  O   UNL     1      -8.438   6.876 -12.477  1.00  0.00    -0.504 OA
ATOM     45  H   UNL     1      -8.817   5.876 -12.416  1.00  0.00     0.293 HD
ENDBRANCH  41  44
BRANCH  43  46
ATOM     46  O   UNL     1      -5.608   8.257 -11.057  1.00  0.00    -0.504 OA
ATOM     47  H   UNL     1      -4.794   7.681 -11.458  1.00  0.00     0.293 HD
ENDBRANCH  43  46
ENDBRANCH  28  38
BRANCH  34  48
ATOM     48  O   UNL     1     -13.303   9.010  -4.376  1.00  0.00    -0.507 OA
ATOM     49  H   UNL     1     -14.081   8.885  -5.061  1.00  0.00     0.293 HD
ENDBRANCH  34  48
BRANCH  37  50
ATOM     50  O   UNL     1      -9.459   6.933  -2.885  1.00  0.00    -0.508 OA
ATOM     51  H   UNL     1      -8.869   7.236  -2.054  1.00  0.00     0.293 HD
ENDBRANCH  37  50
ENDBRANCH  26  27
ENDBRANCH   5  26
BRANCH   4  52
ATOM     52  O   UNL     1     -15.138   9.709 -10.537  1.00  0.00    -0.384 OA
ATOM     53  H   UNL     1     -16.216   9.973 -10.737  1.00  0.00     0.211 HD
ENDBRANCH   4  52
TORSDOF 16
ENDMDL
