MODEL 1
REMARK VINA RESULT:    -5.702      0.000      0.000
REMARK INTER + INTRA:          -6.684
REMARK INTER:                  -6.536
REMARK INTRA:                  -0.148
REMARK UNBOUND:                -0.148
REMARK SMILES O=C([O-])C=Cc1ccc(O)cc1
REMARK SMILES IDX 6 1 7 2 12 3 8 4 11 5 9 6 5 7 4 8 2 9 1 10 3 11 10 12
REMARK H PARENT 10 13
REMARK Flexibility Score: inf
ROOT
ATOM      1  C   UNL     1       6.937   1.497   1.025  1.00  0.00    -0.025 A 
ATOM      2  C   UNL     1       7.816   2.521   1.435  1.00  0.00     0.012 A 
ATOM      3  C   UNL     1       6.004   1.771   0.011  1.00  0.00     0.012 A 
ATOM      4  C   UNL     1       7.738   3.793   0.857  1.00  0.00     0.047 A 
ATOM      5  C   UNL     1       5.929   3.044  -0.563  1.00  0.00     0.047 A 
ATOM      6  C   UNL     1       6.793   4.057  -0.141  1.00  0.00     0.115 A 
ENDROOT
BRANCH   1   7
ATOM      7  C   UNL     1       6.985   0.128   1.596  1.00  0.00     0.010 C 
ATOM      8  C   UNL     1       5.922  -0.681   1.682  1.00  0.00     0.025 C 
BRANCH   8   9
ATOM      9  C   UNL     1       6.018  -2.037   2.245  1.00  0.00     0.064 C 
ATOM     10  O   UNL     1       5.198  -2.921   1.883  1.00  0.00    -0.545 OA
ATOM     11  O   UNL     1       7.001  -2.360   3.173  1.00  0.00    -0.545 OA
ENDBRANCH   8   9
ENDBRANCH   1   7
BRANCH   6  12
ATOM     12  O   UNL     1       6.707   5.320  -0.722  1.00  0.00    -0.508 OA
ATOM     13  H   UNL     1       5.901   5.600  -1.266  1.00  0.00     0.293 HD
ENDBRANCH   6  12
TORSDOF 3
ENDMDL
MODEL 2
REMARK VINA RESULT:    -5.627      0.566      1.506
REMARK INTER + INTRA:          -6.598
REMARK INTER:                  -6.460
REMARK INTRA:                  -0.138
REMARK UNBOUND:                -0.148
REMARK SMILES O=C([O-])C=Cc1ccc(O)cc1
REMARK SMILES IDX 6 1 7 2 12 3 8 4 11 5 9 6 5 7 4 8 2 9 1 10 3 11 10 12
REMARK H PARENT 10 13
REMARK Flexibility Score: inf
ROOT
ATOM      1  C   UNL     1       7.114   1.551   1.029  1.00  0.00    -0.025 A 
ATOM      2  C   UNL     1       6.164   1.726   0.002  1.00  0.00     0.012 A 
ATOM      3  C   UNL     1       7.864   2.660   1.455  1.00  0.00     0.012 A 
ATOM      4  C   UNL     1       5.993   2.980  -0.596  1.00  0.00     0.047 A 
ATOM      5  C   UNL     1       7.691   3.910   0.854  1.00  0.00     0.047 A 
ATOM      6  C   UNL     1       6.758   4.073  -0.172  1.00  0.00     0.115 A 
ENDROOT
BRANCH   1   7
ATOM      7  C   UNL     1       7.327   0.246   1.705  1.00  0.00     0.010 C 
ATOM      8  C   UNL     1       6.340  -0.490   2.231  1.00  0.00     0.025 C 
BRANCH   8   9
ATOM      9  C   UNL     1       6.596  -1.784   2.882  1.00  0.00     0.064 C 
ATOM     10  O   UNL     1       5.680  -2.647   2.932  1.00  0.00    -0.545 OA
ATOM     11  O   UNL     1       7.833  -2.071   3.446  1.00  0.00    -0.545 OA
ENDBRANCH   8   9
ENDBRANCH   1   7
BRANCH   6  12
ATOM     12  O   UNL     1       6.596   5.325  -0.763  1.00  0.00    -0.508 OA
ATOM     13  H   UNL     1       5.775   5.549  -1.312  1.00  0.00     0.293 HD
ENDBRANCH   6  12
TORSDOF 3
ENDMDL
MODEL 3
REMARK VINA RESULT:    -5.437      1.477      2.519
REMARK INTER + INTRA:          -6.380
REMARK INTER:                  -6.230
REMARK INTRA:                  -0.149
REMARK UNBOUND:                -0.148
REMARK SMILES O=C([O-])C=Cc1ccc(O)cc1
REMARK SMILES IDX 6 1 7 2 12 3 8 4 11 5 9 6 5 7 4 8 2 9 1 10 3 11 10 12
REMARK H PARENT 10 13
REMARK Flexibility Score: inf
ROOT
ATOM      1  C   UNL     1       7.228   1.668   1.057  1.00  0.00    -0.025 A 
ATOM      2  C   UNL     1       6.304   1.677  -0.009  1.00  0.00     0.012 A 
ATOM      3  C   UNL     1       7.837   2.876   1.435  1.00  0.00     0.012 A 
ATOM      4  C   UNL     1       6.023   2.867  -0.690  1.00  0.00     0.047 A 
ATOM      5  C   UNL     1       7.554   4.062   0.751  1.00  0.00     0.047 A 
ATOM      6  C   UNL     1       6.649   4.060  -0.313  1.00  0.00     0.115 A 
ENDROOT
BRANCH   1   7
ATOM      7  C   UNL     1       7.553   0.437   1.821  1.00  0.00     0.010 C 
ATOM      8  C   UNL     1       8.704   0.252   2.480  1.00  0.00     0.025 C 
BRANCH   8   9
ATOM      9  C   UNL     1       8.979  -0.980   3.235  1.00  0.00     0.064 C 
ATOM     10  O   UNL     1      10.125  -1.169   3.720  1.00  0.00    -0.545 OA
ATOM     11  O   UNL     1       7.993  -1.942   3.421  1.00  0.00    -0.545 OA
ENDBRANCH   8   9
ENDBRANCH   1   7
BRANCH   6  12
ATOM     12  O   UNL     1       6.376   5.249  -0.986  1.00  0.00    -0.508 OA
ATOM     13  H   UNL     1       7.116   5.881  -1.267  1.00  0.00     0.293 HD
ENDBRANCH   6  12
TORSDOF 3
ENDMDL
MODEL 4
REMARK VINA RESULT:    -5.260      1.378      5.899
REMARK INTER + INTRA:          -6.177
REMARK INTER:                  -6.024
REMARK INTRA:                  -0.153
REMARK UNBOUND:                -0.148
REMARK SMILES O=C([O-])C=Cc1ccc(O)cc1
REMARK SMILES IDX 6 1 7 2 12 3 8 4 11 5 9 6 5 7 4 8 2 9 1 10 3 11 10 12
REMARK H PARENT 10 13
REMARK Flexibility Score: inf
ROOT
ATOM      1  C   UNL     1       6.554  -0.144   1.652  1.00  0.00    -0.025 A 
ATOM      2  C   UNL     1       5.788  -1.328   1.622  1.00  0.00     0.012 A 
ATOM      3  C   UNL     1       7.631  -0.056   2.551  1.00  0.00     0.012 A 
ATOM      4  C   UNL     1       6.084  -2.383   2.492  1.00  0.00     0.047 A 
ATOM      5  C   UNL     1       7.922  -1.113   3.418  1.00  0.00     0.047 A 
ATOM      6  C   UNL     1       7.150  -2.277   3.393  1.00  0.00     0.115 A 
ENDROOT
BRANCH   1   7
ATOM      7  C   UNL     1       6.291   1.000   0.744  1.00  0.00     0.010 C 
ATOM      8  C   UNL     1       7.086   2.073   0.648  1.00  0.00     0.025 C 
BRANCH   8   9
ATOM      9  C   UNL     1       6.793   3.180  -0.277  1.00  0.00     0.064 C 
ATOM     10  O   UNL     1       6.445   2.926  -1.459  1.00  0.00    -0.545 OA
ATOM     11  O   UNL     1       6.895   4.504   0.134  1.00  0.00    -0.545 OA
ENDBRANCH   8   9
ENDBRANCH   1   7
BRANCH   6  12
ATOM     12  O   UNL     1       7.451  -3.322   4.263  1.00  0.00    -0.508 OA
ATOM     13  H   UNL     1       6.882  -4.158   4.305  1.00  0.00     0.293 HD
ENDBRANCH   6  12
TORSDOF 3
ENDMDL
MODEL 5
REMARK VINA RESULT:    -5.157      1.469      5.824
REMARK INTER + INTRA:          -6.059
REMARK INTER:                  -5.919
REMARK INTRA:                  -0.140
REMARK UNBOUND:                -0.148
REMARK SMILES O=C([O-])C=Cc1ccc(O)cc1
REMARK SMILES IDX 6 1 7 2 12 3 8 4 11 5 9 6 5 7 4 8 2 9 1 10 3 11 10 12
REMARK H PARENT 10 13
REMARK Flexibility Score: inf
ROOT
ATOM      1  C   UNL     1       6.731  -0.215   1.756  1.00  0.00    -0.025 A 
ATOM      2  C   UNL     1       7.827  -0.162   2.641  1.00  0.00     0.012 A 
ATOM      3  C   UNL     1       5.926  -1.367   1.742  1.00  0.00     0.012 A 
ATOM      4  C   UNL     1       8.120  -1.250   3.470  1.00  0.00     0.047 A 
ATOM      5  C   UNL     1       6.222  -2.452   2.572  1.00  0.00     0.047 A 
ATOM      6  C   UNL     1       7.319  -2.398   3.435  1.00  0.00     0.115 A 
ENDROOT
BRANCH   1   7
ATOM      7  C   UNL     1       6.369   0.916   0.864  1.00  0.00     0.010 C 
ATOM      8  C   UNL     1       7.053   2.065   0.804  1.00  0.00     0.025 C 
BRANCH   8   9
ATOM      9  C   UNL     1       6.665   3.155  -0.105  1.00  0.00     0.064 C 
ATOM     10  O   UNL     1       7.163   4.301   0.051  1.00  0.00    -0.545 OA
ATOM     11  O   UNL     1       5.755   2.942  -1.133  1.00  0.00    -0.545 OA
ENDBRANCH   8   9
ENDBRANCH   1   7
BRANCH   6  12
ATOM     12  O   UNL     1       7.603  -3.487   4.256  1.00  0.00    -0.508 OA
ATOM     13  H   UNL     1       7.322  -4.427   4.005  1.00  0.00     0.293 HD
ENDBRANCH   6  12
TORSDOF 3
ENDMDL
MODEL 6
REMARK VINA RESULT:    -4.987      4.260      5.755
REMARK INTER + INTRA:          -5.864
REMARK INTER:                  -5.724
REMARK INTRA:                  -0.140
REMARK UNBOUND:                -0.148
REMARK SMILES O=C([O-])C=Cc1ccc(O)cc1
REMARK SMILES IDX 6 1 7 2 12 3 8 4 11 5 9 6 5 7 4 8 2 9 1 10 3 11 10 12
REMARK H PARENT 10 13
REMARK Flexibility Score: inf
ROOT
ATOM      1  C   UNL     1       8.285  -2.574   4.101  1.00  0.00    -0.025 A 
ATOM      2  C   UNL     1       7.398  -1.758   3.368  1.00  0.00     0.012 A 
ATOM      3  C   UNL     1       9.649  -2.239   4.128  1.00  0.00     0.012 A 
ATOM      4  C   UNL     1       7.879  -0.650   2.662  1.00  0.00     0.047 A 
ATOM      5  C   UNL     1      10.125  -1.132   3.420  1.00  0.00     0.047 A 
ATOM      6  C   UNL     1       9.243  -0.336   2.685  1.00  0.00     0.115 A 
ENDROOT
BRANCH   1   7
ATOM      7  C   UNL     1       7.827  -3.754   4.878  1.00  0.00     0.010 C 
ATOM      8  C   UNL     1       7.637  -3.745   6.203  1.00  0.00     0.025 C 
BRANCH   8   9
ATOM      9  C   UNL     1       7.169  -4.936   6.930  1.00  0.00     0.064 C 
ATOM     10  O   UNL     1       7.142  -6.050   6.346  1.00  0.00    -0.545 OA
ATOM     11  O   UNL     1       6.753  -4.850   8.254  1.00  0.00    -0.545 OA
ENDBRANCH   8   9
ENDBRANCH   1   7
BRANCH   6  12
ATOM     12  O   UNL     1       9.731   0.764   1.983  1.00  0.00    -0.508 OA
ATOM     13  H   UNL     1      10.337   0.654   1.180  1.00  0.00     0.293 HD
ENDBRANCH   6  12
TORSDOF 3
ENDMDL
MODEL 7
REMARK VINA RESULT:    -4.985      2.251      3.391
REMARK INTER + INTRA:          -5.861
REMARK INTER:                  -5.711
REMARK INTRA:                  -0.150
REMARK UNBOUND:                -0.148
REMARK SMILES O=C([O-])C=Cc1ccc(O)cc1
REMARK SMILES IDX 6 1 7 2 12 3 8 4 11 5 9 6 5 7 4 8 2 9 1 10 3 11 10 12
REMARK H PARENT 10 13
REMARK Flexibility Score: inf
ROOT
ATOM      1  C   UNL     1       6.981  -0.376   2.752  1.00  0.00    -0.025 A 
ATOM      2  C   UNL     1       6.371   0.270   1.656  1.00  0.00     0.012 A 
ATOM      3  C   UNL     1       8.164   0.164   3.284  1.00  0.00     0.012 A 
ATOM      4  C   UNL     1       6.952   1.413   1.097  1.00  0.00     0.047 A 
ATOM      5  C   UNL     1       8.741   1.306   2.721  1.00  0.00     0.047 A 
ATOM      6  C   UNL     1       8.139   1.932   1.628  1.00  0.00     0.115 A 
ENDROOT
BRANCH   1   7
ATOM      7  C   UNL     1       6.401  -1.585   3.390  1.00  0.00     0.010 C 
ATOM      8  C   UNL     1       6.756  -2.030   4.601  1.00  0.00     0.025 C 
BRANCH   8   9
ATOM      9  C   UNL     1       6.145  -3.227   5.201  1.00  0.00     0.064 C 
ATOM     10  O   UNL     1       6.878  -4.181   5.570  1.00  0.00    -0.545 OA
ATOM     11  O   UNL     1       4.767  -3.323   5.364  1.00  0.00    -0.545 OA
ENDBRANCH   8   9
ENDBRANCH   1   7
BRANCH   6  12
ATOM     12  O   UNL     1       8.725   3.070   1.077  1.00  0.00    -0.508 OA
ATOM     13  H   UNL     1       8.669   3.970   1.536  1.00  0.00     0.293 HD
ENDBRANCH   6  12
TORSDOF 3
ENDMDL
MODEL 8
REMARK VINA RESULT:    -4.974      3.403      5.040
REMARK INTER + INTRA:          -5.849
REMARK INTER:                  -5.709
REMARK INTRA:                  -0.140
REMARK UNBOUND:                -0.148
REMARK SMILES O=C([O-])C=Cc1ccc(O)cc1
REMARK SMILES IDX 6 1 7 2 12 3 8 4 11 5 9 6 5 7 4 8 2 9 1 10 3 11 10 12
REMARK H PARENT 10 13
REMARK Flexibility Score: inf
ROOT
ATOM      1  C   UNL     1       7.583  -2.387   3.690  1.00  0.00    -0.025 A 
ATOM      2  C   UNL     1       8.442  -1.295   3.446  1.00  0.00     0.012 A 
ATOM      3  C   UNL     1       6.371  -2.466   2.983  1.00  0.00     0.012 A 
ATOM      4  C   UNL     1       8.077  -0.298   2.535  1.00  0.00     0.047 A 
ATOM      5  C   UNL     1       6.010  -1.467   2.074  1.00  0.00     0.047 A 
ATOM      6  C   UNL     1       6.860  -0.381   1.849  1.00  0.00     0.115 A 
ENDROOT
BRANCH   1   7
ATOM      7  C   UNL     1       7.926  -3.478   4.636  1.00  0.00     0.010 C 
ATOM      8  C   UNL     1       7.118  -3.892   5.620  1.00  0.00     0.025 C 
BRANCH   8   9
ATOM      9  C   UNL     1       7.495  -4.987   6.528  1.00  0.00     0.064 C 
ATOM     10  O   UNL     1       7.161  -6.168   6.250  1.00  0.00    -0.545 OA
ATOM     11  O   UNL     1       8.214  -4.738   7.692  1.00  0.00    -0.545 OA
ENDBRANCH   8   9
ENDBRANCH   1   7
BRANCH   6  12
ATOM     12  O   UNL     1       6.487   0.608   0.941  1.00  0.00    -0.508 OA
ATOM     13  H   UNL     1       6.029   0.379   0.067  1.00  0.00     0.293 HD
ENDBRANCH   6  12
TORSDOF 3
ENDMDL
MODEL 9
REMARK VINA RESULT:    -4.720      1.701      2.174
REMARK INTER + INTRA:          -5.557
REMARK INTER:                  -5.410
REMARK INTRA:                  -0.147
REMARK UNBOUND:                -0.148
REMARK SMILES O=C([O-])C=Cc1ccc(O)cc1
REMARK SMILES IDX 6 1 7 2 12 3 8 4 11 5 9 6 5 7 4 8 2 9 1 10 3 11 10 12
REMARK H PARENT 10 13
REMARK Flexibility Score: inf
ROOT
ATOM      1  C   UNL     1       7.765   0.379   2.179  1.00  0.00    -0.025 A 
ATOM      2  C   UNL     1       8.508   1.576   2.246  1.00  0.00     0.012 A 
ATOM      3  C   UNL     1       6.667   0.310   1.304  1.00  0.00     0.012 A 
ATOM      4  C   UNL     1       8.138   2.680   1.471  1.00  0.00     0.047 A 
ATOM      5  C   UNL     1       6.302   1.417   0.533  1.00  0.00     0.047 A 
ATOM      6  C   UNL     1       7.034   2.603   0.615  1.00  0.00     0.115 A 
ENDROOT
BRANCH   1   7
ATOM      7  C   UNL     1       8.120  -0.827   2.970  1.00  0.00     0.010 C 
ATOM      8  C   UNL     1       7.226  -1.727   3.397  1.00  0.00     0.025 C 
BRANCH   8   9
ATOM      9  C   UNL     1       7.625  -2.915   4.169  1.00  0.00     0.064 C 
ATOM     10  O   UNL     1       6.913  -3.298   5.134  1.00  0.00    -0.545 OA
ATOM     11  O   UNL     1       8.779  -3.621   3.851  1.00  0.00    -0.545 OA
ENDBRANCH   8   9
ENDBRANCH   1   7
BRANCH   6  12
ATOM     12  O   UNL     1       6.658   3.699  -0.160  1.00  0.00    -0.508 OA
ATOM     13  H   UNL     1       5.698   3.838  -0.451  1.00  0.00     0.293 HD
ENDBRANCH   6  12
TORSDOF 3
ENDMDL
