MODEL 1
REMARK VINA RESULT:    -6.850      0.000      0.000
REMARK INTER + INTRA:         -11.653
REMARK INTER:                 -10.054
REMARK INTRA:                  -1.599
REMARK UNBOUND:                -1.599
REMARK SMILES O=c1c(O[C@H]2O[C@H](CO)[C@H](O)[C@@H](O)[C@H]2O)c(-c2ccc(O)c(O)c2)oc2cc(O)cc(O)c12
REMARK SMILES IDX 4 1 3 2 16 3 25 4 2 5 26 6 1 7 33 8 27 9 31 10 28 11 30 12
REMARK SMILES IDX 17 13 18 14 19 15 20 16 24 17 22 18 21 19 23 21 32 23 29 25
REMARK SMILES IDX 5 27 14 28 6 29 12 30 7 31 10 32 15 33 13 35 8 37 9 38 11 40
REMARK H PARENT 21 20 23 22 32 24 29 26 15 34 13 36 9 39 11 41
REMARK Flexibility Score: inf
ROOT
ATOM      1  O   UNL     1     138.636 142.890 122.921  1.00  0.00    -0.454 OA
ENDROOT
BRANCH   1   2
ATOM      2  C   UNL     1     138.641 141.485 122.915  1.00  0.00     0.214 A 
ATOM      3  C   UNL     1     138.775 140.781 121.708  1.00  0.00     0.180 A 
ATOM      4  O   UNL     1     138.836 139.454 121.716  1.00  0.00    -0.452 OA
ATOM      5  C   UNL     1     138.585 140.762 124.114  1.00  0.00     0.239 A 
ATOM      6  C   UNL     1     138.742 138.727 122.822  1.00  0.00     0.146 A 
ATOM      7  O   UNL     1     138.604 141.392 125.202  1.00  0.00    -0.285 OA
ATOM      8  C   UNL     1     138.574 139.347 124.088  1.00  0.00     0.111 A 
ATOM      9  C   UNL     1     138.822 137.336 122.716  1.00  0.00     0.094 A 
ATOM     10  C   UNL     1     138.455 138.515 125.242  1.00  0.00     0.134 A 
ATOM     11  C   UNL     1     138.747 136.535 123.854  1.00  0.00     0.123 A 
ATOM     12  C   UNL     1     138.572 137.127 125.108  1.00  0.00     0.093 A 
BRANCH   3  13
ATOM     13  C   UNL     1     138.881 141.472 120.407  1.00  0.00     0.025 A 
ATOM     14  C   UNL     1     140.130 141.935 119.969  1.00  0.00     0.016 A 
ATOM     15  C   UNL     1     140.253 142.567 118.727  1.00  0.00     0.051 A 
ATOM     16  C   UNL     1     139.129 142.744 117.910  1.00  0.00     0.157 A 
ATOM     17  C   UNL     1     137.762 141.623 119.573  1.00  0.00     0.062 A 
ATOM     18  C   UNL     1     137.877 142.264 118.334  1.00  0.00     0.158 A 
BRANCH  16  19
ATOM     19  O   UNL     1     139.248 143.396 116.682  1.00  0.00    -0.504 OA
ATOM     20  H   UNL     1     138.493 143.391 116.003  1.00  0.00     0.293 HD
ENDBRANCH  16  19
BRANCH  18  21
ATOM     21  O   UNL     1     136.738 142.413 117.540  1.00  0.00    -0.504 OA
ATOM     22  H   UNL     1     136.398 141.670 116.938  1.00  0.00     0.293 HD
ENDBRANCH  18  21
ENDBRANCH   3  13
BRANCH  10  23
ATOM     23  O   UNL     1     138.201 138.999 126.527  1.00  0.00    -0.507 OA
ATOM     24  H   UNL     1     137.311 139.356 126.843  1.00  0.00     0.293 HD
ENDBRANCH  10  23
BRANCH  11  25
ATOM     25  O   UNL     1     138.836 135.151 123.728  1.00  0.00    -0.508 OA
ATOM     26  H   UNL     1     138.907 134.704 122.822  1.00  0.00     0.293 HD
ENDBRANCH  11  25
ENDBRANCH   1   2
BRANCH   1  27
ATOM     27  C   UNL     1     139.799 143.697 123.160  1.00  0.00     0.339 C 
ATOM     28  C   UNL     1     139.661 144.531 124.468  1.00  0.00     0.214 C 
ATOM     29  O   UNL     1     140.081 144.496 122.017  1.00  0.00    -0.332 OA
ATOM     30  C   UNL     1     139.911 146.028 124.221  1.00  0.00     0.180 C 
ATOM     31  C   UNL     1     141.248 145.295 122.164  1.00  0.00     0.179 C 
ATOM     32  C   UNL     1     141.218 146.217 123.430  1.00  0.00     0.177 C 
BRANCH  28  33
ATOM     33  O   UNL     1     138.401 144.358 125.068  1.00  0.00    -0.384 OA
ATOM     34  H   UNL     1     138.206 145.190 125.577  1.00  0.00     0.211 HD
ENDBRANCH  28  33
BRANCH  30  35
ATOM     35  O   UNL     1     138.837 146.587 123.506  1.00  0.00    -0.387 OA
ATOM     36  H   UNL     1     138.725 147.518 123.833  1.00  0.00     0.211 HD
ENDBRANCH  30  35
BRANCH  31  37
ATOM     37  C   UNL     1     142.553 144.494 121.938  1.00  0.00     0.191 C 
BRANCH  37  38
ATOM     38  O   UNL     1     143.673 145.335 121.849  1.00  0.00    -0.394 OA
ATOM     39  H   UNL     1     143.634 145.761 120.950  1.00  0.00     0.210 HD
ENDBRANCH  37  38
ENDBRANCH  31  37
BRANCH  32  40
ATOM     40  O   UNL     1     142.321 145.979 124.271  1.00  0.00    -0.387 OA
ATOM     41  H   UNL     1     142.162 146.495 125.107  1.00  0.00     0.211 HD
ENDBRANCH  32  40
ENDBRANCH   1  27
TORSDOF 12
ENDMDL
MODEL 2
REMARK VINA RESULT:    -6.808      5.272      9.530
REMARK INTER + INTRA:         -11.591
REMARK INTER:                 -10.084
REMARK INTRA:                  -1.506
REMARK UNBOUND:                -1.599
REMARK SMILES O=c1c(O[C@H]2O[C@H](CO)[C@H](O)[C@@H](O)[C@H]2O)c(-c2ccc(O)c(O)c2)oc2cc(O)cc(O)c12
REMARK SMILES IDX 4 1 3 2 16 3 25 4 2 5 26 6 1 7 33 8 27 9 31 10 28 11 30 12
REMARK SMILES IDX 17 13 18 14 19 15 20 16 24 17 22 18 21 19 23 21 32 23 29 25
REMARK SMILES IDX 5 27 14 28 6 29 12 30 7 31 10 32 15 33 13 35 8 37 9 38 11 40
REMARK H PARENT 21 20 23 22 32 24 29 26 15 34 13 36 9 39 11 41
REMARK Flexibility Score: inf
ROOT
ATOM      1  O   UNL     1     138.977 147.882 126.805  1.00  0.00    -0.454 OA
ENDROOT
BRANCH   1   2
ATOM      2  C   UNL     1     138.036 147.515 127.782  1.00  0.00     0.214 A 
ATOM      3  C   UNL     1     138.442 147.275 129.105  1.00  0.00     0.180 A 
ATOM      4  O   UNL     1     137.539 146.984 130.034  1.00  0.00    -0.452 OA
ATOM      5  C   UNL     1     136.670 147.451 127.474  1.00  0.00     0.239 A 
ATOM      6  C   UNL     1     136.242 146.869 129.779  1.00  0.00     0.146 A 
ATOM      7  O   UNL     1     136.292 147.798 126.327  1.00  0.00    -0.285 OA
ATOM      8  C   UNL     1     135.738 147.062 128.467  1.00  0.00     0.111 A 
ATOM      9  C   UNL     1     135.378 146.562 130.834  1.00  0.00     0.094 A 
ATOM     10  C   UNL     1     134.337 146.903 128.245  1.00  0.00     0.134 A 
ATOM     11  C   UNL     1     134.007 146.450 130.615  1.00  0.00     0.123 A 
ATOM     12  C   UNL     1     133.493 146.627 129.327  1.00  0.00     0.093 A 
BRANCH   3  13
ATOM     13  C   UNL     1     139.857 147.364 129.516  1.00  0.00     0.025 A 
ATOM     14  C   UNL     1     140.410 148.613 129.829  1.00  0.00     0.016 A 
ATOM     15  C   UNL     1     141.742 148.711 130.248  1.00  0.00     0.051 A 
ATOM     16  C   UNL     1     142.535 147.562 130.357  1.00  0.00     0.157 A 
ATOM     17  C   UNL     1     140.645 146.210 129.655  1.00  0.00     0.062 A 
ATOM     18  C   UNL     1     141.981 146.303 130.063  1.00  0.00     0.158 A 
BRANCH  16  19
ATOM     19  O   UNL     1     143.870 147.664 130.751  1.00  0.00    -0.504 OA
ATOM     20  H   UNL     1     144.270 148.550 131.042  1.00  0.00     0.293 HD
ENDBRANCH  16  19
BRANCH  18  21
ATOM     21  O   UNL     1     142.739 145.136 130.172  1.00  0.00    -0.504 OA
ATOM     22  H   UNL     1     142.845 144.486 129.400  1.00  0.00     0.293 HD
ENDBRANCH  18  21
ENDBRANCH   3  13
BRANCH  10  23
ATOM     23  O   UNL     1     133.734 146.981 126.987  1.00  0.00    -0.507 OA
ATOM     24  H   UNL     1     133.307 147.812 126.604  1.00  0.00     0.293 HD
ENDBRANCH  10  23
BRANCH  11  25
ATOM     25  O   UNL     1     133.162 146.150 131.681  1.00  0.00    -0.508 OA
ATOM     26  H   UNL     1     133.418 146.364 132.637  1.00  0.00     0.293 HD
ENDBRANCH  11  25
ENDBRANCH   1   2
BRANCH   1  27
ATOM     27  C   UNL     1     139.680 146.947 125.973  1.00  0.00     0.339 C 
ATOM     28  C   UNL     1     141.113 147.449 125.629  1.00  0.00     0.214 C 
ATOM     29  O   UNL     1     138.904 146.644 124.820  1.00  0.00    -0.332 OA
ATOM     30  C   UNL     1     141.370 147.452 124.114  1.00  0.00     0.180 C 
ATOM     31  C   UNL     1     139.519 145.689 123.964  1.00  0.00     0.179 C 
ATOM     32  C   UNL     1     140.962 146.095 123.511  1.00  0.00     0.177 C 
BRANCH  28  33
ATOM     33  O   UNL     1     141.358 148.732 126.150  1.00  0.00    -0.384 OA
ATOM     34  H   UNL     1     142.339 148.805 126.292  1.00  0.00     0.211 HD
ENDBRANCH  28  33
BRANCH  30  35
ATOM     35  O   UNL     1     140.639 148.484 123.500  1.00  0.00    -0.387 OA
ATOM     36  H   UNL     1     141.276 149.225 123.323  1.00  0.00     0.211 HD
ENDBRANCH  30  35
BRANCH  31  37
ATOM     37  C   UNL     1     139.350 144.237 124.473  1.00  0.00     0.191 C 
BRANCH  37  38
ATOM     38  O   UNL     1     139.610 143.297 123.462  1.00  0.00    -0.394 OA
ATOM     39  H   UNL     1     140.279 143.715 122.854  1.00  0.00     0.210 HD
ENDBRANCH  37  38
ENDBRANCH  31  37
BRANCH  32  40
ATOM     40  O   UNL     1     141.911 145.115 123.860  1.00  0.00    -0.387 OA
ATOM     41  H   UNL     1     142.808 145.522 123.722  1.00  0.00     0.211 HD
ENDBRANCH  32  40
ENDBRANCH   1  27
TORSDOF 12
ENDMDL
MODEL 3
REMARK VINA RESULT:    -6.782      1.943      2.393
REMARK INTER + INTRA:         -11.553
REMARK INTER:                 -10.225
REMARK INTRA:                  -1.328
REMARK UNBOUND:                -1.599
REMARK SMILES O=c1c(O[C@H]2O[C@H](CO)[C@H](O)[C@@H](O)[C@H]2O)c(-c2ccc(O)c(O)c2)oc2cc(O)cc(O)c12
REMARK SMILES IDX 4 1 3 2 16 3 25 4 2 5 26 6 1 7 33 8 27 9 31 10 28 11 30 12
REMARK SMILES IDX 17 13 18 14 19 15 20 16 24 17 22 18 21 19 23 21 32 23 29 25
REMARK SMILES IDX 5 27 14 28 6 29 12 30 7 31 10 32 15 33 13 35 8 37 9 38 11 40
REMARK H PARENT 21 20 23 22 32 24 29 26 15 34 13 36 9 39 11 41
REMARK Flexibility Score: inf
ROOT
ATOM      1  O   UNL     1     140.351 142.298 123.207  1.00  0.00    -0.454 OA
ENDROOT
BRANCH   1   2
ATOM      2  C   UNL     1     139.684 141.062 123.189  1.00  0.00     0.214 A 
ATOM      3  C   UNL     1     138.946 140.670 122.059  1.00  0.00     0.180 A 
ATOM      4  O   UNL     1     138.365 139.476 122.027  1.00  0.00    -0.452 OA
ATOM      5  C   UNL     1     139.800 140.167 124.261  1.00  0.00     0.239 A 
ATOM      6  C   UNL     1     138.411 138.616 123.037  1.00  0.00     0.146 A 
ATOM      7  O   UNL     1     140.570 140.459 125.211  1.00  0.00    -0.285 OA
ATOM      8  C   UNL     1     139.107 138.933 124.232  1.00  0.00     0.111 A 
ATOM      9  C   UNL     1     137.767 137.383 122.894  1.00  0.00     0.094 A 
ATOM     10  C   UNL     1     139.104 137.980 125.295  1.00  0.00     0.134 A 
ATOM     11  C   UNL     1     137.806 136.443 123.922  1.00  0.00     0.123 A 
ATOM     12  C   UNL     1     138.478 136.742 125.111  1.00  0.00     0.093 A 
BRANCH   3  13
ATOM     13  C   UNL     1     138.811 141.539 120.873  1.00  0.00     0.025 A 
ATOM     14  C   UNL     1     139.126 141.032 119.605  1.00  0.00     0.016 A 
ATOM     15  C   UNL     1     138.977 141.833 118.467  1.00  0.00     0.051 A 
ATOM     16  C   UNL     1     138.513 143.150 118.586  1.00  0.00     0.157 A 
ATOM     17  C   UNL     1     138.317 142.848 120.986  1.00  0.00     0.062 A 
ATOM     18  C   UNL     1     138.176 143.658 119.853  1.00  0.00     0.158 A 
BRANCH  16  19
ATOM     19  O   UNL     1     138.388 143.955 117.453  1.00  0.00    -0.504 OA
ATOM     20  H   UNL     1     138.227 143.556 116.534  1.00  0.00     0.293 HD
ENDBRANCH  16  19
BRANCH  18  21
ATOM     21  O   UNL     1     137.699 144.961 120.006  1.00  0.00    -0.504 OA
ATOM     22  H   UNL     1     136.930 145.185 120.628  1.00  0.00     0.293 HD
ENDBRANCH  18  21
ENDBRANCH   3  13
BRANCH  10  23
ATOM     23  O   UNL     1     139.676 138.209 126.548  1.00  0.00    -0.507 OA
ATOM     24  H   UNL     1     139.259 137.945 127.429  1.00  0.00     0.293 HD
ENDBRANCH  10  23
BRANCH  11  25
ATOM     25  O   UNL     1     137.164 135.218 123.758  1.00  0.00    -0.508 OA
ATOM     26  H   UNL     1     137.101 134.546 124.514  1.00  0.00     0.293 HD
ENDBRANCH  11  25
ENDBRANCH   1   2
BRANCH   1  27
ATOM     27  C   UNL     1     141.589 142.554 122.527  1.00  0.00     0.339 C 
ATOM     28  C   UNL     1     142.791 142.588 123.516  1.00  0.00     0.214 C 
ATOM     29  O   UNL     1     141.478 143.736 121.743  1.00  0.00    -0.332 OA
ATOM     30  C   UNL     1     143.609 143.882 123.377  1.00  0.00     0.180 C 
ATOM     31  C   UNL     1     142.657 144.033 121.005  1.00  0.00     0.179 C 
ATOM     32  C   UNL     1     143.942 144.135 121.894  1.00  0.00     0.177 C 
BRANCH  28  33
ATOM     33  O   UNL     1     142.375 142.437 124.850  1.00  0.00    -0.384 OA
ATOM     34  H   UNL     1     143.106 142.793 125.424  1.00  0.00     0.211 HD
ENDBRANCH  28  33
BRANCH  30  35
ATOM     35  O   UNL     1     142.887 144.971 123.895  1.00  0.00    -0.387 OA
ATOM     36  H   UNL     1     143.245 145.789 123.461  1.00  0.00     0.211 HD
ENDBRANCH  30  35
BRANCH  31  37
ATOM     37  C   UNL     1     142.786 143.181 119.719  1.00  0.00     0.191 C 
BRANCH  37  38
ATOM     38  O   UNL     1     143.834 143.629 118.900  1.00  0.00    -0.394 OA
ATOM     39  H   UNL     1     144.171 142.830 118.411  1.00  0.00     0.210 HD
ENDBRANCH  37  38
ENDBRANCH  31  37
BRANCH  32  40
ATOM     40  O   UNL     1     144.938 143.236 121.471  1.00  0.00    -0.387 OA
ATOM     41  H   UNL     1     144.490 142.559 120.896  1.00  0.00     0.211 HD
ENDBRANCH  32  40
ENDBRANCH   1  27
TORSDOF 12
ENDMDL
MODEL 4
REMARK VINA RESULT:    -6.718      8.380     11.777
REMARK INTER + INTRA:         -11.459
REMARK INTER:                  -9.676
REMARK INTRA:                  -1.783
REMARK UNBOUND:                -1.599
REMARK SMILES O=c1c(O[C@H]2O[C@H](CO)[C@H](O)[C@@H](O)[C@H]2O)c(-c2ccc(O)c(O)c2)oc2cc(O)cc(O)c12
REMARK SMILES IDX 4 1 3 2 16 3 25 4 2 5 26 6 1 7 33 8 27 9 31 10 28 11 30 12
REMARK SMILES IDX 17 13 18 14 19 15 20 16 24 17 22 18 21 19 23 21 32 23 29 25
REMARK SMILES IDX 5 27 14 28 6 29 12 30 7 31 10 32 15 33 13 35 8 37 9 38 11 40
REMARK H PARENT 21 20 23 22 32 24 29 26 15 34 13 36 9 39 11 41
REMARK Flexibility Score: inf
ROOT
ATOM      1  O   UNL     1     131.388 146.540 125.210  1.00  0.00    -0.454 OA
ENDROOT
BRANCH   1   2
ATOM      2  C   UNL     1     132.472 146.793 126.067  1.00  0.00     0.214 A 
ATOM      3  C   UNL     1     132.360 146.546 127.445  1.00  0.00     0.180 A 
ATOM      4  O   UNL     1     133.406 146.734 128.241  1.00  0.00    -0.452 OA
ATOM      5  C   UNL     1     133.704 147.227 125.559  1.00  0.00     0.239 A 
ATOM      6  C   UNL     1     134.577 147.186 127.810  1.00  0.00     0.146 A 
ATOM      7  O   UNL     1     133.846 147.316 124.313  1.00  0.00    -0.285 OA
ATOM      8  C   UNL     1     134.779 147.493 126.440  1.00  0.00     0.111 A 
ATOM      9  C   UNL     1     135.614 147.343 128.735  1.00  0.00     0.094 A 
ATOM     10  C   UNL     1     136.052 147.998 126.036  1.00  0.00     0.134 A 
ATOM     11  C   UNL     1     136.865 147.797 128.323  1.00  0.00     0.123 A 
ATOM     12  C   UNL     1     137.080 148.114 126.978  1.00  0.00     0.093 A 
BRANCH   3  13
ATOM     13  C   UNL     1     131.108 146.049 128.051  1.00  0.00     0.025 A 
ATOM     14  C   UNL     1     130.987 144.690 128.372  1.00  0.00     0.016 A 
ATOM     15  C   UNL     1     129.818 144.208 128.973  1.00  0.00     0.051 A 
ATOM     16  C   UNL     1     128.759 145.079 129.257  1.00  0.00     0.157 A 
ATOM     17  C   UNL     1     130.057 146.925 128.365  1.00  0.00     0.062 A 
ATOM     18  C   UNL     1     128.882 146.447 128.956  1.00  0.00     0.158 A 
BRANCH  16  19
ATOM     19  O   UNL     1     127.585 144.592 129.834  1.00  0.00    -0.504 OA
ATOM     20  H   UNL     1     127.606 143.989 130.650  1.00  0.00     0.293 HD
ENDBRANCH  16  19
BRANCH  18  21
ATOM     21  O   UNL     1     127.850 147.345 129.236  1.00  0.00    -0.504 OA
ATOM     22  H   UNL     1     127.220 147.217 130.021  1.00  0.00     0.293 HD
ENDBRANCH  18  21
ENDBRANCH   3  13
BRANCH  10  23
ATOM     23  O   UNL     1     136.347 148.417 124.736  1.00  0.00    -0.507 OA
ATOM     24  H   UNL     1     135.659 148.614 124.024  1.00  0.00     0.293 HD
ENDBRANCH  10  23
BRANCH  11  25
ATOM     25  O   UNL     1     137.887 147.941 129.258  1.00  0.00    -0.508 OA
ATOM     26  H   UNL     1     137.899 147.405 130.117  1.00  0.00     0.293 HD
ENDBRANCH  11  25
ENDBRANCH   1   2
BRANCH   1  27
ATOM     27  C   UNL     1     131.090 145.252 124.649  1.00  0.00     0.339 C 
ATOM     28  C   UNL     1     131.346 145.221 123.113  1.00  0.00     0.214 C 
ATOM     29  O   UNL     1     129.769 144.861 125.002  1.00  0.00    -0.332 OA
ATOM     30  C   UNL     1     130.114 144.726 122.339  1.00  0.00     0.180 C 
ATOM     31  C   UNL     1     129.415 143.573 124.515  1.00  0.00     0.179 C 
ATOM     32  C   UNL     1     129.590 143.421 122.967  1.00  0.00     0.177 C 
BRANCH  28  33
ATOM     33  O   UNL     1     131.735 146.480 122.622  1.00  0.00    -0.384 OA
ATOM     34  H   UNL     1     131.233 146.629 121.776  1.00  0.00     0.211 HD
ENDBRANCH  28  33
BRANCH  30  35
ATOM     35  O   UNL     1     129.103 145.702 122.359  1.00  0.00    -0.387 OA
ATOM     36  H   UNL     1     128.958 145.989 121.419  1.00  0.00     0.211 HD
ENDBRANCH  30  35
BRANCH  31  37
ATOM     37  C   UNL     1     129.996 142.428 125.380  1.00  0.00     0.191 C 
BRANCH  37  38
ATOM     38  O   UNL     1     129.385 141.197 125.094  1.00  0.00    -0.394 OA
ATOM     39  H   UNL     1     128.492 141.409 124.706  1.00  0.00     0.210 HD
ENDBRANCH  37  38
ENDBRANCH  31  37
BRANCH  32  40
ATOM     40  O   UNL     1     130.455 142.358 122.644  1.00  0.00    -0.387 OA
ATOM     41  H   UNL     1     129.896 141.536 122.596  1.00  0.00     0.211 HD
ENDBRANCH  32  40
ENDBRANCH   1  27
TORSDOF 12
ENDMDL
MODEL 5
REMARK VINA RESULT:    -6.706      7.266      9.951
REMARK INTER + INTRA:         -11.442
REMARK INTER:                  -9.520
REMARK INTRA:                  -1.922
REMARK UNBOUND:                -1.599
REMARK SMILES O=c1c(O[C@H]2O[C@H](CO)[C@H](O)[C@@H](O)[C@H]2O)c(-c2ccc(O)c(O)c2)oc2cc(O)cc(O)c12
REMARK SMILES IDX 4 1 3 2 16 3 25 4 2 5 26 6 1 7 33 8 27 9 31 10 28 11 30 12
REMARK SMILES IDX 17 13 18 14 19 15 20 16 24 17 22 18 21 19 23 21 32 23 29 25
REMARK SMILES IDX 5 27 14 28 6 29 12 30 7 31 10 32 15 33 13 35 8 37 9 38 11 40
REMARK H PARENT 21 20 23 22 32 24 29 26 15 34 13 36 9 39 11 41
REMARK Flexibility Score: inf
ROOT
ATOM      1  O   UNL     1     135.173 148.292 128.415  1.00  0.00    -0.454 OA
ENDROOT
BRANCH   1   2
ATOM      2  C   UNL     1     136.213 148.169 127.478  1.00  0.00     0.214 A 
ATOM      3  C   UNL     1     135.922 148.006 126.113  1.00  0.00     0.180 A 
ATOM      4  O   UNL     1     136.909 147.947 125.227  1.00  0.00    -0.452 OA
ATOM      5  C   UNL     1     137.553 148.280 127.873  1.00  0.00     0.239 A 
ATOM      6  C   UNL     1     138.193 148.003 125.560  1.00  0.00     0.146 A 
ATOM      7  O   UNL     1     137.808 148.563 129.071  1.00  0.00    -0.285 OA
ATOM      8  C   UNL     1     138.587 148.138 126.917  1.00  0.00     0.111 A 
ATOM      9  C   UNL     1     139.150 147.937 124.545  1.00  0.00     0.094 A 
ATOM     10  C   UNL     1     139.981 148.168 127.221  1.00  0.00     0.134 A 
ATOM     11  C   UNL     1     140.508 148.010 124.848  1.00  0.00     0.123 A 
ATOM     12  C   UNL     1     140.916 148.132 126.180  1.00  0.00     0.093 A 
BRANCH   3  13
ATOM     13  C   UNL     1     134.535 147.922 125.614  1.00  0.00     0.025 A 
ATOM     14  C   UNL     1     133.720 149.062 125.640  1.00  0.00     0.016 A 
ATOM     15  C   UNL     1     132.413 149.007 125.144  1.00  0.00     0.051 A 
ATOM     16  C   UNL     1     131.906 147.811 124.619  1.00  0.00     0.157 A 
ATOM     17  C   UNL     1     134.036 146.733 125.059  1.00  0.00     0.062 A 
ATOM     18  C   UNL     1     132.725 146.669 124.572  1.00  0.00     0.158 A 
BRANCH  16  19
ATOM     19  O   UNL     1     130.594 147.751 124.148  1.00  0.00    -0.504 OA
ATOM     20  H   UNL     1     130.008 148.579 124.104  1.00  0.00     0.293 HD
ENDBRANCH  16  19
BRANCH  18  21
ATOM     21  O   UNL     1     132.256 145.464 124.044  1.00  0.00    -0.504 OA
ATOM     22  H   UNL     1     131.480 144.957 124.458  1.00  0.00     0.293 HD
ENDBRANCH  18  21
ENDBRANCH   3  13
BRANCH  10  23
ATOM     23  O   UNL     1     140.495 148.210 128.519  1.00  0.00    -0.507 OA
ATOM     24  H   UNL     1     140.067 148.698 129.293  1.00  0.00     0.293 HD
ENDBRANCH  10  23
BRANCH  11  25
ATOM     25  O   UNL     1     141.447 147.948 123.821  1.00  0.00    -0.508 OA
ATOM     26  H   UNL     1     141.720 147.067 123.404  1.00  0.00     0.293 HD
ENDBRANCH  11  25
ENDBRANCH   1   2
BRANCH   1  27
ATOM     27  C   UNL     1     134.655 147.200 129.189  1.00  0.00     0.339 C 
ATOM     28  C   UNL     1     134.900 147.408 130.713  1.00  0.00     0.214 C 
ATOM     29  O   UNL     1     135.176 145.969 128.704  1.00  0.00    -0.332 OA
ATOM     30  C   UNL     1     135.612 146.202 131.347  1.00  0.00     0.180 C 
ATOM     31  C   UNL     1     134.674 144.833 129.397  1.00  0.00     0.179 C 
ATOM     32  C   UNL     1     134.895 144.900 130.946  1.00  0.00     0.177 C 
BRANCH  28  33
ATOM     33  O   UNL     1     135.638 148.577 130.969  1.00  0.00    -0.384 OA
ATOM     34  H   UNL     1     135.346 148.915 131.858  1.00  0.00     0.211 HD
ENDBRANCH  28  33
BRANCH  30  35
ATOM     35  O   UNL     1     136.953 146.154 130.928  1.00  0.00    -0.387 OA
ATOM     36  H   UNL     1     136.967 146.413 129.969  1.00  0.00     0.211 HD
ENDBRANCH  30  35
BRANCH  31  37
ATOM     37  C   UNL     1     133.255 144.428 128.930  1.00  0.00     0.191 C 
BRANCH  37  38
ATOM     38  O   UNL     1     132.913 143.137 129.361  1.00  0.00    -0.394 OA
ATOM     39  H   UNL     1     132.107 143.237 129.937  1.00  0.00     0.210 HD
ENDBRANCH  37  38
ENDBRANCH  31  37
BRANCH  32  40
ATOM     40  O   UNL     1     133.680 144.791 131.648  1.00  0.00    -0.387 OA
ATOM     41  H   UNL     1     132.959 144.716 130.967  1.00  0.00     0.211 HD
ENDBRANCH  32  40
ENDBRANCH   1  27
TORSDOF 12
ENDMDL
MODEL 6
REMARK VINA RESULT:    -6.678      2.706      6.620
REMARK INTER + INTRA:         -11.401
REMARK INTER:                  -9.775
REMARK INTRA:                  -1.626
REMARK UNBOUND:                -1.599
REMARK SMILES O=c1c(O[C@H]2O[C@H](CO)[C@H](O)[C@@H](O)[C@H]2O)c(-c2ccc(O)c(O)c2)oc2cc(O)cc(O)c12
REMARK SMILES IDX 4 1 3 2 16 3 25 4 2 5 26 6 1 7 33 8 27 9 31 10 28 11 30 12
REMARK SMILES IDX 17 13 18 14 19 15 20 16 24 17 22 18 21 19 23 21 32 23 29 25
REMARK SMILES IDX 5 27 14 28 6 29 12 30 7 31 10 32 15 33 13 35 8 37 9 38 11 40
REMARK H PARENT 21 20 23 22 32 24 29 26 15 34 13 36 9 39 11 41
REMARK Flexibility Score: inf
ROOT
ATOM      1  O   UNL     1     141.356 143.738 123.682  1.00  0.00    -0.454 OA
ENDROOT
BRANCH   1   2
ATOM      2  C   UNL     1     140.390 144.646 124.147  1.00  0.00     0.214 A 
ATOM      3  C   UNL     1     139.022 144.351 124.024  1.00  0.00     0.180 A 
ATOM      4  O   UNL     1     138.115 145.187 124.517  1.00  0.00    -0.452 OA
ATOM      5  C   UNL     1     140.768 145.824 124.805  1.00  0.00     0.239 A 
ATOM      6  C   UNL     1     138.427 146.334 125.107  1.00  0.00     0.146 A 
ATOM      7  O   UNL     1     141.988 146.021 125.036  1.00  0.00    -0.285 OA
ATOM      8  C   UNL     1     139.781 146.734 125.251  1.00  0.00     0.111 A 
ATOM      9  C   UNL     1     137.392 147.138 125.593  1.00  0.00     0.094 A 
ATOM     10  C   UNL     1     140.057 147.989 125.873  1.00  0.00     0.134 A 
ATOM     11  C   UNL     1     137.675 148.342 126.236  1.00  0.00     0.123 A 
ATOM     12  C   UNL     1     139.002 148.757 126.379  1.00  0.00     0.093 A 
BRANCH   3  13
ATOM     13  C   UNL     1     138.544 143.110 123.381  1.00  0.00     0.025 A 
ATOM     14  C   UNL     1     138.395 141.946 124.148  1.00  0.00     0.016 A 
ATOM     15  C   UNL     1     137.916 140.770 123.560  1.00  0.00     0.051 A 
ATOM     16  C   UNL     1     137.584 140.744 122.199  1.00  0.00     0.157 A 
ATOM     17  C   UNL     1     138.181 143.090 122.025  1.00  0.00     0.062 A 
ATOM     18  C   UNL     1     137.712 141.913 121.429  1.00  0.00     0.158 A 
BRANCH  16  19
ATOM     19  O   UNL     1     137.130 139.564 121.609  1.00  0.00    -0.504 OA
ATOM     20  H   UNL     1     137.492 139.244 120.717  1.00  0.00     0.293 HD
ENDBRANCH  16  19
BRANCH  18  21
ATOM     21  O   UNL     1     137.379 141.927 120.073  1.00  0.00    -0.504 OA
ATOM     22  H   UNL     1     138.047 142.187 119.355  1.00  0.00     0.293 HD
ENDBRANCH  18  21
ENDBRANCH   3  13
BRANCH  10  23
ATOM     23  O   UNL     1     141.338 148.532 125.995  1.00  0.00    -0.507 OA
ATOM     24  H   UNL     1     141.911 148.839 125.222  1.00  0.00     0.293 HD
ENDBRANCH  10  23
BRANCH  11  25
ATOM     25  O   UNL     1     136.630 149.125 126.719  1.00  0.00    -0.508 OA
ATOM     26  H   UNL     1     136.735 149.696 127.550  1.00  0.00     0.293 HD
ENDBRANCH  11  25
ENDBRANCH   1   2
BRANCH   1  27
ATOM     27  C   UNL     1     142.035 143.860 122.423  1.00  0.00     0.339 C 
ATOM     28  C   UNL     1     142.008 142.523 121.624  1.00  0.00     0.214 C 
ATOM     29  O   UNL     1     143.350 144.362 122.626  1.00  0.00    -0.332 OA
ATOM     30  C   UNL     1     143.418 142.083 121.198  1.00  0.00     0.180 C 
ATOM     31  C   UNL     1     144.073 144.549 121.415  1.00  0.00     0.179 C 
ATOM     32  C   UNL     1     144.155 143.260 120.531  1.00  0.00     0.177 C 
BRANCH  28  33
ATOM     33  O   UNL     1     141.394 141.490 122.353  1.00  0.00    -0.384 OA
ATOM     34  H   UNL     1     140.419 141.686 122.367  1.00  0.00     0.211 HD
ENDBRANCH  28  33
BRANCH  30  35
ATOM     35  O   UNL     1     144.146 141.640 122.316  1.00  0.00    -0.387 OA
ATOM     36  H   UNL     1     143.514 141.612 123.082  1.00  0.00     0.211 HD
ENDBRANCH  30  35
BRANCH  31  37
ATOM     37  C   UNL     1     143.678 145.853 120.681  1.00  0.00     0.191 C 
BRANCH  37  38
ATOM     38  O   UNL     1     144.608 146.193 119.686  1.00  0.00    -0.394 OA
ATOM     39  H   UNL     1     145.422 145.647 119.863  1.00  0.00     0.210 HD
ENDBRANCH  37  38
ENDBRANCH  31  37
BRANCH  32  40
ATOM     40  O   UNL     1     143.630 143.479 119.243  1.00  0.00    -0.387 OA
ATOM     41  H   UNL     1     143.060 142.693 119.027  1.00  0.00     0.211 HD
ENDBRANCH  32  40
ENDBRANCH   1  27
TORSDOF 12
ENDMDL
MODEL 7
REMARK VINA RESULT:    -6.678      3.002      5.361
REMARK INTER + INTRA:         -11.400
REMARK INTER:                  -9.371
REMARK INTRA:                  -2.029
REMARK UNBOUND:                -1.599
REMARK SMILES O=c1c(O[C@H]2O[C@H](CO)[C@H](O)[C@@H](O)[C@H]2O)c(-c2ccc(O)c(O)c2)oc2cc(O)cc(O)c12
REMARK SMILES IDX 4 1 3 2 16 3 25 4 2 5 26 6 1 7 33 8 27 9 31 10 28 11 30 12
REMARK SMILES IDX 17 13 18 14 19 15 20 16 24 17 22 18 21 19 23 21 32 23 29 25
REMARK SMILES IDX 5 27 14 28 6 29 12 30 7 31 10 32 15 33 13 35 8 37 9 38 11 40
REMARK H PARENT 21 20 23 22 32 24 29 26 15 34 13 36 9 39 11 41
REMARK Flexibility Score: inf
ROOT
ATOM      1  O   UNL     1     140.250 143.452 122.896  1.00  0.00    -0.454 OA
ENDROOT
BRANCH   1   2
ATOM      2  C   UNL     1     141.191 142.707 123.627  1.00  0.00     0.214 A 
ATOM      3  C   UNL     1     142.540 142.689 123.237  1.00  0.00     0.180 A 
ATOM      4  O   UNL     1     143.433 142.029 123.965  1.00  0.00    -0.452 OA
ATOM      5  C   UNL     1     140.818 142.030 124.796  1.00  0.00     0.239 A 
ATOM      6  C   UNL     1     143.118 141.337 125.053  1.00  0.00     0.146 A 
ATOM      7  O   UNL     1     139.642 142.159 125.220  1.00  0.00    -0.285 OA
ATOM      8  C   UNL     1     141.776 141.271 125.510  1.00  0.00     0.111 A 
ATOM      9  C   UNL     1     144.138 140.682 125.748  1.00  0.00     0.094 A 
ATOM     10  C   UNL     1     141.490 140.494 126.673  1.00  0.00     0.134 A 
ATOM     11  C   UNL     1     143.855 139.960 126.905  1.00  0.00     0.123 A 
ATOM     12  C   UNL     1     142.538 139.876 127.365  1.00  0.00     0.093 A 
BRANCH   3  13
ATOM     13  C   UNL     1     143.018 143.411 122.041  1.00  0.00     0.025 A 
ATOM     14  C   UNL     1     143.130 142.730 120.821  1.00  0.00     0.016 A 
ATOM     15  C   UNL     1     143.555 143.405 119.671  1.00  0.00     0.051 A 
ATOM     16  C   UNL     1     143.874 144.768 119.730  1.00  0.00     0.157 A 
ATOM     17  C   UNL     1     143.309 144.783 122.090  1.00  0.00     0.062 A 
ATOM     18  C   UNL     1     143.746 145.462 120.946  1.00  0.00     0.158 A 
BRANCH  16  19
ATOM     19  O   UNL     1     144.321 145.435 118.588  1.00  0.00    -0.504 OA
ATOM     20  H   UNL     1     143.815 145.379 117.710  1.00  0.00     0.293 HD
ENDBRANCH  16  19
BRANCH  18  21
ATOM     21  O   UNL     1     144.044 146.823 121.039  1.00  0.00    -0.504 OA
ATOM     22  H   UNL     1     143.376 147.541 120.780  1.00  0.00     0.293 HD
ENDBRANCH  18  21
ENDBRANCH   3  13
BRANCH  10  23
ATOM     23  O   UNL     1     140.202 140.280 127.170  1.00  0.00    -0.507 OA
ATOM     24  H   UNL     1     139.903 139.446 127.655  1.00  0.00     0.293 HD
ENDBRANCH  10  23
BRANCH  11  25
ATOM     25  O   UNL     1     144.887 139.320 127.587  1.00  0.00    -0.508 OA
ATOM     26  H   UNL     1     145.377 139.769 128.352  1.00  0.00     0.293 HD
ENDBRANCH  11  25
ENDBRANCH   1   2
BRANCH   1  27
ATOM     27  C   UNL     1     139.402 142.899 121.878  1.00  0.00     0.339 C 
ATOM     28  C   UNL     1     137.904 142.923 122.304  1.00  0.00     0.214 C 
ATOM     29  O   UNL     1     139.857 141.601 121.516  1.00  0.00    -0.332 OA
ATOM     30  C   UNL     1     137.253 141.535 122.186  1.00  0.00     0.180 C 
ATOM     31  C   UNL     1     139.088 141.004 120.481  1.00  0.00     0.179 C 
ATOM     32  C   UNL     1     137.557 140.931 120.803  1.00  0.00     0.177 C 
BRANCH  28  33
ATOM     33  O   UNL     1     137.739 143.409 123.613  1.00  0.00    -0.384 OA
ATOM     34  H   UNL     1     137.123 144.188 123.558  1.00  0.00     0.211 HD
ENDBRANCH  28  33
BRANCH  30  35
ATOM     35  O   UNL     1     137.740 140.685 123.194  1.00  0.00    -0.387 OA
ATOM     36  H   UNL     1     137.335 139.791 123.039  1.00  0.00     0.211 HD
ENDBRANCH  30  35
BRANCH  31  37
ATOM     37  C   UNL     1     139.462 141.538 119.076  1.00  0.00     0.191 C 
BRANCH  37  38
ATOM     38  O   UNL     1     139.028 140.674 118.058  1.00  0.00    -0.394 OA
ATOM     39  H   UNL     1     138.036 140.623 118.136  1.00  0.00     0.210 HD
ENDBRANCH  37  38
ENDBRANCH  31  37
BRANCH  32  40
ATOM     40  O   UNL     1     136.788 141.582 119.820  1.00  0.00    -0.387 OA
ATOM     41  H   UNL     1     137.423 141.906 119.125  1.00  0.00     0.211 HD
ENDBRANCH  32  40
ENDBRANCH   1  27
TORSDOF 12
ENDMDL
MODEL 8
REMARK VINA RESULT:    -6.603      5.385      9.701
REMARK INTER + INTRA:         -11.290
REMARK INTER:                  -9.288
REMARK INTRA:                  -2.002
REMARK UNBOUND:                -1.599
REMARK SMILES O=c1c(O[C@H]2O[C@H](CO)[C@H](O)[C@@H](O)[C@H]2O)c(-c2ccc(O)c(O)c2)oc2cc(O)cc(O)c12
REMARK SMILES IDX 4 1 3 2 16 3 25 4 2 5 26 6 1 7 33 8 27 9 31 10 28 11 30 12
REMARK SMILES IDX 17 13 18 14 19 15 20 16 24 17 22 18 21 19 23 21 32 23 29 25
REMARK SMILES IDX 5 27 14 28 6 29 12 30 7 31 10 32 15 33 13 35 8 37 9 38 11 40
REMARK H PARENT 21 20 23 22 32 24 29 26 15 34 13 36 9 39 11 41
REMARK Flexibility Score: inf
ROOT
ATOM      1  O   UNL     1     140.499 147.717 127.455  1.00  0.00    -0.454 OA
ENDROOT
BRANCH   1   2
ATOM      2  C   UNL     1     139.386 147.373 128.241  1.00  0.00     0.214 A 
ATOM      3  C   UNL     1     139.563 146.755 129.490  1.00  0.00     0.180 A 
ATOM      4  O   UNL     1     138.510 146.485 130.252  1.00  0.00    -0.452 OA
ATOM      5  C   UNL     1     138.087 147.705 127.832  1.00  0.00     0.239 A 
ATOM      6  C   UNL     1     137.260 146.740 129.885  1.00  0.00     0.146 A 
ATOM      7  O   UNL     1     137.939 148.380 126.781  1.00  0.00    -0.285 OA
ATOM      8  C   UNL     1     136.978 147.337 128.629  1.00  0.00     0.111 A 
ATOM      9  C   UNL     1     136.226 146.419 130.769  1.00  0.00     0.094 A 
ATOM     10  C   UNL     1     135.614 147.567 128.276  1.00  0.00     0.134 A 
ATOM     11  C   UNL     1     134.901 146.686 130.432  1.00  0.00     0.123 A 
ATOM     12  C   UNL     1     134.602 147.264 129.195  1.00  0.00     0.093 A 
BRANCH   3  13
ATOM     13  C   UNL     1     140.902 146.411 130.009  1.00  0.00     0.025 A 
ATOM     14  C   UNL     1     141.417 145.125 129.795  1.00  0.00     0.016 A 
ATOM     15  C   UNL     1     142.696 144.791 130.256  1.00  0.00     0.051 A 
ATOM     16  C   UNL     1     143.471 145.738 130.938  1.00  0.00     0.157 A 
ATOM     17  C   UNL     1     141.692 147.367 130.666  1.00  0.00     0.062 A 
ATOM     18  C   UNL     1     142.967 147.035 131.140  1.00  0.00     0.158 A 
BRANCH  16  19
ATOM     19  O   UNL     1     144.735 145.396 131.419  1.00  0.00    -0.504 OA
ATOM     20  H   UNL     1     145.379 144.837 130.867  1.00  0.00     0.293 HD
ENDBRANCH  16  19
BRANCH  18  21
ATOM     21  O   UNL     1     143.717 148.007 131.805  1.00  0.00    -0.504 OA
ATOM     22  H   UNL     1     144.653 147.825 132.152  1.00  0.00     0.293 HD
ENDBRANCH  18  21
ENDBRANCH   3  13
BRANCH  10  23
ATOM     23  O   UNL     1     135.203 148.066 127.038  1.00  0.00    -0.507 OA
ATOM     24  H   UNL     1     135.800 148.163 126.229  1.00  0.00     0.293 HD
ENDBRANCH  10  23
BRANCH  11  25
ATOM     25  O   UNL     1     133.885 146.365 131.328  1.00  0.00    -0.508 OA
ATOM     26  H   UNL     1     133.584 145.407 131.469  1.00  0.00     0.293 HD
ENDBRANCH  11  25
ENDBRANCH   1   2
BRANCH   1  27
ATOM     27  C   UNL     1     140.916 146.988 126.290  1.00  0.00     0.339 C 
ATOM     28  C   UNL     1     140.808 147.855 125.001  1.00  0.00     0.214 C 
ATOM     29  O   UNL     1     140.200 145.763 126.200  1.00  0.00    -0.332 OA
ATOM     30  C   UNL     1     139.985 147.154 123.908  1.00  0.00     0.180 C 
ATOM     31  C   UNL     1     140.590 144.965 125.089  1.00  0.00     0.179 C 
ATOM     32  C   UNL     1     140.489 145.711 123.717  1.00  0.00     0.177 C 
BRANCH  28  33
ATOM     33  O   UNL     1     140.257 149.120 125.266  1.00  0.00    -0.384 OA
ATOM     34  H   UNL     1     140.657 149.439 126.119  1.00  0.00     0.211 HD
ENDBRANCH  28  33
BRANCH  30  35
ATOM     35  O   UNL     1     138.624 147.140 124.260  1.00  0.00    -0.387 OA
ATOM     36  H   UNL     1     138.581 147.147 125.252  1.00  0.00     0.211 HD
ENDBRANCH  30  35
BRANCH  31  37
ATOM     37  C   UNL     1     141.904 144.188 125.346  1.00  0.00     0.191 C 
BRANCH  37  38
ATOM     38  O   UNL     1     142.104 143.174 124.396  1.00  0.00    -0.394 OA
ATOM     39  H   UNL     1     142.518 143.610 123.601  1.00  0.00     0.210 HD
ENDBRANCH  37  38
ENDBRANCH  31  37
BRANCH  32  40
ATOM     40  O   UNL     1     141.724 145.725 123.042  1.00  0.00    -0.387 OA
ATOM     41  H   UNL     1     142.171 144.859 123.240  1.00  0.00     0.211 HD
ENDBRANCH  32  40
ENDBRANCH   1  27
TORSDOF 12
ENDMDL
MODEL 9
REMARK VINA RESULT:    -6.541      9.679     12.965
REMARK INTER + INTRA:         -11.199
REMARK INTER:                  -9.697
REMARK INTRA:                  -1.502
REMARK UNBOUND:                -1.599
REMARK SMILES O=c1c(O[C@H]2O[C@H](CO)[C@H](O)[C@@H](O)[C@H]2O)c(-c2ccc(O)c(O)c2)oc2cc(O)cc(O)c12
REMARK SMILES IDX 4 1 3 2 16 3 25 4 2 5 26 6 1 7 33 8 27 9 31 10 28 11 30 12
REMARK SMILES IDX 17 13 18 14 19 15 20 16 24 17 22 18 21 19 23 21 32 23 29 25
REMARK SMILES IDX 5 27 14 28 6 29 12 30 7 31 10 32 15 33 13 35 8 37 9 38 11 40
REMARK H PARENT 21 20 23 22 32 24 29 26 15 34 13 36 9 39 11 41
REMARK Flexibility Score: inf
ROOT
ATOM      1  O   UNL     1     130.802 134.444 126.611  1.00  0.00    -0.454 OA
ENDROOT
BRANCH   1   2
ATOM      2  C   UNL     1     132.126 134.145 126.250  1.00  0.00     0.214 A 
ATOM      3  C   UNL     1     132.609 134.486 124.975  1.00  0.00     0.180 A 
ATOM      4  O   UNL     1     133.877 134.252 124.661  1.00  0.00    -0.452 OA
ATOM      5  C   UNL     1     133.010 133.569 127.172  1.00  0.00     0.239 A 
ATOM      6  C   UNL     1     134.737 133.668 125.487  1.00  0.00     0.146 A 
ATOM      7  O   UNL     1     132.618 133.390 128.353  1.00  0.00    -0.285 OA
ATOM      8  C   UNL     1     134.336 133.260 126.785  1.00  0.00     0.111 A 
ATOM      9  C   UNL     1     136.051 133.473 125.054  1.00  0.00     0.094 A 
ATOM     10  C   UNL     1     135.295 132.615 127.623  1.00  0.00     0.134 A 
ATOM     11  C   UNL     1     136.991 132.881 125.895  1.00  0.00     0.123 A 
ATOM     12  C   UNL     1     136.612 132.463 127.174  1.00  0.00     0.093 A 
BRANCH   3  13
ATOM     13  C   UNL     1     131.751 135.133 123.962  1.00  0.00     0.025 A 
ATOM     14  C   UNL     1     130.785 134.374 123.287  1.00  0.00     0.016 A 
ATOM     15  C   UNL     1     129.945 134.977 122.344  1.00  0.00     0.051 A 
ATOM     16  C   UNL     1     130.064 136.344 122.064  1.00  0.00     0.157 A 
ATOM     17  C   UNL     1     131.847 136.509 123.702  1.00  0.00     0.062 A 
ATOM     18  C   UNL     1     131.018 137.115 122.751  1.00  0.00     0.158 A 
BRANCH  16  19
ATOM     19  O   UNL     1     129.242 136.939 121.106  1.00  0.00    -0.504 OA
ATOM     20  H   UNL     1     129.324 136.708 120.121  1.00  0.00     0.293 HD
ENDBRANCH  16  19
BRANCH  18  21
ATOM     21  O   UNL     1     131.155 138.483 122.506  1.00  0.00    -0.504 OA
ATOM     22  H   UNL     1     132.063 138.926 122.403  1.00  0.00     0.293 HD
ENDBRANCH  18  21
ENDBRANCH   3  13
BRANCH  10  23
ATOM     23  O   UNL     1     135.001 132.091 128.883  1.00  0.00    -0.507 OA
ATOM     24  H   UNL     1     134.412 132.538 129.571  1.00  0.00     0.293 HD
ENDBRANCH  10  23
BRANCH  11  25
ATOM     25  O   UNL     1     138.298 132.701 125.448  1.00  0.00    -0.508 OA
ATOM     26  H   UNL     1     139.030 132.372 126.066  1.00  0.00     0.293 HD
ENDBRANCH  11  25
ENDBRANCH   1   2
BRANCH   1  27
ATOM     27  C   UNL     1     129.741 133.477 126.652  1.00  0.00     0.339 C 
ATOM     28  C   UNL     1     128.959 133.540 127.997  1.00  0.00     0.214 C 
ATOM     29  O   UNL     1     130.252 132.182 126.364  1.00  0.00    -0.332 OA
ATOM     30  C   UNL     1     128.883 132.163 128.678  1.00  0.00     0.180 C 
ATOM     31  C   UNL     1     129.249 131.174 126.346  1.00  0.00     0.179 C 
ATOM     32  C   UNL     1     128.410 131.104 127.666  1.00  0.00     0.177 C 
BRANCH  28  33
ATOM     33  O   UNL     1     129.520 134.473 128.886  1.00  0.00    -0.384 OA
ATOM     34  H   UNL     1     130.162 133.976 129.461  1.00  0.00     0.211 HD
ENDBRANCH  28  33
BRANCH  30  35
ATOM     35  O   UNL     1     130.142 131.804 129.189  1.00  0.00    -0.387 OA
ATOM     36  H   UNL     1     130.206 132.192 130.101  1.00  0.00     0.211 HD
ENDBRANCH  30  35
BRANCH  31  37
ATOM     37  C   UNL     1     128.441 131.160 125.025  1.00  0.00     0.191 C 
BRANCH  37  38
ATOM     38  O   UNL     1     128.988 130.268 124.089  1.00  0.00    -0.394 OA
ATOM     39  H   UNL     1     129.726 129.788 124.555  1.00  0.00     0.210 HD
ENDBRANCH  37  38
ENDBRANCH  31  37
BRANCH  32  40
ATOM     40  O   UNL     1     127.034 131.266 127.415  1.00  0.00    -0.387 OA
ATOM     41  H   UNL     1     126.888 131.045 126.456  1.00  0.00     0.211 HD
ENDBRANCH  32  40
ENDBRANCH   1  27
TORSDOF 12
ENDMDL
