MODEL 1
REMARK VINA RESULT:    -4.108      0.000      0.000
REMARK INTER + INTRA:          -5.476
REMARK INTER:                  -5.069
REMARK INTRA:                  -0.407
REMARK UNBOUND:                -0.407
REMARK SMILES C=CC(=C)CCC=C(C)C
REMARK SMILES IDX 5 1 6 2 7 3 9 4 8 5 10 6 3 7 4 8 2 9 1 10
REMARK H PARENT
REMARK Flexibility Score: inf
ROOT
ATOM      1  C   UNL     1     163.672 169.296 199.457  1.00  0.00     0.039 C 
ENDROOT
BRANCH   1   2
ATOM      2  C   UNL     1     164.778 170.107 200.141  1.00  0.00     0.032 C 
BRANCH   2   3
ATOM      3  C   UNL     1     166.018 170.147 199.283  1.00  0.00    -0.028 C 
ATOM      4  C   UNL     1     168.384 169.807 198.708  1.00  0.00     0.039 C 
ATOM      5  C   UNL     1     167.222 169.660 199.657  1.00  0.00    -0.080 C 
ATOM      6  C   UNL     1     167.428 168.963 200.982  1.00  0.00     0.039 C 
ENDBRANCH   2   3
ENDBRANCH   1   2
BRANCH   1   7
ATOM      7  C   UNL     1     163.188 168.181 200.359  1.00  0.00    -0.055 C 
ATOM      8  C   UNL     1     163.427 168.259 201.673  1.00  0.00     0.012 C 
BRANCH   7   9
ATOM      9  C   UNL     1     162.499 166.976 199.830  1.00  0.00    -0.005 C 
ATOM     10  C   UNL     1     162.537 165.778 200.415  1.00  0.00     0.009 C 
ENDBRANCH   7   9
ENDBRANCH   1   7
TORSDOF 4
ENDMDL
MODEL 2
REMARK VINA RESULT:    -4.091      5.137      7.555
REMARK INTER + INTRA:          -5.454
REMARK INTER:                  -4.689
REMARK INTRA:                  -0.765
REMARK UNBOUND:                -0.407
REMARK SMILES C=CC(=C)CCC=C(C)C
REMARK SMILES IDX 5 1 6 2 7 3 9 4 8 5 10 6 3 7 4 8 2 9 1 10
REMARK H PARENT
REMARK Flexibility Score: inf
ROOT
ATOM      1  C   UNL     1     168.440 163.502 202.156  1.00  0.00     0.039 C 
ENDROOT
BRANCH   1   2
ATOM      2  C   UNL     1     167.504 162.330 201.841  1.00  0.00     0.032 C 
BRANCH   2   3
ATOM      3  C   UNL     1     166.086 162.811 201.667  1.00  0.00    -0.028 C 
ATOM      4  C   UNL     1     163.972 163.247 200.491  1.00  0.00     0.039 C 
ATOM      5  C   UNL     1     165.368 162.679 200.530  1.00  0.00    -0.080 C 
ATOM      6  C   UNL     1     165.916 161.968 199.314  1.00  0.00     0.039 C 
ENDBRANCH   2   3
ENDBRANCH   1   2
BRANCH   1   7
ATOM      7  C   UNL     1     168.929 164.156 200.882  1.00  0.00    -0.055 C 
ATOM      8  C   UNL     1     168.679 165.456 200.683  1.00  0.00     0.012 C 
BRANCH   7   9
ATOM      9  C   UNL     1     169.636 163.396 199.820  1.00  0.00    -0.005 C 
ATOM     10  C   UNL     1     169.286 163.412 198.533  1.00  0.00     0.009 C 
ENDBRANCH   7   9
ENDBRANCH   1   7
TORSDOF 4
ENDMDL
MODEL 3
REMARK VINA RESULT:    -4.083      1.042      2.196
REMARK INTER + INTRA:          -5.445
REMARK INTER:                  -4.758
REMARK INTRA:                  -0.687
REMARK UNBOUND:                -0.407
REMARK SMILES C=CC(=C)CCC=C(C)C
REMARK SMILES IDX 5 1 6 2 7 3 9 4 8 5 10 6 3 7 4 8 2 9 1 10
REMARK H PARENT
REMARK Flexibility Score: inf
ROOT
ATOM      1  C   UNL     1     163.421 168.621 201.502  1.00  0.00     0.039 C 
ENDROOT
BRANCH   1   2
ATOM      2  C   UNL     1     164.454 169.726 201.249  1.00  0.00     0.032 C 
BRANCH   2   3
ATOM      3  C   UNL     1     165.855 169.177 201.340  1.00  0.00    -0.028 C 
ATOM      4  C   UNL     1     168.137 168.661 200.585  1.00  0.00     0.039 C 
ATOM      5  C   UNL     1     166.788 169.299 200.370  1.00  0.00    -0.080 C 
ATOM      6  C   UNL     1     166.523 170.065 199.095  1.00  0.00     0.039 C 
ENDBRANCH   2   3
ENDBRANCH   1   2
BRANCH   1   7
ATOM      7  C   UNL     1     162.893 168.070 200.196  1.00  0.00    -0.055 C 
ATOM      8  C   UNL     1     162.558 166.776 200.125  1.00  0.00     0.012 C 
BRANCH   7   9
ATOM      9  C   UNL     1     162.778 168.903 198.971  1.00  0.00    -0.005 C 
ATOM     10  C   UNL     1     163.376 168.615 197.815  1.00  0.00     0.009 C 
ENDBRANCH   7   9
ENDBRANCH   1   7
TORSDOF 4
ENDMDL
MODEL 4
REMARK VINA RESULT:    -4.055      5.029      6.099
REMARK INTER + INTRA:          -5.410
REMARK INTER:                  -4.954
REMARK INTRA:                  -0.456
REMARK UNBOUND:                -0.407
REMARK SMILES C=CC(=C)CCC=C(C)C
REMARK SMILES IDX 5 1 6 2 7 3 9 4 8 5 10 6 3 7 4 8 2 9 1 10
REMARK H PARENT
REMARK Flexibility Score: inf
ROOT
ATOM      1  C   UNL     1     168.363 162.632 199.169  1.00  0.00     0.039 C 
ENDROOT
BRANCH   1   2
ATOM      2  C   UNL     1     169.389 163.314 200.082  1.00  0.00     0.032 C 
BRANCH   2   3
ATOM      3  C   UNL     1     169.674 164.717 199.610  1.00  0.00    -0.028 C 
ATOM      4  C   UNL     1     169.679 167.174 199.690  1.00  0.00     0.039 C 
ATOM      5  C   UNL     1     169.370 165.834 200.308  1.00  0.00    -0.080 C 
ATOM      6  C   UNL     1     168.750 165.775 201.685  1.00  0.00     0.039 C 
ENDBRANCH   2   3
ENDBRANCH   1   2
BRANCH   1   7
ATOM      7  C   UNL     1     167.102 162.296 199.934  1.00  0.00    -0.055 C 
ATOM      8  C   UNL     1     167.139 162.279 201.272  1.00  0.00     0.012 C 
BRANCH   7   9
ATOM      9  C   UNL     1     165.833 161.934 199.253  1.00  0.00    -0.005 C 
ATOM     10  C   UNL     1     164.629 162.345 199.651  1.00  0.00     0.009 C 
ENDBRANCH   7   9
ENDBRANCH   1   7
TORSDOF 4
ENDMDL
MODEL 5
REMARK VINA RESULT:    -4.044      5.456      7.586
REMARK INTER + INTRA:          -5.396
REMARK INTER:                  -4.811
REMARK INTRA:                  -0.585
REMARK UNBOUND:                -0.407
REMARK SMILES C=CC(=C)CCC=C(C)C
REMARK SMILES IDX 5 1 6 2 7 3 9 4 8 5 10 6 3 7 4 8 2 9 1 10
REMARK H PARENT
REMARK Flexibility Score: inf
ROOT
ATOM      1  C   UNL     1     168.416 162.791 199.497  1.00  0.00     0.039 C 
ENDROOT
BRANCH   1   2
ATOM      2  C   UNL     1     167.366 161.877 200.139  1.00  0.00     0.032 C 
BRANCH   2   3
ATOM      3  C   UNL     1     166.080 161.906 199.353  1.00  0.00    -0.028 C 
ATOM      4  C   UNL     1     163.699 162.342 198.925  1.00  0.00     0.039 C 
ATOM      5  C   UNL     1     164.917 162.421 199.810  1.00  0.00    -0.080 C 
ATOM      6  C   UNL     1     164.810 163.082 201.165  1.00  0.00     0.039 C 
ENDBRANCH   2   3
ENDBRANCH   1   2
BRANCH   1   7
ATOM      7  C   UNL     1     168.848 163.874 200.461  1.00  0.00    -0.055 C 
ATOM      8  C   UNL     1     169.509 164.938 199.989  1.00  0.00     0.012 C 
BRANCH   7   9
ATOM      9  C   UNL     1     168.609 163.776 201.924  1.00  0.00    -0.005 C 
ATOM     10  C   UNL     1     168.178 164.787 202.679  1.00  0.00     0.009 C 
ENDBRANCH   7   9
ENDBRANCH   1   7
TORSDOF 4
ENDMDL
MODEL 6
REMARK VINA RESULT:    -3.995      5.695      7.564
REMARK INTER + INTRA:          -5.336
REMARK INTER:                  -4.566
REMARK INTRA:                  -0.770
REMARK UNBOUND:                -0.407
REMARK SMILES C=CC(=C)CCC=C(C)C
REMARK SMILES IDX 5 1 6 2 7 3 9 4 8 5 10 6 3 7 4 8 2 9 1 10
REMARK H PARENT
REMARK Flexibility Score: inf
ROOT
ATOM      1  C   UNL     1     167.408 161.978 200.749  1.00  0.00     0.039 C 
ENDROOT
BRANCH   1   2
ATOM      2  C   UNL     1     165.995 162.449 200.390  1.00  0.00     0.032 C 
BRANCH   2   3
ATOM      3  C   UNL     1     165.593 161.943 199.028  1.00  0.00    -0.028 C 
ATOM      4  C   UNL     1     165.087 162.068 196.626  1.00  0.00     0.039 C 
ATOM      5  C   UNL     1     165.549 162.704 197.912  1.00  0.00    -0.080 C 
ATOM      6  C   UNL     1     165.963 164.157 197.917  1.00  0.00     0.039 C 
ENDBRANCH   2   3
ENDBRANCH   1   2
BRANCH   1   7
ATOM      7  C   UNL     1     168.355 163.153 200.859  1.00  0.00    -0.055 C 
ATOM      8  C   UNL     1     168.223 163.999 201.887  1.00  0.00     0.012 C 
BRANCH   7   9
ATOM      9  C   UNL     1     169.397 163.430 199.837  1.00  0.00    -0.005 C 
ATOM     10  C   UNL     1     169.354 162.975 198.585  1.00  0.00     0.009 C 
ENDBRANCH   7   9
ENDBRANCH   1   7
TORSDOF 4
ENDMDL
MODEL 7
REMARK VINA RESULT:    -3.971      1.504      2.095
REMARK INTER + INTRA:          -5.306
REMARK INTER:                  -4.483
REMARK INTRA:                  -0.823
REMARK UNBOUND:                -0.407
REMARK SMILES C=CC(=C)CCC=C(C)C
REMARK SMILES IDX 5 1 6 2 7 3 9 4 8 5 10 6 3 7 4 8 2 9 1 10
REMARK H PARENT
REMARK Flexibility Score: inf
ROOT
ATOM      1  C   UNL     1     164.475 169.829 200.931  1.00  0.00     0.039 C 
ENDROOT
BRANCH   1   2
ATOM      2  C   UNL     1     165.899 169.406 200.554  1.00  0.00     0.032 C 
BRANCH   2   3
ATOM      3  C   UNL     1     166.275 169.946 199.197  1.00  0.00    -0.028 C 
ATOM      4  C   UNL     1     166.801 169.870 196.798  1.00  0.00     0.039 C 
ATOM      5  C   UNL     1     166.375 169.196 198.077  1.00  0.00    -0.080 C 
ATOM      6  C   UNL     1     166.058 167.719 198.071  1.00  0.00     0.039 C 
ENDBRANCH   2   3
ENDBRANCH   1   2
BRANCH   1   7
ATOM      7  C   UNL     1     163.530 168.648 200.872  1.00  0.00    -0.055 C 
ATOM      8  C   UNL     1     163.639 167.683 201.793  1.00  0.00     0.012 C 
BRANCH   7   9
ATOM      9  C   UNL     1     162.516 168.497 199.797  1.00  0.00    -0.005 C 
ATOM     10  C   UNL     1     162.630 169.036 198.583  1.00  0.00     0.009 C 
ENDBRANCH   7   9
ENDBRANCH   1   7
TORSDOF 4
ENDMDL
MODEL 8
REMARK VINA RESULT:    -3.970      1.544      2.465
REMARK INTER + INTRA:          -5.305
REMARK INTER:                  -4.868
REMARK INTRA:                  -0.437
REMARK UNBOUND:                -0.407
REMARK SMILES C=CC(=C)CCC=C(C)C
REMARK SMILES IDX 5 1 6 2 7 3 9 4 8 5 10 6 3 7 4 8 2 9 1 10
REMARK H PARENT
REMARK Flexibility Score: inf
ROOT
ATOM      1  C   UNL     1     165.826 169.330 198.691  1.00  0.00     0.039 C 
ENDROOT
BRANCH   1   2
ATOM      2  C   UNL     1     167.008 169.860 199.510  1.00  0.00     0.032 C 
BRANCH   2   3
ATOM      3  C   UNL     1     168.035 168.777 199.729  1.00  0.00    -0.028 C 
ATOM      4  C   UNL     1     169.413 167.190 201.002  1.00  0.00     0.039 C 
ATOM      5  C   UNL     1     168.332 168.238 200.932  1.00  0.00    -0.080 C 
ATOM      6  C   UNL     1     167.606 168.643 202.194  1.00  0.00     0.039 C 
ENDBRANCH   2   3
ENDBRANCH   1   2
BRANCH   1   7
ATOM      7  C   UNL     1     164.526 169.512 199.444  1.00  0.00    -0.055 C 
ATOM      8  C   UNL     1     164.561 169.989 200.694  1.00  0.00     0.012 C 
BRANCH   7   9
ATOM      9  C   UNL     1     163.212 169.134 198.862  1.00  0.00    -0.005 C 
ATOM     10  C   UNL     1     162.229 168.558 199.554  1.00  0.00     0.009 C 
ENDBRANCH   7   9
ENDBRANCH   1   7
TORSDOF 4
ENDMDL
MODEL 9
REMARK VINA RESULT:    -3.904      1.400      2.312
REMARK INTER + INTRA:          -5.224
REMARK INTER:                  -4.348
REMARK INTRA:                  -0.876
REMARK UNBOUND:                -0.407
REMARK SMILES C=CC(=C)CCC=C(C)C
REMARK SMILES IDX 5 1 6 2 7 3 9 4 8 5 10 6 3 7 4 8 2 9 1 10
REMARK H PARENT
REMARK Flexibility Score: inf
ROOT
ATOM      1  C   UNL     1     164.526 170.213 200.077  1.00  0.00     0.039 C 
ENDROOT
BRANCH   1   2
ATOM      2  C   UNL     1     165.759 169.769 199.282  1.00  0.00     0.032 C 
BRANCH   2   3
ATOM      3  C   UNL     1     166.909 169.460 200.207  1.00  0.00    -0.028 C 
ATOM      4  C   UNL     1     168.435 168.061 201.532  1.00  0.00     0.039 C 
ATOM      5  C   UNL     1     167.290 168.214 200.563  1.00  0.00    -0.080 C 
ATOM      6  C   UNL     1     166.616 166.980 200.009  1.00  0.00     0.039 C 
ENDBRANCH   2   3
ENDBRANCH   1   2
BRANCH   1   7
ATOM      7  C   UNL     1     163.538 169.076 200.218  1.00  0.00    -0.055 C 
ATOM      8  C   UNL     1     162.722 168.795 199.195  1.00  0.00     0.012 C 
BRANCH   7   9
ATOM      9  C   UNL     1     163.407 168.289 201.471  1.00  0.00    -0.005 C 
ATOM     10  C   UNL     1     164.025 168.595 202.612  1.00  0.00     0.009 C 
ENDBRANCH   7   9
ENDBRANCH   1   7
TORSDOF 4
ENDMDL
