MODEL 1
REMARK VINA RESULT:    -1.175      0.000      0.000
REMARK INTER + INTRA:          -6.888
REMARK INTER:                  -2.548
REMARK INTRA:                  -4.340
REMARK UNBOUND:                -4.340
REMARK SMILES CCCCCCCCCCCCCCCCCCCCCC(=O)[O-]
REMARK SMILES IDX 12 1 11 2 10 3 9 4 8 5 7 6 6 7 5 8 4 9 3 10 2 11 1 12 13 13
REMARK SMILES IDX 14 14 15 15 16 16 17 17 18 18 19 19 20 20 21 21 22 22 23 23
REMARK SMILES IDX 24 24
REMARK H PARENT
REMARK Flexibility Score: inf
ROOT
ATOM      1  C   UNL     1      20.722 -29.864   4.218  1.00  0.00     0.000 C 
ENDROOT
BRANCH   1   2
ATOM      2  C   UNL     1      20.780 -28.340   3.980  1.00  0.00     0.000 C 
BRANCH   2   3
ATOM      3  C   UNL     1      21.850 -27.875   2.975  1.00  0.00     0.000 C 
BRANCH   3   4
ATOM      4  C   UNL     1      22.982 -28.899   2.790  1.00  0.00    -0.000 C 
BRANCH   4   5
ATOM      5  C   UNL     1      23.138 -29.340   1.320  1.00  0.00    -0.000 C 
BRANCH   5   6
ATOM      6  C   UNL     1      22.694 -30.789   1.056  1.00  0.00    -0.000 C 
BRANCH   6   7
ATOM      7  C   UNL     1      21.504 -30.887   0.087  1.00  0.00    -0.000 C 
BRANCH   7   8
ATOM      8  C   UNL     1      20.226 -30.245   0.649  1.00  0.00    -0.000 C 
BRANCH   8   9
ATOM      9  C   UNL     1      19.765 -29.033  -0.176  1.00  0.00    -0.000 C 
BRANCH   9  10
ATOM     10  C   UNL     1      20.565 -28.866  -1.479  1.00  0.00    -0.000 C 
BRANCH  10  11
ATOM     11  C   UNL     1      21.273 -27.507  -1.569  1.00  0.00    -0.003 C 
ATOM     12  C   UNL     1      20.977 -26.651  -0.339  1.00  0.00     0.004 C 
ENDBRANCH  10  11
ENDBRANCH   9  10
ENDBRANCH   8   9
ENDBRANCH   7   8
ENDBRANCH   6   7
ENDBRANCH   5   6
ENDBRANCH   4   5
ENDBRANCH   3   4
ENDBRANCH   2   3
ENDBRANCH   1   2
BRANCH   1  13
ATOM     13  C   UNL     1      20.984 -30.310   5.667  1.00  0.00     0.000 C 
BRANCH  13  14
ATOM     14  C   UNL     1      21.800 -31.611   5.753  1.00  0.00     0.000 C 
BRANCH  14  15
ATOM     15  C   UNL     1      22.068 -32.231   4.373  1.00  0.00     0.000 C 
BRANCH  15  16
ATOM     16  C   UNL     1      21.187 -33.466   4.101  1.00  0.00     0.000 C 
BRANCH  16  17
ATOM     17  C   UNL     1      20.474 -33.393   2.743  1.00  0.00     0.000 C 
BRANCH  17  18
ATOM     18  C   UNL     1      18.988 -33.019   2.874  1.00  0.00     0.000 C 
BRANCH  18  19
ATOM     19  C   UNL     1      18.544 -32.830   4.336  1.00  0.00     0.000 C 
BRANCH  19  20
ATOM     20  C   UNL     1      17.457 -31.758   4.554  1.00  0.00     0.006 C 
BRANCH  20  21
ATOM     21  C   UNL     1      17.260 -30.799   3.370  1.00  0.00     0.053 C 
BRANCH  21  22
ATOM     22  C   UNL     1      15.869 -30.870   2.819  1.00  0.00     0.041 C 
ATOM     23  O   UNL     1      15.410 -31.965   2.399  1.00  0.00    -0.550 OA
ATOM     24  O   UNL     1      15.081 -29.725   2.764  1.00  0.00    -0.550 OA
ENDBRANCH  21  22
ENDBRANCH  20  21
ENDBRANCH  19  20
ENDBRANCH  18  19
ENDBRANCH  17  18
ENDBRANCH  16  17
ENDBRANCH  15  16
ENDBRANCH  14  15
ENDBRANCH  13  14
ENDBRANCH   1  13
TORSDOF 20
ENDMDL
MODEL 2
REMARK VINA RESULT:    -1.169      3.747      7.192
REMARK INTER + INTRA:          -6.877
REMARK INTER:                  -3.024
REMARK INTRA:                  -3.853
REMARK UNBOUND:                -4.340
REMARK SMILES CCCCCCCCCCCCCCCCCCCCCC(=O)[O-]
REMARK SMILES IDX 12 1 11 2 10 3 9 4 8 5 7 6 6 7 5 8 4 9 3 10 2 11 1 12 13 13
REMARK SMILES IDX 14 14 15 15 16 16 17 17 18 18 19 19 20 20 21 21 22 22 23 23
REMARK SMILES IDX 24 24
REMARK H PARENT
REMARK Flexibility Score: inf
ROOT
ATOM      1  C   UNL     1      17.134 -30.333   3.879  1.00  0.00     0.000 C 
ENDROOT
BRANCH   1   2
ATOM      2  C   UNL     1      18.635 -30.470   3.548  1.00  0.00     0.000 C 
BRANCH   2   3
ATOM      3  C   UNL     1      18.953 -31.244   2.255  1.00  0.00     0.000 C 
BRANCH   3   4
ATOM      4  C   UNL     1      19.142 -32.751   2.492  1.00  0.00    -0.000 C 
BRANCH   4   5
ATOM      5  C   UNL     1      18.832 -33.585   1.232  1.00  0.00    -0.000 C 
BRANCH   5   6
ATOM      6  C   UNL     1      17.668 -34.575   1.413  1.00  0.00    -0.000 C 
BRANCH   6   7
ATOM      7  C   UNL     1      16.370 -33.896   1.886  1.00  0.00    -0.000 C 
BRANCH   7   8
ATOM      8  C   UNL     1      15.719 -34.623   3.074  1.00  0.00    -0.000 C 
BRANCH   8   9
ATOM      9  C   UNL     1      15.710 -33.770   4.352  1.00  0.00    -0.000 C 
BRANCH   9  10
ATOM     10  C   UNL     1      17.007 -33.913   5.168  1.00  0.00    -0.000 C 
BRANCH  10  11
ATOM     11  C   UNL     1      17.613 -35.320   5.073  1.00  0.00    -0.003 C 
ATOM     12  C   UNL     1      19.139 -35.266   5.128  1.00  0.00     0.004 C 
ENDBRANCH  10  11
ENDBRANCH   9  10
ENDBRANCH   8   9
ENDBRANCH   7   8
ENDBRANCH   6   7
ENDBRANCH   5   6
ENDBRANCH   4   5
ENDBRANCH   3   4
ENDBRANCH   2   3
ENDBRANCH   1   2
BRANCH   1  13
ATOM     13  C   UNL     1      16.184 -30.484   2.680  1.00  0.00     0.000 C 
BRANCH  13  14
ATOM     14  C   UNL     1      14.787 -29.897   2.945  1.00  0.00     0.000 C 
BRANCH  14  15
ATOM     15  C   UNL     1      13.701 -30.980   3.038  1.00  0.00     0.000 C 
BRANCH  15  16
ATOM     16  C   UNL     1      12.955 -31.181   1.705  1.00  0.00     0.000 C 
BRANCH  16  17
ATOM     17  C   UNL     1      13.077 -32.615   1.172  1.00  0.00     0.000 C 
BRANCH  17  18
ATOM     18  C   UNL     1      12.149 -32.884  -0.025  1.00  0.00     0.000 C 
BRANCH  18  19
ATOM     19  C   UNL     1      12.915 -33.273  -1.302  1.00  0.00     0.000 C 
BRANCH  19  20
ATOM     20  C   UNL     1      14.230 -34.043  -1.065  1.00  0.00     0.006 C 
BRANCH  20  21
ATOM     21  C   UNL     1      14.125 -35.562  -1.265  1.00  0.00     0.053 C 
BRANCH  21  22
ATOM     22  C   UNL     1      14.231 -36.305   0.032  1.00  0.00     0.041 C 
ATOM     23  O   UNL     1      15.244 -37.013   0.275  1.00  0.00    -0.550 OA
ATOM     24  O   UNL     1      13.207 -36.221   0.970  1.00  0.00    -0.550 OA
ENDBRANCH  21  22
ENDBRANCH  20  21
ENDBRANCH  19  20
ENDBRANCH  18  19
ENDBRANCH  17  18
ENDBRANCH  16  17
ENDBRANCH  15  16
ENDBRANCH  14  15
ENDBRANCH  13  14
ENDBRANCH   1  13
TORSDOF 20
ENDMDL
MODEL 3
REMARK VINA RESULT:    -1.149      3.891      6.941
REMARK INTER + INTRA:          -6.832
REMARK INTER:                  -3.337
REMARK INTRA:                  -3.495
REMARK UNBOUND:                -4.340
REMARK SMILES CCCCCCCCCCCCCCCCCCCCCC(=O)[O-]
REMARK SMILES IDX 12 1 11 2 10 3 9 4 8 5 7 6 6 7 5 8 4 9 3 10 2 11 1 12 13 13
REMARK SMILES IDX 14 14 15 15 16 16 17 17 18 18 19 19 20 20 21 21 22 22 23 23
REMARK SMILES IDX 24 24
REMARK H PARENT
REMARK Flexibility Score: inf
ROOT
ATOM      1  C   UNL     1      15.622 -31.331   3.173  1.00  0.00     0.000 C 
ENDROOT
BRANCH   1   2
ATOM      2  C   UNL     1      15.981 -32.563   2.316  1.00  0.00     0.000 C 
BRANCH   2   3
ATOM      3  C   UNL     1      16.360 -33.827   3.111  1.00  0.00     0.000 C 
BRANCH   3   4
ATOM      4  C   UNL     1      17.551 -34.584   2.499  1.00  0.00    -0.000 C 
BRANCH   4   5
ATOM      5  C   UNL     1      17.802 -34.188   1.029  1.00  0.00    -0.000 C 
BRANCH   5   6
ATOM      6  C   UNL     1      18.561 -35.254   0.220  1.00  0.00    -0.000 C 
BRANCH   6   7
ATOM      7  C   UNL     1      17.766 -35.767  -0.994  1.00  0.00    -0.000 C 
BRANCH   7   8
ATOM      8  C   UNL     1      16.942 -37.025  -0.675  1.00  0.00    -0.000 C 
BRANCH   8   9
ATOM      9  C   UNL     1      15.428 -36.772  -0.756  1.00  0.00    -0.000 C 
BRANCH   9  10
ATOM     10  C   UNL     1      14.833 -36.312   0.585  1.00  0.00    -0.000 C 
BRANCH  10  11
ATOM     11  C   UNL     1      13.948 -35.064   0.443  1.00  0.00    -0.003 C 
ATOM     12  C   UNL     1      14.422 -34.184  -0.712  1.00  0.00     0.004 C 
ENDBRANCH  10  11
ENDBRANCH   9  10
ENDBRANCH   8   9
ENDBRANCH   7   8
ENDBRANCH   6   7
ENDBRANCH   5   6
ENDBRANCH   4   5
ENDBRANCH   3   4
ENDBRANCH   2   3
ENDBRANCH   1   2
BRANCH   1  13
ATOM     13  C   UNL     1      16.803 -30.407   3.515  1.00  0.00     0.000 C 
BRANCH  13  14
ATOM     14  C   UNL     1      18.035 -30.657   2.630  1.00  0.00     0.000 C 
BRANCH  14  15
ATOM     15  C   UNL     1      19.301 -30.951   3.451  1.00  0.00     0.000 C 
BRANCH  15  16
ATOM     16  C   UNL     1      20.368 -31.707   2.636  1.00  0.00     0.000 C 
BRANCH  16  17
ATOM     17  C   UNL     1      20.151 -31.581   1.121  1.00  0.00     0.000 C 
BRANCH  17  18
ATOM     18  C   UNL     1      21.019 -30.480   0.488  1.00  0.00     0.000 C 
BRANCH  18  19
ATOM     19  C   UNL     1      20.186 -29.379  -0.195  1.00  0.00     0.000 C 
BRANCH  19  20
ATOM     20  C   UNL     1      20.457 -27.948   0.311  1.00  0.00     0.006 C 
BRANCH  20  21
ATOM     21  C   UNL     1      20.642 -27.834   1.832  1.00  0.00     0.053 C 
BRANCH  21  22
ATOM     22  C   UNL     1      21.978 -27.258   2.191  1.00  0.00     0.041 C 
ATOM     23  O   UNL     1      22.084 -26.038   2.485  1.00  0.00    -0.550 OA
ATOM     24  O   UNL     1      23.109 -28.068   2.194  1.00  0.00    -0.550 OA
ENDBRANCH  21  22
ENDBRANCH  20  21
ENDBRANCH  19  20
ENDBRANCH  18  19
ENDBRANCH  17  18
ENDBRANCH  16  17
ENDBRANCH  15  16
ENDBRANCH  14  15
ENDBRANCH  13  14
ENDBRANCH   1  13
TORSDOF 20
ENDMDL
MODEL 4
REMARK VINA RESULT:    -1.138      2.793      6.328
REMARK INTER + INTRA:          -6.810
REMARK INTER:                  -3.191
REMARK INTRA:                  -3.619
REMARK UNBOUND:                -4.340
REMARK SMILES CCCCCCCCCCCCCCCCCCCCCC(=O)[O-]
REMARK SMILES IDX 12 1 11 2 10 3 9 4 8 5 7 6 6 7 5 8 4 9 3 10 2 11 1 12 13 13
REMARK SMILES IDX 14 14 15 15 16 16 17 17 18 18 19 19 20 20 21 21 22 22 23 23
REMARK SMILES IDX 24 24
REMARK H PARENT
REMARK Flexibility Score: inf
ROOT
ATOM      1  C   UNL     1      21.758 -31.050   3.502  1.00  0.00     0.000 C 
ENDROOT
BRANCH   1   2
ATOM      2  C   UNL     1      20.458 -31.580   4.143  1.00  0.00     0.000 C 
BRANCH   2   3
ATOM      3  C   UNL     1      20.058 -33.009   3.728  1.00  0.00     0.000 C 
BRANCH   3   4
ATOM      4  C   UNL     1      20.939 -33.571   2.599  1.00  0.00    -0.000 C 
BRANCH   4   5
ATOM      5  C   UNL     1      20.255 -33.475   1.220  1.00  0.00    -0.000 C 
BRANCH   5   6
ATOM      6  C   UNL     1      18.724 -33.342   1.295  1.00  0.00    -0.000 C 
BRANCH   6   7
ATOM      7  C   UNL     1      17.992 -34.680   1.090  1.00  0.00    -0.000 C 
BRANCH   7   8
ATOM      8  C   UNL     1      16.621 -34.719   1.782  1.00  0.00    -0.000 C 
BRANCH   8   9
ATOM      9  C   UNL     1      16.028 -33.316   1.993  1.00  0.00    -0.000 C 
BRANCH   9  10
ATOM     10  C   UNL     1      15.803 -32.986   3.478  1.00  0.00    -0.000 C 
BRANCH  10  11
ATOM     11  C   UNL     1      16.638 -31.788   3.952  1.00  0.00    -0.003 C 
ATOM     12  C   UNL     1      16.690 -30.698   2.883  1.00  0.00     0.004 C 
ENDBRANCH  10  11
ENDBRANCH   9  10
ENDBRANCH   8   9
ENDBRANCH   7   8
ENDBRANCH   6   7
ENDBRANCH   5   6
ENDBRANCH   4   5
ENDBRANCH   3   4
ENDBRANCH   2   3
ENDBRANCH   1   2
BRANCH   1  13
ATOM     13  C   UNL     1      21.568 -29.916   2.481  1.00  0.00     0.000 C 
BRANCH  13  14
ATOM     14  C   UNL     1      20.089 -29.636   2.167  1.00  0.00     0.000 C 
BRANCH  14  15
ATOM     15  C   UNL     1      19.778 -29.727   0.664  1.00  0.00     0.000 C 
BRANCH  15  16
ATOM     16  C   UNL     1      21.004 -30.151  -0.166  1.00  0.00     0.000 C 
BRANCH  16  17
ATOM     17  C   UNL     1      21.060 -29.455  -1.533  1.00  0.00     0.000 C 
BRANCH  17  18
ATOM     18  C   UNL     1      20.458 -28.039  -1.501  1.00  0.00     0.000 C 
BRANCH  18  19
ATOM     19  C   UNL     1      21.526 -26.932  -1.571  1.00  0.00     0.000 C 
BRANCH  19  20
ATOM     20  C   UNL     1      21.327 -25.771  -0.576  1.00  0.00     0.006 C 
BRANCH  20  21
ATOM     21  C   UNL     1      20.723 -26.185   0.775  1.00  0.00     0.053 C 
BRANCH  21  22
ATOM     22  C   UNL     1      21.755 -26.227   1.859  1.00  0.00     0.041 C 
ATOM     23  O   UNL     1      21.403 -26.281   3.067  1.00  0.00    -0.550 OA
ATOM     24  O   UNL     1      23.108 -26.202   1.536  1.00  0.00    -0.550 OA
ENDBRANCH  21  22
ENDBRANCH  20  21
ENDBRANCH  19  20
ENDBRANCH  18  19
ENDBRANCH  17  18
ENDBRANCH  16  17
ENDBRANCH  15  16
ENDBRANCH  14  15
ENDBRANCH  13  14
ENDBRANCH   1  13
TORSDOF 20
ENDMDL
MODEL 5
REMARK VINA RESULT:    -1.127      2.697      4.902
REMARK INTER + INTRA:          -6.785
REMARK INTER:                  -2.999
REMARK INTRA:                  -3.786
REMARK UNBOUND:                -4.340
REMARK SMILES CCCCCCCCCCCCCCCCCCCCCC(=O)[O-]
REMARK SMILES IDX 12 1 11 2 10 3 9 4 8 5 7 6 6 7 5 8 4 9 3 10 2 11 1 12 13 13
REMARK SMILES IDX 14 14 15 15 16 16 17 17 18 18 19 19 20 20 21 21 22 22 23 23
REMARK SMILES IDX 24 24
REMARK H PARENT
REMARK Flexibility Score: inf
ROOT
ATOM      1  C   UNL     1      18.091 -30.809   2.691  1.00  0.00     0.000 C 
ENDROOT
BRANCH   1   2
ATOM      2  C   UNL     1      19.391 -31.127   3.459  1.00  0.00     0.000 C 
BRANCH   2   3
ATOM      3  C   UNL     1      20.504 -31.784   2.621  1.00  0.00     0.000 C 
BRANCH   3   4
ATOM      4  C   UNL     1      20.232 -31.715   1.109  1.00  0.00    -0.000 C 
BRANCH   4   5
ATOM      5  C   UNL     1      21.467 -31.243   0.313  1.00  0.00    -0.000 C 
BRANCH   5   6
ATOM      6  C   UNL     1      21.194 -30.031  -0.595  1.00  0.00    -0.000 C 
BRANCH   6   7
ATOM      7  C   UNL     1      19.999 -29.184  -0.125  1.00  0.00    -0.000 C 
BRANCH   7   8
ATOM      8  C   UNL     1      20.428 -27.851   0.508  1.00  0.00    -0.000 C 
BRANCH   8   9
ATOM      9  C   UNL     1      20.660 -27.966   2.023  1.00  0.00    -0.000 C 
BRANCH   9  10
ATOM     10  C   UNL     1      22.153 -28.006   2.392  1.00  0.00    -0.000 C 
BRANCH  10  11
ATOM     11  C   UNL     1      22.440 -28.904   3.603  1.00  0.00    -0.003 C 
ATOM     12  C   UNL     1      22.662 -28.071   4.864  1.00  0.00     0.004 C 
ENDBRANCH  10  11
ENDBRANCH   9  10
ENDBRANCH   8   9
ENDBRANCH   7   8
ENDBRANCH   6   7
ENDBRANCH   5   6
ENDBRANCH   4   5
ENDBRANCH   3   4
ENDBRANCH   2   3
ENDBRANCH   1   2
BRANCH   1  13
ATOM     13  C   UNL     1      16.810 -30.819   3.542  1.00  0.00     0.000 C 
BRANCH  13  14
ATOM     14  C   UNL     1      15.528 -30.786   2.693  1.00  0.00     0.000 C 
BRANCH  14  15
ATOM     15  C   UNL     1      14.561 -31.929   3.041  1.00  0.00     0.000 C 
BRANCH  15  16
ATOM     16  C   UNL     1      14.229 -32.811   1.822  1.00  0.00     0.000 C 
BRANCH  16  17
ATOM     17  C   UNL     1      14.976 -34.152   1.846  1.00  0.00     0.000 C 
BRANCH  17  18
ATOM     18  C   UNL     1      16.165 -34.185   0.871  1.00  0.00     0.000 C 
BRANCH  18  19
ATOM     19  C   UNL     1      17.524 -34.285   1.588  1.00  0.00     0.000 C 
BRANCH  19  20
ATOM     20  C   UNL     1      17.443 -34.484   3.115  1.00  0.00     0.006 C 
BRANCH  20  21
ATOM     21  C   UNL     1      18.783 -34.822   3.786  1.00  0.00     0.053 C 
BRANCH  21  22
ATOM     22  C   UNL     1      19.580 -35.802   2.980  1.00  0.00     0.041 C 
ATOM     23  O   UNL     1      19.228 -37.010   2.924  1.00  0.00    -0.550 OA
ATOM     24  O   UNL     1      20.715 -35.382   2.295  1.00  0.00    -0.550 OA
ENDBRANCH  21  22
ENDBRANCH  20  21
ENDBRANCH  19  20
ENDBRANCH  18  19
ENDBRANCH  17  18
ENDBRANCH  16  17
ENDBRANCH  15  16
ENDBRANCH  14  15
ENDBRANCH  13  14
ENDBRANCH   1  13
TORSDOF 20
ENDMDL
MODEL 6
REMARK VINA RESULT:    -1.111      4.407      7.433
REMARK INTER + INTRA:          -6.751
REMARK INTER:                  -2.602
REMARK INTRA:                  -4.149
REMARK UNBOUND:                -4.340
REMARK SMILES CCCCCCCCCCCCCCCCCCCCCC(=O)[O-]
REMARK SMILES IDX 12 1 11 2 10 3 9 4 8 5 7 6 6 7 5 8 4 9 3 10 2 11 1 12 13 13
REMARK SMILES IDX 14 14 15 15 16 16 17 17 18 18 19 19 20 20 21 21 22 22 23 23
REMARK SMILES IDX 24 24
REMARK H PARENT
REMARK Flexibility Score: inf
ROOT
ATOM      1  C   UNL     1      15.719 -33.469   1.609  1.00  0.00     0.000 C 
ENDROOT
BRANCH   1   2
ATOM      2  C   UNL     1      14.578 -34.294   2.242  1.00  0.00     0.000 C 
BRANCH   2   3
ATOM      3  C   UNL     1      13.169 -33.690   2.086  1.00  0.00     0.000 C 
BRANCH   3   4
ATOM      4  C   UNL     1      13.097 -32.619   0.984  1.00  0.00    -0.000 C 
BRANCH   4   5
ATOM      5  C   UNL     1      11.955 -31.610   1.224  1.00  0.00    -0.000 C 
BRANCH   5   6
ATOM      6  C   UNL     1      12.031 -30.362   0.326  1.00  0.00    -0.000 C 
BRANCH   6   7
ATOM      7  C   UNL     1      12.112 -29.050   1.126  1.00  0.00    -0.000 C 
BRANCH   7   8
ATOM      8  C   UNL     1      13.550 -28.527   1.265  1.00  0.00    -0.000 C 
BRANCH   8   9
ATOM      9  C   UNL     1      14.117 -28.734   2.678  1.00  0.00    -0.000 C 
BRANCH   9  10
ATOM     10  C   UNL     1      15.045 -29.957   2.770  1.00  0.00    -0.000 C 
BRANCH  10  11
ATOM     11  C   UNL     1      14.745 -30.838   3.992  1.00  0.00    -0.003 C 
ATOM     12  C   UNL     1      13.321 -30.610   4.496  1.00  0.00     0.004 C 
ENDBRANCH  10  11
ENDBRANCH   9  10
ENDBRANCH   8   9
ENDBRANCH   7   8
ENDBRANCH   6   7
ENDBRANCH   5   6
ENDBRANCH   4   5
ENDBRANCH   3   4
ENDBRANCH   2   3
ENDBRANCH   1   2
BRANCH   1  13
ATOM     13  C   UNL     1      17.035 -34.235   1.392  1.00  0.00     0.000 C 
BRANCH  13  14
ATOM     14  C   UNL     1      18.212 -33.638   2.182  1.00  0.00     0.000 C 
BRANCH  14  15
ATOM     15  C   UNL     1      18.101 -32.113   2.341  1.00  0.00     0.000 C 
BRANCH  15  16
ATOM     16  C   UNL     1      18.326 -31.655   3.795  1.00  0.00     0.000 C 
BRANCH  16  17
ATOM     17  C   UNL     1      18.505 -32.833   4.762  1.00  0.00     0.000 C 
BRANCH  17  18
ATOM     18  C   UNL     1      17.371 -32.927   5.798  1.00  0.00     0.000 C 
BRANCH  18  19
ATOM     19  C   UNL     1      16.268 -33.922   5.391  1.00  0.00     0.000 C 
BRANCH  19  20
ATOM     20  C   UNL     1      16.554 -35.394   5.749  1.00  0.00     0.006 C 
BRANCH  20  21
ATOM     21  C   UNL     1      17.140 -36.228   4.600  1.00  0.00     0.053 C 
BRANCH  21  22
ATOM     22  C   UNL     1      16.110 -37.115   3.971  1.00  0.00     0.041 C 
ATOM     23  O   UNL     1      15.110 -37.494   4.636  1.00  0.00    -0.550 OA
ATOM     24  O   UNL     1      16.257 -37.528   2.651  1.00  0.00    -0.550 OA
ENDBRANCH  21  22
ENDBRANCH  20  21
ENDBRANCH  19  20
ENDBRANCH  18  19
ENDBRANCH  17  18
ENDBRANCH  16  17
ENDBRANCH  15  16
ENDBRANCH  14  15
ENDBRANCH  13  14
ENDBRANCH   1  13
TORSDOF 20
ENDMDL
MODEL 7
REMARK VINA RESULT:    -1.105      3.458      6.872
REMARK INTER + INTRA:          -6.737
REMARK INTER:                  -2.833
REMARK INTRA:                  -3.904
REMARK UNBOUND:                -4.340
REMARK SMILES CCCCCCCCCCCCCCCCCCCCCC(=O)[O-]
REMARK SMILES IDX 12 1 11 2 10 3 9 4 8 5 7 6 6 7 5 8 4 9 3 10 2 11 1 12 13 13
REMARK SMILES IDX 14 14 15 15 16 16 17 17 18 18 19 19 20 20 21 21 22 22 23 23
REMARK SMILES IDX 24 24
REMARK H PARENT
REMARK Flexibility Score: inf
ROOT
ATOM      1  C   UNL     1      15.646 -30.120   3.218  1.00  0.00     0.000 C 
ENDROOT
BRANCH   1   2
ATOM      2  C   UNL     1      16.233 -31.459   2.723  1.00  0.00     0.000 C 
BRANCH   2   3
ATOM      3  C   UNL     1      16.857 -32.345   3.817  1.00  0.00     0.000 C 
BRANCH   3   4
ATOM      4  C   UNL     1      17.920 -33.312   3.269  1.00  0.00    -0.000 C 
BRANCH   4   5
ATOM      5  C   UNL     1      17.799 -33.510   1.744  1.00  0.00    -0.000 C 
BRANCH   5   6
ATOM      6  C   UNL     1      17.659 -34.983   1.319  1.00  0.00    -0.000 C 
BRANCH   6   7
ATOM      7  C   UNL     1      16.535 -35.208   0.292  1.00  0.00    -0.000 C 
BRANCH   7   8
ATOM      8  C   UNL     1      15.395 -34.187   0.426  1.00  0.00    -0.000 C 
BRANCH   8   9
ATOM      9  C   UNL     1      14.145 -34.784   1.092  1.00  0.00    -0.000 C 
BRANCH   9  10
ATOM     10  C   UNL     1      14.154 -34.618   2.621  1.00  0.00    -0.000 C 
BRANCH  10  11
ATOM     11  C   UNL     1      14.344 -35.951   3.360  1.00  0.00    -0.003 C 
ATOM     12  C   UNL     1      15.520 -35.877   4.331  1.00  0.00     0.004 C 
ENDBRANCH  10  11
ENDBRANCH   9  10
ENDBRANCH   8   9
ENDBRANCH   7   8
ENDBRANCH   6   7
ENDBRANCH   5   6
ENDBRANCH   4   5
ENDBRANCH   3   4
ENDBRANCH   2   3
ENDBRANCH   1   2
BRANCH   1  13
ATOM     13  C   UNL     1      16.017 -29.738   4.660  1.00  0.00     0.000 C 
BRANCH  13  14
ATOM     14  C   UNL     1      17.108 -28.656   4.731  1.00  0.00     0.000 C 
BRANCH  14  15
ATOM     15  C   UNL     1      18.502 -29.242   5.011  1.00  0.00     0.000 C 
BRANCH  15  16
ATOM     16  C   UNL     1      19.472 -29.043   3.831  1.00  0.00     0.000 C 
BRANCH  16  17
ATOM     17  C   UNL     1      20.440 -30.222   3.659  1.00  0.00     0.000 C 
BRANCH  17  18
ATOM     18  C   UNL     1      20.382 -30.835   2.249  1.00  0.00     0.000 C 
BRANCH  18  19
ATOM     19  C   UNL     1      19.433 -30.075   1.304  1.00  0.00     0.000 C 
BRANCH  19  20
ATOM     20  C   UNL     1      20.119 -29.382   0.110  1.00  0.00     0.006 C 
BRANCH  20  21
ATOM     21  C   UNL     1      20.496 -27.913   0.356  1.00  0.00     0.053 C 
BRANCH  21  22
ATOM     22  C   UNL     1      21.849 -27.782   0.988  1.00  0.00     0.041 C 
ATOM     23  O   UNL     1      22.853 -28.317   0.450  1.00  0.00    -0.550 OA
ATOM     24  O   UNL     1      21.998 -27.073   2.175  1.00  0.00    -0.550 OA
ENDBRANCH  21  22
ENDBRANCH  20  21
ENDBRANCH  19  20
ENDBRANCH  18  19
ENDBRANCH  17  18
ENDBRANCH  16  17
ENDBRANCH  15  16
ENDBRANCH  14  15
ENDBRANCH  13  14
ENDBRANCH   1  13
TORSDOF 20
ENDMDL
MODEL 8
REMARK VINA RESULT:    -1.105      1.454      4.440
REMARK INTER + INTRA:          -6.736
REMARK INTER:                  -2.612
REMARK INTRA:                  -4.124
REMARK UNBOUND:                -4.340
REMARK SMILES CCCCCCCCCCCCCCCCCCCCCC(=O)[O-]
REMARK SMILES IDX 12 1 11 2 10 3 9 4 8 5 7 6 6 7 5 8 4 9 3 10 2 11 1 12 13 13
REMARK SMILES IDX 14 14 15 15 16 16 17 17 18 18 19 19 20 20 21 21 22 22 23 23
REMARK SMILES IDX 24 24
REMARK H PARENT
REMARK Flexibility Score: inf
ROOT
ATOM      1  C   UNL     1      20.027 -28.748  -1.317  1.00  0.00     0.000 C 
ENDROOT
BRANCH   1   2
ATOM      2  C   UNL     1      21.271 -28.222  -2.063  1.00  0.00     0.000 C 
BRANCH   2   3
ATOM      3  C   UNL     1      21.625 -26.748  -1.789  1.00  0.00     0.000 C 
BRANCH   3   4
ATOM      4  C   UNL     1      22.818 -26.588  -0.832  1.00  0.00    -0.000 C 
BRANCH   4   5
ATOM      5  C   UNL     1      22.435 -25.836   0.460  1.00  0.00    -0.000 C 
BRANCH   5   6
ATOM      6  C   UNL     1      20.917 -25.728   0.687  1.00  0.00    -0.000 C 
BRANCH   6   7
ATOM      7  C   UNL     1      20.498 -26.070   2.128  1.00  0.00    -0.000 C 
BRANCH   7   8
ATOM      8  C   UNL     1      21.575 -26.860   2.887  1.00  0.00    -0.000 C 
BRANCH   8   9
ATOM      9  C   UNL     1      20.989 -28.038   3.683  1.00  0.00    -0.000 C 
BRANCH   9  10
ATOM     10  C   UNL     1      19.451 -28.058   3.662  1.00  0.00    -0.000 C 
BRANCH  10  11
ATOM     11  C   UNL     1      18.837 -27.724   5.029  1.00  0.00    -0.003 C 
ATOM     12  C   UNL     1      18.522 -28.995   5.815  1.00  0.00     0.004 C 
ENDBRANCH  10  11
ENDBRANCH   9  10
ENDBRANCH   8   9
ENDBRANCH   7   8
ENDBRANCH   6   7
ENDBRANCH   5   6
ENDBRANCH   4   5
ENDBRANCH   3   4
ENDBRANCH   2   3
ENDBRANCH   1   2
BRANCH   1  13
ATOM     13  C   UNL     1      20.291 -29.278   0.102  1.00  0.00     0.000 C 
BRANCH  13  14
ATOM     14  C   UNL     1      21.406 -30.336   0.147  1.00  0.00     0.000 C 
BRANCH  14  15
ATOM     15  C   UNL     1      22.636 -29.863   0.938  1.00  0.00     0.000 C 
BRANCH  15  16
ATOM     16  C   UNL     1      22.886 -30.711   2.200  1.00  0.00     0.000 C 
BRANCH  16  17
ATOM     17  C   UNL     1      21.843 -31.824   2.378  1.00  0.00     0.000 C 
BRANCH  17  18
ATOM     18  C   UNL     1      21.334 -31.932   3.825  1.00  0.00     0.000 C 
BRANCH  18  19
ATOM     19  C   UNL     1      19.799 -31.867   3.927  1.00  0.00     0.000 C 
BRANCH  19  20
ATOM     20  C   UNL     1      19.061 -31.738   2.578  1.00  0.00     0.006 C 
BRANCH  20  21
ATOM     21  C   UNL     1      17.720 -30.993   2.654  1.00  0.00     0.053 C 
BRANCH  21  22
ATOM     22  C   UNL     1      16.556 -31.936   2.664  1.00  0.00     0.041 C 
ATOM     23  O   UNL     1      16.633 -33.043   2.068  1.00  0.00    -0.550 OA
ATOM     24  O   UNL     1      15.383 -31.590   3.327  1.00  0.00    -0.550 OA
ENDBRANCH  21  22
ENDBRANCH  20  21
ENDBRANCH  19  20
ENDBRANCH  18  19
ENDBRANCH  17  18
ENDBRANCH  16  17
ENDBRANCH  15  16
ENDBRANCH  14  15
ENDBRANCH  13  14
ENDBRANCH   1  13
TORSDOF 20
ENDMDL
MODEL 9
REMARK VINA RESULT:    -1.064      3.720      7.570
REMARK INTER + INTRA:          -6.649
REMARK INTER:                  -2.649
REMARK INTRA:                  -4.000
REMARK UNBOUND:                -4.340
REMARK SMILES CCCCCCCCCCCCCCCCCCCCCC(=O)[O-]
REMARK SMILES IDX 12 1 11 2 10 3 9 4 8 5 7 6 6 7 5 8 4 9 3 10 2 11 1 12 13 13
REMARK SMILES IDX 14 14 15 15 16 16 17 17 18 18 19 19 20 20 21 21 22 22 23 23
REMARK SMILES IDX 24 24
REMARK H PARENT
REMARK Flexibility Score: inf
ROOT
ATOM      1  C   UNL     1      14.310 -34.809   3.289  1.00  0.00     0.000 C 
ENDROOT
BRANCH   1   2
ATOM      2  C   UNL     1      15.538 -34.458   4.155  1.00  0.00     0.000 C 
BRANCH   2   3
ATOM      3  C   UNL     1      16.258 -35.663   4.791  1.00  0.00     0.000 C 
BRANCH   3   4
ATOM      4  C   UNL     1      17.742 -35.748   4.397  1.00  0.00    -0.000 C 
BRANCH   4   5
ATOM      5  C   UNL     1      18.165 -34.599   3.459  1.00  0.00    -0.000 C 
BRANCH   5   6
ATOM      6  C   UNL     1      18.442 -35.048   2.014  1.00  0.00    -0.000 C 
BRANCH   6   7
ATOM      7  C   UNL     1      17.710 -34.190   0.967  1.00  0.00    -0.000 C 
BRANCH   7   8
ATOM      8  C   UNL     1      16.585 -34.956   0.253  1.00  0.00    -0.000 C 
BRANCH   8   9
ATOM      9  C   UNL     1      16.788 -36.480   0.301  1.00  0.00    -0.000 C 
BRANCH   9  10
ATOM     10  C   UNL     1      15.515 -37.232   0.727  1.00  0.00    -0.000 C 
BRANCH  10  11
ATOM     11  C   UNL     1      15.709 -38.037   2.020  1.00  0.00    -0.003 C 
ATOM     12  C   UNL     1      17.122 -38.611   2.104  1.00  0.00     0.004 C 
ENDBRANCH  10  11
ENDBRANCH   9  10
ENDBRANCH   8   9
ENDBRANCH   7   8
ENDBRANCH   6   7
ENDBRANCH   5   6
ENDBRANCH   4   5
ENDBRANCH   3   4
ENDBRANCH   2   3
ENDBRANCH   1   2
BRANCH   1  13
ATOM     13  C   UNL     1      13.615 -33.609   2.624  1.00  0.00     0.000 C 
BRANCH  13  14
ATOM     14  C   UNL     1      14.607 -32.549   2.116  1.00  0.00     0.000 C 
BRANCH  14  15
ATOM     15  C   UNL     1      14.313 -31.149   2.679  1.00  0.00     0.000 C 
BRANCH  15  16
ATOM     16  C   UNL     1      15.598 -30.351   2.971  1.00  0.00     0.000 C 
BRANCH  16  17
ATOM     17  C   UNL     1      16.869 -31.189   2.777  1.00  0.00     0.000 C 
BRANCH  17  18
ATOM     18  C   UNL     1      18.153 -30.396   3.077  1.00  0.00     0.000 C 
BRANCH  18  19
ATOM     19  C   UNL     1      19.434 -31.200   2.791  1.00  0.00     0.000 C 
BRANCH  19  20
ATOM     20  C   UNL     1      19.978 -31.072   1.354  1.00  0.00     0.006 C 
BRANCH  20  21
ATOM     21  C   UNL     1      19.790 -29.683   0.723  1.00  0.00     0.053 C 
BRANCH  21  22
ATOM     22  C   UNL     1      20.864 -28.728   1.146  1.00  0.00     0.041 C 
ATOM     23  O   UNL     1      22.057 -29.118   1.239  1.00  0.00    -0.550 OA
ATOM     24  O   UNL     1      20.545 -27.407   1.441  1.00  0.00    -0.550 OA
ENDBRANCH  21  22
ENDBRANCH  20  21
ENDBRANCH  19  20
ENDBRANCH  18  19
ENDBRANCH  17  18
ENDBRANCH  16  17
ENDBRANCH  15  16
ENDBRANCH  14  15
ENDBRANCH  13  14
ENDBRANCH   1  13
TORSDOF 20
ENDMDL
