MODEL 1
REMARK VINA RESULT:    -3.614      0.000      0.000
REMARK INTER + INTRA:         -11.653
REMARK INTER:                  -9.108
REMARK INTRA:                  -2.545
REMARK UNBOUND:                -2.545
REMARK SMILES CCCCCCCCCCCCCCCCCCCCCCCCCCCC(=O)[O-]
REMARK SMILES IDX 15 1 16 2 17 3 18 4 19 5 20 6 21 7 22 8 23 9 24 10 25 11
REMARK SMILES IDX 26 12 27 13 28 14 29 15 30 16 14 17 13 18 12 19 11 20 10 21
REMARK SMILES IDX 9 22 8 23 7 24 6 25 5 26 4 27 3 28 2 29 1 30
REMARK H PARENT
REMARK Flexibility Score: inf
ROOT
ATOM      1  C   UNL     1     -10.420 -20.511  31.042  1.00  0.00     0.000 C 
ENDROOT
BRANCH   1   2
ATOM      2  C   UNL     1     -11.726 -19.937  31.613  1.00  0.00     0.000 C 
BRANCH   2   3
ATOM      3  C   UNL     1     -11.701 -18.401  31.704  1.00  0.00     0.000 C 
BRANCH   3   4
ATOM      4  C   UNL     1     -12.297 -17.875  33.020  1.00  0.00     0.000 C 
BRANCH   4   5
ATOM      5  C   UNL     1     -11.355 -18.084  34.219  1.00  0.00     0.000 C 
BRANCH   5   6
ATOM      6  C   UNL     1     -12.116 -18.279  35.540  1.00  0.00     0.000 C 
BRANCH   6   7
ATOM      7  C   UNL     1     -13.640 -18.300  35.349  1.00  0.00     0.000 C 
BRANCH   7   8
ATOM      8  C   UNL     1     -14.125 -19.694  34.934  1.00  0.00     0.000 C 
BRANCH   8   9
ATOM      9  C   UNL     1     -13.431 -20.790  35.758  1.00  0.00     0.000 C 
BRANCH   9  10
ATOM     10  C   UNL     1     -12.347 -21.532  34.954  1.00  0.00     0.000 C 
BRANCH  10  11
ATOM     11  C   UNL     1     -12.137 -22.997  35.386  1.00  0.00     0.000 C 
BRANCH  11  12
ATOM     12  C   UNL     1     -10.729 -23.550  35.089  1.00  0.00     0.006 C 
BRANCH  12  13
ATOM     13  C   UNL     1      -9.614 -22.647  35.633  1.00  0.00     0.053 C 
BRANCH  13  14
ATOM     14  C   UNL     1      -8.787 -22.099  34.514  1.00  0.00     0.041 C 
ATOM     15  O   UNL     1      -9.320 -21.816  33.408  1.00  0.00    -0.550 OA
ATOM     16  O   UNL     1      -7.422 -21.909  34.690  1.00  0.00    -0.550 OA
ENDBRANCH  13  14
ENDBRANCH  12  13
ENDBRANCH  11  12
ENDBRANCH  10  11
ENDBRANCH   9  10
ENDBRANCH   8   9
ENDBRANCH   7   8
ENDBRANCH   6   7
ENDBRANCH   5   6
ENDBRANCH   4   5
ENDBRANCH   3   4
ENDBRANCH   2   3
ENDBRANCH   1   2
BRANCH   1  17
ATOM     17  C   UNL     1     -10.598 -21.094  29.629  1.00  0.00     0.000 C 
BRANCH  17  18
ATOM     18  C   UNL     1      -9.725 -20.384  28.581  1.00  0.00     0.000 C 
BRANCH  18  19
ATOM     19  C   UNL     1      -9.490 -18.902  28.908  1.00  0.00     0.000 C 
BRANCH  19  20
ATOM     20  C   UNL     1      -8.053 -18.666  29.387  1.00  0.00     0.000 C 
BRANCH  20  21
ATOM     21  C   UNL     1      -7.983 -17.923  30.733  1.00  0.00     0.000 C 
BRANCH  21  22
ATOM     22  C   UNL     1      -7.520 -18.812  31.905  1.00  0.00    -0.000 C 
BRANCH  22  23
ATOM     23  C   UNL     1      -8.140 -18.381  33.244  1.00  0.00    -0.000 C 
BRANCH  23  24
ATOM     24  C   UNL     1      -7.105 -18.266  34.377  1.00  0.00    -0.000 C 
BRANCH  24  25
ATOM     25  C   UNL     1      -5.642 -18.307  33.890  1.00  0.00    -0.000 C 
BRANCH  25  26
ATOM     26  C   UNL     1      -4.647 -18.561  35.038  1.00  0.00    -0.000 C 
BRANCH  26  27
ATOM     27  C   UNL     1      -4.967 -19.836  35.839  1.00  0.00    -0.000 C 
BRANCH  27  28
ATOM     28  C   UNL     1      -3.856 -20.902  35.838  1.00  0.00    -0.000 C 
BRANCH  28  29
ATOM     29  C   UNL     1      -2.964 -20.836  34.591  1.00  0.00    -0.003 C 
ATOM     30  C   UNL     1      -1.560 -20.360  34.944  1.00  0.00     0.004 C 
ENDBRANCH  28  29
ENDBRANCH  27  28
ENDBRANCH  26  27
ENDBRANCH  25  26
ENDBRANCH  24  25
ENDBRANCH  23  24
ENDBRANCH  22  23
ENDBRANCH  21  22
ENDBRANCH  20  21
ENDBRANCH  19  20
ENDBRANCH  18  19
ENDBRANCH  17  18
ENDBRANCH   1  17
TORSDOF 26
ENDMDL
MODEL 2
REMARK VINA RESULT:    -2.944      1.968      5.998
REMARK INTER + INTRA:          -9.963
REMARK INTER:                  -7.039
REMARK INTRA:                  -2.925
REMARK UNBOUND:                -2.545
REMARK SMILES CCCCCCCCCCCCCCCCCCCCCCCCCCCC(=O)[O-]
REMARK SMILES IDX 15 1 16 2 17 3 18 4 19 5 20 6 21 7 22 8 23 9 24 10 25 11
REMARK SMILES IDX 26 12 27 13 28 14 29 15 30 16 14 17 13 18 12 19 11 20 10 21
REMARK SMILES IDX 9 22 8 23 7 24 6 25 5 26 4 27 3 28 2 29 1 30
REMARK H PARENT
REMARK Flexibility Score: inf
ROOT
ATOM      1  C   UNL     1      -7.939 -18.863  28.388  1.00  0.00     0.000 C 
ENDROOT
BRANCH   1   2
ATOM      2  C   UNL     1      -8.031 -19.006  29.915  1.00  0.00     0.000 C 
BRANCH   2   3
ATOM      3  C   UNL     1      -7.161 -17.973  30.654  1.00  0.00     0.000 C 
BRANCH   3   4
ATOM      4  C   UNL     1      -7.285 -18.079  32.183  1.00  0.00     0.000 C 
BRANCH   4   5
ATOM      5  C   UNL     1      -7.483 -19.528  32.660  1.00  0.00     0.000 C 
BRANCH   5   6
ATOM      6  C   UNL     1      -8.539 -19.645  33.771  1.00  0.00     0.000 C 
BRANCH   6   7
ATOM      7  C   UNL     1      -8.949 -21.099  34.048  1.00  0.00     0.000 C 
BRANCH   7   8
ATOM      8  C   UNL     1      -7.718 -22.001  34.196  1.00  0.00     0.000 C 
BRANCH   8   9
ATOM      9  C   UNL     1      -7.456 -22.343  35.671  1.00  0.00     0.000 C 
BRANCH   9  10
ATOM     10  C   UNL     1      -6.018 -22.004  36.107  1.00  0.00     0.000 C 
BRANCH  10  11
ATOM     11  C   UNL     1      -5.366 -20.871  35.289  1.00  0.00     0.000 C 
BRANCH  11  12
ATOM     12  C   UNL     1      -4.952 -19.643  36.125  1.00  0.00     0.006 C 
BRANCH  12  13
ATOM     13  C   UNL     1      -4.820 -18.371  35.276  1.00  0.00     0.053 C 
BRANCH  13  14
ATOM     14  C   UNL     1      -3.919 -18.610  34.106  1.00  0.00     0.041 C 
ATOM     15  O   UNL     1      -4.121 -18.014  33.015  1.00  0.00    -0.550 OA
ATOM     16  O   UNL     1      -2.860 -19.501  34.220  1.00  0.00    -0.550 OA
ENDBRANCH  13  14
ENDBRANCH  12  13
ENDBRANCH  11  12
ENDBRANCH  10  11
ENDBRANCH   9  10
ENDBRANCH   8   9
ENDBRANCH   7   8
ENDBRANCH   6   7
ENDBRANCH   5   6
ENDBRANCH   4   5
ENDBRANCH   3   4
ENDBRANCH   2   3
ENDBRANCH   1   2
BRANCH   1  17
ATOM     17  C   UNL     1      -9.151 -19.474  27.664  1.00  0.00     0.000 C 
BRANCH  17  18
ATOM     18  C   UNL     1     -10.437 -19.410  28.503  1.00  0.00     0.000 C 
BRANCH  18  19
ATOM     19  C   UNL     1     -10.510 -20.519  29.564  1.00  0.00     0.000 C 
BRANCH  19  20
ATOM     20  C   UNL     1     -11.187 -20.012  30.843  1.00  0.00     0.000 C 
BRANCH  20  21
ATOM     21  C   UNL     1     -11.032 -18.495  31.042  1.00  0.00     0.000 C 
BRANCH  21  22
ATOM     22  C   UNL     1     -11.565 -17.993  32.400  1.00  0.00    -0.000 C 
BRANCH  22  23
ATOM     23  C   UNL     1     -12.723 -18.857  32.927  1.00  0.00    -0.000 C 
BRANCH  23  24
ATOM     24  C   UNL     1     -13.646 -18.101  33.897  1.00  0.00    -0.000 C 
BRANCH  24  25
ATOM     25  C   UNL     1     -13.359 -18.392  35.384  1.00  0.00    -0.000 C 
BRANCH  25  26
ATOM     26  C   UNL     1     -12.028 -19.138  35.593  1.00  0.00    -0.000 C 
BRANCH  26  27
ATOM     27  C   UNL     1     -12.221 -20.571  36.124  1.00  0.00    -0.000 C 
BRANCH  27  28
ATOM     28  C   UNL     1     -12.528 -21.628  35.048  1.00  0.00    -0.000 C 
BRANCH  28  29
ATOM     29  C   UNL     1     -12.333 -23.066  35.549  1.00  0.00    -0.003 C 
ATOM     30  C   UNL     1     -10.897 -23.531  35.338  1.00  0.00     0.004 C 
ENDBRANCH  28  29
ENDBRANCH  27  28
ENDBRANCH  26  27
ENDBRANCH  25  26
ENDBRANCH  24  25
ENDBRANCH  23  24
ENDBRANCH  22  23
ENDBRANCH  21  22
ENDBRANCH  20  21
ENDBRANCH  19  20
ENDBRANCH  18  19
ENDBRANCH  17  18
ENDBRANCH   1  17
TORSDOF 26
ENDMDL
MODEL 3
REMARK VINA RESULT:    -2.832     20.019     22.708
REMARK INTER + INTRA:          -9.681
REMARK INTER:                  -8.047
REMARK INTRA:                  -1.634
REMARK UNBOUND:                -2.545
REMARK SMILES CCCCCCCCCCCCCCCCCCCCCCCCCCCC(=O)[O-]
REMARK SMILES IDX 15 1 16 2 17 3 18 4 19 5 20 6 21 7 22 8 23 9 24 10 25 11
REMARK SMILES IDX 26 12 27 13 28 14 29 15 30 16 14 17 13 18 12 19 11 20 10 21
REMARK SMILES IDX 9 22 8 23 7 24 6 25 5 26 4 27 3 28 2 29 1 30
REMARK H PARENT
REMARK Flexibility Score: inf
ROOT
ATOM      1  C   UNL     1       0.647 -31.188  24.540  1.00  0.00     0.000 C 
ENDROOT
BRANCH   1   2
ATOM      2  C   UNL     1      -0.684 -31.034  23.790  1.00  0.00     0.000 C 
BRANCH   2   3
ATOM      3  C   UNL     1      -1.878 -31.583  24.593  1.00  0.00     0.000 C 
BRANCH   3   4
ATOM      4  C   UNL     1      -2.700 -32.614  23.803  1.00  0.00     0.000 C 
BRANCH   4   5
ATOM      5  C   UNL     1      -1.824 -33.716  23.181  1.00  0.00     0.000 C 
BRANCH   5   6
ATOM      6  C   UNL     1      -2.638 -34.950  22.760  1.00  0.00     0.000 C 
BRANCH   6   7
ATOM      7  C   UNL     1      -2.223 -35.492  21.384  1.00  0.00     0.000 C 
BRANCH   7   8
ATOM      8  C   UNL     1      -1.402 -36.779  21.521  1.00  0.00     0.000 C 
BRANCH   8   9
ATOM      9  C   UNL     1      -2.250 -38.016  21.185  1.00  0.00     0.000 C 
BRANCH   9  10
ATOM     10  C   UNL     1      -3.762 -37.736  21.280  1.00  0.00     0.000 C 
BRANCH  10  11
ATOM     11  C   UNL     1      -4.544 -38.078  19.996  1.00  0.00     0.000 C 
BRANCH  11  12
ATOM     12  C   UNL     1      -3.680 -38.124  18.720  1.00  0.00     0.006 C 
BRANCH  12  13
ATOM     13  C   UNL     1      -4.466 -37.728  17.462  1.00  0.00     0.053 C 
BRANCH  13  14
ATOM     14  C   UNL     1      -4.955 -36.319  17.569  1.00  0.00     0.041 C 
ATOM     15  O   UNL     1      -4.404 -35.512  18.365  1.00  0.00    -0.550 OA
ATOM     16  O   UNL     1      -6.027 -35.897  16.793  1.00  0.00    -0.550 OA
ENDBRANCH  13  14
ENDBRANCH  12  13
ENDBRANCH  11  12
ENDBRANCH  10  11
ENDBRANCH   9  10
ENDBRANCH   8   9
ENDBRANCH   7   8
ENDBRANCH   6   7
ENDBRANCH   5   6
ENDBRANCH   4   5
ENDBRANCH   3   4
ENDBRANCH   2   3
ENDBRANCH   1   2
BRANCH   1  17
ATOM     17  C   UNL     1       1.077 -32.659  24.685  1.00  0.00     0.000 C 
BRANCH  17  18
ATOM     18  C   UNL     1       2.215 -33.040  23.724  1.00  0.00     0.000 C 
BRANCH  18  19
ATOM     19  C   UNL     1       2.203 -34.530  23.350  1.00  0.00     0.000 C 
BRANCH  19  20
ATOM     20  C   UNL     1       3.559 -34.965  22.784  1.00  0.00     0.000 C 
BRANCH  20  21
ATOM     21  C   UNL     1       4.185 -36.136  23.561  1.00  0.00     0.000 C 
BRANCH  21  22
ATOM     22  C   UNL     1       4.139 -37.477  22.799  1.00  0.00    -0.000 C 
BRANCH  22  23
ATOM     23  C   UNL     1       5.427 -37.739  22.001  1.00  0.00    -0.000 C 
BRANCH  23  24
ATOM     24  C   UNL     1       5.532 -36.880  20.730  1.00  0.00    -0.000 C 
BRANCH  24  25
ATOM     25  C   UNL     1       5.829 -37.692  19.452  1.00  0.00    -0.000 C 
BRANCH  25  26
ATOM     26  C   UNL     1       5.250 -37.033  18.187  1.00  0.00    -0.000 C 
BRANCH  26  27
ATOM     27  C   UNL     1       3.738 -37.273  18.024  1.00  0.00    -0.000 C 
BRANCH  27  28
ATOM     28  C   UNL     1       2.838 -36.350  18.867  1.00  0.00    -0.000 C 
BRANCH  28  29
ATOM     29  C   UNL     1       1.570 -37.051  19.374  1.00  0.00    -0.003 C 
ATOM     30  C   UNL     1       1.676 -37.370  20.862  1.00  0.00     0.004 C 
ENDBRANCH  28  29
ENDBRANCH  27  28
ENDBRANCH  26  27
ENDBRANCH  25  26
ENDBRANCH  24  25
ENDBRANCH  23  24
ENDBRANCH  22  23
ENDBRANCH  21  22
ENDBRANCH  20  21
ENDBRANCH  19  20
ENDBRANCH  18  19
ENDBRANCH  17  18
ENDBRANCH   1  17
TORSDOF 26
ENDMDL
MODEL 4
REMARK VINA RESULT:    -2.747     20.032     23.316
REMARK INTER + INTRA:          -9.468
REMARK INTER:                  -6.935
REMARK INTRA:                  -2.532
REMARK UNBOUND:                -2.545
REMARK SMILES CCCCCCCCCCCCCCCCCCCCCCCCCCCC(=O)[O-]
REMARK SMILES IDX 15 1 16 2 17 3 18 4 19 5 20 6 21 7 22 8 23 9 24 10 25 11
REMARK SMILES IDX 26 12 27 13 28 14 29 15 30 16 14 17 13 18 12 19 11 20 10 21
REMARK SMILES IDX 9 22 8 23 7 24 6 25 5 26 4 27 3 28 2 29 1 30
REMARK H PARENT
REMARK Flexibility Score: inf
ROOT
ATOM      1  C   UNL     1       2.216 -33.533  24.481  1.00  0.00     0.000 C 
ENDROOT
BRANCH   1   2
ATOM      2  C   UNL     1       2.583 -34.301  23.202  1.00  0.00     0.000 C 
BRANCH   2   3
ATOM      3  C   UNL     1       1.370 -35.015  22.579  1.00  0.00     0.000 C 
BRANCH   3   4
ATOM      4  C   UNL     1       1.754 -35.896  21.378  1.00  0.00     0.000 C 
BRANCH   4   5
ATOM      5  C   UNL     1       1.360 -37.370  21.579  1.00  0.00     0.000 C 
BRANCH   5   6
ATOM      6  C   UNL     1       1.084 -38.094  20.251  1.00  0.00     0.000 C 
BRANCH   6   7
ATOM      7  C   UNL     1       1.207 -37.166  19.034  1.00  0.00     0.000 C 
BRANCH   7   8
ATOM      8  C   UNL     1       2.261 -37.684  18.049  1.00  0.00     0.000 C 
BRANCH   8   9
ATOM      9  C   UNL     1       3.357 -36.634  17.805  1.00  0.00     0.000 C 
BRANCH   9  10
ATOM     10  C   UNL     1       4.771 -37.190  18.058  1.00  0.00     0.000 C 
BRANCH  10  11
ATOM     11  C   UNL     1       4.871 -38.109  19.292  1.00  0.00     0.000 C 
BRANCH  11  12
ATOM     12  C   UNL     1       5.606 -37.479  20.493  1.00  0.00     0.006 C 
BRANCH  12  13
ATOM     13  C   UNL     1       4.826 -37.631  21.806  1.00  0.00     0.053 C 
BRANCH  13  14
ATOM     14  C   UNL     1       5.180 -36.534  22.759  1.00  0.00     0.041 C 
ATOM     15  O   UNL     1       5.807 -35.519  22.356  1.00  0.00    -0.550 OA
ATOM     16  O   UNL     1       4.822 -36.637  24.097  1.00  0.00    -0.550 OA
ENDBRANCH  13  14
ENDBRANCH  12  13
ENDBRANCH  11  12
ENDBRANCH  10  11
ENDBRANCH   9  10
ENDBRANCH   8   9
ENDBRANCH   7   8
ENDBRANCH   6   7
ENDBRANCH   5   6
ENDBRANCH   4   5
ENDBRANCH   3   4
ENDBRANCH   2   3
ENDBRANCH   1   2
BRANCH   1  17
ATOM     17  C   UNL     1       1.532 -32.186  24.186  1.00  0.00     0.000 C 
BRANCH  17  18
ATOM     18  C   UNL     1       0.024 -32.333  23.926  1.00  0.00     0.000 C 
BRANCH  18  19
ATOM     19  C   UNL     1      -0.734 -31.004  24.059  1.00  0.00     0.000 C 
BRANCH  19  20
ATOM     20  C   UNL     1      -2.222 -31.246  24.341  1.00  0.00     0.000 C 
BRANCH  20  21
ATOM     21  C   UNL     1      -2.510 -32.663  24.865  1.00  0.00     0.000 C 
BRANCH  21  22
ATOM     22  C   UNL     1      -3.238 -33.562  23.845  1.00  0.00    -0.000 C 
BRANCH  22  23
ATOM     23  C   UNL     1      -2.259 -34.328  22.939  1.00  0.00    -0.000 C 
BRANCH  23  24
ATOM     24  C   UNL     1      -2.955 -35.365  22.042  1.00  0.00    -0.000 C 
BRANCH  24  25
ATOM     25  C   UNL     1      -1.995 -36.413  21.441  1.00  0.00    -0.000 C 
BRANCH  25  26
ATOM     26  C   UNL     1      -2.633 -37.812  21.351  1.00  0.00    -0.000 C 
BRANCH  26  27
ATOM     27  C   UNL     1      -3.773 -37.887  20.319  1.00  0.00    -0.000 C 
BRANCH  27  28
ATOM     28  C   UNL     1      -3.587 -36.995  19.077  1.00  0.00    -0.000 C 
BRANCH  28  29
ATOM     29  C   UNL     1      -4.645 -37.248  17.995  1.00  0.00    -0.003 C 
ATOM     30  C   UNL     1      -5.129 -35.937  17.382  1.00  0.00     0.004 C 
ENDBRANCH  28  29
ENDBRANCH  27  28
ENDBRANCH  26  27
ENDBRANCH  25  26
ENDBRANCH  24  25
ENDBRANCH  23  24
ENDBRANCH  22  23
ENDBRANCH  21  22
ENDBRANCH  20  21
ENDBRANCH  19  20
ENDBRANCH  18  19
ENDBRANCH  17  18
ENDBRANCH   1  17
TORSDOF 26
ENDMDL
MODEL 5
REMARK VINA RESULT:    -1.944      1.958      7.421
REMARK INTER + INTRA:          -7.445
REMARK INTER:                  -6.657
REMARK INTRA:                  -0.789
REMARK UNBOUND:                -2.545
REMARK SMILES CCCCCCCCCCCCCCCCCCCCCCCCCCCC(=O)[O-]
REMARK SMILES IDX 15 1 16 2 17 3 18 4 19 5 20 6 21 7 22 8 23 9 24 10 25 11
REMARK SMILES IDX 26 12 27 13 28 14 29 15 30 16 14 17 13 18 12 19 11 20 10 21
REMARK SMILES IDX 9 22 8 23 7 24 6 25 5 26 4 27 3 28 2 29 1 30
REMARK H PARENT
REMARK Flexibility Score: inf
ROOT
ATOM      1  C   UNL     1      -7.916 -22.413  33.747  1.00  0.00     0.000 C 
ENDROOT
BRANCH   1   2
ATOM      2  C   UNL     1      -7.385 -21.257  34.608  1.00  0.00     0.000 C 
BRANCH   2   3
ATOM      3  C   UNL     1      -8.311 -20.027  34.575  1.00  0.00     0.000 C 
BRANCH   3   4
ATOM      4  C   UNL     1      -8.834 -19.717  33.163  1.00  0.00     0.000 C 
BRANCH   4   5
ATOM      5  C   UNL     1      -8.373 -18.341  32.653  1.00  0.00     0.000 C 
BRANCH   5   6
ATOM      6  C   UNL     1      -6.950 -18.373  32.071  1.00  0.00     0.000 C 
BRANCH   6   7
ATOM      7  C   UNL     1      -5.895 -18.784  33.109  1.00  0.00     0.000 C 
BRANCH   7   8
ATOM      8  C   UNL     1      -4.557 -18.086  32.841  1.00  0.00     0.000 C 
BRANCH   8   9
ATOM      9  C   UNL     1      -3.680 -18.064  34.104  1.00  0.00     0.000 C 
BRANCH   9  10
ATOM     10  C   UNL     1      -4.507 -17.875  35.390  1.00  0.00     0.000 C 
BRANCH  10  11
ATOM     11  C   UNL     1      -4.979 -19.195  36.032  1.00  0.00     0.000 C 
BRANCH  11  12
ATOM     12  C   UNL     1      -4.206 -20.442  35.558  1.00  0.00     0.006 C 
BRANCH  12  13
ATOM     13  C   UNL     1      -2.722 -20.399  35.948  1.00  0.00     0.053 C 
BRANCH  13  14
ATOM     14  C   UNL     1      -1.859 -20.745  34.776  1.00  0.00     0.041 C 
ATOM     15  O   UNL     1      -2.354 -21.314  33.767  1.00  0.00    -0.550 OA
ATOM     16  O   UNL     1      -0.503 -20.447  34.804  1.00  0.00    -0.550 OA
ENDBRANCH  13  14
ENDBRANCH  12  13
ENDBRANCH  11  12
ENDBRANCH  10  11
ENDBRANCH   9  10
ENDBRANCH   8   9
ENDBRANCH   7   8
ENDBRANCH   6   7
ENDBRANCH   5   6
ENDBRANCH   4   5
ENDBRANCH   3   4
ENDBRANCH   2   3
ENDBRANCH   1   2
BRANCH   1  17
ATOM     17  C   UNL     1      -9.454 -22.437  33.675  1.00  0.00     0.000 C 
BRANCH  17  18
ATOM     18  C   UNL     1     -10.103 -22.844  35.008  1.00  0.00     0.000 C 
BRANCH  18  19
ATOM     19  C   UNL     1     -11.573 -23.259  34.850  1.00  0.00     0.000 C 
BRANCH  19  20
ATOM     20  C   UNL     1     -12.369 -22.955  36.125  1.00  0.00     0.000 C 
BRANCH  20  21
ATOM     21  C   UNL     1     -13.300 -21.740  35.975  1.00  0.00     0.000 C 
BRANCH  21  22
ATOM     22  C   UNL     1     -12.602 -20.496  35.388  1.00  0.00    -0.000 C 
BRANCH  22  23
ATOM     23  C   UNL     1     -13.599 -19.514  34.752  1.00  0.00    -0.000 C 
BRANCH  23  24
ATOM     24  C   UNL     1     -13.108 -18.941  33.412  1.00  0.00    -0.000 C 
BRANCH  24  25
ATOM     25  C   UNL     1     -12.841 -20.014  32.336  1.00  0.00    -0.000 C 
BRANCH  25  26
ATOM     26  C   UNL     1     -11.962 -19.490  31.186  1.00  0.00    -0.000 C 
BRANCH  26  27
ATOM     27  C   UNL     1     -11.185 -20.608  30.467  1.00  0.00    -0.000 C 
BRANCH  27  28
ATOM     28  C   UNL     1      -9.804 -20.196  29.925  1.00  0.00    -0.000 C 
BRANCH  28  29
ATOM     29  C   UNL     1      -9.825 -18.843  29.199  1.00  0.00    -0.003 C 
ATOM     30  C   UNL     1      -9.565 -19.017  27.706  1.00  0.00     0.004 C 
ENDBRANCH  28  29
ENDBRANCH  27  28
ENDBRANCH  26  27
ENDBRANCH  25  26
ENDBRANCH  24  25
ENDBRANCH  23  24
ENDBRANCH  22  23
ENDBRANCH  21  22
ENDBRANCH  20  21
ENDBRANCH  19  20
ENDBRANCH  18  19
ENDBRANCH  17  18
ENDBRANCH   1  17
TORSDOF 26
ENDMDL
MODEL 6
REMARK VINA RESULT:    -1.780      1.923      6.376
REMARK INTER + INTRA:          -7.032
REMARK INTER:                  -7.278
REMARK INTRA:                   0.246
REMARK UNBOUND:                -2.545
REMARK SMILES CCCCCCCCCCCCCCCCCCCCCCCCCCCC(=O)[O-]
REMARK SMILES IDX 15 1 16 2 17 3 18 4 19 5 20 6 21 7 22 8 23 9 24 10 25 11
REMARK SMILES IDX 26 12 27 13 28 14 29 15 30 16 14 17 13 18 12 19 11 20 10 21
REMARK SMILES IDX 9 22 8 23 7 24 6 25 5 26 4 27 3 28 2 29 1 30
REMARK H PARENT
REMARK Flexibility Score: inf
ROOT
ATOM      1  C   UNL     1      -9.998 -19.766  30.469  1.00  0.00     0.000 C 
ENDROOT
BRANCH   1   2
ATOM      2  C   UNL     1      -9.568 -19.410  29.037  1.00  0.00     0.000 C 
BRANCH   2   3
ATOM      3  C   UNL     1      -8.053 -19.158  28.926  1.00  0.00     0.000 C 
BRANCH   3   4
ATOM      4  C   UNL     1      -7.584 -17.977  29.791  1.00  0.00     0.000 C 
BRANCH   4   5
ATOM      5  C   UNL     1      -8.049 -18.096  31.253  1.00  0.00     0.000 C 
BRANCH   5   6
ATOM      6  C   UNL     1      -6.952 -18.645  32.179  1.00  0.00     0.000 C 
BRANCH   6   7
ATOM      7  C   UNL     1      -6.988 -18.013  33.579  1.00  0.00     0.000 C 
BRANCH   7   8
ATOM      8  C   UNL     1      -5.582 -17.940  34.187  1.00  0.00     0.000 C 
BRANCH   8   9
ATOM      9  C   UNL     1      -5.427 -18.938  35.346  1.00  0.00     0.000 C 
BRANCH   9  10
ATOM     10  C   UNL     1      -6.437 -20.098  35.262  1.00  0.00     0.000 C 
BRANCH  10  11
ATOM     11  C   UNL     1      -5.826 -21.484  35.549  1.00  0.00     0.000 C 
BRANCH  11  12
ATOM     12  C   UNL     1      -4.320 -21.589  35.236  1.00  0.00     0.006 C 
BRANCH  12  13
ATOM     13  C   UNL     1      -3.498 -20.485  35.917  1.00  0.00     0.053 C 
BRANCH  13  14
ATOM     14  C   UNL     1      -2.463 -19.947  34.981  1.00  0.00     0.041 C 
ATOM     15  O   UNL     1      -2.688 -18.903  34.314  1.00  0.00    -0.550 OA
ATOM     16  O   UNL     1      -1.249 -20.608  34.839  1.00  0.00    -0.550 OA
ENDBRANCH  13  14
ENDBRANCH  12  13
ENDBRANCH  11  12
ENDBRANCH  10  11
ENDBRANCH   9  10
ENDBRANCH   8   9
ENDBRANCH   7   8
ENDBRANCH   6   7
ENDBRANCH   5   6
ENDBRANCH   4   5
ENDBRANCH   3   4
ENDBRANCH   2   3
ENDBRANCH   1   2
BRANCH   1  17
ATOM     17  C   UNL     1     -11.518 -19.975  30.594  1.00  0.00     0.000 C 
BRANCH  17  18
ATOM     18  C   UNL     1     -12.030 -19.750  32.026  1.00  0.00     0.000 C 
BRANCH  18  19
ATOM     19  C   UNL     1     -12.050 -18.266  32.424  1.00  0.00     0.000 C 
BRANCH  19  20
ATOM     20  C   UNL     1     -11.073 -17.994  33.574  1.00  0.00     0.000 C 
BRANCH  20  21
ATOM     21  C   UNL     1     -11.753 -18.000  34.953  1.00  0.00     0.000 C 
BRANCH  21  22
ATOM     22  C   UNL     1     -13.294 -18.026  34.881  1.00  0.00    -0.000 C 
BRANCH  22  23
ATOM     23  C   UNL     1     -13.909 -18.999  35.901  1.00  0.00    -0.000 C 
BRANCH  23  24
ATOM     24  C   UNL     1     -13.061 -20.264  36.113  1.00  0.00    -0.000 C 
BRANCH  24  25
ATOM     25  C   UNL     1     -13.880 -21.571  36.114  1.00  0.00    -0.000 C 
BRANCH  25  26
ATOM     26  C   UNL     1     -13.041 -22.793  35.699  1.00  0.00    -0.000 C 
BRANCH  26  27
ATOM     27  C   UNL     1     -11.537 -22.611  35.975  1.00  0.00    -0.000 C 
BRANCH  27  28
ATOM     28  C   UNL     1     -10.787 -21.744  34.948  1.00  0.00    -0.000 C 
BRANCH  28  29
ATOM     29  C   UNL     1      -9.414 -22.318  34.569  1.00  0.00    -0.003 C 
ATOM     30  C   UNL     1      -8.850 -21.623  33.334  1.00  0.00     0.004 C 
ENDBRANCH  28  29
ENDBRANCH  27  28
ENDBRANCH  26  27
ENDBRANCH  25  26
ENDBRANCH  24  25
ENDBRANCH  23  24
ENDBRANCH  22  23
ENDBRANCH  21  22
ENDBRANCH  20  21
ENDBRANCH  19  20
ENDBRANCH  18  19
ENDBRANCH  17  18
ENDBRANCH   1  17
TORSDOF 26
ENDMDL
MODEL 7
REMARK VINA RESULT:    -1.688      1.801      6.282
REMARK INTER + INTRA:          -6.800
REMARK INTER:                  -7.682
REMARK INTRA:                   0.882
REMARK UNBOUND:                -2.545
REMARK SMILES CCCCCCCCCCCCCCCCCCCCCCCCCCCC(=O)[O-]
REMARK SMILES IDX 15 1 16 2 17 3 18 4 19 5 20 6 21 7 22 8 23 9 24 10 25 11
REMARK SMILES IDX 26 12 27 13 28 14 29 15 30 16 14 17 13 18 12 19 11 20 10 21
REMARK SMILES IDX 9 22 8 23 7 24 6 25 5 26 4 27 3 28 2 29 1 30
REMARK H PARENT
REMARK Flexibility Score: inf
ROOT
ATOM      1  C   UNL     1     -10.673 -19.257  30.792  1.00  0.00     0.000 C 
ENDROOT
BRANCH   1   2
ATOM      2  C   UNL     1     -10.376 -18.545  29.464  1.00  0.00     0.000 C 
BRANCH   2   3
ATOM      3  C   UNL     1      -9.388 -19.333  28.585  1.00  0.00     0.000 C 
BRANCH   3   4
ATOM      4  C   UNL     1      -7.928 -18.903  28.802  1.00  0.00     0.000 C 
BRANCH   4   5
ATOM      5  C   UNL     1      -7.741 -18.079  30.088  1.00  0.00     0.000 C 
BRANCH   5   6
ATOM      6  C   UNL     1      -8.327 -18.775  31.326  1.00  0.00     0.000 C 
BRANCH   6   7
ATOM      7  C   UNL     1      -7.608 -18.380  32.625  1.00  0.00     0.000 C 
BRANCH   7   8
ATOM      8  C   UNL     1      -6.103 -18.205  32.391  1.00  0.00     0.000 C 
BRANCH   8   9
ATOM      9  C   UNL     1      -5.364 -17.939  33.712  1.00  0.00     0.000 C 
BRANCH   9  10
ATOM     10  C   UNL     1      -6.273 -18.126  34.942  1.00  0.00     0.000 C 
BRANCH  10  11
ATOM     11  C   UNL     1      -5.588 -18.838  36.125  1.00  0.00     0.000 C 
BRANCH  11  12
ATOM     12  C   UNL     1      -4.057 -18.965  35.989  1.00  0.00     0.006 C 
BRANCH  12  13
ATOM     13  C   UNL     1      -3.601 -20.419  35.808  1.00  0.00     0.053 C 
BRANCH  13  14
ATOM     14  C   UNL     1      -2.640 -20.532  34.668  1.00  0.00     0.041 C 
ATOM     15  O   UNL     1      -1.423 -20.246  34.829  1.00  0.00    -0.550 OA
ATOM     16  O   UNL     1      -3.091 -20.945  33.421  1.00  0.00    -0.550 OA
ENDBRANCH  13  14
ENDBRANCH  12  13
ENDBRANCH  11  12
ENDBRANCH  10  11
ENDBRANCH   9  10
ENDBRANCH   8   9
ENDBRANCH   7   8
ENDBRANCH   6   7
ENDBRANCH   5   6
ENDBRANCH   4   5
ENDBRANCH   3   4
ENDBRANCH   2   3
ENDBRANCH   1   2
BRANCH   1  17
ATOM     17  C   UNL     1     -12.041 -18.866  31.379  1.00  0.00     0.000 C 
BRANCH  17  18
ATOM     18  C   UNL     1     -12.579 -19.908  32.372  1.00  0.00     0.000 C 
BRANCH  18  19
ATOM     19  C   UNL     1     -13.113 -19.276  33.666  1.00  0.00     0.000 C 
BRANCH  19  20
ATOM     20  C   UNL     1     -11.999 -19.140  34.711  1.00  0.00     0.000 C 
BRANCH  20  21
ATOM     21  C   UNL     1     -12.155 -20.122  35.885  1.00  0.00     0.000 C 
BRANCH  21  22
ATOM     22  C   UNL     1     -13.612 -20.571  36.125  1.00  0.00    -0.000 C 
BRANCH  22  23
ATOM     23  C   UNL     1     -13.769 -22.099  36.060  1.00  0.00    -0.000 C 
BRANCH  23  24
ATOM     24  C   UNL     1     -12.557 -22.802  35.425  1.00  0.00    -0.000 C 
BRANCH  24  25
ATOM     25  C   UNL     1     -11.200 -22.348  36.001  1.00  0.00    -0.000 C 
BRANCH  25  26
ATOM     26  C   UNL     1     -10.010 -22.813  35.143  1.00  0.00    -0.000 C 
BRANCH  26  27
ATOM     27  C   UNL     1      -9.588 -21.773  34.089  1.00  0.00    -0.000 C 
BRANCH  27  28
ATOM     28  C   UNL     1      -8.130 -21.290  34.198  1.00  0.00    -0.000 C 
BRANCH  28  29
ATOM     29  C   UNL     1      -7.140 -22.430  34.471  1.00  0.00    -0.003 C 
ATOM     30  C   UNL     1      -6.253 -22.113  35.670  1.00  0.00     0.004 C 
ENDBRANCH  28  29
ENDBRANCH  27  28
ENDBRANCH  26  27
ENDBRANCH  25  26
ENDBRANCH  24  25
ENDBRANCH  23  24
ENDBRANCH  22  23
ENDBRANCH  21  22
ENDBRANCH  20  21
ENDBRANCH  19  20
ENDBRANCH  18  19
ENDBRANCH  17  18
ENDBRANCH   1  17
TORSDOF 26
ENDMDL
MODEL 8
REMARK VINA RESULT:    -1.660      1.386      2.713
REMARK INTER + INTRA:          -6.729
REMARK INTER:                  -7.044
REMARK INTRA:                   0.316
REMARK UNBOUND:                -2.545
REMARK SMILES CCCCCCCCCCCCCCCCCCCCCCCCCCCC(=O)[O-]
REMARK SMILES IDX 15 1 16 2 17 3 18 4 19 5 20 6 21 7 22 8 23 9 24 10 25 11
REMARK SMILES IDX 26 12 27 13 28 14 29 15 30 16 14 17 13 18 12 19 11 20 10 21
REMARK SMILES IDX 9 22 8 23 7 24 6 25 5 26 4 27 3 28 2 29 1 30
REMARK H PARENT
REMARK Flexibility Score: inf
ROOT
ATOM      1  C   UNL     1     -11.099 -18.097  33.009  1.00  0.00     0.000 C 
ENDROOT
BRANCH   1   2
ATOM      2  C   UNL     1     -12.475 -18.581  33.493  1.00  0.00     0.000 C 
BRANCH   2   3
ATOM      3  C   UNL     1     -12.572 -18.629  35.029  1.00  0.00     0.000 C 
BRANCH   3   4
ATOM      4  C   UNL     1     -13.988 -18.967  35.523  1.00  0.00     0.000 C 
BRANCH   4   5
ATOM      5  C   UNL     1     -14.111 -20.421  36.011  1.00  0.00     0.000 C 
BRANCH   5   6
ATOM      6  C   UNL     1     -13.180 -21.380  35.253  1.00  0.00     0.000 C 
BRANCH   6   7
ATOM      7  C   UNL     1     -12.791 -22.610  36.085  1.00  0.00     0.000 C 
BRANCH   7   8
ATOM      8  C   UNL     1     -11.285 -22.885  35.993  1.00  0.00     0.000 C 
BRANCH   8   9
ATOM      9  C   UNL     1     -10.514 -21.617  35.594  1.00  0.00     0.000 C 
BRANCH   9  10
ATOM     10  C   UNL     1     -10.568 -21.349  34.078  1.00  0.00     0.000 C 
BRANCH  10  11
ATOM     11  C   UNL     1      -9.183 -21.205  33.417  1.00  0.00     0.000 C 
BRANCH  11  12
ATOM     12  C   UNL     1      -8.161 -22.276  33.848  1.00  0.00     0.006 C 
BRANCH  12  13
ATOM     13  C   UNL     1      -7.317 -21.833  35.051  1.00  0.00     0.053 C 
BRANCH  13  14
ATOM     14  C   UNL     1      -5.887 -22.231  34.866  1.00  0.00     0.041 C 
ATOM     15  O   UNL     1      -5.267 -21.908  33.818  1.00  0.00    -0.550 OA
ATOM     16  O   UNL     1      -5.240 -22.968  35.850  1.00  0.00    -0.550 OA
ENDBRANCH  13  14
ENDBRANCH  12  13
ENDBRANCH  11  12
ENDBRANCH  10  11
ENDBRANCH   9  10
ENDBRANCH   8   9
ENDBRANCH   7   8
ENDBRANCH   6   7
ENDBRANCH   5   6
ENDBRANCH   4   5
ENDBRANCH   3   4
ENDBRANCH   2   3
ENDBRANCH   1   2
BRANCH   1  17
ATOM     17  C   UNL     1     -10.981 -18.092  31.474  1.00  0.00     0.000 C 
BRANCH  17  18
ATOM     18  C   UNL     1     -10.196 -19.299  30.937  1.00  0.00     0.000 C 
BRANCH  18  19
ATOM     19  C   UNL     1      -9.393 -18.969  29.669  1.00  0.00     0.000 C 
BRANCH  19  20
ATOM     20  C   UNL     1      -7.901 -18.825  29.987  1.00  0.00     0.000 C 
BRANCH  20  21
ATOM     21  C   UNL     1      -7.639 -18.179  31.358  1.00  0.00     0.000 C 
BRANCH  21  22
ATOM     22  C   UNL     1      -6.328 -18.650  32.022  1.00  0.00    -0.000 C 
BRANCH  22  23
ATOM     23  C   UNL     1      -6.045 -17.912  33.341  1.00  0.00    -0.000 C 
BRANCH  23  24
ATOM     24  C   UNL     1      -6.840 -18.478  34.530  1.00  0.00    -0.000 C 
BRANCH  24  25
ATOM     25  C   UNL     1      -6.438 -17.875  35.892  1.00  0.00    -0.000 C 
BRANCH  25  26
ATOM     26  C   UNL     1      -4.916 -17.901  36.122  1.00  0.00    -0.000 C 
BRANCH  26  27
ATOM     27  C   UNL     1      -4.167 -18.760  35.087  1.00  0.00    -0.000 C 
BRANCH  27  28
ATOM     28  C   UNL     1      -3.923 -20.221  35.508  1.00  0.00    -0.000 C 
BRANCH  28  29
ATOM     29  C   UNL     1      -2.443 -20.527  35.778  1.00  0.00    -0.003 C 
ATOM     30  C   UNL     1      -1.617 -20.415  34.501  1.00  0.00     0.004 C 
ENDBRANCH  28  29
ENDBRANCH  27  28
ENDBRANCH  26  27
ENDBRANCH  25  26
ENDBRANCH  24  25
ENDBRANCH  23  24
ENDBRANCH  22  23
ENDBRANCH  21  22
ENDBRANCH  20  21
ENDBRANCH  19  20
ENDBRANCH  18  19
ENDBRANCH  17  18
ENDBRANCH   1  17
TORSDOF 26
ENDMDL
