MODEL 1
REMARK VINA RESULT:    -3.993      0.000      0.000
REMARK INTER + INTRA:          -7.375
REMARK INTER:                  -6.328
REMARK INTRA:                  -1.048
REMARK UNBOUND:                -1.048
REMARK SMILES CCCCCCCCCCCC(=O)[O-]
REMARK SMILES IDX 7 1 8 2 9 3 10 4 11 5 12 6 13 7 14 8 6 9 5 10 4 11 3 12 2 13
REMARK SMILES IDX 1 14
REMARK H PARENT
REMARK Flexibility Score: inf
ROOT
ATOM      1  C   UNL     1      13.510  42.012   1.348  1.00  0.00     0.000 C 
ENDROOT
BRANCH   1   2
ATOM      2  C   UNL     1      12.741  42.274   0.042  1.00  0.00     0.000 C 
BRANCH   2   3
ATOM      3  C   UNL     1      11.976  41.040  -0.456  1.00  0.00     0.000 C 
BRANCH   3   4
ATOM      4  C   UNL     1      10.888  41.439  -1.465  1.00  0.00     0.006 C 
BRANCH   4   5
ATOM      5  C   UNL     1       9.562  41.793  -0.780  1.00  0.00     0.053 C 
BRANCH   5   6
ATOM      6  C   UNL     1       9.040  43.122  -1.234  1.00  0.00     0.041 C 
ATOM      7  O   UNL     1       9.467  43.643  -2.297  1.00  0.00    -0.550 OA
ATOM      8  O   UNL     1       8.103  43.800  -0.463  1.00  0.00    -0.550 OA
ENDBRANCH   5   6
ENDBRANCH   4   5
ENDBRANCH   3   4
ENDBRANCH   2   3
ENDBRANCH   1   2
BRANCH   1   9
ATOM      9  C   UNL     1      13.489  40.528   1.757  1.00  0.00     0.000 C 
BRANCH   9  10
ATOM     10  C   UNL     1      12.841  40.304   3.133  1.00  0.00    -0.000 C 
BRANCH  10  11
ATOM     11  C   UNL     1      11.424  39.715   3.031  1.00  0.00    -0.000 C 
BRANCH  11  12
ATOM     12  C   UNL     1      11.344  38.535   2.049  1.00  0.00    -0.000 C 
BRANCH  12  13
ATOM     13  C   UNL     1       9.984  38.444   1.341  1.00  0.00    -0.003 C 
ATOM     14  C   UNL     1       9.761  37.051   0.759  1.00  0.00     0.004 C 
ENDBRANCH  12  13
ENDBRANCH  11  12
ENDBRANCH  10  11
ENDBRANCH   9  10
ENDBRANCH   1   9
TORSDOF 10
ENDMDL
MODEL 2
REMARK VINA RESULT:    -3.900      9.453     11.478
REMARK INTER + INTRA:          -7.227
REMARK INTER:                  -5.726
REMARK INTRA:                  -1.500
REMARK UNBOUND:                -1.048
REMARK SMILES CCCCCCCCCCCC(=O)[O-]
REMARK SMILES IDX 7 1 8 2 9 3 10 4 11 5 12 6 13 7 14 8 6 9 5 10 4 11 3 12 2 13
REMARK SMILES IDX 1 14
REMARK H PARENT
REMARK Flexibility Score: inf
ROOT
ATOM      1  C   UNL     1       4.847  40.104  -7.219  1.00  0.00     0.000 C 
ENDROOT
BRANCH   1   2
ATOM      2  C   UNL     1       5.757  38.892  -6.962  1.00  0.00     0.000 C 
BRANCH   2   3
ATOM      3  C   UNL     1       5.575  38.299  -5.557  1.00  0.00     0.000 C 
BRANCH   3   4
ATOM      4  C   UNL     1       5.575  36.764  -5.606  1.00  0.00     0.006 C 
BRANCH   4   5
ATOM      5  C   UNL     1       6.244  36.222  -6.875  1.00  0.00     0.053 C 
BRANCH   5   6
ATOM      6  C   UNL     1       6.824  34.857  -6.659  1.00  0.00     0.041 C 
ATOM      7  O   UNL     1       7.070  34.109  -7.640  1.00  0.00    -0.550 OA
ATOM      8  O   UNL     1       7.060  34.401  -5.368  1.00  0.00    -0.550 OA
ENDBRANCH   5   6
ENDBRANCH   4   5
ENDBRANCH   3   4
ENDBRANCH   2   3
ENDBRANCH   1   2
BRANCH   1   9
ATOM      9  C   UNL     1       3.802  39.836  -8.317  1.00  0.00     0.000 C 
BRANCH   9  10
ATOM     10  C   UNL     1       3.726  38.351  -8.710  1.00  0.00    -0.000 C 
BRANCH  10  11
ATOM     11  C   UNL     1       2.347  37.734  -8.424  1.00  0.00    -0.000 C 
BRANCH  11  12
ATOM     12  C   UNL     1       2.224  37.200  -6.987  1.00  0.00    -0.000 C 
BRANCH  12  13
ATOM     13  C   UNL     1       1.599  38.223  -6.027  1.00  0.00    -0.003 C 
ATOM     14  C   UNL     1       2.037  37.963  -4.588  1.00  0.00     0.004 C 
ENDBRANCH  12  13
ENDBRANCH  11  12
ENDBRANCH  10  11
ENDBRANCH   9  10
ENDBRANCH   1   9
TORSDOF 10
ENDMDL
MODEL 3
REMARK VINA RESULT:    -3.856      9.067     10.343
REMARK INTER + INTRA:          -7.158
REMARK INTER:                  -6.306
REMARK INTRA:                  -0.851
REMARK UNBOUND:                -1.048
REMARK SMILES CCCCCCCCCCCC(=O)[O-]
REMARK SMILES IDX 7 1 8 2 9 3 10 4 11 5 12 6 13 7 14 8 6 9 5 10 4 11 3 12 2 13
REMARK SMILES IDX 1 14
REMARK H PARENT
REMARK Flexibility Score: inf
ROOT
ATOM      1  C   UNL     1       4.917  35.856  -5.416  1.00  0.00     0.000 C 
ENDROOT
BRANCH   1   2
ATOM      2  C   UNL     1       4.510  37.047  -4.533  1.00  0.00     0.000 C 
BRANCH   2   3
ATOM      3  C   UNL     1       5.098  38.379  -5.023  1.00  0.00     0.000 C 
BRANCH   3   4
ATOM      4  C   UNL     1       6.129  38.146  -6.137  1.00  0.00     0.006 C 
BRANCH   4   5
ATOM      5  C   UNL     1       6.117  39.268  -7.184  1.00  0.00     0.053 C 
BRANCH   5   6
ATOM      6  C   UNL     1       4.723  39.621  -7.602  1.00  0.00     0.041 C 
ATOM      7  O   UNL     1       3.995  38.768  -8.174  1.00  0.00    -0.550 OA
ATOM      8  O   UNL     1       4.239  40.906  -7.389  1.00  0.00    -0.550 OA
ENDBRANCH   5   6
ENDBRANCH   4   5
ENDBRANCH   3   4
ENDBRANCH   2   3
ENDBRANCH   1   2
BRANCH   1   9
ATOM      9  C   UNL     1       5.553  34.711  -4.607  1.00  0.00     0.000 C 
BRANCH   9  10
ATOM     10  C   UNL     1       6.802  34.129  -5.289  1.00  0.00    -0.000 C 
BRANCH  10  11
ATOM     11  C   UNL     1       6.972  34.626  -6.735  1.00  0.00    -0.000 C 
BRANCH  11  12
ATOM     12  C   UNL     1       6.767  33.510  -7.771  1.00  0.00    -0.000 C 
BRANCH  12  13
ATOM     13  C   UNL     1       6.825  32.106  -7.149  1.00  0.00    -0.003 C 
ATOM     14  C   UNL     1       7.728  31.182  -7.963  1.00  0.00     0.004 C 
ENDBRANCH  12  13
ENDBRANCH  11  12
ENDBRANCH  10  11
ENDBRANCH   9  10
ENDBRANCH   1   9
TORSDOF 10
ENDMDL
MODEL 4
REMARK VINA RESULT:    -3.841      9.413     10.529
REMARK INTER + INTRA:          -7.135
REMARK INTER:                  -5.843
REMARK INTRA:                  -1.292
REMARK UNBOUND:                -1.048
REMARK SMILES CCCCCCCCCCCC(=O)[O-]
REMARK SMILES IDX 7 1 8 2 9 3 10 4 11 5 12 6 13 7 14 8 6 9 5 10 4 11 3 12 2 13
REMARK SMILES IDX 1 14
REMARK H PARENT
REMARK Flexibility Score: inf
ROOT
ATOM      1  C   UNL     1       6.094  38.048  -6.257  1.00  0.00     0.000 C 
ENDROOT
BRANCH   1   2
ATOM      2  C   UNL     1       6.006  39.285  -7.165  1.00  0.00     0.000 C 
BRANCH   2   3
ATOM      3  C   UNL     1       4.626  39.959  -7.120  1.00  0.00     0.000 C 
BRANCH   3   4
ATOM      4  C   UNL     1       3.688  39.357  -8.177  1.00  0.00     0.006 C 
BRANCH   4   5
ATOM      5  C   UNL     1       2.674  38.381  -7.566  1.00  0.00     0.053 C 
BRANCH   5   6
ATOM      6  C   UNL     1       2.898  36.977  -8.041  1.00  0.00     0.041 C 
ATOM      7  O   UNL     1       2.063  36.075  -7.772  1.00  0.00    -0.550 OA
ATOM      8  O   UNL     1       4.048  36.661  -8.754  1.00  0.00    -0.550 OA
ENDBRANCH   5   6
ENDBRANCH   4   5
ENDBRANCH   3   4
ENDBRANCH   2   3
ENDBRANCH   1   2
BRANCH   1   9
ATOM      9  C   UNL     1       5.315  38.224  -4.941  1.00  0.00     0.000 C 
BRANCH   9  10
ATOM     10  C   UNL     1       4.546  36.956  -4.536  1.00  0.00    -0.000 C 
BRANCH  10  11
ATOM     11  C   UNL     1       5.006  35.711  -5.315  1.00  0.00    -0.000 C 
BRANCH  11  12
ATOM     12  C   UNL     1       5.749  34.700  -4.428  1.00  0.00    -0.000 C 
BRANCH  12  13
ATOM     13  C   UNL     1       6.904  34.003  -5.162  1.00  0.00    -0.003 C 
ATOM     14  C   UNL     1       6.976  34.451  -6.620  1.00  0.00     0.004 C 
ENDBRANCH  12  13
ENDBRANCH  11  12
ENDBRANCH  10  11
ENDBRANCH   9  10
ENDBRANCH   1   9
TORSDOF 10
ENDMDL
MODEL 5
REMARK VINA RESULT:    -3.816      9.286     10.778
REMARK INTER + INTRA:          -7.095
REMARK INTER:                  -5.705
REMARK INTRA:                  -1.390
REMARK UNBOUND:                -1.048
REMARK SMILES CCCCCCCCCCCC(=O)[O-]
REMARK SMILES IDX 7 1 8 2 9 3 10 4 11 5 12 6 13 7 14 8 6 9 5 10 4 11 3 12 2 13
REMARK SMILES IDX 1 14
REMARK H PARENT
REMARK Flexibility Score: inf
ROOT
ATOM      1  C   UNL     1       5.340  39.496  -7.203  1.00  0.00     0.000 C 
ENDROOT
BRANCH   1   2
ATOM      2  C   UNL     1       3.809  39.460  -7.067  1.00  0.00     0.000 C 
BRANCH   2   3
ATOM      3  C   UNL     1       3.142  38.534  -8.095  1.00  0.00     0.000 C 
BRANCH   3   4
ATOM      4  C   UNL     1       1.954  37.788  -7.472  1.00  0.00     0.006 C 
BRANCH   4   5
ATOM      5  C   UNL     1       1.734  38.168  -6.002  1.00  0.00     0.053 C 
BRANCH   5   6
ATOM      6  C   UNL     1       1.465  36.964  -5.151  1.00  0.00     0.041 C 
ATOM      7  O   UNL     1       1.481  35.812  -5.657  1.00  0.00    -0.550 OA
ATOM      8  O   UNL     1       1.164  37.120  -3.803  1.00  0.00    -0.550 OA
ENDBRANCH   5   6
ENDBRANCH   4   5
ENDBRANCH   3   4
ENDBRANCH   2   3
ENDBRANCH   1   2
BRANCH   1   9
ATOM      9  C   UNL     1       6.042  38.517  -6.245  1.00  0.00     0.000 C 
BRANCH   9  10
ATOM     10  C   UNL     1       5.261  38.311  -4.936  1.00  0.00    -0.000 C 
BRANCH  10  11
ATOM     11  C   UNL     1       5.007  36.825  -4.627  1.00  0.00    -0.000 C 
BRANCH  11  12
ATOM     12  C   UNL     1       5.124  35.934  -5.874  1.00  0.00    -0.000 C 
BRANCH  12  13
ATOM     13  C   UNL     1       6.107  34.769  -5.680  1.00  0.00    -0.003 C 
ATOM     14  C   UNL     1       6.973  34.570  -6.921  1.00  0.00     0.004 C 
ENDBRANCH  12  13
ENDBRANCH  11  12
ENDBRANCH  10  11
ENDBRANCH   9  10
ENDBRANCH   1   9
TORSDOF 10
ENDMDL
MODEL 6
REMARK VINA RESULT:    -3.686      9.373     11.309
REMARK INTER + INTRA:          -6.888
REMARK INTER:                  -5.330
REMARK INTRA:                  -1.558
REMARK UNBOUND:                -1.048
REMARK SMILES CCCCCCCCCCCC(=O)[O-]
REMARK SMILES IDX 7 1 8 2 9 3 10 4 11 5 12 6 13 7 14 8 6 9 5 10 4 11 3 12 2 13
REMARK SMILES IDX 1 14
REMARK H PARENT
REMARK Flexibility Score: inf
ROOT
ATOM      1  C   UNL     1       3.270  38.861  -8.285  1.00  0.00     0.000 C 
ENDROOT
BRANCH   1   2
ATOM      2  C   UNL     1       2.327  37.753  -7.789  1.00  0.00     0.000 C 
BRANCH   2   3
ATOM      3  C   UNL     1       1.604  38.126  -6.486  1.00  0.00     0.000 C 
BRANCH   3   4
ATOM      4  C   UNL     1       1.530  36.921  -5.536  1.00  0.00     0.006 C 
BRANCH   4   5
ATOM      5  C   UNL     1       1.493  37.344  -4.062  1.00  0.00     0.053 C 
BRANCH   5   6
ATOM      6  C   UNL     1       1.501  36.160  -3.144  1.00  0.00     0.041 C 
ATOM      7  O   UNL     1       1.035  36.256  -1.979  1.00  0.00    -0.550 OA
ATOM      8  O   UNL     1       2.055  34.958  -3.567  1.00  0.00    -0.550 OA
ENDBRANCH   5   6
ENDBRANCH   4   5
ENDBRANCH   3   4
ENDBRANCH   2   3
ENDBRANCH   1   2
BRANCH   1   9
ATOM      9  C   UNL     1       4.032  39.546  -7.137  1.00  0.00     0.000 C 
BRANCH   9  10
ATOM     10  C   UNL     1       5.553  39.349  -7.237  1.00  0.00    -0.000 C 
BRANCH  10  11
ATOM     11  C   UNL     1       6.134  38.602  -6.024  1.00  0.00    -0.000 C 
BRANCH  11  12
ATOM     12  C   UNL     1       5.066  38.264  -4.971  1.00  0.00    -0.000 C 
BRANCH  12  13
ATOM     13  C   UNL     1       5.032  36.769  -4.620  1.00  0.00    -0.003 C 
ATOM     14  C   UNL     1       5.105  35.909  -5.879  1.00  0.00     0.004 C 
ENDBRANCH  12  13
ENDBRANCH  11  12
ENDBRANCH  10  11
ENDBRANCH   9  10
ENDBRANCH   1   9
TORSDOF 10
ENDMDL
MODEL 7
REMARK VINA RESULT:    -3.662      9.799     11.618
REMARK INTER + INTRA:          -6.851
REMARK INTER:                  -5.421
REMARK INTRA:                  -1.430
REMARK UNBOUND:                -1.048
REMARK SMILES CCCCCCCCCCCC(=O)[O-]
REMARK SMILES IDX 7 1 8 2 9 3 10 4 11 5 12 6 13 7 14 8 6 9 5 10 4 11 3 12 2 13
REMARK SMILES IDX 1 14
REMARK H PARENT
REMARK Flexibility Score: inf
ROOT
ATOM      1  C   UNL     1       3.603  36.262  -5.665  1.00  0.00     0.000 C 
ENDROOT
BRANCH   1   2
ATOM      2  C   UNL     1       4.312  35.031  -6.253  1.00  0.00     0.000 C 
BRANCH   2   3
ATOM      3  C   UNL     1       5.303  35.392  -7.370  1.00  0.00     0.000 C 
BRANCH   3   4
ATOM      4  C   UNL     1       6.751  35.156  -6.916  1.00  0.00     0.006 C 
BRANCH   4   5
ATOM      5  C   UNL     1       6.933  33.790  -6.240  1.00  0.00     0.053 C 
BRANCH   5   6
ATOM      6  C   UNL     1       6.948  32.674  -7.239  1.00  0.00     0.041 C 
ATOM      7  O   UNL     1       7.928  32.531  -8.016  1.00  0.00    -0.550 OA
ATOM      8  O   UNL     1       5.863  31.811  -7.333  1.00  0.00    -0.550 OA
ENDBRANCH   5   6
ENDBRANCH   4   5
ENDBRANCH   3   4
ENDBRANCH   2   3
ENDBRANCH   1   2
BRANCH   1   9
ATOM      9  C   UNL     1       4.454  36.981  -4.602  1.00  0.00     0.000 C 
BRANCH   9  10
ATOM     10  C   UNL     1       4.756  38.441  -4.978  1.00  0.00    -0.000 C 
BRANCH  10  11
ATOM     11  C   UNL     1       6.032  38.581  -5.826  1.00  0.00    -0.000 C 
BRANCH  11  12
ATOM     12  C   UNL     1       5.766  39.243  -7.188  1.00  0.00    -0.000 C 
BRANCH  12  13
ATOM     13  C   UNL     1       4.287  39.607  -7.391  1.00  0.00    -0.003 C 
ATOM     14  C   UNL     1       3.658  38.750  -8.486  1.00  0.00     0.004 C 
ENDBRANCH  12  13
ENDBRANCH  11  12
ENDBRANCH  10  11
ENDBRANCH   9  10
ENDBRANCH   1   9
TORSDOF 10
ENDMDL
MODEL 8
REMARK VINA RESULT:    -3.660      9.595     11.642
REMARK INTER + INTRA:          -6.848
REMARK INTER:                  -5.367
REMARK INTRA:                  -1.481
REMARK UNBOUND:                -1.048
REMARK SMILES CCCCCCCCCCCC(=O)[O-]
REMARK SMILES IDX 7 1 8 2 9 3 10 4 11 5 12 6 13 7 14 8 6 9 5 10 4 11 3 12 2 13
REMARK SMILES IDX 1 14
REMARK H PARENT
REMARK Flexibility Score: inf
ROOT
ATOM      1  C   UNL     1       1.567  38.117  -5.730  1.00  0.00     0.000 C 
ENDROOT
BRANCH   1   2
ATOM      2  C   UNL     1       2.629  38.043  -4.620  1.00  0.00     0.000 C 
BRANCH   2   3
ATOM      3  C   UNL     1       3.169  36.621  -4.408  1.00  0.00     0.000 C 
BRANCH   3   4
ATOM      4  C   UNL     1       4.690  36.575  -4.620  1.00  0.00     0.006 C 
BRANCH   4   5
ATOM      5  C   UNL     1       5.086  35.667  -5.792  1.00  0.00     0.053 C 
BRANCH   5   6
ATOM      6  C   UNL     1       6.261  34.802  -5.451  1.00  0.00     0.041 C 
ATOM      7  O   UNL     1       7.193  34.641  -6.282  1.00  0.00    -0.550 OA
ATOM      8  O   UNL     1       6.310  34.148  -4.227  1.00  0.00    -0.550 OA
ENDBRANCH   5   6
ENDBRANCH   4   5
ENDBRANCH   3   4
ENDBRANCH   2   3
ENDBRANCH   1   2
BRANCH   1   9
ATOM      9  C   UNL     1       1.905  37.216  -6.931  1.00  0.00     0.000 C 
BRANCH   9  10
ATOM     10  C   UNL     1       2.251  38.022  -8.194  1.00  0.00    -0.000 C 
BRANCH  10  11
ATOM     11  C   UNL     1       3.764  38.244  -8.359  1.00  0.00    -0.000 C 
BRANCH  11  12
ATOM     12  C   UNL     1       4.208  39.646  -7.910  1.00  0.00    -0.000 C 
BRANCH  12  13
ATOM     13  C   UNL     1       5.144  39.609  -6.692  1.00  0.00    -0.003 C 
ATOM     14  C   UNL     1       6.482  38.967  -7.049  1.00  0.00     0.004 C 
ENDBRANCH  12  13
ENDBRANCH  11  12
ENDBRANCH  10  11
ENDBRANCH   9  10
ENDBRANCH   1   9
TORSDOF 10
ENDMDL
MODEL 9
REMARK VINA RESULT:    -3.618      9.778     11.675
REMARK INTER + INTRA:          -6.780
REMARK INTER:                  -5.513
REMARK INTRA:                  -1.267
REMARK UNBOUND:                -1.048
REMARK SMILES CCCCCCCCCCCC(=O)[O-]
REMARK SMILES IDX 7 1 8 2 9 3 10 4 11 5 12 6 13 7 14 8 6 9 5 10 4 11 3 12 2 13
REMARK SMILES IDX 1 14
REMARK H PARENT
REMARK Flexibility Score: inf
ROOT
ATOM      1  C   UNL     1       5.326  38.403  -5.239  1.00  0.00     0.000 C 
ENDROOT
BRANCH   1   2
ATOM      2  C   UNL     1       5.224  36.874  -5.115  1.00  0.00     0.000 C 
BRANCH   2   3
ATOM      3  C   UNL     1       5.805  36.138  -6.332  1.00  0.00     0.000 C 
BRANCH   3   4
ATOM      4  C   UNL     1       5.700  34.616  -6.153  1.00  0.00     0.006 C 
BRANCH   4   5
ATOM      5  C   UNL     1       7.074  33.933  -6.171  1.00  0.00     0.053 C 
BRANCH   5   6
ATOM      6  C   UNL     1       7.204  32.978  -7.318  1.00  0.00     0.041 C 
ATOM      7  O   UNL     1       7.373  33.409  -8.488  1.00  0.00    -0.550 OA
ATOM      8  O   UNL     1       7.105  31.610  -7.096  1.00  0.00    -0.550 OA
ENDBRANCH   5   6
ENDBRANCH   4   5
ENDBRANCH   3   4
ENDBRANCH   2   3
ENDBRANCH   1   2
BRANCH   1   9
ATOM      9  C   UNL     1       5.977  38.845  -6.562  1.00  0.00     0.000 C 
BRANCH   9  10
ATOM     10  C   UNL     1       5.206  39.986  -7.247  1.00  0.00    -0.000 C 
BRANCH  10  11
ATOM     11  C   UNL     1       3.756  39.601  -7.584  1.00  0.00    -0.000 C 
BRANCH  11  12
ATOM     12  C   UNL     1       3.670  38.385  -8.520  1.00  0.00    -0.000 C 
BRANCH  12  13
ATOM     13  C   UNL     1       2.617  37.362  -8.068  1.00  0.00    -0.003 C 
ATOM     14  C   UNL     1       1.942  37.806  -6.773  1.00  0.00     0.004 C 
ENDBRANCH  12  13
ENDBRANCH  11  12
ENDBRANCH  10  11
ENDBRANCH   9  10
ENDBRANCH   1   9
TORSDOF 10
ENDMDL
