MODEL 1
REMARK VINA RESULT:   -11.357      0.000      0.000
REMARK INTER + INTRA:         -16.781
REMARK INTER:                 -15.673
REMARK INTRA:                  -1.108
REMARK UNBOUND:                -1.108
REMARK SMILES CC[C@H](CC[C@@H](C)[C@H]1CC[C@@H]2[C@H]3CC=C4C[C@H](O)CC[C@@]4(C)[C@@H]3CC[C@@]21C)C(C)C
REMARK SMILES IDX 5 1 4 2 3 3 2 4 1 5 28 6 29 7 30 8 6 9 7 10 8 11 9 12 26 13
REMARK SMILES IDX 10 14 11 15 25 16 27 17 12 18 24 19 23 20 13 21 21 22 14 23
REMARK SMILES IDX 15 24 20 25 22 26 16 27 19 28 17 29 18 30
REMARK H PARENT 18 31
REMARK Flexibility Score: inf
ROOT
ATOM      1  C   UNL     1     -21.986 -43.807  23.359  1.00  0.00     0.004 C 
ENDROOT
BRANCH   1   2
ATOM      2  C   UNL     1     -21.059 -45.018  23.115  1.00  0.00     0.004 C 
BRANCH   2   3
ATOM      3  C   UNL     1     -21.774 -46.402  23.157  1.00  0.00    -0.009 C 
BRANCH   3   4
ATOM      4  C   UNL     1     -21.356 -47.207  24.424  1.00  0.00     0.000 C 
ATOM      5  C   UNL     1     -20.330 -48.320  24.197  1.00  0.00     0.004 C 
ENDBRANCH   3   4
BRANCH   3   6
ATOM      6  C   UNL     1     -23.314 -46.349  22.853  1.00  0.00    -0.014 C 
ATOM      7  C   UNL     1     -24.233 -46.589  24.066  1.00  0.00     0.007 C 
ATOM      8  C   UNL     1     -23.717 -47.264  21.684  1.00  0.00     0.007 C 
ENDBRANCH   3   6
ENDBRANCH   2   3
ENDBRANCH   1   2
BRANCH   1   9
ATOM      9  C   UNL     1     -21.490 -42.845  24.491  1.00  0.00    -0.011 C 
ATOM     10  C   UNL     1     -20.925 -43.694  25.646  1.00  0.00     0.008 C 
BRANCH   9  11
ATOM     11  C   UNL     1     -20.435 -41.809  23.954  1.00  0.00    -0.002 C 
ATOM     12  C   UNL     1     -20.779 -41.308  22.553  1.00  0.00     0.005 C 
ATOM     13  C   UNL     1     -20.192 -40.488  24.767  1.00  0.00    -0.026 C 
ATOM     14  C   UNL     1     -19.870 -40.124  22.324  1.00  0.00     0.005 C 
ATOM     15  C   UNL     1     -19.684 -39.458  23.695  1.00  0.00    -0.001 C 
ATOM     16  C   UNL     1     -19.131 -40.699  25.887  1.00  0.00     0.007 C 
ATOM     17  C   UNL     1     -21.511 -39.942  25.386  1.00  0.00     0.012 C 
ATOM     18  C   UNL     1     -18.215 -38.981  23.906  1.00  0.00     0.000 C 
ATOM     19  C   UNL     1     -18.592 -39.374  26.439  1.00  0.00     0.005 C 
ATOM     20  C   UNL     1     -17.999 -38.435  25.342  1.00  0.00     0.003 C 
ATOM     21  C   UNL     1     -17.848 -37.887  22.885  1.00  0.00     0.031 C 
ATOM     22  C   UNL     1     -16.496 -38.021  25.581  1.00  0.00    -0.008 C 
ATOM     23  C   UNL     1     -16.545 -37.201  23.189  1.00  0.00    -0.027 C 
ATOM     24  C   UNL     1     -15.997 -37.143  24.423  1.00  0.00    -0.065 C 
ATOM     25  C   UNL     1     -16.407 -37.199  26.909  1.00  0.00     0.014 C 
ATOM     26  C   UNL     1     -15.567 -39.266  25.671  1.00  0.00     0.016 C 
ATOM     27  C   UNL     1     -14.729 -36.331  24.612  1.00  0.00     0.063 C 
ATOM     28  C   UNL     1     -15.070 -36.467  27.102  1.00  0.00     0.033 C 
ATOM     29  C   UNL     1     -14.781 -35.536  25.922  1.00  0.00     0.118 C 
BRANCH  29  30
ATOM     30  O   UNL     1     -13.552 -34.888  26.137  1.00  0.00    -0.393 OA
ATOM     31  H   UNL     1     -13.510 -34.666  27.103  1.00  0.00     0.210 HD
ENDBRANCH  29  30
ENDBRANCH   9  11
ENDBRANCH   1   9
TORSDOF 7
ENDMDL
MODEL 2
REMARK VINA RESULT:   -10.517      0.664      1.568
REMARK INTER + INTRA:         -15.622
REMARK INTER:                 -14.872
REMARK INTRA:                  -0.750
REMARK UNBOUND:                -1.108
REMARK SMILES CC[C@H](CC[C@@H](C)[C@H]1CC[C@@H]2[C@H]3CC=C4C[C@H](O)CC[C@@]4(C)[C@@H]3CC[C@@]21C)C(C)C
REMARK SMILES IDX 5 1 4 2 3 3 2 4 1 5 28 6 29 7 30 8 6 9 7 10 8 11 9 12 26 13
REMARK SMILES IDX 10 14 11 15 25 16 27 17 12 18 24 19 23 20 13 21 21 22 14 23
REMARK SMILES IDX 15 24 20 25 22 26 16 27 19 28 17 29 18 30
REMARK H PARENT 18 31
REMARK Flexibility Score: inf
ROOT
ATOM      1  C   UNL     1     -21.876 -44.022  23.350  1.00  0.00     0.004 C 
ENDROOT
BRANCH   1   2
ATOM      2  C   UNL     1     -23.311 -44.571  23.504  1.00  0.00     0.004 C 
BRANCH   2   3
ATOM      3  C   UNL     1     -23.404 -45.961  24.202  1.00  0.00    -0.009 C 
BRANCH   3   4
ATOM      4  C   UNL     1     -24.837 -46.209  24.761  1.00  0.00     0.000 C 
ATOM      5  C   UNL     1     -25.522 -44.998  25.398  1.00  0.00     0.004 C 
ENDBRANCH   3   4
BRANCH   3   6
ATOM      6  C   UNL     1     -22.771 -47.143  23.384  1.00  0.00    -0.014 C 
ATOM      7  C   UNL     1     -21.231 -47.178  23.362  1.00  0.00     0.007 C 
ATOM      8  C   UNL     1     -23.331 -47.238  21.955  1.00  0.00     0.007 C 
ENDBRANCH   3   6
ENDBRANCH   2   3
ENDBRANCH   1   2
BRANCH   1   9
ATOM      9  C   UNL     1     -21.463 -42.998  24.462  1.00  0.00    -0.011 C 
ATOM     10  C   UNL     1     -20.912 -43.780  25.671  1.00  0.00     0.008 C 
BRANCH   9  11
ATOM     11  C   UNL     1     -20.428 -41.942  23.926  1.00  0.00    -0.002 C 
ATOM     12  C   UNL     1     -20.772 -41.460  22.518  1.00  0.00     0.005 C 
ATOM     13  C   UNL     1     -20.223 -40.609  24.731  1.00  0.00    -0.026 C 
ATOM     14  C   UNL     1     -19.889 -40.257  22.288  1.00  0.00     0.005 C 
ATOM     15  C   UNL     1     -19.730 -39.576  23.656  1.00  0.00    -0.001 C 
ATOM     16  C   UNL     1     -19.167 -40.788  25.861  1.00  0.00     0.007 C 
ATOM     17  C   UNL     1     -21.560 -40.091  25.334  1.00  0.00     0.012 C 
ATOM     18  C   UNL     1     -18.274 -39.063  23.875  1.00  0.00     0.000 C 
ATOM     19  C   UNL     1     -18.664 -39.446  26.408  1.00  0.00     0.005 C 
ATOM     20  C   UNL     1     -18.084 -38.502  25.309  1.00  0.00     0.003 C 
ATOM     21  C   UNL     1     -17.925 -37.968  22.849  1.00  0.00     0.031 C 
ATOM     22  C   UNL     1     -16.593 -38.051  25.558  1.00  0.00    -0.008 C 
ATOM     23  C   UNL     1     -16.641 -37.249  23.159  1.00  0.00    -0.027 C 
ATOM     24  C   UNL     1     -16.105 -37.170  24.397  1.00  0.00    -0.065 C 
ATOM     25  C   UNL     1     -16.535 -37.217  26.879  1.00  0.00     0.014 C 
ATOM     26  C   UNL     1     -15.635 -39.272  25.664  1.00  0.00     0.016 C 
ATOM     27  C   UNL     1     -14.858 -36.326  24.590  1.00  0.00     0.063 C 
ATOM     28  C   UNL     1     -15.217 -36.452  27.078  1.00  0.00     0.033 C 
ATOM     29  C   UNL     1     -14.940 -35.523  25.894  1.00  0.00     0.118 C 
BRANCH  29  30
ATOM     30  O   UNL     1     -13.729 -34.845  26.114  1.00  0.00    -0.393 OA
ATOM     31  H   UNL     1     -13.158 -35.447  26.660  1.00  0.00     0.210 HD
ENDBRANCH  29  30
ENDBRANCH   9  11
ENDBRANCH   1   9
TORSDOF 7
ENDMDL
MODEL 3
REMARK VINA RESULT:    -9.281      3.457      9.609
REMARK INTER + INTRA:         -13.916
REMARK INTER:                 -12.551
REMARK INTRA:                  -1.365
REMARK UNBOUND:                -1.108
REMARK SMILES CC[C@H](CC[C@@H](C)[C@H]1CC[C@@H]2[C@H]3CC=C4C[C@H](O)CC[C@@]4(C)[C@@H]3CC[C@@]21C)C(C)C
REMARK SMILES IDX 5 1 4 2 3 3 2 4 1 5 28 6 29 7 30 8 6 9 7 10 8 11 9 12 26 13
REMARK SMILES IDX 10 14 11 15 25 16 27 17 12 18 24 19 23 20 13 21 21 22 14 23
REMARK SMILES IDX 15 24 20 25 22 26 16 27 19 28 17 29 18 30
REMARK H PARENT 18 31
REMARK Flexibility Score: inf
ROOT
ATOM      1  C   UNL     1     -18.216 -38.052  26.496  1.00  0.00     0.004 C 
ENDROOT
BRANCH   1   2
ATOM      2  C   UNL     1     -17.371 -36.891  25.929  1.00  0.00     0.004 C 
BRANCH   2   3
ATOM      3  C   UNL     1     -16.264 -37.324  24.922  1.00  0.00    -0.009 C 
BRANCH   3   4
ATOM      4  C   UNL     1     -16.635 -36.900  23.470  1.00  0.00     0.000 C 
ATOM      5  C   UNL     1     -15.458 -36.702  22.512  1.00  0.00     0.004 C 
ENDBRANCH   3   4
BRANCH   3   6
ATOM      6  C   UNL     1     -14.799 -36.991  25.382  1.00  0.00    -0.014 C 
ATOM      7  C   UNL     1     -14.180 -37.986  26.381  1.00  0.00     0.007 C 
ATOM      8  C   UNL     1     -14.658 -35.550  25.902  1.00  0.00     0.007 C 
ENDBRANCH   3   6
ENDBRANCH   2   3
ENDBRANCH   1   2
BRANCH   1   9
ATOM      9  C   UNL     1     -18.062 -39.396  25.706  1.00  0.00    -0.011 C 
ATOM     10  C   UNL     1     -17.092 -40.313  26.478  1.00  0.00     0.008 C 
BRANCH   9  11
ATOM     11  C   UNL     1     -19.451 -40.090  25.459  1.00  0.00    -0.002 C 
ATOM     12  C   UNL     1     -20.586 -39.076  25.324  1.00  0.00     0.005 C 
ATOM     13  C   UNL     1     -19.624 -41.006  24.195  1.00  0.00    -0.026 C 
ATOM     14  C   UNL     1     -21.758 -39.867  24.792  1.00  0.00     0.005 C 
ATOM     15  C   UNL     1     -21.163 -40.952  23.882  1.00  0.00    -0.001 C 
ATOM     16  C   UNL     1     -19.164 -42.465  24.486  1.00  0.00     0.007 C 
ATOM     17  C   UNL     1     -18.853 -40.444  22.967  1.00  0.00     0.012 C 
ATOM     18  C   UNL     1     -21.904 -42.313  24.053  1.00  0.00     0.000 C 
ATOM     19  C   UNL     1     -19.664 -43.457  23.429  1.00  0.00     0.005 C 
ATOM     20  C   UNL     1     -21.213 -43.438  23.238  1.00  0.00     0.003 C 
ATOM     21  C   UNL     1     -23.374 -42.190  23.608  1.00  0.00     0.031 C 
ATOM     22  C   UNL     1     -21.916 -44.831  23.468  1.00  0.00    -0.008 C 
ATOM     23  C   UNL     1     -24.076 -43.515  23.501  1.00  0.00    -0.027 C 
ATOM     24  C   UNL     1     -23.438 -44.690  23.306  1.00  0.00    -0.065 C 
ATOM     25  C   UNL     1     -21.388 -45.842  22.398  1.00  0.00     0.014 C 
ATOM     26  C   UNL     1     -21.638 -45.383  24.896  1.00  0.00     0.016 C 
ATOM     27  C   UNL     1     -24.274 -45.942  23.113  1.00  0.00     0.063 C 
ATOM     28  C   UNL     1     -22.212 -47.136  22.302  1.00  0.00     0.033 C 
ATOM     29  C   UNL     1     -23.682 -46.828  22.010  1.00  0.00     0.118 C 
BRANCH  29  30
ATOM     30  O   UNL     1     -24.399 -48.035  21.932  1.00  0.00    -0.393 OA
ATOM     31  H   UNL     1     -24.994 -48.067  22.725  1.00  0.00     0.210 HD
ENDBRANCH  29  30
ENDBRANCH   9  11
ENDBRANCH   1   9
TORSDOF 7
ENDMDL
MODEL 4
REMARK VINA RESULT:    -8.727      1.419      2.515
REMARK INTER + INTRA:         -13.151
REMARK INTER:                 -12.601
REMARK INTRA:                  -0.550
REMARK UNBOUND:                -1.108
REMARK SMILES CC[C@H](CC[C@@H](C)[C@H]1CC[C@@H]2[C@H]3CC=C4C[C@H](O)CC[C@@]4(C)[C@@H]3CC[C@@]21C)C(C)C
REMARK SMILES IDX 5 1 4 2 3 3 2 4 1 5 28 6 29 7 30 8 6 9 7 10 8 11 9 12 26 13
REMARK SMILES IDX 10 14 11 15 25 16 27 17 12 18 24 19 23 20 13 21 21 22 14 23
REMARK SMILES IDX 15 24 20 25 22 26 16 27 19 28 17 29 18 30
REMARK H PARENT 18 31
REMARK Flexibility Score: inf
ROOT
ATOM      1  C   UNL     1     -22.001 -45.474  25.377  1.00  0.00     0.004 C 
ENDROOT
BRANCH   1   2
ATOM      2  C   UNL     1     -22.612 -46.583  24.492  1.00  0.00     0.004 C 
BRANCH   2   3
ATOM      3  C   UNL     1     -24.020 -46.252  23.914  1.00  0.00    -0.009 C 
BRANCH   3   4
ATOM      4  C   UNL     1     -24.208 -46.890  22.505  1.00  0.00     0.000 C 
ATOM      5  C   UNL     1     -22.931 -47.389  21.825  1.00  0.00     0.004 C 
ENDBRANCH   3   4
BRANCH   3   6
ATOM      6  C   UNL     1     -25.204 -46.459  24.926  1.00  0.00    -0.014 C 
ATOM      7  C   UNL     1     -26.380 -47.304  24.400  1.00  0.00     0.007 C 
ATOM      8  C   UNL     1     -25.715 -45.133  25.514  1.00  0.00     0.007 C 
ENDBRANCH   3   6
ENDBRANCH   2   3
ENDBRANCH   1   2
BRANCH   1   9
ATOM      9  C   UNL     1     -20.437 -45.409  25.325  1.00  0.00    -0.011 C 
ATOM     10  C   UNL     1     -19.914 -46.685  24.636  1.00  0.00     0.008 C 
BRANCH   9  11
ATOM     11  C   UNL     1     -19.931 -44.106  24.605  1.00  0.00    -0.002 C 
ATOM     12  C   UNL     1     -20.578 -43.917  23.234  1.00  0.00     0.005 C 
ATOM     13  C   UNL     1     -20.153 -42.720  25.310  1.00  0.00    -0.026 C 
ATOM     14  C   UNL     1     -20.235 -42.502  22.830  1.00  0.00     0.005 C 
ATOM     15  C   UNL     1     -20.197 -41.684  24.129  1.00  0.00    -0.001 C 
ATOM     16  C   UNL     1     -18.992 -42.394  26.295  1.00  0.00     0.007 C 
ATOM     17  C   UNL     1     -21.514 -42.667  26.060  1.00  0.00     0.012 C 
ATOM     18  C   UNL     1     -19.022 -40.659  24.126  1.00  0.00     0.000 C 
ATOM     19  C   UNL     1     -18.969 -40.916  26.704  1.00  0.00     0.005 C 
ATOM     20  C   UNL     1     -18.902 -39.935  25.492  1.00  0.00     0.003 C 
ATOM     21  C   UNL     1     -19.216 -39.615  23.010  1.00  0.00     0.031 C 
ATOM     22  C   UNL     1     -17.669 -38.952  25.517  1.00  0.00    -0.008 C 
ATOM     23  C   UNL     1     -18.266 -38.454  23.110  1.00  0.00    -0.027 C 
ATOM     24  C   UNL     1     -17.670 -38.068  24.260  1.00  0.00    -0.065 C 
ATOM     25  C   UNL     1     -17.784 -38.033  26.777  1.00  0.00     0.014 C 
ATOM     26  C   UNL     1     -16.320 -39.727  25.554  1.00  0.00     0.016 C 
ATOM     27  C   UNL     1     -16.813 -36.815  24.243  1.00  0.00     0.063 C 
ATOM     28  C   UNL     1     -16.832 -36.826  26.760  1.00  0.00     0.033 C 
ATOM     29  C   UNL     1     -17.049 -35.977  25.505  1.00  0.00     0.118 C 
BRANCH  29  30
ATOM     30  O   UNL     1     -16.160 -34.888  25.528  1.00  0.00    -0.393 OA
ATOM     31  H   UNL     1     -16.671 -34.095  25.220  1.00  0.00     0.210 HD
ENDBRANCH  29  30
ENDBRANCH   9  11
ENDBRANCH   1   9
TORSDOF 7
ENDMDL
MODEL 5
REMARK VINA RESULT:    -8.662      1.216      2.898
REMARK INTER + INTRA:         -13.061
REMARK INTER:                 -11.996
REMARK INTRA:                  -1.065
REMARK UNBOUND:                -1.108
REMARK SMILES CC[C@H](CC[C@@H](C)[C@H]1CC[C@@H]2[C@H]3CC=C4C[C@H](O)CC[C@@]4(C)[C@@H]3CC[C@@]21C)C(C)C
REMARK SMILES IDX 5 1 4 2 3 3 2 4 1 5 28 6 29 7 30 8 6 9 7 10 8 11 9 12 26 13
REMARK SMILES IDX 10 14 11 15 25 16 27 17 12 18 24 19 23 20 13 21 21 22 14 23
REMARK SMILES IDX 15 24 20 25 22 26 16 27 19 28 17 29 18 30
REMARK H PARENT 18 31
REMARK Flexibility Score: inf
ROOT
ATOM      1  C   UNL     1     -23.264 -43.886  23.644  1.00  0.00     0.004 C 
ENDROOT
BRANCH   1   2
ATOM      2  C   UNL     1     -22.516 -44.981  22.852  1.00  0.00     0.004 C 
BRANCH   2   3
ATOM      3  C   UNL     1     -22.486 -46.378  23.542  1.00  0.00    -0.009 C 
BRANCH   3   4
ATOM      4  C   UNL     1     -23.733 -47.222  23.143  1.00  0.00     0.000 C 
ATOM      5  C   UNL     1     -24.060 -47.263  21.649  1.00  0.00     0.004 C 
ENDBRANCH   3   4
BRANCH   3   6
ATOM      6  C   UNL     1     -21.102 -47.115  23.459  1.00  0.00    -0.014 C 
ATOM      7  C   UNL     1     -20.748 -47.991  24.676  1.00  0.00     0.007 C 
ATOM      8  C   UNL     1     -19.943 -46.158  23.131  1.00  0.00     0.007 C 
ENDBRANCH   3   6
ENDBRANCH   2   3
ENDBRANCH   1   2
BRANCH   1   9
ATOM      9  C   UNL     1     -22.752 -42.433  23.360  1.00  0.00    -0.011 C 
ATOM     10  C   UNL     1     -23.923 -41.451  23.556  1.00  0.00     0.008 C 
BRANCH   9  11
ATOM     11  C   UNL     1     -21.520 -42.063  24.265  1.00  0.00    -0.002 C 
ATOM     12  C   UNL     1     -20.908 -43.291  24.937  1.00  0.00     0.005 C 
ATOM     13  C   UNL     1     -20.284 -41.353  23.605  1.00  0.00    -0.026 C 
ATOM     14  C   UNL     1     -19.588 -42.817  25.496  1.00  0.00     0.005 C 
ATOM     15  C   UNL     1     -19.071 -41.747  24.522  1.00  0.00    -0.001 C 
ATOM     16  C   UNL     1     -20.475 -39.808  23.565  1.00  0.00     0.007 C 
ATOM     17  C   UNL     1     -20.011 -41.888  22.171  1.00  0.00     0.012 C 
ATOM     18  C   UNL     1     -18.418 -40.550  25.278  1.00  0.00     0.000 C 
ATOM     19  C   UNL     1     -19.162 -39.063  23.291  1.00  0.00     0.005 C 
ATOM     20  C   UNL     1     -18.024 -39.413  24.300  1.00  0.00     0.003 C 
ATOM     21  C   UNL     1     -17.169 -41.014  26.051  1.00  0.00     0.031 C 
ATOM     22  C   UNL     1     -17.432 -38.171  25.070  1.00  0.00    -0.008 C 
ATOM     23  C   UNL     1     -16.346 -39.877  26.589  1.00  0.00    -0.027 C 
ATOM     24  C   UNL     1     -16.359 -38.629  26.071  1.00  0.00    -0.065 C 
ATOM     25  C   UNL     1     -16.771 -37.205  24.033  1.00  0.00     0.014 C 
ATOM     26  C   UNL     1     -18.533 -37.412  25.867  1.00  0.00     0.016 C 
ATOM     27  C   UNL     1     -15.403 -37.599  26.645  1.00  0.00     0.063 C 
ATOM     28  C   UNL     1     -15.884 -36.120  24.665  1.00  0.00     0.033 C 
ATOM     29  C   UNL     1     -14.787 -36.747  25.528  1.00  0.00     0.118 C 
BRANCH  29  30
ATOM     30  O   UNL     1     -14.001 -35.724  26.088  1.00  0.00    -0.393 OA
ATOM     31  H   UNL     1     -14.624 -35.003  26.365  1.00  0.00     0.210 HD
ENDBRANCH  29  30
ENDBRANCH   9  11
ENDBRANCH   1   9
TORSDOF 7
ENDMDL
MODEL 6
REMARK VINA RESULT:    -8.650      3.340      9.821
REMARK INTER + INTRA:         -13.045
REMARK INTER:                 -12.668
REMARK INTRA:                  -0.377
REMARK UNBOUND:                -1.108
REMARK SMILES CC[C@H](CC[C@@H](C)[C@H]1CC[C@@H]2[C@H]3CC=C4C[C@H](O)CC[C@@]4(C)[C@@H]3CC[C@@]21C)C(C)C
REMARK SMILES IDX 5 1 4 2 3 3 2 4 1 5 28 6 29 7 30 8 6 9 7 10 8 11 9 12 26 13
REMARK SMILES IDX 10 14 11 15 25 16 27 17 12 18 24 19 23 20 13 21 21 22 14 23
REMARK SMILES IDX 15 24 20 25 22 26 16 27 19 28 17 29 18 30
REMARK H PARENT 18 31
REMARK Flexibility Score: inf
ROOT
ATOM      1  C   UNL     1     -16.062 -38.107  24.791  1.00  0.00     0.004 C 
ENDROOT
BRANCH   1   2
ATOM      2  C   UNL     1     -15.556 -36.746  24.263  1.00  0.00     0.004 C 
BRANCH   2   3
ATOM      3  C   UNL     1     -14.825 -35.868  25.322  1.00  0.00    -0.009 C 
BRANCH   3   4
ATOM      4  C   UNL     1     -15.806 -35.421  26.447  1.00  0.00     0.000 C 
ATOM      5  C   UNL     1     -17.246 -35.149  26.006  1.00  0.00     0.004 C 
ENDBRANCH   3   4
BRANCH   3   6
ATOM      6  C   UNL     1     -13.444 -36.443  25.802  1.00  0.00    -0.014 C 
ATOM      7  C   UNL     1     -13.504 -37.829  26.472  1.00  0.00     0.007 C 
ATOM      8  C   UNL     1     -12.668 -35.452  26.686  1.00  0.00     0.007 C 
ENDBRANCH   3   6
ENDBRANCH   2   3
ENDBRANCH   1   2
BRANCH   1   9
ATOM      9  C   UNL     1     -17.591 -38.352  24.556  1.00  0.00    -0.011 C 
ATOM     10  C   UNL     1     -17.937 -37.949  23.109  1.00  0.00     0.008 C 
BRANCH   9  11
ATOM     11  C   UNL     1     -17.996 -39.840  24.862  1.00  0.00    -0.002 C 
ATOM     12  C   UNL     1     -17.389 -40.346  26.170  1.00  0.00     0.005 C 
ATOM     13  C   UNL     1     -19.520 -40.194  25.004  1.00  0.00    -0.026 C 
ATOM     14  C   UNL     1     -18.112 -41.639  26.464  1.00  0.00     0.005 C 
ATOM     15  C   UNL     1     -19.542 -41.460  25.934  1.00  0.00    -0.001 C 
ATOM     16  C   UNL     1     -20.158 -40.508  23.618  1.00  0.00     0.007 C 
ATOM     17  C   UNL     1     -20.313 -39.055  25.705  1.00  0.00     0.012 C 
ATOM     18  C   UNL     1     -20.064 -42.757  25.245  1.00  0.00     0.000 C 
ATOM     19  C   UNL     1     -21.512 -41.218  23.746  1.00  0.00     0.005 C 
ATOM     20  C   UNL     1     -21.452 -42.529  24.590  1.00  0.00     0.003 C 
ATOM     21  C   UNL     1     -20.164 -43.909  26.263  1.00  0.00     0.031 C 
ATOM     22  C   UNL     1     -21.948 -43.818  23.829  1.00  0.00    -0.008 C 
ATOM     23  C   UNL     1     -20.899 -45.110  25.734  1.00  0.00    -0.027 C 
ATOM     24  C   UNL     1     -21.801 -45.055  24.729  1.00  0.00    -0.065 C 
ATOM     25  C   UNL     1     -23.459 -43.637  23.469  1.00  0.00     0.014 C 
ATOM     26  C   UNL     1     -21.126 -44.070  22.533  1.00  0.00     0.016 C 
ATOM     27  C   UNL     1     -22.547 -46.324  24.360  1.00  0.00     0.063 C 
ATOM     28  C   UNL     1     -24.153 -44.931  23.012  1.00  0.00     0.033 C 
ATOM     29  C   UNL     1     -24.024 -46.024  24.074  1.00  0.00     0.118 C 
BRANCH  29  30
ATOM     30  O   UNL     1     -24.667 -47.187  23.618  1.00  0.00    -0.393 OA
ATOM     31  H   UNL     1     -24.576 -47.197  22.630  1.00  0.00     0.210 HD
ENDBRANCH  29  30
ENDBRANCH   9  11
ENDBRANCH   1   9
TORSDOF 7
ENDMDL
MODEL 7
REMARK VINA RESULT:    -8.618      3.284      9.605
REMARK INTER + INTRA:         -13.001
REMARK INTER:                 -11.862
REMARK INTRA:                  -1.138
REMARK UNBOUND:                -1.108
REMARK SMILES CC[C@H](CC[C@@H](C)[C@H]1CC[C@@H]2[C@H]3CC=C4C[C@H](O)CC[C@@]4(C)[C@@H]3CC[C@@]21C)C(C)C
REMARK SMILES IDX 5 1 4 2 3 3 2 4 1 5 28 6 29 7 30 8 6 9 7 10 8 11 9 12 26 13
REMARK SMILES IDX 10 14 11 15 25 16 27 17 12 18 24 19 23 20 13 21 21 22 14 23
REMARK SMILES IDX 15 24 20 25 22 26 16 27 19 28 17 29 18 30
REMARK H PARENT 18 31
REMARK Flexibility Score: inf
ROOT
ATOM      1  C   UNL     1     -18.079 -37.470  26.136  1.00  0.00     0.004 C 
ENDROOT
BRANCH   1   2
ATOM      2  C   UNL     1     -17.174 -36.270  25.780  1.00  0.00     0.004 C 
BRANCH   2   3
ATOM      3  C   UNL     1     -15.742 -36.333  26.390  1.00  0.00    -0.009 C 
BRANCH   3   4
ATOM      4  C   UNL     1     -15.415 -37.769  26.898  1.00  0.00     0.000 C 
ATOM      5  C   UNL     1     -14.867 -38.738  25.848  1.00  0.00     0.004 C 
ENDBRANCH   3   4
BRANCH   3   6
ATOM      6  C   UNL     1     -14.633 -35.643  25.517  1.00  0.00    -0.014 C 
ATOM      7  C   UNL     1     -14.628 -36.036  24.027  1.00  0.00     0.007 C 
ATOM      8  C   UNL     1     -13.226 -35.801  26.118  1.00  0.00     0.007 C 
ENDBRANCH   3   6
ENDBRANCH   2   3
ENDBRANCH   1   2
BRANCH   1   9
ATOM      9  C   UNL     1     -18.609 -38.258  24.890  1.00  0.00    -0.011 C 
ATOM     10  C   UNL     1     -17.758 -37.872  23.665  1.00  0.00     0.008 C 
BRANCH   9  11
ATOM     11  C   UNL     1     -18.606 -39.812  25.139  1.00  0.00    -0.002 C 
ATOM     12  C   UNL     1     -18.140 -40.169  26.549  1.00  0.00     0.005 C 
ATOM     13  C   UNL     1     -19.953 -40.604  24.986  1.00  0.00    -0.026 C 
ATOM     14  C   UNL     1     -18.488 -41.628  26.720  1.00  0.00     0.005 C 
ATOM     15  C   UNL     1     -19.777 -41.857  25.917  1.00  0.00    -0.001 C 
ATOM     16  C   UNL     1     -20.191 -41.034  23.508  1.00  0.00     0.007 C 
ATOM     17  C   UNL     1     -21.168 -39.778  25.497  1.00  0.00     0.012 C 
ATOM     18  C   UNL     1     -19.749 -43.221  25.163  1.00  0.00     0.000 C 
ATOM     19  C   UNL     1     -21.271 -42.116  23.381  1.00  0.00     0.005 C 
ATOM     20  C   UNL     1     -20.989 -43.385  24.245  1.00  0.00     0.003 C 
ATOM     21  C   UNL     1     -19.697 -44.392  26.163  1.00  0.00     0.031 C 
ATOM     22  C   UNL     1     -20.925 -44.730  23.425  1.00  0.00    -0.008 C 
ATOM     23  C   UNL     1     -19.926 -45.733  25.522  1.00  0.00    -0.027 C 
ATOM     24  C   UNL     1     -20.593 -45.905  24.359  1.00  0.00    -0.065 C 
ATOM     25  C   UNL     1     -22.323 -44.988  22.773  1.00  0.00     0.014 C 
ATOM     26  C   UNL     1     -19.831 -44.676  22.320  1.00  0.00     0.016 C 
ATOM     27  C   UNL     1     -20.844 -47.322  23.875  1.00  0.00     0.063 C 
ATOM     28  C   UNL     1     -22.500 -46.408  22.213  1.00  0.00     0.033 C 
ATOM     29  C   UNL     1     -22.259 -47.458  23.300  1.00  0.00     0.118 C 
BRANCH  29  30
ATOM     30  O   UNL     1     -22.429 -48.739  22.749  1.00  0.00    -0.393 OA
ATOM     31  H   UNL     1     -21.546 -49.191  22.797  1.00  0.00     0.210 HD
ENDBRANCH  29  30
ENDBRANCH   9  11
ENDBRANCH   1   9
TORSDOF 7
ENDMDL
