MODEL 1
REMARK VINA RESULT:    -6.340      0.000      0.000
REMARK INTER + INTRA:         -13.395
REMARK INTER:                 -11.899
REMARK INTRA:                  -1.496
REMARK UNBOUND:                -1.496
REMARK SMILES CCCCCCCCC=CCCCCCCCC(=O)[O-]
REMARK SMILES IDX 10 1 9 2 11 3 12 4 13 5 14 6 15 7 16 8 17 9 18 10 19 11
REMARK SMILES IDX 20 12 8 13 7 14 6 15 5 16 4 17 3 18 2 19 1 20
REMARK H PARENT
REMARK Flexibility Score: inf
ROOT
ATOM      1  C   UNL     1      -1.627  23.733  44.826  1.00  0.00    -0.031 C 
ATOM      2  C   UNL     1      -1.434  24.979  45.298  1.00  0.00    -0.031 C 
ENDROOT
BRANCH   1   3
ATOM      3  C   UNL     1      -2.134  22.567  45.647  1.00  0.00     0.027 C 
BRANCH   3   4
ATOM      4  C   UNL     1      -1.003  21.908  46.455  1.00  0.00     0.004 C 
BRANCH   4   5
ATOM      5  C   UNL     1      -0.186  20.883  45.644  1.00  0.00     0.000 C 
BRANCH   5   6
ATOM      6  C   UNL     1       0.574  19.850  46.502  1.00  0.00     0.000 C 
BRANCH   6   7
ATOM      7  C   UNL     1       0.086  19.720  47.958  1.00  0.00     0.000 C 
BRANCH   7   8
ATOM      8  C   UNL     1       1.101  19.038  48.898  1.00  0.00     0.006 C 
BRANCH   8   9
ATOM      9  C   UNL     1       2.542  19.164  48.387  1.00  0.00     0.053 C 
BRANCH   9  10
ATOM     10  C   UNL     1       3.511  19.038  49.520  1.00  0.00     0.041 C 
ATOM     11  O   UNL     1       3.555  17.980  50.202  1.00  0.00    -0.550 OA
ATOM     12  O   UNL     1       4.326  20.110  49.858  1.00  0.00    -0.550 OA
ENDBRANCH   9  10
ENDBRANCH   8   9
ENDBRANCH   7   8
ENDBRANCH   6   7
ENDBRANCH   5   6
ENDBRANCH   4   5
ENDBRANCH   3   4
ENDBRANCH   1   3
BRANCH   2  13
ATOM     13  C   UNL     1      -1.593  25.378  46.743  1.00  0.00     0.027 C 
BRANCH  13  14
ATOM     14  C   UNL     1      -0.233  25.747  47.362  1.00  0.00     0.004 C 
BRANCH  14  15
ATOM     15  C   UNL     1      -0.323  26.034  48.867  1.00  0.00     0.000 C 
BRANCH  15  16
ATOM     16  C   UNL     1       1.003  25.768  49.601  1.00  0.00     0.000 C 
BRANCH  16  17
ATOM     17  C   UNL     1       0.865  24.702  50.701  1.00  0.00    -0.000 C 
BRANCH  17  18
ATOM     18  C   UNL     1      -0.150  23.606  50.340  1.00  0.00    -0.000 C 
BRANCH  18  19
ATOM     19  C   UNL     1       0.193  22.290  51.046  1.00  0.00    -0.003 C 
ATOM     20  C   UNL     1       1.591  22.339  51.654  1.00  0.00     0.004 C 
ENDBRANCH  18  19
ENDBRANCH  17  18
ENDBRANCH  16  17
ENDBRANCH  15  16
ENDBRANCH  14  15
ENDBRANCH  13  14
ENDBRANCH   2  13
TORSDOF 15
ENDMDL
MODEL 2
REMARK VINA RESULT:    -6.207      2.910      6.750
REMARK INTER + INTRA:         -13.146
REMARK INTER:                 -11.808
REMARK INTRA:                  -1.337
REMARK UNBOUND:                -1.496
REMARK SMILES CCCCCCCCC=CCCCCCCCC(=O)[O-]
REMARK SMILES IDX 10 1 9 2 11 3 12 4 13 5 14 6 15 7 16 8 17 9 18 10 19 11
REMARK SMILES IDX 20 12 8 13 7 14 6 15 5 16 4 17 3 18 2 19 1 20
REMARK H PARENT
REMARK Flexibility Score: inf
ROOT
ATOM      1  C   UNL     1       0.956  21.959  51.902  1.00  0.00    -0.031 C 
ATOM      2  C   UNL     1      -0.102  21.567  51.166  1.00  0.00    -0.031 C 
ENDROOT
BRANCH   1   3
ATOM      3  C   UNL     1       2.093  22.818  51.391  1.00  0.00     0.027 C 
BRANCH   3   4
ATOM      4  C   UNL     1       1.867  24.305  51.711  1.00  0.00     0.004 C 
BRANCH   4   5
ATOM      5  C   UNL     1       1.830  25.204  50.460  1.00  0.00     0.000 C 
BRANCH   5   6
ATOM      6  C   UNL     1       0.411  25.588  49.991  1.00  0.00     0.000 C 
BRANCH   6   7
ATOM      7  C   UNL     1       0.268  25.852  48.479  1.00  0.00     0.000 C 
BRANCH   7   8
ATOM      8  C   UNL     1      -0.613  24.820  47.746  1.00  0.00     0.006 C 
BRANCH   8   9
ATOM      9  C   UNL     1      -1.451  25.460  46.632  1.00  0.00     0.053 C 
BRANCH   9  10
ATOM     10  C   UNL     1      -1.443  24.596  45.410  1.00  0.00     0.041 C 
ATOM     11  O   UNL     1      -1.226  25.103  44.277  1.00  0.00    -0.550 OA
ATOM     12  O   UNL     1      -1.730  23.241  45.516  1.00  0.00    -0.550 OA
ENDBRANCH   9  10
ENDBRANCH   8   9
ENDBRANCH   7   8
ENDBRANCH   6   7
ENDBRANCH   5   6
ENDBRANCH   4   5
ENDBRANCH   3   4
ENDBRANCH   1   3
BRANCH   2  13
ATOM     13  C   UNL     1      -0.263  21.837  49.692  1.00  0.00     0.027 C 
BRANCH  13  14
ATOM     14  C   UNL     1      -0.591  20.540  48.931  1.00  0.00     0.004 C 
BRANCH  14  15
ATOM     15  C   UNL     1      -0.247  20.624  47.437  1.00  0.00     0.000 C 
BRANCH  15  16
ATOM     16  C   UNL     1       0.541  19.399  46.942  1.00  0.00     0.000 C 
BRANCH  16  17
ATOM     17  C   UNL     1       1.988  19.379  47.462  1.00  0.00    -0.000 C 
BRANCH  17  18
ATOM     18  C   UNL     1       2.070  19.142  48.978  1.00  0.00    -0.000 C 
BRANCH  18  19
ATOM     19  C   UNL     1       3.505  18.813  49.403  1.00  0.00    -0.003 C 
ATOM     20  C   UNL     1       4.216  20.050  49.947  1.00  0.00     0.004 C 
ENDBRANCH  18  19
ENDBRANCH  17  18
ENDBRANCH  16  17
ENDBRANCH  15  16
ENDBRANCH  14  15
ENDBRANCH  13  14
ENDBRANCH   2  13
TORSDOF 15
ENDMDL
MODEL 3
REMARK VINA RESULT:    -6.202      1.567      4.930
REMARK INTER + INTRA:         -13.136
REMARK INTER:                 -11.916
REMARK INTRA:                  -1.219
REMARK UNBOUND:                -1.496
REMARK SMILES CCCCCCCCC=CCCCCCCCC(=O)[O-]
REMARK SMILES IDX 10 1 9 2 11 3 12 4 13 5 14 6 15 7 16 8 17 9 18 10 19 11
REMARK SMILES IDX 20 12 8 13 7 14 6 15 5 16 4 17 3 18 2 19 1 20
REMARK H PARENT
REMARK Flexibility Score: inf
ROOT
ATOM      1  C   UNL     1      -1.582  24.563  45.009  1.00  0.00    -0.031 C 
ATOM      2  C   UNL     1      -1.706  23.223  44.990  1.00  0.00    -0.031 C 
ENDROOT
BRANCH   1   3
ATOM      3  C   UNL     1      -0.906  25.352  46.110  1.00  0.00     0.027 C 
BRANCH   3   4
ATOM      4  C   UNL     1      -1.895  25.734  47.223  1.00  0.00     0.004 C 
BRANCH   4   5
ATOM      5  C   UNL     1      -1.260  25.759  48.628  1.00  0.00     0.000 C 
BRANCH   5   6
ATOM      6  C   UNL     1       0.279  25.651  48.634  1.00  0.00     0.000 C 
BRANCH   6   7
ATOM      7  C   UNL     1       0.946  25.851  50.009  1.00  0.00     0.000 C 
BRANCH   7   8
ATOM      8  C   UNL     1       1.213  24.535  50.770  1.00  0.00     0.006 C 
BRANCH   8   9
ATOM      9  C   UNL     1       0.105  23.499  50.546  1.00  0.00     0.053 C 
BRANCH   9  10
ATOM     10  C   UNL     1       0.432  22.223  51.255  1.00  0.00     0.041 C 
ATOM     11  O   UNL     1       1.632  21.878  51.417  1.00  0.00    -0.550 OA
ATOM     12  O   UNL     1      -0.590  21.387  51.687  1.00  0.00    -0.550 OA
ENDBRANCH   9  10
ENDBRANCH   8   9
ENDBRANCH   7   8
ENDBRANCH   6   7
ENDBRANCH   5   6
ENDBRANCH   4   5
ENDBRANCH   3   4
ENDBRANCH   1   3
BRANCH   2  13
ATOM     13  C   UNL     1      -1.284  22.310  46.113  1.00  0.00     0.027 C 
BRANCH  13  14
ATOM     14  C   UNL     1      -0.560  21.068  45.566  1.00  0.00     0.004 C 
BRANCH  14  15
ATOM     15  C   UNL     1       0.423  20.459  46.576  1.00  0.00     0.000 C 
BRANCH  15  16
ATOM     16  C   UNL     1      -0.261  20.041  47.889  1.00  0.00     0.000 C 
BRANCH  16  17
ATOM     17  C   UNL     1       0.714  19.380  48.877  1.00  0.00    -0.000 C 
BRANCH  17  18
ATOM     18  C   UNL     1       2.163  19.370  48.364  1.00  0.00    -0.000 C 
BRANCH  18  19
ATOM     19  C   UNL     1       3.126  18.886  49.453  1.00  0.00    -0.003 C 
ATOM     20  C   UNL     1       4.159  19.957  49.791  1.00  0.00     0.004 C 
ENDBRANCH  18  19
ENDBRANCH  17  18
ENDBRANCH  16  17
ENDBRANCH  15  16
ENDBRANCH  14  15
ENDBRANCH  13  14
ENDBRANCH   2  13
TORSDOF 15
ENDMDL
MODEL 4
REMARK VINA RESULT:    -6.006      2.702      5.767
REMARK INTER + INTRA:         -12.768
REMARK INTER:                 -11.179
REMARK INTRA:                  -1.589
REMARK UNBOUND:                -1.496
REMARK SMILES CCCCCCCCC=CCCCCCCCC(=O)[O-]
REMARK SMILES IDX 10 1 9 2 11 3 12 4 13 5 14 6 15 7 16 8 17 9 18 10 19 11
REMARK SMILES IDX 20 12 8 13 7 14 6 15 5 16 4 17 3 18 2 19 1 20
REMARK H PARENT
REMARK Flexibility Score: inf
ROOT
ATOM      1  C   UNL     1       0.965  19.952  46.702  1.00  0.00    -0.031 C 
ATOM      2  C   UNL     1       2.072  19.370  47.202  1.00  0.00    -0.031 C 
ENDROOT
BRANCH   1   3
ATOM      3  C   UNL     1      -0.260  20.317  47.513  1.00  0.00     0.027 C 
BRANCH   3   4
ATOM      4  C   UNL     1      -0.765  21.729  47.172  1.00  0.00     0.004 C 
BRANCH   4   5
ATOM      5  C   UNL     1      -1.147  21.903  45.689  1.00  0.00     0.000 C 
BRANCH   5   6
ATOM      6  C   UNL     1      -2.120  23.067  45.412  1.00  0.00     0.000 C 
BRANCH   6   7
ATOM      7  C   UNL     1      -1.527  24.242  44.610  1.00  0.00     0.000 C 
BRANCH   7   8
ATOM      8  C   UNL     1      -0.990  25.390  45.489  1.00  0.00     0.006 C 
BRANCH   8   9
ATOM      9  C   UNL     1      -1.520  25.318  46.926  1.00  0.00     0.053 C 
BRANCH   9  10
ATOM     10  C   UNL     1      -0.434  25.648  47.901  1.00  0.00     0.041 C 
ATOM     11  O   UNL     1       0.659  26.125  47.495  1.00  0.00    -0.550 OA
ATOM     12  O   UNL     1      -0.609  25.377  49.252  1.00  0.00    -0.550 OA
ENDBRANCH   9  10
ENDBRANCH   8   9
ENDBRANCH   7   8
ENDBRANCH   6   7
ENDBRANCH   5   6
ENDBRANCH   4   5
ENDBRANCH   3   4
ENDBRANCH   1   3
BRANCH   2  13
ATOM     13  C   UNL     1       2.219  18.897  48.626  1.00  0.00     0.027 C 
BRANCH  13  14
ATOM     14  C   UNL     1       3.578  19.324  49.207  1.00  0.00     0.004 C 
BRANCH  14  15
ATOM     15  C   UNL     1       3.453  20.440  50.254  1.00  0.00     0.000 C 
BRANCH  15  16
ATOM     16  C   UNL     1       1.990  20.761  50.605  1.00  0.00     0.000 C 
BRANCH  16  17
ATOM     17  C   UNL     1       1.861  21.976  51.539  1.00  0.00    -0.000 C 
BRANCH  17  18
ATOM     18  C   UNL     1       0.493  22.668  51.425  1.00  0.00    -0.000 C 
BRANCH  18  19
ATOM     19  C   UNL     1      -0.641  21.638  51.409  1.00  0.00    -0.003 C 
ATOM     20  C   UNL     1      -1.065  21.262  52.825  1.00  0.00     0.004 C 
ENDBRANCH  18  19
ENDBRANCH  17  18
ENDBRANCH  16  17
ENDBRANCH  15  16
ENDBRANCH  14  15
ENDBRANCH  13  14
ENDBRANCH   2  13
TORSDOF 15
ENDMDL
MODEL 5
REMARK VINA RESULT:    -5.983      2.052      4.158
REMARK INTER + INTRA:         -12.726
REMARK INTER:                 -10.907
REMARK INTRA:                  -1.819
REMARK UNBOUND:                -1.496
REMARK SMILES CCCCCCCCC=CCCCCCCCC(=O)[O-]
REMARK SMILES IDX 10 1 9 2 11 3 12 4 13 5 14 6 15 7 16 8 17 9 18 10 19 11
REMARK SMILES IDX 20 12 8 13 7 14 6 15 5 16 4 17 3 18 2 19 1 20
REMARK H PARENT
REMARK Flexibility Score: inf
ROOT
ATOM      1  C   UNL     1      -0.245  20.585  47.614  1.00  0.00    -0.031 C 
ATOM      2  C   UNL     1      -0.869  21.651  47.077  1.00  0.00    -0.031 C 
ENDROOT
BRANCH   1   3
ATOM      3  C   UNL     1       0.513  19.540  46.823  1.00  0.00     0.027 C 
BRANCH   3   4
ATOM      4  C   UNL     1       1.955  19.379  47.334  1.00  0.00     0.004 C 
BRANCH   4   5
ATOM      5  C   UNL     1       2.038  18.932  48.807  1.00  0.00     0.000 C 
BRANCH   5   6
ATOM      6  C   UNL     1       3.314  19.392  49.542  1.00  0.00     0.000 C 
BRANCH   6   7
ATOM      7  C   UNL     1       3.083  20.380  50.702  1.00  0.00     0.000 C 
BRANCH   7   8
ATOM      8  C   UNL     1       1.840  21.275  50.521  1.00  0.00     0.006 C 
BRANCH   8   9
ATOM      9  C   UNL     1       1.275  21.762  51.861  1.00  0.00     0.053 C 
BRANCH   9  10
ATOM     10  C   UNL     1      -0.190  21.467  51.948  1.00  0.00     0.041 C 
ATOM     11  O   UNL     1      -0.901  21.475  50.909  1.00  0.00    -0.550 OA
ATOM     12  O   UNL     1      -0.780  21.241  53.186  1.00  0.00    -0.550 OA
ENDBRANCH   9  10
ENDBRANCH   8   9
ENDBRANCH   7   8
ENDBRANCH   6   7
ENDBRANCH   5   6
ENDBRANCH   4   5
ENDBRANCH   3   4
ENDBRANCH   1   3
BRANCH   2  13
ATOM     13  C   UNL     1      -0.998  21.909  45.598  1.00  0.00     0.027 C 
BRANCH  13  14
ATOM     14  C   UNL     1      -2.039  23.008  45.323  1.00  0.00     0.004 C 
BRANCH  14  15
ATOM     15  C   UNL     1      -1.422  24.414  45.281  1.00  0.00     0.000 C 
BRANCH  15  16
ATOM     16  C   UNL     1      -1.684  25.214  46.569  1.00  0.00     0.000 C 
BRANCH  16  17
ATOM     17  C   UNL     1      -0.389  25.557  47.323  1.00  0.00    -0.000 C 
BRANCH  17  18
ATOM     18  C   UNL     1      -0.618  25.763  48.829  1.00  0.00    -0.000 C 
BRANCH  18  19
ATOM     19  C   UNL     1       0.076  24.665  49.642  1.00  0.00    -0.003 C 
ATOM     20  C   UNL     1       1.267  25.220  50.416  1.00  0.00     0.004 C 
ENDBRANCH  18  19
ENDBRANCH  17  18
ENDBRANCH  16  17
ENDBRANCH  15  16
ENDBRANCH  14  15
ENDBRANCH  13  14
ENDBRANCH   2  13
TORSDOF 15
ENDMDL
MODEL 6
REMARK VINA RESULT:    -5.858      3.027      5.967
REMARK INTER + INTRA:         -12.490
REMARK INTER:                 -10.992
REMARK INTRA:                  -1.498
REMARK UNBOUND:                -1.496
REMARK SMILES CCCCCCCCC=CCCCCCCCC(=O)[O-]
REMARK SMILES IDX 10 1 9 2 11 3 12 4 13 5 14 6 15 7 16 8 17 9 18 10 19 11
REMARK SMILES IDX 20 12 8 13 7 14 6 15 5 16 4 17 3 18 2 19 1 20
REMARK H PARENT
REMARK Flexibility Score: inf
ROOT
ATOM      1  C   UNL     1       2.326  18.646  48.635  1.00  0.00    -0.031 C 
ATOM      2  C   UNL     1       3.053  18.986  49.717  1.00  0.00    -0.031 C 
ENDROOT
BRANCH   1   3
ATOM      3  C   UNL     1       1.951  19.591  47.515  1.00  0.00     0.027 C 
BRANCH   3   4
ATOM      4  C   UNL     1       0.504  19.366  47.044  1.00  0.00     0.004 C 
BRANCH   4   5
ATOM      5  C   UNL     1      -0.527  20.234  47.794  1.00  0.00     0.000 C 
BRANCH   5   6
ATOM      6  C   UNL     1      -0.608  21.695  47.306  1.00  0.00     0.000 C 
BRANCH   6   7
ATOM      7  C   UNL     1      -0.926  21.870  45.808  1.00  0.00     0.000 C 
BRANCH   7   8
ATOM      8  C   UNL     1      -2.128  22.796  45.530  1.00  0.00     0.006 C 
BRANCH   8   9
ATOM      9  C   UNL     1      -1.706  24.112  44.865  1.00  0.00     0.053 C 
BRANCH   9  10
ATOM     10  C   UNL     1      -1.360  25.133  45.903  1.00  0.00     0.041 C 
ATOM     11  O   UNL     1      -2.129  25.331  46.880  1.00  0.00    -0.550 OA
ATOM     12  O   UNL     1      -0.214  25.906  45.760  1.00  0.00    -0.550 OA
ENDBRANCH   9  10
ENDBRANCH   8   9
ENDBRANCH   7   8
ENDBRANCH   6   7
ENDBRANCH   5   6
ENDBRANCH   4   5
ENDBRANCH   3   4
ENDBRANCH   1   3
BRANCH   2  13
ATOM     13  C   UNL     1       3.514  20.386  50.029  1.00  0.00     0.027 C 
BRANCH  13  14
ATOM     14  C   UNL     1       2.600  21.041  51.079  1.00  0.00     0.004 C 
BRANCH  14  15
ATOM     15  C   UNL     1       1.162  21.236  50.578  1.00  0.00     0.000 C 
BRANCH  15  16
ATOM     16  C   UNL     1       0.346  22.186  51.473  1.00  0.00     0.000 C 
BRANCH  16  17
ATOM     17  C   UNL     1       0.296  23.619  50.919  1.00  0.00    -0.000 C 
BRANCH  17  18
ATOM     18  C   UNL     1       1.580  24.412  51.211  1.00  0.00    -0.000 C 
BRANCH  18  19
ATOM     19  C   UNL     1       1.693  25.629  50.286  1.00  0.00    -0.003 C 
ATOM     20  C   UNL     1       0.599  25.616  49.223  1.00  0.00     0.004 C 
ENDBRANCH  18  19
ENDBRANCH  17  18
ENDBRANCH  16  17
ENDBRANCH  15  16
ENDBRANCH  14  15
ENDBRANCH  13  14
ENDBRANCH   2  13
TORSDOF 15
ENDMDL
MODEL 7
REMARK VINA RESULT:    -5.819      2.167      5.786
REMARK INTER + INTRA:         -12.417
REMARK INTER:                 -10.655
REMARK INTRA:                  -1.762
REMARK UNBOUND:                -1.496
REMARK SMILES CCCCCCCCC=CCCCCCCCC(=O)[O-]
REMARK SMILES IDX 10 1 9 2 11 3 12 4 13 5 14 6 15 7 16 8 17 9 18 10 19 11
REMARK SMILES IDX 20 12 8 13 7 14 6 15 5 16 4 17 3 18 2 19 1 20
REMARK H PARENT
REMARK Flexibility Score: inf
ROOT
ATOM      1  C   UNL     1       2.370  19.352  47.716  1.00  0.00    -0.031 C 
ATOM      2  C   UNL     1       1.351  19.695  46.905  1.00  0.00    -0.031 C 
ENDROOT
BRANCH   1   3
ATOM      3  C   UNL     1       2.219  18.939  49.164  1.00  0.00     0.027 C 
BRANCH   3   4
ATOM      4  C   UNL     1       3.186  19.711  50.077  1.00  0.00     0.004 C 
BRANCH   4   5
ATOM      5  C   UNL     1       2.636  21.074  50.542  1.00  0.00     0.000 C 
BRANCH   5   6
ATOM      6  C   UNL     1       1.271  21.001  51.256  1.00  0.00     0.000 C 
BRANCH   6   7
ATOM      7  C   UNL     1       0.104  21.678  50.511  1.00  0.00     0.000 C 
BRANCH   7   8
ATOM      8  C   UNL     1      -0.300  23.047  51.096  1.00  0.00     0.006 C 
BRANCH   8   9
ATOM      9  C   UNL     1       0.179  24.215  50.224  1.00  0.00     0.053 C 
BRANCH   9  10
ATOM     10  C   UNL     1       1.456  24.779  50.763  1.00  0.00     0.041 C 
ATOM     11  O   UNL     1       1.908  24.381  51.869  1.00  0.00    -0.550 OA
ATOM     12  O   UNL     1       2.117  25.785  50.069  1.00  0.00    -0.550 OA
ENDBRANCH   9  10
ENDBRANCH   8   9
ENDBRANCH   7   8
ENDBRANCH   6   7
ENDBRANCH   5   6
ENDBRANCH   4   5
ENDBRANCH   3   4
ENDBRANCH   1   3
BRANCH   2  13
ATOM     13  C   UNL     1      -0.085  19.824  47.346  1.00  0.00     0.027 C 
BRANCH  13  14
ATOM     14  C   UNL     1      -0.574  21.275  47.202  1.00  0.00     0.004 C 
BRANCH  14  15
ATOM     15  C   UNL     1      -0.898  21.653  45.750  1.00  0.00     0.000 C 
BRANCH  15  16
ATOM     16  C   UNL     1      -1.989  22.734  45.649  1.00  0.00     0.000 C 
BRANCH  16  17
ATOM     17  C   UNL     1      -1.653  23.816  44.610  1.00  0.00    -0.000 C 
BRANCH  17  18
ATOM     18  C   UNL     1      -1.227  25.145  45.254  1.00  0.00    -0.000 C 
BRANCH  18  19
ATOM     19  C   UNL     1      -1.122  25.005  46.777  1.00  0.00    -0.003 C 
ATOM     20  C   UNL     1      -2.218  25.799  47.480  1.00  0.00     0.004 C 
ENDBRANCH  18  19
ENDBRANCH  17  18
ENDBRANCH  16  17
ENDBRANCH  15  16
ENDBRANCH  14  15
ENDBRANCH  13  14
ENDBRANCH   2  13
TORSDOF 15
ENDMDL
MODEL 8
REMARK VINA RESULT:    -5.776      0.862      4.157
REMARK INTER + INTRA:         -12.337
REMARK INTER:                 -10.799
REMARK INTRA:                  -1.538
REMARK UNBOUND:                -1.496
REMARK SMILES CCCCCCCCC=CCCCCCCCC(=O)[O-]
REMARK SMILES IDX 10 1 9 2 11 3 12 4 13 5 14 6 15 7 16 8 17 9 18 10 19 11
REMARK SMILES IDX 20 12 8 13 7 14 6 15 5 16 4 17 3 18 2 19 1 20
REMARK H PARENT
REMARK Flexibility Score: inf
ROOT
ATOM      1  C   UNL     1       1.153  21.622  51.434  1.00  0.00    -0.031 C 
ATOM      2  C   UNL     1       1.676  22.855  51.575  1.00  0.00    -0.031 C 
ENDROOT
BRANCH   1   3
ATOM      3  C   UNL     1      -0.203  21.323  50.834  1.00  0.00     0.027 C 
BRANCH   3   4
ATOM      4  C   UNL     1      -0.260  21.700  49.344  1.00  0.00     0.004 C 
BRANCH   4   5
ATOM      5  C   UNL     1      -0.778  20.562  48.442  1.00  0.00     0.000 C 
BRANCH   5   6
ATOM      6  C   UNL     1      -0.238  20.597  46.998  1.00  0.00     0.000 C 
BRANCH   6   7
ATOM      7  C   UNL     1       0.855  19.557  46.681  1.00  0.00     0.000 C 
BRANCH   7   8
ATOM      8  C   UNL     1       1.558  18.990  47.932  1.00  0.00     0.006 C 
BRANCH   8   9
ATOM      9  C   UNL     1       2.875  19.714  48.237  1.00  0.00     0.053 C 
BRANCH   9  10
ATOM     10  C   UNL     1       3.467  19.205  49.513  1.00  0.00     0.041 C 
ATOM     11  O   UNL     1       4.200  19.952  50.214  1.00  0.00    -0.550 OA
ATOM     12  O   UNL     1       3.256  17.888  49.900  1.00  0.00    -0.550 OA
ENDBRANCH   9  10
ENDBRANCH   8   9
ENDBRANCH   7   8
ENDBRANCH   6   7
ENDBRANCH   5   6
ENDBRANCH   4   5
ENDBRANCH   3   4
ENDBRANCH   1   3
BRANCH   2  13
ATOM     13  C   UNL     1       0.946  24.133  51.253  1.00  0.00     0.027 C 
BRANCH  13  14
ATOM     14  C   UNL     1       1.906  25.176  50.655  1.00  0.00     0.004 C 
BRANCH  14  15
ATOM     15  C   UNL     1       1.216  26.116  49.656  1.00  0.00     0.000 C 
BRANCH  15  16
ATOM     16  C   UNL     1      -0.072  25.513  49.068  1.00  0.00     0.000 C 
BRANCH  16  17
ATOM     17  C   UNL     1      -0.198  25.753  47.555  1.00  0.00    -0.000 C 
BRANCH  17  18
ATOM     18  C   UNL     1      -1.487  25.158  46.966  1.00  0.00    -0.000 C 
BRANCH  18  19
ATOM     19  C   UNL     1      -1.322  24.872  45.469  1.00  0.00    -0.003 C 
ATOM     20  C   UNL     1      -1.714  23.436  45.136  1.00  0.00     0.004 C 
ENDBRANCH  18  19
ENDBRANCH  17  18
ENDBRANCH  16  17
ENDBRANCH  15  16
ENDBRANCH  14  15
ENDBRANCH  13  14
ENDBRANCH   2  13
TORSDOF 15
ENDMDL
MODEL 9
REMARK VINA RESULT:    -5.729      2.506      5.574
REMARK INTER + INTRA:         -12.248
REMARK INTER:                 -10.382
REMARK INTRA:                  -1.866
REMARK UNBOUND:                -1.496
REMARK SMILES CCCCCCCCC=CCCCCCCCC(=O)[O-]
REMARK SMILES IDX 10 1 9 2 11 3 12 4 13 5 14 6 15 7 16 8 17 9 18 10 19 11
REMARK SMILES IDX 20 12 8 13 7 14 6 15 5 16 4 17 3 18 2 19 1 20
REMARK H PARENT
REMARK Flexibility Score: inf
ROOT
ATOM      1  C   UNL     1       1.994  19.312  47.406  1.00  0.00    -0.031 C 
ATOM      2  C   UNL     1       0.912  19.897  46.857  1.00  0.00    -0.031 C 
ENDROOT
BRANCH   1   3
ATOM      3  C   UNL     1       2.120  18.924  48.864  1.00  0.00     0.027 C 
BRANCH   3   4
ATOM      4  C   UNL     1       3.421  19.462  49.483  1.00  0.00     0.004 C 
BRANCH   4   5
ATOM      5  C   UNL     1       3.189  20.550  50.549  1.00  0.00     0.000 C 
BRANCH   5   6
ATOM      6  C   UNL     1       1.704  20.861  50.832  1.00  0.00     0.000 C 
BRANCH   6   7
ATOM      7  C   UNL     1       1.423  22.273  51.382  1.00  0.00     0.000 C 
BRANCH   7   8
ATOM      8  C   UNL     1      -0.078  22.611  51.495  1.00  0.00     0.006 C 
BRANCH   8   9
ATOM      9  C   UNL     1      -0.948  21.354  51.623  1.00  0.00     0.053 C 
BRANCH   9  10
ATOM     10  C   UNL     1      -1.481  21.227  53.016  1.00  0.00     0.041 C 
ATOM     11  O   UNL     1      -0.989  20.381  53.808  1.00  0.00    -0.550 OA
ATOM     12  O   UNL     1      -2.559  22.006  53.420  1.00  0.00    -0.550 OA
ENDBRANCH   9  10
ENDBRANCH   8   9
ENDBRANCH   7   8
ENDBRANCH   6   7
ENDBRANCH   5   6
ENDBRANCH   4   5
ENDBRANCH   3   4
ENDBRANCH   1   3
BRANCH   2  13
ATOM     13  C   UNL     1      -0.297  20.352  47.633  1.00  0.00     0.027 C 
BRANCH  13  14
ATOM     14  C   UNL     1      -0.696  21.783  47.235  1.00  0.00     0.004 C 
BRANCH  14  15
ATOM     15  C   UNL     1      -1.140  21.891  45.768  1.00  0.00     0.000 C 
BRANCH  15  16
ATOM     16  C   UNL     1      -2.118  23.054  45.530  1.00  0.00     0.000 C 
BRANCH  16  17
ATOM     17  C   UNL     1      -1.403  24.411  45.412  1.00  0.00    -0.000 C 
BRANCH  17  18
ATOM     18  C   UNL     1      -1.631  25.309  46.638  1.00  0.00    -0.000 C 
BRANCH  18  19
ATOM     19  C   UNL     1      -0.303  25.635  47.330  1.00  0.00    -0.003 C 
ATOM     20  C   UNL     1      -0.308  25.165  48.782  1.00  0.00     0.004 C 
ENDBRANCH  18  19
ENDBRANCH  17  18
ENDBRANCH  16  17
ENDBRANCH  15  16
ENDBRANCH  14  15
ENDBRANCH  13  14
ENDBRANCH   2  13
TORSDOF 15
ENDMDL
