MODEL 1
REMARK VINA RESULT:    -3.342      0.000      0.000
REMARK INTER + INTRA:         -11.759
REMARK INTER:                  -7.641
REMARK INTRA:                  -4.118
REMARK UNBOUND:                -4.118
REMARK SMILES CCCCCCCCCCCCCCCCCCCCCCCC(=O)[O-]
REMARK SMILES IDX 13 1 14 2 15 3 16 4 17 5 18 6 19 7 20 8 21 9 22 10 23 11
REMARK SMILES IDX 24 12 25 13 26 14 12 15 11 16 10 17 9 18 8 19 7 20 6 21 5 22
REMARK SMILES IDX 4 23 3 24 2 25 1 26
REMARK H PARENT
REMARK Flexibility Score: inf
ROOT
ATOM      1  C   UNL     1      15.313   1.532  47.248  1.00  0.00     0.000 C 
ENDROOT
BRANCH   1   2
ATOM      2  C   UNL     1      15.455   2.883  47.972  1.00  0.00     0.000 C 
BRANCH   2   3
ATOM      3  C   UNL     1      16.382   2.865  49.204  1.00  0.00     0.000 C 
BRANCH   3   4
ATOM      4  C   UNL     1      16.967   1.485  49.563  1.00  0.00     0.000 C 
BRANCH   4   5
ATOM      5  C   UNL     1      16.514   0.924  50.926  1.00  0.00     0.000 C 
BRANCH   5   6
ATOM      6  C   UNL     1      15.719  -0.394  50.852  1.00  0.00     0.000 C 
BRANCH   6   7
ATOM      7  C   UNL     1      14.207  -0.231  50.594  1.00  0.00     0.000 C 
BRANCH   7   8
ATOM      8  C   UNL     1      13.509   0.836  51.457  1.00  0.00     0.000 C 
BRANCH   8   9
ATOM      9  C   UNL     1      12.984   2.022  50.629  1.00  0.00     0.000 C 
BRANCH   9  10
ATOM     10  C   UNL     1      13.201   3.377  51.325  1.00  0.00     0.006 C 
BRANCH  10  11
ATOM     11  C   UNL     1      14.244   3.349  52.454  1.00  0.00     0.053 C 
BRANCH  11  12
ATOM     12  C   UNL     1      15.338   4.349  52.234  1.00  0.00     0.041 C 
ATOM     13  O   UNL     1      16.523   4.074  52.564  1.00  0.00    -0.550 OA
ATOM     14  O   UNL     1      15.050   5.585  51.668  1.00  0.00    -0.550 OA
ENDBRANCH  11  12
ENDBRANCH  10  11
ENDBRANCH   9  10
ENDBRANCH   8   9
ENDBRANCH   7   8
ENDBRANCH   6   7
ENDBRANCH   5   6
ENDBRANCH   4   5
ENDBRANCH   3   4
ENDBRANCH   2   3
ENDBRANCH   1   2
BRANCH   1  15
ATOM     15  C   UNL     1      14.931   1.690  45.768  1.00  0.00     0.000 C 
BRANCH  15  16
ATOM     16  C   UNL     1      15.179   0.412  44.949  1.00  0.00     0.000 C 
BRANCH  16  17
ATOM     17  C   UNL     1      16.459   0.432  44.090  1.00  0.00     0.000 C 
BRANCH  17  18
ATOM     18  C   UNL     1      16.519   1.551  43.031  1.00  0.00    -0.000 C 
BRANCH  18  19
ATOM     19  C   UNL     1      17.653   1.415  41.996  1.00  0.00    -0.000 C 
BRANCH  19  20
ATOM     20  C   UNL     1      18.824   2.397  42.177  1.00  0.00    -0.000 C 
BRANCH  20  21
ATOM     21  C   UNL     1      20.001   1.785  42.954  1.00  0.00    -0.000 C 
BRANCH  21  22
ATOM     22  C   UNL     1      20.234   2.475  44.308  1.00  0.00    -0.000 C 
BRANCH  22  23
ATOM     23  C   UNL     1      19.382   1.872  45.439  1.00  0.00    -0.000 C 
BRANCH  23  24
ATOM     24  C   UNL     1      18.627   2.941  46.250  1.00  0.00    -0.000 C 
BRANCH  24  25
ATOM     25  C   UNL     1      17.900   3.997  45.398  1.00  0.00    -0.003 C 
ATOM     26  C   UNL     1      17.780   5.350  46.099  1.00  0.00     0.004 C 
ENDBRANCH  24  25
ENDBRANCH  23  24
ENDBRANCH  22  23
ENDBRANCH  21  22
ENDBRANCH  20  21
ENDBRANCH  19  20
ENDBRANCH  18  19
ENDBRANCH  17  18
ENDBRANCH  16  17
ENDBRANCH  15  16
ENDBRANCH   1  15
TORSDOF 22
ENDMDL
MODEL 2
REMARK VINA RESULT:    -3.327      8.334     11.115
REMARK INTER + INTRA:         -11.725
REMARK INTER:                  -7.074
REMARK INTRA:                  -4.651
REMARK UNBOUND:                -4.118
REMARK SMILES CCCCCCCCCCCCCCCCCCCCCCCC(=O)[O-]
REMARK SMILES IDX 13 1 14 2 15 3 16 4 17 5 18 6 19 7 20 8 21 9 22 10 23 11
REMARK SMILES IDX 24 12 25 13 26 14 12 15 11 16 10 17 9 18 8 19 7 20 6 21 5 22
REMARK SMILES IDX 4 23 3 24 2 25 1 26
REMARK H PARENT
REMARK Flexibility Score: inf
ROOT
ATOM      1  C   UNL     1      15.541  -0.349  35.349  1.00  0.00     0.000 C 
ENDROOT
BRANCH   1   2
ATOM      2  C   UNL     1      14.729   0.609  36.238  1.00  0.00     0.000 C 
BRANCH   2   3
ATOM      3  C   UNL     1      15.013   0.491  37.749  1.00  0.00     0.000 C 
BRANCH   3   4
ATOM      4  C   UNL     1      14.843   1.796  38.551  1.00  0.00     0.000 C 
BRANCH   4   5
ATOM      5  C   UNL     1      15.902   2.022  39.650  1.00  0.00     0.000 C 
BRANCH   5   6
ATOM      6  C   UNL     1      16.439   3.463  39.744  1.00  0.00     0.000 C 
BRANCH   6   7
ATOM      7  C   UNL     1      17.836   3.599  40.385  1.00  0.00     0.000 C 
BRANCH   7   8
ATOM      8  C   UNL     1      18.458   2.280  40.879  1.00  0.00     0.000 C 
BRANCH   8   9
ATOM      9  C   UNL     1      19.814   1.978  40.220  1.00  0.00     0.000 C 
BRANCH   9  10
ATOM     10  C   UNL     1      20.484   0.714  40.788  1.00  0.00     0.006 C 
BRANCH  10  11
ATOM     11  C   UNL     1      19.522  -0.244  41.508  1.00  0.00     0.053 C 
BRANCH  11  12
ATOM     12  C   UNL     1      20.110  -1.612  41.677  1.00  0.00     0.041 C 
ATOM     13  O   UNL     1      20.922  -2.061  40.825  1.00  0.00    -0.550 OA
ATOM     14  O   UNL     1      19.761  -2.391  42.773  1.00  0.00    -0.550 OA
ENDBRANCH  11  12
ENDBRANCH  10  11
ENDBRANCH   9  10
ENDBRANCH   8   9
ENDBRANCH   7   8
ENDBRANCH   6   7
ENDBRANCH   5   6
ENDBRANCH   4   5
ENDBRANCH   3   4
ENDBRANCH   2   3
ENDBRANCH   1   2
BRANCH   1  15
ATOM     15  C   UNL     1      15.059  -0.355  33.889  1.00  0.00     0.000 C 
BRANCH  15  16
ATOM     16  C   UNL     1      15.519   0.887  33.106  1.00  0.00     0.000 C 
BRANCH  16  17
ATOM     17  C   UNL     1      17.018   1.220  33.241  1.00  0.00     0.000 C 
BRANCH  17  18
ATOM     18  C   UNL     1      17.345   2.717  33.408  1.00  0.00    -0.000 C 
BRANCH  18  19
ATOM     19  C   UNL     1      16.356   3.510  34.287  1.00  0.00    -0.000 C 
BRANCH  19  20
ATOM     20  C   UNL     1      16.686   3.524  35.791  1.00  0.00    -0.000 C 
BRANCH  20  21
ATOM     21  C   UNL     1      18.159   3.191  36.082  1.00  0.00    -0.000 C 
BRANCH  21  22
ATOM     22  C   UNL     1      18.317   1.941  36.962  1.00  0.00    -0.000 C 
BRANCH  22  23
ATOM     23  C   UNL     1      19.312   0.922  36.378  1.00  0.00    -0.000 C 
BRANCH  23  24
ATOM     24  C   UNL     1      18.895  -0.536  36.643  1.00  0.00    -0.000 C 
BRANCH  24  25
ATOM     25  C   UNL     1      18.353  -0.801  38.060  1.00  0.00    -0.003 C 
ATOM     26  C   UNL     1      18.220  -2.289  38.379  1.00  0.00     0.004 C 
ENDBRANCH  24  25
ENDBRANCH  23  24
ENDBRANCH  22  23
ENDBRANCH  21  22
ENDBRANCH  20  21
ENDBRANCH  19  20
ENDBRANCH  18  19
ENDBRANCH  17  18
ENDBRANCH  16  17
ENDBRANCH  15  16
ENDBRANCH   1  15
TORSDOF 22
ENDMDL
MODEL 3
REMARK VINA RESULT:    -3.322      5.381      9.348
REMARK INTER + INTRA:         -11.713
REMARK INTER:                  -7.611
REMARK INTRA:                  -4.102
REMARK UNBOUND:                -4.118
REMARK SMILES CCCCCCCCCCCCCCCCCCCCCCCC(=O)[O-]
REMARK SMILES IDX 13 1 14 2 15 3 16 4 17 5 18 6 19 7 20 8 21 9 22 10 23 11
REMARK SMILES IDX 24 12 25 13 26 14 12 15 11 16 10 17 9 18 8 19 7 20 6 21 5 22
REMARK SMILES IDX 4 23 3 24 2 25 1 26
REMARK H PARENT
REMARK Flexibility Score: inf
ROOT
ATOM      1  C   UNL     1      20.906  -2.033  40.614  1.00  0.00     0.000 C 
ENDROOT
BRANCH   1   2
ATOM      2  C   UNL     1      21.530  -2.138  39.211  1.00  0.00     0.000 C 
BRANCH   2   3
ATOM      3  C   UNL     1      22.039  -0.806  38.626  1.00  0.00     0.000 C 
BRANCH   3   4
ATOM      4  C   UNL     1      21.708   0.446  39.464  1.00  0.00     0.000 C 
BRANCH   4   5
ATOM      5  C   UNL     1      21.001   1.575  38.688  1.00  0.00     0.000 C 
BRANCH   5   6
ATOM      6  C   UNL     1      19.565   1.882  39.155  1.00  0.00     0.000 C 
BRANCH   6   7
ATOM      7  C   UNL     1      19.245   1.458  40.603  1.00  0.00     0.000 C 
BRANCH   7   8
ATOM      8  C   UNL     1      19.636   2.482  41.684  1.00  0.00     0.000 C 
BRANCH   8   9
ATOM      9  C   UNL     1      20.464   1.860  42.822  1.00  0.00     0.000 C 
BRANCH   9  10
ATOM     10  C   UNL     1      19.662   0.842  43.653  1.00  0.00     0.006 C 
BRANCH  10  11
ATOM     11  C   UNL     1      18.853   1.461  44.804  1.00  0.00     0.053 C 
BRANCH  11  12
ATOM     12  C   UNL     1      17.447   1.782  44.395  1.00  0.00     0.041 C 
ATOM     13  O   UNL     1      16.959   2.917  44.641  1.00  0.00    -0.550 OA
ATOM     14  O   UNL     1      16.676   0.827  43.743  1.00  0.00    -0.550 OA
ENDBRANCH  11  12
ENDBRANCH  10  11
ENDBRANCH   9  10
ENDBRANCH   8   9
ENDBRANCH   7   8
ENDBRANCH   6   7
ENDBRANCH   5   6
ENDBRANCH   4   5
ENDBRANCH   3   4
ENDBRANCH   2   3
ENDBRANCH   1   2
BRANCH   1  15
ATOM     15  C   UNL     1      19.376  -2.180  40.595  1.00  0.00     0.000 C 
BRANCH  15  16
ATOM     16  C   UNL     1      18.829  -2.522  39.198  1.00  0.00     0.000 C 
BRANCH  16  17
ATOM     17  C   UNL     1      18.018  -1.395  38.527  1.00  0.00     0.000 C 
BRANCH  17  18
ATOM     18  C   UNL     1      18.314  -1.178  37.029  1.00  0.00    -0.000 C 
BRANCH  18  19
ATOM     19  C   UNL     1      17.569   0.004  36.377  1.00  0.00    -0.000 C 
BRANCH  19  20
ATOM     20  C   UNL     1      16.344  -0.383  35.531  1.00  0.00    -0.000 C 
BRANCH  20  21
ATOM     21  C   UNL     1      15.038   0.239  36.053  1.00  0.00    -0.000 C 
BRANCH  21  22
ATOM     22  C   UNL     1      15.288   1.413  37.013  1.00  0.00    -0.000 C 
BRANCH  22  23
ATOM     23  C   UNL     1      14.760   1.145  38.434  1.00  0.00    -0.000 C 
BRANCH  23  24
ATOM     24  C   UNL     1      15.735   1.616  39.529  1.00  0.00    -0.000 C 
BRANCH  24  25
ATOM     25  C   UNL     1      15.823   3.144  39.696  1.00  0.00    -0.003 C 
ATOM     26  C   UNL     1      16.149   3.570  41.127  1.00  0.00     0.004 C 
ENDBRANCH  24  25
ENDBRANCH  23  24
ENDBRANCH  22  23
ENDBRANCH  21  22
ENDBRANCH  20  21
ENDBRANCH  19  20
ENDBRANCH  18  19
ENDBRANCH  17  18
ENDBRANCH  16  17
ENDBRANCH  15  16
ENDBRANCH   1  15
TORSDOF 22
ENDMDL
MODEL 4
REMARK VINA RESULT:    -3.318      5.571      8.808
REMARK INTER + INTRA:         -11.704
REMARK INTER:                  -7.267
REMARK INTRA:                  -4.437
REMARK UNBOUND:                -4.118
REMARK SMILES CCCCCCCCCCCCCCCCCCCCCCCC(=O)[O-]
REMARK SMILES IDX 13 1 14 2 15 3 16 4 17 5 18 6 19 7 20 8 21 9 22 10 23 11
REMARK SMILES IDX 24 12 25 13 26 14 12 15 11 16 10 17 9 18 8 19 7 20 6 21 5 22
REMARK SMILES IDX 4 23 3 24 2 25 1 26
REMARK H PARENT
REMARK Flexibility Score: inf
ROOT
ATOM      1  C   UNL     1      16.418   3.690  44.102  1.00  0.00     0.000 C 
ENDROOT
BRANCH   1   2
ATOM      2  C   UNL     1      17.122   2.998  45.284  1.00  0.00     0.000 C 
BRANCH   2   3
ATOM      3  C   UNL     1      18.584   3.430  45.510  1.00  0.00     0.000 C 
BRANCH   3   4
ATOM      4  C   UNL     1      19.641   2.354  45.192  1.00  0.00     0.000 C 
BRANCH   4   5
ATOM      5  C   UNL     1      20.009   2.228  43.700  1.00  0.00     0.000 C 
BRANCH   5   6
ATOM      6  C   UNL     1      19.317   1.068  42.958  1.00  0.00     0.000 C 
BRANCH   6   7
ATOM      7  C   UNL     1      18.385   1.494  41.805  1.00  0.00     0.000 C 
BRANCH   7   8
ATOM      8  C   UNL     1      18.893   2.673  40.956  1.00  0.00     0.000 C 
BRANCH   8   9
ATOM      9  C   UNL     1      17.781   3.328  40.119  1.00  0.00     0.000 C 
BRANCH   9  10
ATOM     10  C   UNL     1      16.383   2.775  40.449  1.00  0.00     0.006 C 
BRANCH  10  11
ATOM     11  C   UNL     1      15.293   3.165  39.438  1.00  0.00     0.053 C 
BRANCH  11  12
ATOM     12  C   UNL     1      15.315   2.290  38.222  1.00  0.00     0.041 C 
ATOM     13  O   UNL     1      15.369   2.804  37.073  1.00  0.00    -0.550 OA
ATOM     14  O   UNL     1      15.272   0.908  38.356  1.00  0.00    -0.550 OA
ENDBRANCH  11  12
ENDBRANCH  10  11
ENDBRANCH   9  10
ENDBRANCH   8   9
ENDBRANCH   7   8
ENDBRANCH   6   7
ENDBRANCH   5   6
ENDBRANCH   4   5
ENDBRANCH   3   4
ENDBRANCH   2   3
ENDBRANCH   1   2
BRANCH   1  15
ATOM     15  C   UNL     1      17.229   4.866  43.535  1.00  0.00     0.000 C 
BRANCH  15  16
ATOM     16  C   UNL     1      16.392   5.782  42.625  1.00  0.00     0.000 C 
BRANCH  16  17
ATOM     17  C   UNL     1      14.871   5.541  42.686  1.00  0.00     0.000 C 
BRANCH  17  18
ATOM     18  C   UNL     1      14.018   6.800  42.936  1.00  0.00    -0.000 C 
BRANCH  18  19
ATOM     19  C   UNL     1      12.503   6.623  42.708  1.00  0.00    -0.000 C 
BRANCH  19  20
ATOM     20  C   UNL     1      11.666   6.441  43.986  1.00  0.00    -0.000 C 
BRANCH  20  21
ATOM     21  C   UNL     1      12.446   6.793  45.265  1.00  0.00    -0.000 C 
BRANCH  21  22
ATOM     22  C   UNL     1      12.598   5.592  46.211  1.00  0.00    -0.000 C 
BRANCH  22  23
ATOM     23  C   UNL     1      14.069   5.246  46.505  1.00  0.00    -0.000 C 
BRANCH  23  24
ATOM     24  C   UNL     1      15.003   6.462  46.374  1.00  0.00    -0.000 C 
BRANCH  24  25
ATOM     25  C   UNL     1      16.415   6.252  46.952  1.00  0.00    -0.003 C 
ATOM     26  C   UNL     1      17.449   7.212  46.364  1.00  0.00     0.004 C 
ENDBRANCH  24  25
ENDBRANCH  23  24
ENDBRANCH  22  23
ENDBRANCH  21  22
ENDBRANCH  20  21
ENDBRANCH  19  20
ENDBRANCH  18  19
ENDBRANCH  17  18
ENDBRANCH  16  17
ENDBRANCH  15  16
ENDBRANCH   1  15
TORSDOF 22
ENDMDL
MODEL 5
REMARK VINA RESULT:    -3.272      3.943      7.359
REMARK INTER + INTRA:         -11.599
REMARK INTER:                  -7.690
REMARK INTRA:                  -3.909
REMARK UNBOUND:                -4.118
REMARK SMILES CCCCCCCCCCCCCCCCCCCCCCCC(=O)[O-]
REMARK SMILES IDX 13 1 14 2 15 3 16 4 17 5 18 6 19 7 20 8 21 9 22 10 23 11
REMARK SMILES IDX 24 12 25 13 26 14 12 15 11 16 10 17 9 18 8 19 7 20 6 21 5 22
REMARK SMILES IDX 4 23 3 24 2 25 1 26
REMARK H PARENT
REMARK Flexibility Score: inf
ROOT
ATOM      1  C   UNL     1      18.307   0.304  39.289  1.00  0.00     0.000 C 
ENDROOT
BRANCH   1   2
ATOM      2  C   UNL     1      19.329   1.316  38.739  1.00  0.00     0.000 C 
BRANCH   2   3
ATOM      3  C   UNL     1      20.278   1.918  39.795  1.00  0.00     0.000 C 
BRANCH   3   4
ATOM      4  C   UNL     1      20.471   1.064  41.064  1.00  0.00     0.000 C 
BRANCH   4   5
ATOM      5  C   UNL     1      20.267   1.822  42.392  1.00  0.00     0.000 C 
BRANCH   5   6
ATOM      6  C   UNL     1      19.667   0.979  43.533  1.00  0.00     0.000 C 
BRANCH   6   7
ATOM      7  C   UNL     1      18.331   0.283  43.199  1.00  0.00     0.000 C 
BRANCH   7   8
ATOM      8  C   UNL     1      17.109   1.217  43.126  1.00  0.00     0.000 C 
BRANCH   8   9
ATOM      9  C   UNL     1      16.169   1.063  44.334  1.00  0.00     0.000 C 
BRANCH   9  10
ATOM     10  C   UNL     1      16.181   2.293  45.259  1.00  0.00     0.006 C 
BRANCH  10  11
ATOM     11  C   UNL     1      17.361   2.333  46.243  1.00  0.00     0.053 C 
BRANCH  11  12
ATOM     12  C   UNL     1      17.718   3.735  46.637  1.00  0.00     0.041 C 
ATOM     13  O   UNL     1      17.134   4.289  47.606  1.00  0.00    -0.550 OA
ATOM     14  O   UNL     1      18.694   4.430  45.933  1.00  0.00    -0.550 OA
ENDBRANCH  11  12
ENDBRANCH  10  11
ENDBRANCH   9  10
ENDBRANCH   8   9
ENDBRANCH   7   8
ENDBRANCH   6   7
ENDBRANCH   5   6
ENDBRANCH   4   5
ENDBRANCH   3   4
ENDBRANCH   2   3
ENDBRANCH   1   2
BRANCH   1  15
ATOM     15  C   UNL     1      17.797  -0.667  38.212  1.00  0.00     0.000 C 
BRANCH  15  16
ATOM     16  C   UNL     1      17.338   0.053  36.931  1.00  0.00     0.000 C 
BRANCH  16  17
ATOM     17  C   UNL     1      15.918  -0.315  36.455  1.00  0.00     0.000 C 
BRANCH  17  18
ATOM     18  C   UNL     1      14.818   0.696  36.835  1.00  0.00    -0.000 C 
BRANCH  18  19
ATOM     19  C   UNL     1      14.704   1.008  38.340  1.00  0.00    -0.000 C 
BRANCH  19  20
ATOM     20  C   UNL     1      14.848   2.495  38.712  1.00  0.00    -0.000 C 
BRANCH  20  21
ATOM     21  C   UNL     1      15.922   3.216  37.880  1.00  0.00    -0.000 C 
BRANCH  21  22
ATOM     22  C   UNL     1      16.874   4.054  38.748  1.00  0.00    -0.000 C 
BRANCH  22  23
ATOM     23  C   UNL     1      16.530   3.986  40.247  1.00  0.00    -0.000 C 
BRANCH  23  24
ATOM     24  C   UNL     1      17.738   4.297  41.149  1.00  0.00    -0.000 C 
BRANCH  24  25
ATOM     25  C   UNL     1      17.375   4.768  42.569  1.00  0.00    -0.003 C 
ATOM     26  C   UNL     1      15.877   5.003  42.755  1.00  0.00     0.004 C 
ENDBRANCH  24  25
ENDBRANCH  23  24
ENDBRANCH  22  23
ENDBRANCH  21  22
ENDBRANCH  20  21
ENDBRANCH  19  20
ENDBRANCH  18  19
ENDBRANCH  17  18
ENDBRANCH  16  17
ENDBRANCH  15  16
ENDBRANCH   1  15
TORSDOF 22
ENDMDL
MODEL 6
REMARK VINA RESULT:    -3.260      5.913      9.880
REMARK INTER + INTRA:         -11.572
REMARK INTER:                  -7.906
REMARK INTRA:                  -3.666
REMARK UNBOUND:                -4.118
REMARK SMILES CCCCCCCCCCCCCCCCCCCCCCCC(=O)[O-]
REMARK SMILES IDX 13 1 14 2 15 3 16 4 17 5 18 6 19 7 20 8 21 9 22 10 23 11
REMARK SMILES IDX 24 12 25 13 26 14 12 15 11 16 10 17 9 18 8 19 7 20 6 21 5 22
REMARK SMILES IDX 4 23 3 24 2 25 1 26
REMARK H PARENT
REMARK Flexibility Score: inf
ROOT
ATOM      1  C   UNL     1      18.562  -0.268  37.286  1.00  0.00     0.000 C 
ENDROOT
BRANCH   1   2
ATOM      2  C   UNL     1      17.749  -1.345  38.025  1.00  0.00     0.000 C 
BRANCH   2   3
ATOM      3  C   UNL     1      18.434  -2.724  38.120  1.00  0.00     0.000 C 
BRANCH   3   4
ATOM      4  C   UNL     1      18.479  -3.336  39.534  1.00  0.00     0.000 C 
BRANCH   4   5
ATOM      5  C   UNL     1      19.263  -2.509  40.573  1.00  0.00     0.000 C 
BRANCH   5   6
ATOM      6  C   UNL     1      20.717  -2.185  40.180  1.00  0.00     0.000 C 
BRANCH   6   7
ATOM      7  C   UNL     1      21.029  -0.684  40.007  1.00  0.00     0.000 C 
BRANCH   7   8
ATOM      8  C   UNL     1      20.033   0.272  40.689  1.00  0.00     0.000 C 
BRANCH   8   9
ATOM      9  C   UNL     1      20.699   1.562  41.196  1.00  0.00     0.000 C 
BRANCH   9  10
ATOM     10  C   UNL     1      20.449   1.813  42.694  1.00  0.00     0.006 C 
BRANCH  10  11
ATOM     11  C   UNL     1      19.089   2.457  43.010  1.00  0.00     0.053 C 
BRANCH  11  12
ATOM     12  C   UNL     1      18.250   1.590  43.899  1.00  0.00     0.041 C 
ATOM     13  O   UNL     1      17.875   0.454  43.506  1.00  0.00    -0.550 OA
ATOM     14  O   UNL     1      17.879   2.039  45.161  1.00  0.00    -0.550 OA
ENDBRANCH  11  12
ENDBRANCH  10  11
ENDBRANCH   9  10
ENDBRANCH   8   9
ENDBRANCH   7   8
ENDBRANCH   6   7
ENDBRANCH   5   6
ENDBRANCH   4   5
ENDBRANCH   3   4
ENDBRANCH   2   3
ENDBRANCH   1   2
BRANCH   1  15
ATOM     15  C   UNL     1      19.460  -0.854  36.185  1.00  0.00     0.000 C 
BRANCH  15  16
ATOM     16  C   UNL     1      18.861  -0.686  34.777  1.00  0.00     0.000 C 
BRANCH  16  17
ATOM     17  C   UNL     1      17.626   0.233  34.704  1.00  0.00     0.000 C 
BRANCH  17  18
ATOM     18  C   UNL     1      16.317  -0.462  34.280  1.00  0.00    -0.000 C 
BRANCH  18  19
ATOM     19  C   UNL     1      15.067  -0.058  35.088  1.00  0.00    -0.000 C 
BRANCH  19  20
ATOM     20  C   UNL     1      15.309   1.001  36.179  1.00  0.00    -0.000 C 
BRANCH  20  21
ATOM     21  C   UNL     1      14.579   0.680  37.494  1.00  0.00    -0.000 C 
BRANCH  21  22
ATOM     22  C   UNL     1      14.721   1.802  38.535  1.00  0.00    -0.000 C 
BRANCH  22  23
ATOM     23  C   UNL     1      15.845   1.533  39.553  1.00  0.00    -0.000 C 
BRANCH  23  24
ATOM     24  C   UNL     1      17.082   2.419  39.322  1.00  0.00    -0.000 C 
BRANCH  24  25
ATOM     25  C   UNL     1      17.025   3.794  40.012  1.00  0.00    -0.003 C 
ATOM     26  C   UNL     1      16.106   3.811  41.233  1.00  0.00     0.004 C 
ENDBRANCH  24  25
ENDBRANCH  23  24
ENDBRANCH  22  23
ENDBRANCH  21  22
ENDBRANCH  20  21
ENDBRANCH  19  20
ENDBRANCH  18  19
ENDBRANCH  17  18
ENDBRANCH  16  17
ENDBRANCH  15  16
ENDBRANCH   1  15
TORSDOF 22
ENDMDL
MODEL 7
REMARK VINA RESULT:    -3.256      7.173     10.758
REMARK INTER + INTRA:         -11.561
REMARK INTER:                  -7.297
REMARK INTRA:                  -4.265
REMARK UNBOUND:                -4.118
REMARK SMILES CCCCCCCCCCCCCCCCCCCCCCCC(=O)[O-]
REMARK SMILES IDX 13 1 14 2 15 3 16 4 17 5 18 6 19 7 20 8 21 9 22 10 23 11
REMARK SMILES IDX 24 12 25 13 26 14 12 15 11 16 10 17 9 18 8 19 7 20 6 21 5 22
REMARK SMILES IDX 4 23 3 24 2 25 1 26
REMARK H PARENT
REMARK Flexibility Score: inf
ROOT
ATOM      1  C   UNL     1      19.174   0.275  36.694  1.00  0.00     0.000 C 
ENDROOT
BRANCH   1   2
ATOM      2  C   UNL     1      18.247  -0.954  36.701  1.00  0.00     0.000 C 
BRANCH   2   3
ATOM      3  C   UNL     1      17.912  -1.506  38.101  1.00  0.00     0.000 C 
BRANCH   3   4
ATOM      4  C   UNL     1      18.492  -2.900  38.411  1.00  0.00     0.000 C 
BRANCH   4   5
ATOM      5  C   UNL     1      18.831  -3.145  39.896  1.00  0.00     0.000 C 
BRANCH   5   6
ATOM      6  C   UNL     1      19.246  -1.886  40.681  1.00  0.00     0.000 C 
BRANCH   6   7
ATOM      7  C   UNL     1      20.752  -1.552  40.632  1.00  0.00     0.000 C 
BRANCH   7   8
ATOM      8  C   UNL     1      21.127  -0.361  39.732  1.00  0.00     0.000 C 
BRANCH   8   9
ATOM      9  C   UNL     1      20.976   0.995  40.443  1.00  0.00     0.000 C 
BRANCH   9  10
ATOM     10  C   UNL     1      19.665   1.715  40.080  1.00  0.00     0.006 C 
BRANCH  10  11
ATOM     11  C   UNL     1      19.224   2.778  41.099  1.00  0.00     0.053 C 
BRANCH  11  12
ATOM     12  C   UNL     1      18.299   2.215  42.135  1.00  0.00     0.041 C 
ATOM     13  O   UNL     1      17.661   1.153  41.905  1.00  0.00    -0.550 OA
ATOM     14  O   UNL     1      18.139   2.863  43.354  1.00  0.00    -0.550 OA
ENDBRANCH  11  12
ENDBRANCH  10  11
ENDBRANCH   9  10
ENDBRANCH   8   9
ENDBRANCH   7   8
ENDBRANCH   6   7
ENDBRANCH   5   6
ENDBRANCH   4   5
ENDBRANCH   3   4
ENDBRANCH   2   3
ENDBRANCH   1   2
BRANCH   1  15
ATOM     15  C   UNL     1      18.684   1.381  35.746  1.00  0.00     0.000 C 
BRANCH  15  16
ATOM     16  C   UNL     1      18.626   2.762  36.422  1.00  0.00     0.000 C 
BRANCH  16  17
ATOM     17  C   UNL     1      17.476   3.671  35.943  1.00  0.00     0.000 C 
BRANCH  17  18
ATOM     18  C   UNL     1      16.513   4.145  37.048  1.00  0.00    -0.000 C 
BRANCH  18  19
ATOM     19  C   UNL     1      16.900   3.726  38.481  1.00  0.00    -0.000 C 
BRANCH  19  20
ATOM     20  C   UNL     1      15.741   3.193  39.341  1.00  0.00    -0.000 C 
BRANCH  20  21
ATOM     21  C   UNL     1      15.519   1.681  39.171  1.00  0.00    -0.000 C 
BRANCH  21  22
ATOM     22  C   UNL     1      14.397   1.360  38.171  1.00  0.00    -0.000 C 
BRANCH  22  23
ATOM     23  C   UNL     1      14.793   0.266  37.162  1.00  0.00    -0.000 C 
BRANCH  23  24
ATOM     24  C   UNL     1      15.141   0.834  35.774  1.00  0.00    -0.000 C 
BRANCH  24  25
ATOM     25  C   UNL     1      14.845  -0.116  34.599  1.00  0.00    -0.003 C 
ATOM     26  C   UNL     1      16.020  -0.251  33.631  1.00  0.00     0.004 C 
ENDBRANCH  24  25
ENDBRANCH  23  24
ENDBRANCH  22  23
ENDBRANCH  21  22
ENDBRANCH  20  21
ENDBRANCH  19  20
ENDBRANCH  18  19
ENDBRANCH  17  18
ENDBRANCH  16  17
ENDBRANCH  15  16
ENDBRANCH   1  15
TORSDOF 22
ENDMDL
MODEL 8
REMARK VINA RESULT:    -3.245      6.502     10.049
REMARK INTER + INTRA:         -11.536
REMARK INTER:                  -7.688
REMARK INTRA:                  -3.848
REMARK UNBOUND:                -4.118
REMARK SMILES CCCCCCCCCCCCCCCCCCCCCCCC(=O)[O-]
REMARK SMILES IDX 13 1 14 2 15 3 16 4 17 5 18 6 19 7 20 8 21 9 22 10 23 11
REMARK SMILES IDX 24 12 25 13 26 14 12 15 11 16 10 17 9 18 8 19 7 20 6 21 5 22
REMARK SMILES IDX 4 23 3 24 2 25 1 26
REMARK H PARENT
REMARK Flexibility Score: inf
ROOT
ATOM      1  C   UNL     1      17.943   1.496  44.082  1.00  0.00     0.000 C 
ENDROOT
BRANCH   1   2
ATOM      2  C   UNL     1      16.611   1.880  43.413  1.00  0.00     0.000 C 
BRANCH   2   3
ATOM      3  C   UNL     1      16.734   2.892  42.257  1.00  0.00     0.000 C 
BRANCH   3   4
ATOM      4  C   UNL     1      16.246   2.383  40.886  1.00  0.00     0.000 C 
BRANCH   4   5
ATOM      5  C   UNL     1      15.872   3.490  39.880  1.00  0.00     0.000 C 
BRANCH   5   6
ATOM      6  C   UNL     1      15.537   2.990  38.461  1.00  0.00     0.000 C 
BRANCH   6   7
ATOM      7  C   UNL     1      14.538   1.816  38.401  1.00  0.00     0.000 C 
BRANCH   7   8
ATOM      8  C   UNL     1      15.023   0.585  37.614  1.00  0.00     0.000 C 
BRANCH   8   9
ATOM      9  C   UNL     1      16.518   0.657  37.259  1.00  0.00     0.000 C 
BRANCH   9  10
ATOM     10  C   UNL     1      17.347  -0.445  37.943  1.00  0.00     0.006 C 
BRANCH  10  11
ATOM     11  C   UNL     1      18.274   0.062  39.059  1.00  0.00     0.053 C 
BRANCH  11  12
ATOM     12  C   UNL     1      19.267   1.064  38.554  1.00  0.00     0.041 C 
ATOM     13  O   UNL     1      20.219   0.696  37.816  1.00  0.00    -0.550 OA
ATOM     14  O   UNL     1      19.143   2.404  38.901  1.00  0.00    -0.550 OA
ENDBRANCH  11  12
ENDBRANCH  10  11
ENDBRANCH   9  10
ENDBRANCH   8   9
ENDBRANCH   7   8
ENDBRANCH   6   7
ENDBRANCH   5   6
ENDBRANCH   4   5
ENDBRANCH   3   4
ENDBRANCH   2   3
ENDBRANCH   1   2
BRANCH   1  15
ATOM     15  C   UNL     1      19.164   1.849  43.217  1.00  0.00     0.000 C 
BRANCH  15  16
ATOM     16  C   UNL     1      19.716   0.637  42.445  1.00  0.00     0.000 C 
BRANCH  16  17
ATOM     17  C   UNL     1      19.140  -0.725  42.881  1.00  0.00     0.000 C 
BRANCH  17  18
ATOM     18  C   UNL     1      20.000  -1.506  43.893  1.00  0.00    -0.000 C 
BRANCH  18  19
ATOM     19  C   UNL     1      19.418  -2.862  44.342  1.00  0.00    -0.000 C 
BRANCH  19  20
ATOM     20  C   UNL     1      17.902  -3.023  44.131  1.00  0.00    -0.000 C 
BRANCH  20  21
ATOM     21  C   UNL     1      17.554  -4.135  43.127  1.00  0.00    -0.000 C 
BRANCH  21  22
ATOM     22  C   UNL     1      18.772  -4.587  42.305  1.00  0.00    -0.000 C 
BRANCH  22  23
ATOM     23  C   UNL     1      18.544  -4.469  40.786  1.00  0.00    -0.000 C 
BRANCH  23  24
ATOM     24  C   UNL     1      19.265  -3.257  40.169  1.00  0.00    -0.000 C 
BRANCH  24  25
ATOM     25  C   UNL     1      20.744  -3.115  40.573  1.00  0.00    -0.003 C 
ATOM     26  C   UNL     1      21.386  -1.833  40.045  1.00  0.00     0.004 C 
ENDBRANCH  24  25
ENDBRANCH  23  24
ENDBRANCH  22  23
ENDBRANCH  21  22
ENDBRANCH  20  21
ENDBRANCH  19  20
ENDBRANCH  18  19
ENDBRANCH  17  18
ENDBRANCH  16  17
ENDBRANCH  15  16
ENDBRANCH   1  15
TORSDOF 22
ENDMDL
MODEL 9
REMARK VINA RESULT:    -3.229      6.985     10.754
REMARK INTER + INTRA:         -11.501
REMARK INTER:                  -7.717
REMARK INTRA:                  -3.784
REMARK UNBOUND:                -4.118
REMARK SMILES CCCCCCCCCCCCCCCCCCCCCCCC(=O)[O-]
REMARK SMILES IDX 13 1 14 2 15 3 16 4 17 5 18 6 19 7 20 8 21 9 22 10 23 11
REMARK SMILES IDX 24 12 25 13 26 14 12 15 11 16 10 17 9 18 8 19 7 20 6 21 5 22
REMARK SMILES IDX 4 23 3 24 2 25 1 26
REMARK H PARENT
REMARK Flexibility Score: inf
ROOT
ATOM      1  C   UNL     1      13.991   2.687  38.138  1.00  0.00     0.000 C 
ENDROOT
BRANCH   1   2
ATOM      2  C   UNL     1      13.909   1.150  38.126  1.00  0.00     0.000 C 
BRANCH   2   3
ATOM      3  C   UNL     1      15.159   0.438  37.573  1.00  0.00     0.000 C 
BRANCH   3   4
ATOM      4  C   UNL     1      15.181   0.248  36.043  1.00  0.00     0.000 C 
BRANCH   4   5
ATOM      5  C   UNL     1      16.522   0.596  35.367  1.00  0.00     0.000 C 
BRANCH   5   6
ATOM      6  C   UNL     1      16.928   2.079  35.457  1.00  0.00     0.000 C 
BRANCH   6   7
ATOM      7  C   UNL     1      18.354   2.336  35.985  1.00  0.00     0.000 C 
BRANCH   7   8
ATOM      8  C   UNL     1      18.669   1.700  37.351  1.00  0.00     0.000 C 
BRANCH   8   9
ATOM      9  C   UNL     1      19.333   2.685  38.329  1.00  0.00     0.000 C 
BRANCH   9  10
ATOM     10  C   UNL     1      19.393   4.121  37.778  1.00  0.00     0.006 C 
BRANCH  10  11
ATOM     11  C   UNL     1      18.644   5.158  38.630  1.00  0.00     0.053 C 
BRANCH  11  12
ATOM     12  C   UNL     1      17.736   6.016  37.802  1.00  0.00     0.041 C 
ATOM     13  O   UNL     1      17.437   5.672  36.627  1.00  0.00    -0.550 OA
ATOM     14  O   UNL     1      17.222   7.195  38.326  1.00  0.00    -0.550 OA
ENDBRANCH  11  12
ENDBRANCH  10  11
ENDBRANCH   9  10
ENDBRANCH   8   9
ENDBRANCH   7   8
ENDBRANCH   6   7
ENDBRANCH   5   6
ENDBRANCH   4   5
ENDBRANCH   3   4
ENDBRANCH   2   3
ENDBRANCH   1   2
BRANCH   1  15
ATOM     15  C   UNL     1      15.412   3.203  38.413  1.00  0.00     0.000 C 
BRANCH  15  16
ATOM     16  C   UNL     1      15.687   3.419  39.912  1.00  0.00     0.000 C 
BRANCH  16  17
ATOM     17  C   UNL     1      16.467   2.279  40.597  1.00  0.00     0.000 C 
BRANCH  17  18
ATOM     18  C   UNL     1      16.502   2.344  42.137  1.00  0.00    -0.000 C 
BRANCH  18  19
ATOM     19  C   UNL     1      17.576   3.277  42.730  1.00  0.00    -0.000 C 
BRANCH  19  20
ATOM     20  C   UNL     1      18.872   3.388  41.907  1.00  0.00    -0.000 C 
BRANCH  20  21
ATOM     21  C   UNL     1      19.897   2.298  42.258  1.00  0.00    -0.000 C 
BRANCH  21  22
ATOM     22  C   UNL     1      19.925   1.978  43.761  1.00  0.00    -0.000 C 
BRANCH  22  23
ATOM     23  C   UNL     1      19.416   0.561  44.080  1.00  0.00    -0.000 C 
BRANCH  23  24
ATOM     24  C   UNL     1      19.215  -0.297  42.818  1.00  0.00    -0.000 C 
BRANCH  24  25
ATOM     25  C   UNL     1      19.937  -1.656  42.843  1.00  0.00    -0.003 C 
ATOM     26  C   UNL     1      19.978  -2.284  44.235  1.00  0.00     0.004 C 
ENDBRANCH  24  25
ENDBRANCH  23  24
ENDBRANCH  22  23
ENDBRANCH  21  22
ENDBRANCH  20  21
ENDBRANCH  19  20
ENDBRANCH  18  19
ENDBRANCH  17  18
ENDBRANCH  16  17
ENDBRANCH  15  16
ENDBRANCH   1  15
TORSDOF 22
ENDMDL
