MODEL 1
REMARK VINA RESULT:    -1.677      0.000      0.000
REMARK INTER + INTRA:          -6.363
REMARK INTER:                  -3.246
REMARK INTRA:                  -3.117
REMARK UNBOUND:                -3.117
REMARK SMILES CCCCCCCCCCCCCCCCCC(=O)[O-]
REMARK SMILES IDX 10 1 11 2 12 3 13 4 14 5 15 6 16 7 17 8 18 9 19 10 20 11
REMARK SMILES IDX 9 12 8 13 7 14 6 15 5 16 4 17 3 18 2 19 1 20
REMARK H PARENT
REMARK Flexibility Score: inf
ROOT
ATOM      1  C   UNL     1      40.983  35.671  18.433  1.00  0.00     0.000 C 
ENDROOT
BRANCH   1   2
ATOM      2  C   UNL     1      39.915  34.950  17.591  1.00  0.00     0.000 C 
BRANCH   2   3
ATOM      3  C   UNL     1      38.644  34.619  18.394  1.00  0.00     0.000 C 
BRANCH   3   4
ATOM      4  C   UNL     1      37.341  35.205  17.821  1.00  0.00     0.000 C 
BRANCH   4   5
ATOM      5  C   UNL     1      37.482  35.651  16.356  1.00  0.00     0.000 C 
BRANCH   5   6
ATOM      6  C   UNL     1      36.998  37.094  16.123  1.00  0.00     0.000 C 
BRANCH   6   7
ATOM      7  C   UNL     1      37.350  38.087  17.250  1.00  0.00     0.006 C 
BRANCH   7   8
ATOM      8  C   UNL     1      38.829  38.503  17.296  1.00  0.00     0.053 C 
BRANCH   8   9
ATOM      9  C   UNL     1      39.359  38.842  15.937  1.00  0.00     0.041 C 
ATOM     10  O   UNL     1      38.988  39.897  15.357  1.00  0.00    -0.550 OA
ATOM     11  O   UNL     1      40.287  38.011  15.325  1.00  0.00    -0.550 OA
ENDBRANCH   8   9
ENDBRANCH   7   8
ENDBRANCH   6   7
ENDBRANCH   5   6
ENDBRANCH   4   5
ENDBRANCH   3   4
ENDBRANCH   2   3
ENDBRANCH   1   2
BRANCH   1  12
ATOM     12  C   UNL     1      40.552  35.875  19.895  1.00  0.00     0.000 C 
BRANCH  12  13
ATOM     13  C   UNL     1      40.552  37.338  20.379  1.00  0.00    -0.000 C 
BRANCH  13  14
ATOM     14  C   UNL     1      39.437  37.658  21.398  1.00  0.00    -0.000 C 
BRANCH  14  15
ATOM     15  C   UNL     1      38.038  37.334  20.850  1.00  0.00    -0.000 C 
BRANCH  15  16
ATOM     16  C   UNL     1      37.197  36.588  21.893  1.00  0.00    -0.000 C 
BRANCH  16  17
ATOM     17  C   UNL     1      37.444  35.075  21.818  1.00  0.00    -0.000 C 
BRANCH  17  18
ATOM     18  C   UNL     1      38.003  34.493  23.130  1.00  0.00    -0.000 C 
BRANCH  18  19
ATOM     19  C   UNL     1      39.416  33.891  23.019  1.00  0.00    -0.003 C 
ATOM     20  C   UNL     1      40.510  34.842  23.503  1.00  0.00     0.004 C 
ENDBRANCH  18  19
ENDBRANCH  17  18
ENDBRANCH  16  17
ENDBRANCH  15  16
ENDBRANCH  14  15
ENDBRANCH  13  14
ENDBRANCH  12  13
ENDBRANCH   1  12
TORSDOF 16
ENDMDL
MODEL 2
REMARK VINA RESULT:    -1.655      2.365      4.202
REMARK INTER + INTRA:          -6.320
REMARK INTER:                  -3.031
REMARK INTRA:                  -3.289
REMARK UNBOUND:                -3.117
REMARK SMILES CCCCCCCCCCCCCCCCCC(=O)[O-]
REMARK SMILES IDX 10 1 11 2 12 3 13 4 14 5 15 6 16 7 17 8 18 9 19 10 20 11
REMARK SMILES IDX 9 12 8 13 7 14 6 15 5 16 4 17 3 18 2 19 1 20
REMARK H PARENT
REMARK Flexibility Score: inf
ROOT
ATOM      1  C   UNL     1      38.368  37.485  17.866  1.00  0.00     0.000 C 
ENDROOT
BRANCH   1   2
ATOM      2  C   UNL     1      39.262  38.173  18.913  1.00  0.00     0.000 C 
BRANCH   2   3
ATOM      3  C   UNL     1      40.673  38.488  18.381  1.00  0.00     0.000 C 
BRANCH   3   4
ATOM      4  C   UNL     1      40.846  38.322  16.860  1.00  0.00     0.000 C 
BRANCH   4   5
ATOM      5  C   UNL     1      41.848  37.214  16.492  1.00  0.00     0.000 C 
BRANCH   5   6
ATOM      6  C   UNL     1      41.437  36.433  15.231  1.00  0.00     0.000 C 
BRANCH   6   7
ATOM      7  C   UNL     1      40.127  36.909  14.570  1.00  0.00     0.006 C 
BRANCH   7   8
ATOM      8  C   UNL     1      39.794  36.215  13.239  1.00  0.00     0.053 C 
BRANCH   8   9
ATOM      9  C   UNL     1      38.492  35.477  13.302  1.00  0.00     0.041 C 
ATOM     10  O   UNL     1      37.796  35.509  14.351  1.00  0.00    -0.550 OA
ATOM     11  O   UNL     1      38.032  34.783  12.191  1.00  0.00    -0.550 OA
ENDBRANCH   8   9
ENDBRANCH   7   8
ENDBRANCH   6   7
ENDBRANCH   5   6
ENDBRANCH   4   5
ENDBRANCH   3   4
ENDBRANCH   2   3
ENDBRANCH   1   2
BRANCH   1  12
ATOM     12  C   UNL     1      37.423  36.440  18.483  1.00  0.00     0.000 C 
BRANCH  12  13
ATOM     13  C   UNL     1      37.725  34.978  18.100  1.00  0.00    -0.000 C 
BRANCH  13  14
ATOM     14  C   UNL     1      39.166  34.750  17.595  1.00  0.00    -0.000 C 
BRANCH  14  15
ATOM     15  C   UNL     1      40.024  33.983  18.613  1.00  0.00    -0.000 C 
BRANCH  15  16
ATOM     16  C   UNL     1      41.236  34.814  19.049  1.00  0.00    -0.000 C 
BRANCH  16  17
ATOM     17  C   UNL     1      41.056  35.340  20.481  1.00  0.00    -0.000 C 
BRANCH  17  18
ATOM     18  C   UNL     1      39.858  34.702  21.208  1.00  0.00    -0.000 C 
BRANCH  18  19
ATOM     19  C   UNL     1      38.824  35.703  21.752  1.00  0.00    -0.003 C 
ATOM     20  C   UNL     1      37.446  35.081  21.969  1.00  0.00     0.004 C 
ENDBRANCH  18  19
ENDBRANCH  17  18
ENDBRANCH  16  17
ENDBRANCH  15  16
ENDBRANCH  14  15
ENDBRANCH  13  14
ENDBRANCH  12  13
ENDBRANCH   1  12
TORSDOF 16
ENDMDL
MODEL 3
REMARK VINA RESULT:    -1.640      1.410      2.832
REMARK INTER + INTRA:          -6.290
REMARK INTER:                  -3.621
REMARK INTRA:                  -2.670
REMARK UNBOUND:                -3.117
REMARK SMILES CCCCCCCCCCCCCCCCCC(=O)[O-]
REMARK SMILES IDX 10 1 11 2 12 3 13 4 14 5 15 6 16 7 17 8 18 9 19 10 20 11
REMARK SMILES IDX 9 12 8 13 7 14 6 15 5 16 4 17 3 18 2 19 1 20
REMARK H PARENT
REMARK Flexibility Score: inf
ROOT
ATOM      1  C   UNL     1      40.667  36.377  19.973  1.00  0.00     0.000 C 
ENDROOT
BRANCH   1   2
ATOM      2  C   UNL     1      39.509  37.215  20.541  1.00  0.00     0.000 C 
BRANCH   2   3
ATOM      3  C   UNL     1      38.173  36.954  19.821  1.00  0.00     0.000 C 
BRANCH   3   4
ATOM      4  C   UNL     1      37.681  35.496  19.872  1.00  0.00     0.000 C 
BRANCH   4   5
ATOM      5  C   UNL     1      37.178  34.989  18.509  1.00  0.00     0.000 C 
BRANCH   5   6
ATOM      6  C   UNL     1      38.265  35.028  17.420  1.00  0.00     0.000 C 
BRANCH   6   7
ATOM      7  C   UNL     1      37.768  35.444  16.020  1.00  0.00     0.006 C 
BRANCH   7   8
ATOM      8  C   UNL     1      36.973  36.759  15.990  1.00  0.00     0.053 C 
BRANCH   8   9
ATOM      9  C   UNL     1      37.868  37.958  16.059  1.00  0.00     0.041 C 
ATOM     10  O   UNL     1      37.648  38.865  16.904  1.00  0.00    -0.550 OA
ATOM     11  O   UNL     1      38.965  38.055  15.214  1.00  0.00    -0.550 OA
ENDBRANCH   8   9
ENDBRANCH   7   8
ENDBRANCH   6   7
ENDBRANCH   5   6
ENDBRANCH   4   5
ENDBRANCH   3   4
ENDBRANCH   2   3
ENDBRANCH   1   2
BRANCH   1  12
ATOM     12  C   UNL     1      41.124  35.263  20.930  1.00  0.00     0.000 C 
BRANCH  12  13
ATOM     13  C   UNL     1      41.343  35.704  22.391  1.00  0.00    -0.000 C 
BRANCH  13  14
ATOM     14  C   UNL     1      40.566  34.858  23.421  1.00  0.00    -0.000 C 
BRANCH  14  15
ATOM     15  C   UNL     1      39.592  33.876  22.751  1.00  0.00    -0.000 C 
BRANCH  15  16
ATOM     16  C   UNL     1      38.148  34.143  23.194  1.00  0.00    -0.000 C 
BRANCH  16  17
ATOM     17  C   UNL     1      38.116  34.952  24.500  1.00  0.00    -0.000 C 
BRANCH  17  18
ATOM     18  C   UNL     1      37.032  36.046  24.500  1.00  0.00    -0.000 C 
BRANCH  18  19
ATOM     19  C   UNL     1      37.333  37.254  23.595  1.00  0.00    -0.003 C 
ATOM     20  C   UNL     1      38.601  38.004  24.001  1.00  0.00     0.004 C 
ENDBRANCH  18  19
ENDBRANCH  17  18
ENDBRANCH  16  17
ENDBRANCH  15  16
ENDBRANCH  14  15
ENDBRANCH  13  14
ENDBRANCH  12  13
ENDBRANCH   1  12
TORSDOF 16
ENDMDL
MODEL 4
REMARK VINA RESULT:    -1.634      1.489      3.513
REMARK INTER + INTRA:          -6.279
REMARK INTER:                  -3.508
REMARK INTRA:                  -2.771
REMARK UNBOUND:                -3.117
REMARK SMILES CCCCCCCCCCCCCCCCCC(=O)[O-]
REMARK SMILES IDX 10 1 11 2 12 3 13 4 14 5 15 6 16 7 17 8 18 9 19 10 20 11
REMARK SMILES IDX 9 12 8 13 7 14 6 15 5 16 4 17 3 18 2 19 1 20
REMARK H PARENT
REMARK Flexibility Score: inf
ROOT
ATOM      1  C   UNL     1      41.168  34.837  22.544  1.00  0.00     0.000 C 
ENDROOT
BRANCH   1   2
ATOM      2  C   UNL     1      40.557  34.330  21.225  1.00  0.00     0.000 C 
BRANCH   2   3
ATOM      3  C   UNL     1      41.163  35.013  19.985  1.00  0.00     0.000 C 
BRANCH   3   4
ATOM      4  C   UNL     1      40.136  35.543  18.967  1.00  0.00     0.000 C 
BRANCH   4   5
ATOM      5  C   UNL     1      39.178  34.450  18.464  1.00  0.00     0.000 C 
BRANCH   5   6
ATOM      6  C   UNL     1      37.717  34.928  18.384  1.00  0.00     0.000 C 
BRANCH   6   7
ATOM      7  C   UNL     1      37.537  36.404  17.973  1.00  0.00     0.006 C 
BRANCH   7   8
ATOM      8  C   UNL     1      36.876  36.610  16.601  1.00  0.00     0.053 C 
BRANCH   8   9
ATOM      9  C   UNL     1      37.825  36.334  15.475  1.00  0.00     0.041 C 
ATOM     10  O   UNL     1      39.028  36.696  15.558  1.00  0.00    -0.550 OA
ATOM     11  O   UNL     1      37.388  35.649  14.350  1.00  0.00    -0.550 OA
ENDBRANCH   8   9
ENDBRANCH   7   8
ENDBRANCH   6   7
ENDBRANCH   5   6
ENDBRANCH   4   5
ENDBRANCH   3   4
ENDBRANCH   2   3
ENDBRANCH   1   2
BRANCH   1  12
ATOM     12  C   UNL     1      40.124  34.995  23.663  1.00  0.00     0.000 C 
BRANCH  12  13
ATOM     13  C   UNL     1      38.836  34.169  23.478  1.00  0.00    -0.000 C 
BRANCH  13  14
ATOM     14  C   UNL     1      37.551  35.023  23.423  1.00  0.00    -0.000 C 
BRANCH  14  15
ATOM     15  C   UNL     1      37.050  35.229  21.984  1.00  0.00    -0.000 C 
BRANCH  15  16
ATOM     16  C   UNL     1      36.966  36.720  21.638  1.00  0.00    -0.000 C 
BRANCH  16  17
ATOM     17  C   UNL     1      38.367  37.320  21.449  1.00  0.00    -0.000 C 
BRANCH  17  18
ATOM     18  C   UNL     1      38.456  38.789  21.900  1.00  0.00    -0.000 C 
BRANCH  18  19
ATOM     19  C   UNL     1      39.887  39.339  22.032  1.00  0.00    -0.003 C 
ATOM     20  C   UNL     1      40.954  38.345  21.576  1.00  0.00     0.004 C 
ENDBRANCH  18  19
ENDBRANCH  17  18
ENDBRANCH  16  17
ENDBRANCH  15  16
ENDBRANCH  14  15
ENDBRANCH  13  14
ENDBRANCH  12  13
ENDBRANCH   1  12
TORSDOF 16
ENDMDL
MODEL 5
REMARK VINA RESULT:    -1.604     14.084     16.130
REMARK INTER + INTRA:          -6.221
REMARK INTER:                  -2.996
REMARK INTRA:                  -3.224
REMARK UNBOUND:                -3.117
REMARK SMILES CCCCCCCCCCCCCCCCCC(=O)[O-]
REMARK SMILES IDX 10 1 11 2 12 3 13 4 14 5 15 6 16 7 17 8 18 9 19 10 20 11
REMARK SMILES IDX 9 12 8 13 7 14 6 15 5 16 4 17 3 18 2 19 1 20
REMARK H PARENT
REMARK Flexibility Score: inf
ROOT
ATOM      1  C   UNL     1      38.746  49.316  19.901  1.00  0.00     0.000 C 
ENDROOT
BRANCH   1   2
ATOM      2  C   UNL     1      38.008  50.285  18.961  1.00  0.00     0.000 C 
BRANCH   2   3
ATOM      3  C   UNL     1      38.955  51.277  18.261  1.00  0.00     0.000 C 
BRANCH   3   4
ATOM      4  C   UNL     1      40.339  50.708  17.896  1.00  0.00     0.000 C 
BRANCH   4   5
ATOM      5  C   UNL     1      41.325  51.793  17.431  1.00  0.00     0.000 C 
BRANCH   5   6
ATOM      6  C   UNL     1      41.007  53.180  18.017  1.00  0.00     0.000 C 
BRANCH   6   7
ATOM      7  C   UNL     1      42.233  53.968  18.525  1.00  0.00     0.006 C 
BRANCH   7   8
ATOM      8  C   UNL     1      43.466  53.103  18.831  1.00  0.00     0.053 C 
BRANCH   8   9
ATOM      9  C   UNL     1      44.636  53.472  17.972  1.00  0.00     0.041 C 
ATOM     10  O   UNL     1      44.461  54.125  16.910  1.00  0.00    -0.550 OA
ATOM     11  O   UNL     1      45.922  53.126  18.363  1.00  0.00    -0.550 OA
ENDBRANCH   8   9
ENDBRANCH   7   8
ENDBRANCH   6   7
ENDBRANCH   5   6
ENDBRANCH   4   5
ENDBRANCH   3   4
ENDBRANCH   2   3
ENDBRANCH   1   2
BRANCH   1  12
ATOM     12  C   UNL     1      38.554  49.665  21.387  1.00  0.00     0.000 C 
BRANCH  12  13
ATOM     13  C   UNL     1      39.849  49.704  22.223  1.00  0.00    -0.000 C 
BRANCH  13  14
ATOM     14  C   UNL     1      41.083  50.197  21.438  1.00  0.00    -0.000 C 
BRANCH  14  15
ATOM     15  C   UNL     1      41.190  51.731  21.426  1.00  0.00    -0.000 C 
BRANCH  15  16
ATOM     16  C   UNL     1      40.796  52.321  22.785  1.00  0.00    -0.000 C 
BRANCH  16  17
ATOM     17  C   UNL     1      39.700  53.384  22.625  1.00  0.00    -0.000 C 
BRANCH  17  18
ATOM     18  C   UNL     1      39.131  53.449  21.197  1.00  0.00    -0.000 C 
BRANCH  18  19
ATOM     19  C   UNL     1      37.602  53.299  21.103  1.00  0.00    -0.003 C 
ATOM     20  C   UNL     1      36.951  52.956  22.442  1.00  0.00     0.004 C 
ENDBRANCH  18  19
ENDBRANCH  17  18
ENDBRANCH  16  17
ENDBRANCH  15  16
ENDBRANCH  14  15
ENDBRANCH  13  14
ENDBRANCH  12  13
ENDBRANCH   1  12
TORSDOF 16
ENDMDL
MODEL 6
REMARK VINA RESULT:    -1.567      2.917      6.218
REMARK INTER + INTRA:          -6.151
REMARK INTER:                  -3.223
REMARK INTRA:                  -2.928
REMARK UNBOUND:                -3.117
REMARK SMILES CCCCCCCCCCCCCCCCCC(=O)[O-]
REMARK SMILES IDX 10 1 11 2 12 3 13 4 14 5 15 6 16 7 17 8 18 9 19 10 20 11
REMARK SMILES IDX 9 12 8 13 7 14 6 15 5 16 4 17 3 18 2 19 1 20
REMARK H PARENT
REMARK Flexibility Score: inf
ROOT
ATOM      1  C   UNL     1      41.086  36.584  18.016  1.00  0.00     0.000 C 
ENDROOT
BRANCH   1   2
ATOM      2  C   UNL     1      40.865  38.044  18.447  1.00  0.00     0.000 C 
BRANCH   2   3
ATOM      3  C   UNL     1      39.696  38.205  19.437  1.00  0.00     0.000 C 
BRANCH   3   4
ATOM      4  C   UNL     1      39.321  36.929  20.213  1.00  0.00     0.000 C 
BRANCH   4   5
ATOM      5  C   UNL     1      37.827  36.868  20.573  1.00  0.00     0.000 C 
BRANCH   5   6
ATOM      6  C   UNL     1      37.380  35.467  21.026  1.00  0.00     0.000 C 
BRANCH   6   7
ATOM      7  C   UNL     1      37.159  35.314  22.545  1.00  0.00     0.006 C 
BRANCH   7   8
ATOM      8  C   UNL     1      38.038  34.245  23.215  1.00  0.00     0.053 C 
BRANCH   8   9
ATOM      9  C   UNL     1      39.494  34.585  23.132  1.00  0.00     0.041 C 
ATOM     10  O   UNL     1      39.975  35.493  23.859  1.00  0.00    -0.550 OA
ATOM     11  O   UNL     1      40.325  33.875  22.276  1.00  0.00    -0.550 OA
ENDBRANCH   8   9
ENDBRANCH   7   8
ENDBRANCH   6   7
ENDBRANCH   5   6
ENDBRANCH   4   5
ENDBRANCH   3   4
ENDBRANCH   2   3
ENDBRANCH   1   2
BRANCH   1  12
ATOM     12  C   UNL     1      40.799  36.353  16.523  1.00  0.00     0.000 C 
BRANCH  12  13
ATOM     13  C   UNL     1      39.975  35.090  16.202  1.00  0.00    -0.000 C 
BRANCH  13  14
ATOM     14  C   UNL     1      39.062  34.631  17.359  1.00  0.00    -0.000 C 
BRANCH  14  15
ATOM     15  C   UNL     1      37.665  35.269  17.285  1.00  0.00    -0.000 C 
BRANCH  15  16
ATOM     16  C   UNL     1      37.223  35.462  15.830  1.00  0.00    -0.000 C 
BRANCH  16  17
ATOM     17  C   UNL     1      36.995  36.948  15.517  1.00  0.00    -0.000 C 
BRANCH  17  18
ATOM     18  C   UNL     1      37.034  37.837  16.773  1.00  0.00    -0.000 C 
BRANCH  18  19
ATOM     19  C   UNL     1      37.705  39.208  16.573  1.00  0.00    -0.003 C 
ATOM     20  C   UNL     1      38.801  39.187  15.509  1.00  0.00     0.004 C 
ENDBRANCH  18  19
ENDBRANCH  17  18
ENDBRANCH  16  17
ENDBRANCH  15  16
ENDBRANCH  14  15
ENDBRANCH  13  14
ENDBRANCH  12  13
ENDBRANCH   1  12
TORSDOF 16
ENDMDL
MODEL 7
REMARK VINA RESULT:    -1.555      3.595      5.777
REMARK INTER + INTRA:          -6.128
REMARK INTER:                  -3.035
REMARK INTRA:                  -3.092
REMARK UNBOUND:                -3.117
REMARK SMILES CCCCCCCCCCCCCCCCCC(=O)[O-]
REMARK SMILES IDX 10 1 11 2 12 3 13 4 14 5 15 6 16 7 17 8 18 9 19 10 20 11
REMARK SMILES IDX 9 12 8 13 7 14 6 15 5 16 4 17 3 18 2 19 1 20
REMARK H PARENT
REMARK Flexibility Score: inf
ROOT
ATOM      1  C   UNL     1      41.262  34.715  17.654  1.00  0.00     0.000 C 
ENDROOT
BRANCH   1   2
ATOM      2  C   UNL     1      41.624  34.185  19.053  1.00  0.00     0.000 C 
BRANCH   2   3
ATOM      3  C   UNL     1      40.431  34.203  20.026  1.00  0.00     0.000 C 
BRANCH   3   4
ATOM      4  C   UNL     1      40.794  33.977  21.505  1.00  0.00     0.000 C 
BRANCH   4   5
ATOM      5  C   UNL     1      40.028  34.911  22.457  1.00  0.00     0.000 C 
BRANCH   5   6
ATOM      6  C   UNL     1      38.501  34.810  22.290  1.00  0.00     0.000 C 
BRANCH   6   7
ATOM      7  C   UNL     1      37.730  36.122  22.547  1.00  0.00     0.006 C 
BRANCH   7   8
ATOM      8  C   UNL     1      38.440  37.105  23.493  1.00  0.00     0.053 C 
BRANCH   8   9
ATOM      9  C   UNL     1      37.675  37.312  24.763  1.00  0.00     0.041 C 
ATOM     10  O   UNL     1      37.478  36.348  25.548  1.00  0.00    -0.550 OA
ATOM     11  O   UNL     1      37.210  38.577  25.096  1.00  0.00    -0.550 OA
ENDBRANCH   8   9
ENDBRANCH   7   8
ENDBRANCH   6   7
ENDBRANCH   5   6
ENDBRANCH   4   5
ENDBRANCH   3   4
ENDBRANCH   2   3
ENDBRANCH   1   2
BRANCH   1  12
ATOM     12  C   UNL     1      39.916  34.175  17.142  1.00  0.00     0.000 C 
BRANCH  12  13
ATOM     13  C   UNL     1      38.791  35.222  17.028  1.00  0.00    -0.000 C 
BRANCH  13  14
ATOM     14  C   UNL     1      37.602  34.966  17.978  1.00  0.00    -0.000 C 
BRANCH  14  15
ATOM     15  C   UNL     1      37.286  36.187  18.857  1.00  0.00    -0.000 C 
BRANCH  15  16
ATOM     16  C   UNL     1      38.059  37.422  18.381  1.00  0.00    -0.000 C 
BRANCH  16  17
ATOM     17  C   UNL     1      38.781  38.104  19.552  1.00  0.00    -0.000 C 
BRANCH  17  18
ATOM     18  C   UNL     1      40.304  37.882  19.529  1.00  0.00    -0.000 C 
BRANCH  18  19
ATOM     19  C   UNL     1      40.991  37.972  20.903  1.00  0.00    -0.003 C 
ATOM     20  C   UNL     1      42.400  37.381  20.907  1.00  0.00     0.004 C 
ENDBRANCH  18  19
ENDBRANCH  17  18
ENDBRANCH  16  17
ENDBRANCH  15  16
ENDBRANCH  14  15
ENDBRANCH  13  14
ENDBRANCH  12  13
ENDBRANCH   1  12
TORSDOF 16
ENDMDL
MODEL 8
REMARK VINA RESULT:    -1.554     13.467     15.250
REMARK INTER + INTRA:          -6.125
REMARK INTER:                  -2.937
REMARK INTRA:                  -3.188
REMARK UNBOUND:                -3.117
REMARK SMILES CCCCCCCCCCCCCCCCCC(=O)[O-]
REMARK SMILES IDX 10 1 11 2 12 3 13 4 14 5 15 6 16 7 17 8 18 9 19 10 20 11
REMARK SMILES IDX 9 12 8 13 7 14 6 15 5 16 4 17 3 18 2 19 1 20
REMARK H PARENT
REMARK Flexibility Score: inf
ROOT
ATOM      1  C   UNL     1      41.441  50.290  20.802  1.00  0.00     0.000 C 
ENDROOT
BRANCH   1   2
ATOM      2  C   UNL     1      40.391  49.464  21.568  1.00  0.00     0.000 C 
BRANCH   2   3
ATOM      3  C   UNL     1      39.380  48.772  20.636  1.00  0.00     0.000 C 
BRANCH   3   4
ATOM      4  C   UNL     1      39.723  48.842  19.136  1.00  0.00     0.000 C 
BRANCH   4   5
ATOM      5  C   UNL     1      38.683  49.630  18.323  1.00  0.00     0.000 C 
BRANCH   5   6
ATOM      6  C   UNL     1      39.020  51.128  18.215  1.00  0.00     0.000 C 
BRANCH   6   7
ATOM      7  C   UNL     1      39.882  51.514  16.995  1.00  0.00     0.006 C 
BRANCH   7   8
ATOM      8  C   UNL     1      41.394  51.557  17.269  1.00  0.00     0.053 C 
BRANCH   8   9
ATOM      9  C   UNL     1      41.915  52.961  17.320  1.00  0.00     0.041 C 
ATOM     10  O   UNL     1      42.851  53.317  16.558  1.00  0.00    -0.550 OA
ATOM     11  O   UNL     1      41.343  53.882  18.187  1.00  0.00    -0.550 OA
ENDBRANCH   8   9
ENDBRANCH   7   8
ENDBRANCH   6   7
ENDBRANCH   5   6
ENDBRANCH   4   5
ENDBRANCH   3   4
ENDBRANCH   2   3
ENDBRANCH   1   2
BRANCH   1  12
ATOM     12  C   UNL     1      41.315  51.801  21.060  1.00  0.00     0.000 C 
BRANCH  12  13
ATOM     13  C   UNL     1      40.749  52.185  22.441  1.00  0.00    -0.000 C 
BRANCH  13  14
ATOM     14  C   UNL     1      39.825  53.421  22.415  1.00  0.00    -0.000 C 
BRANCH  14  15
ATOM     15  C   UNL     1      38.894  53.426  21.191  1.00  0.00    -0.000 C 
BRANCH  15  16
ATOM     16  C   UNL     1      37.449  53.115  21.597  1.00  0.00    -0.000 C 
BRANCH  16  17
ATOM     17  C   UNL     1      37.046  51.701  21.154  1.00  0.00    -0.000 C 
BRANCH  17  18
ATOM     18  C   UNL     1      36.876  50.728  22.334  1.00  0.00    -0.000 C 
BRANCH  18  19
ATOM     19  C   UNL     1      37.120  51.347  23.722  1.00  0.00    -0.003 C 
ATOM     20  C   UNL     1      38.167  50.591  24.538  1.00  0.00     0.004 C 
ENDBRANCH  18  19
ENDBRANCH  17  18
ENDBRANCH  16  17
ENDBRANCH  15  16
ENDBRANCH  14  15
ENDBRANCH  13  14
ENDBRANCH  12  13
ENDBRANCH   1  12
TORSDOF 16
ENDMDL
MODEL 9
REMARK VINA RESULT:    -1.533     21.365     23.493
REMARK INTER + INTRA:          -6.084
REMARK INTER:                  -3.048
REMARK INTRA:                  -3.036
REMARK UNBOUND:                -3.117
REMARK SMILES CCCCCCCCCCCCCCCCCC(=O)[O-]
REMARK SMILES IDX 10 1 11 2 12 3 13 4 14 5 15 6 16 7 17 8 18 9 19 10 20 11
REMARK SMILES IDX 9 12 8 13 7 14 6 15 5 16 4 17 3 18 2 19 1 20
REMARK H PARENT
REMARK Flexibility Score: inf
ROOT
ATOM      1  C   UNL     1      54.135  49.727  12.829  1.00  0.00     0.000 C 
ENDROOT
BRANCH   1   2
ATOM      2  C   UNL     1      54.705  49.791  14.257  1.00  0.00     0.000 C 
BRANCH   2   3
ATOM      3  C   UNL     1      53.990  50.829  15.141  1.00  0.00     0.000 C 
BRANCH   3   4
ATOM      4  C   UNL     1      52.776  51.514  14.487  1.00  0.00     0.000 C 
BRANCH   4   5
ATOM      5  C   UNL     1      52.533  52.935  15.022  1.00  0.00     0.000 C 
BRANCH   5   6
ATOM      6  C   UNL     1      53.629  53.400  15.998  1.00  0.00     0.000 C 
BRANCH   6   7
ATOM      7  C   UNL     1      53.132  53.749  17.416  1.00  0.00     0.006 C 
BRANCH   7   8
ATOM      8  C   UNL     1      54.246  53.899  18.465  1.00  0.00     0.053 C 
BRANCH   8   9
ATOM      9  C   UNL     1      54.890  52.586  18.790  1.00  0.00     0.041 C 
ATOM     10  O   UNL     1      56.141  52.464  18.735  1.00  0.00    -0.550 OA
ATOM     11  O   UNL     1      54.109  51.508  19.185  1.00  0.00    -0.550 OA
ENDBRANCH   8   9
ENDBRANCH   7   8
ENDBRANCH   6   7
ENDBRANCH   5   6
ENDBRANCH   4   5
ENDBRANCH   3   4
ENDBRANCH   2   3
ENDBRANCH   1   2
BRANCH   1  12
ATOM     12  C   UNL     1      55.231  49.634  11.753  1.00  0.00     0.000 C 
BRANCH  12  13
ATOM     13  C   UNL     1      56.640  50.054  12.215  1.00  0.00    -0.000 C 
BRANCH  13  14
ATOM     14  C   UNL     1      57.061  51.459  11.732  1.00  0.00    -0.000 C 
BRANCH  14  15
ATOM     15  C   UNL     1      57.125  52.474  12.884  1.00  0.00    -0.000 C 
BRANCH  15  16
ATOM     16  C   UNL     1      55.788  53.208  13.047  1.00  0.00    -0.000 C 
BRANCH  16  17
ATOM     17  C   UNL     1      55.242  53.663  11.685  1.00  0.00    -0.000 C 
BRANCH  17  18
ATOM     18  C   UNL     1      53.746  53.348  11.504  1.00  0.00    -0.000 C 
BRANCH  18  19
ATOM     19  C   UNL     1      53.407  52.529  10.245  1.00  0.00    -0.003 C 
ATOM     20  C   UNL     1      54.542  52.506   9.223  1.00  0.00     0.004 C 
ENDBRANCH  18  19
ENDBRANCH  17  18
ENDBRANCH  16  17
ENDBRANCH  15  16
ENDBRANCH  14  15
ENDBRANCH  13  14
ENDBRANCH  12  13
ENDBRANCH   1  12
TORSDOF 16
ENDMDL
