MODEL 1
REMARK VINA RESULT:    -5.321      0.000      0.000
REMARK INTER + INTRA:          -6.518
REMARK INTER:                  -6.254
REMARK INTRA:                  -0.264
REMARK UNBOUND:                -0.264
REMARK SMILES O=c1cc(-c2ccc(O)c(O)c2)oc2cc(O)cc(O)c12
REMARK SMILES IDX 4 1 3 2 2 3 1 4 21 5 19 6 18 7 16 8 15 9 14 10 13 11 5 12
REMARK SMILES IDX 6 13 7 14 8 15 12 16 10 17 9 18 11 20 20 22 17 24
REMARK H PARENT 9 19 11 21 20 23 17 25
REMARK Flexibility Score: inf
ROOT
ATOM      1  C   UNL     1      13.807  58.034  16.311  1.00  0.00     0.138 A 
ATOM      2  C   UNL     1      12.491  57.617  16.575  1.00  0.00     0.100 A 
ATOM      3  C   UNL     1      12.209  56.951  17.768  1.00  0.00     0.197 A 
ATOM      4  O   UNL     1      11.026  56.581  17.996  1.00  0.00    -0.289 OA
ATOM      5  C   UNL     1      13.245  56.709  18.693  1.00  0.00     0.107 A 
ATOM      6  C   UNL     1      13.044  56.040  19.923  1.00  0.00     0.134 A 
ATOM      7  C   UNL     1      14.129  55.844  20.791  1.00  0.00     0.093 A 
ATOM      8  C   UNL     1      15.406  56.304  20.452  1.00  0.00     0.123 A 
ATOM      9  C   UNL     1      15.609  56.964  19.239  1.00  0.00     0.094 A 
ATOM     10  C   UNL     1      14.542  57.169  18.359  1.00  0.00     0.146 A 
ATOM     11  O   UNL     1      14.761  57.799  17.210  1.00  0.00    -0.456 OA
ENDROOT
BRANCH   1  12
ATOM     12  C   UNL     1      14.166  58.749  15.060  1.00  0.00     0.021 A 
ATOM     13  C   UNL     1      14.165  60.152  15.042  1.00  0.00     0.016 A 
ATOM     14  C   UNL     1      14.506  60.847  13.881  1.00  0.00     0.051 A 
ATOM     15  C   UNL     1      14.863  60.160  12.716  1.00  0.00     0.157 A 
ATOM     16  C   UNL     1      14.540  58.057  13.893  1.00  0.00     0.062 A 
ATOM     17  C   UNL     1      14.886  58.746  12.724  1.00  0.00     0.158 A 
BRANCH  15  18
ATOM     18  O   UNL     1      15.188  60.915  11.587  1.00  0.00    -0.504 OA
ATOM     19  H   UNL     1      16.065  60.841  11.091  1.00  0.00     0.293 HD
ENDBRANCH  15  18
BRANCH  17  20
ATOM     20  O   UNL     1      15.248  57.992  11.606  1.00  0.00    -0.504 OA
ATOM     21  H   UNL     1      15.753  57.118  11.653  1.00  0.00     0.293 HD
ENDBRANCH  17  20
ENDBRANCH   1  12
BRANCH   6  22
ATOM     22  O   UNL     1      11.782  55.571  20.287  1.00  0.00    -0.507 OA
ATOM     23  H   UNL     1      11.241  56.013  21.022  1.00  0.00     0.293 HD
ENDBRANCH   6  22
BRANCH   8  24
ATOM     24  O   UNL     1      16.483  56.109  21.316  1.00  0.00    -0.508 OA
ATOM     25  H   UNL     1      17.325  56.667  21.246  1.00  0.00     0.293 HD
ENDBRANCH   8  24
TORSDOF 5
ENDMDL
MODEL 2
REMARK VINA RESULT:    -5.241      3.165      7.951
REMARK INTER + INTRA:          -6.425
REMARK INTER:                  -6.148
REMARK INTRA:                  -0.276
REMARK UNBOUND:                -0.264
REMARK SMILES O=c1cc(-c2ccc(O)c(O)c2)oc2cc(O)cc(O)c12
REMARK SMILES IDX 4 1 3 2 2 3 1 4 21 5 19 6 18 7 16 8 15 9 14 10 13 11 5 12
REMARK SMILES IDX 6 13 7 14 8 15 12 16 10 17 9 18 11 20 20 22 17 24
REMARK H PARENT 9 19 11 21 20 23 17 25
REMARK Flexibility Score: inf
ROOT
ATOM      1  C   UNL     1      14.329  55.956  20.533  1.00  0.00     0.138 A 
ATOM      2  C   UNL     1      15.045  57.056  20.030  1.00  0.00     0.100 A 
ATOM      3  C   UNL     1      14.517  57.790  18.967  1.00  0.00     0.197 A 
ATOM      4  O   UNL     1      15.165  58.775  18.524  1.00  0.00    -0.289 OA
ATOM      5  C   UNL     1      13.273  57.421  18.416  1.00  0.00     0.107 A 
ATOM      6  C   UNL     1      12.669  58.110  17.337  1.00  0.00     0.134 A 
ATOM      7  C   UNL     1      11.425  57.682  16.850  1.00  0.00     0.093 A 
ATOM      8  C   UNL     1      10.776  56.580  17.420  1.00  0.00     0.123 A 
ATOM      9  C   UNL     1      11.369  55.898  18.484  1.00  0.00     0.094 A 
ATOM     10  C   UNL     1      12.608  56.307  18.984  1.00  0.00     0.146 A 
ATOM     11  O   UNL     1      13.152  55.640  19.996  1.00  0.00    -0.456 OA
ENDROOT
BRANCH   1  12
ATOM     12  C   UNL     1      14.841  55.139  21.663  1.00  0.00     0.021 A 
ATOM     13  C   UNL     1      15.031  55.740  22.917  1.00  0.00     0.016 A 
ATOM     14  C   UNL     1      15.504  54.992  23.997  1.00  0.00     0.051 A 
ATOM     15  C   UNL     1      15.787  53.630  23.853  1.00  0.00     0.157 A 
ATOM     16  C   UNL     1      15.111  53.766  21.521  1.00  0.00     0.062 A 
ATOM     17  C   UNL     1      15.583  53.007  22.600  1.00  0.00     0.158 A 
BRANCH  15  18
ATOM     18  O   UNL     1      16.262  52.941  24.971  1.00  0.00    -0.504 OA
ATOM     19  H   UNL     1      15.816  52.123  25.362  1.00  0.00     0.293 HD
ENDBRANCH  15  18
BRANCH  17  20
ATOM     20  O   UNL     1      15.828  51.650  22.385  1.00  0.00    -0.504 OA
ATOM     21  H   UNL     1      15.988  51.242  21.474  1.00  0.00     0.293 HD
ENDBRANCH  17  20
ENDBRANCH   1  12
BRANCH   6  22
ATOM     22  O   UNL     1      13.292  59.211  16.751  1.00  0.00    -0.507 OA
ATOM     23  H   UNL     1      13.724  59.939  17.308  1.00  0.00     0.293 HD
ENDBRANCH   6  22
BRANCH   8  24
ATOM     24  O   UNL     1       9.540  56.156  16.936  1.00  0.00    -0.508 OA
ATOM     25  H   UNL     1       9.198  56.449  16.028  1.00  0.00     0.293 HD
ENDBRANCH   8  24
TORSDOF 5
ENDMDL
MODEL 3
REMARK VINA RESULT:    -5.173      3.854      5.295
REMARK INTER + INTRA:          -6.345
REMARK INTER:                  -6.080
REMARK INTRA:                  -0.264
REMARK UNBOUND:                -0.264
REMARK SMILES O=c1cc(-c2ccc(O)c(O)c2)oc2cc(O)cc(O)c12
REMARK SMILES IDX 4 1 3 2 2 3 1 4 21 5 19 6 18 7 16 8 15 9 14 10 13 11 5 12
REMARK SMILES IDX 6 13 7 14 8 15 12 16 10 17 9 18 11 20 20 22 17 24
REMARK H PARENT 9 19 11 21 20 23 17 25
REMARK Flexibility Score: inf
ROOT
ATOM      1  C   UNL     1      13.726  55.760  20.043  1.00  0.00     0.138 A 
ATOM      2  C   UNL     1      13.374  55.434  21.364  1.00  0.00     0.100 A 
ATOM      3  C   UNL     1      14.245  54.667  22.137  1.00  0.00     0.197 A 
ATOM      4  O   UNL     1      13.922  54.381  23.321  1.00  0.00    -0.289 OA
ATOM      5  C   UNL     1      15.467  54.232  21.585  1.00  0.00     0.107 A 
ATOM      6  C   UNL     1      16.406  53.450  22.299  1.00  0.00     0.134 A 
ATOM      7  C   UNL     1      17.603  53.062  21.677  1.00  0.00     0.093 A 
ATOM      8  C   UNL     1      17.877  53.442  20.359  1.00  0.00     0.123 A 
ATOM      9  C   UNL     1      16.953  54.213  19.650  1.00  0.00     0.094 A 
ATOM     10  C   UNL     1      15.755  54.609  20.251  1.00  0.00     0.146 A 
ATOM     11  O   UNL     1      14.892  55.341  19.554  1.00  0.00    -0.456 OA
ENDROOT
BRANCH   1  12
ATOM     12  C   UNL     1      12.839  56.575  19.174  1.00  0.00     0.021 A 
ATOM     13  C   UNL     1      13.122  57.936  18.982  1.00  0.00     0.016 A 
ATOM     14  C   UNL     1      12.308  58.722  18.165  1.00  0.00     0.051 A 
ATOM     15  C   UNL     1      11.201  58.167  17.514  1.00  0.00     0.157 A 
ATOM     16  C   UNL     1      11.734  56.012  18.508  1.00  0.00     0.062 A 
ATOM     17  C   UNL     1      10.914  56.793  17.684  1.00  0.00     0.158 A 
BRANCH  15  18
ATOM     18  O   UNL     1      10.425  59.008  16.716  1.00  0.00    -0.504 OA
ATOM     19  H   UNL     1      10.467  60.017  16.750  1.00  0.00     0.293 HD
ENDBRANCH  15  18
BRANCH  17  20
ATOM     20  O   UNL     1       9.837  56.165  17.055  1.00  0.00    -0.504 OA
ATOM     21  H   UNL     1       9.900  55.691  16.164  1.00  0.00     0.293 HD
ENDBRANCH  17  20
ENDBRANCH   1  12
BRANCH   6  22
ATOM     22  O   UNL     1      16.159  53.058  23.615  1.00  0.00    -0.507 OA
ATOM     23  H   UNL     1      16.855  52.567  24.164  1.00  0.00     0.293 HD
ENDBRANCH   6  22
BRANCH   8  24
ATOM     24  O   UNL     1      19.066  53.057  19.742  1.00  0.00    -0.508 OA
ATOM     25  H   UNL     1      19.968  53.305  20.130  1.00  0.00     0.293 HD
ENDBRANCH   8  24
TORSDOF 5
ENDMDL
MODEL 4
REMARK VINA RESULT:    -5.071      1.565      7.269
REMARK INTER + INTRA:          -6.225
REMARK INTER:                  -5.956
REMARK INTRA:                  -0.269
REMARK UNBOUND:                -0.264
REMARK SMILES O=c1cc(-c2ccc(O)c(O)c2)oc2cc(O)cc(O)c12
REMARK SMILES IDX 4 1 3 2 2 3 1 4 21 5 19 6 18 7 16 8 15 9 14 10 13 11 5 12
REMARK SMILES IDX 6 13 7 14 8 15 12 16 10 17 9 18 11 20 20 22 17 24
REMARK H PARENT 9 19 11 21 20 23 17 25
REMARK Flexibility Score: inf
ROOT
ATOM      1  C   UNL     1      14.831  57.824  17.598  1.00  0.00     0.138 A 
ATOM      2  C   UNL     1      15.387  59.094  17.827  1.00  0.00     0.100 A 
ATOM      3  C   UNL     1      15.628  59.944  16.746  1.00  0.00     0.197 A 
ATOM      4  O   UNL     1      16.126  61.081  16.962  1.00  0.00    -0.289 OA
ATOM      5  C   UNL     1      15.306  59.517  15.441  1.00  0.00     0.107 A 
ATOM      6  C   UNL     1      15.520  60.315  14.292  1.00  0.00     0.134 A 
ATOM      7  C   UNL     1      15.168  59.818  13.028  1.00  0.00     0.093 A 
ATOM      8  C   UNL     1      14.607  58.543  12.893  1.00  0.00     0.123 A 
ATOM      9  C   UNL     1      14.396  57.753  14.025  1.00  0.00     0.094 A 
ATOM     10  C   UNL     1      14.741  58.229  15.293  1.00  0.00     0.146 A 
ATOM     11  O   UNL     1      14.530  57.456  16.354  1.00  0.00    -0.456 OA
ENDROOT
BRANCH   1  12
ATOM     12  C   UNL     1      14.551  56.880  18.709  1.00  0.00     0.021 A 
ATOM     13  C   UNL     1      15.609  56.162  19.288  1.00  0.00     0.016 A 
ATOM     14  C   UNL     1      15.374  55.274  20.338  1.00  0.00     0.051 A 
ATOM     15  C   UNL     1      14.081  55.090  20.841  1.00  0.00     0.157 A 
ATOM     16  C   UNL     1      13.253  56.706  19.224  1.00  0.00     0.062 A 
ATOM     17  C   UNL     1      13.008  55.820  20.281  1.00  0.00     0.158 A 
BRANCH  15  18
ATOM     18  O   UNL     1      13.912  54.183  21.889  1.00  0.00    -0.504 OA
ATOM     19  H   UNL     1      13.015  53.932  22.280  1.00  0.00     0.293 HD
ENDBRANCH  15  18
BRANCH  17  20
ATOM     20  O   UNL     1      11.695  55.700  20.739  1.00  0.00    -0.504 OA
ATOM     21  H   UNL     1      11.142  56.475  21.080  1.00  0.00     0.293 HD
ENDBRANCH  17  20
ENDBRANCH   1  12
BRANCH   6  22
ATOM     22  O   UNL     1      16.076  61.590  14.396  1.00  0.00    -0.507 OA
ATOM     23  H   UNL     1      17.076  61.729  14.490  1.00  0.00     0.293 HD
ENDBRANCH   6  22
BRANCH   8  24
ATOM     24  O   UNL     1      14.257  58.051  11.637  1.00  0.00    -0.508 OA
ATOM     25  H   UNL     1      14.912  57.521  11.075  1.00  0.00     0.293 HD
ENDBRANCH   8  24
TORSDOF 5
ENDMDL
MODEL 5
REMARK VINA RESULT:    -5.021      0.687      1.452
REMARK INTER + INTRA:          -6.166
REMARK INTER:                  -5.896
REMARK INTRA:                  -0.270
REMARK UNBOUND:                -0.264
REMARK SMILES O=c1cc(-c2ccc(O)c(O)c2)oc2cc(O)cc(O)c12
REMARK SMILES IDX 4 1 3 2 2 3 1 4 21 5 19 6 18 7 16 8 15 9 14 10 13 11 5 12
REMARK SMILES IDX 6 13 7 14 8 15 12 16 10 17 9 18 11 20 20 22 17 24
REMARK H PARENT 9 19 11 21 20 23 17 25
REMARK Flexibility Score: inf
ROOT
ATOM      1  C   UNL     1      14.010  57.853  16.266  1.00  0.00     0.138 A 
ATOM      2  C   UNL     1      12.690  57.540  16.631  1.00  0.00     0.100 A 
ATOM      3  C   UNL     1      12.432  57.027  17.902  1.00  0.00     0.197 A 
ATOM      4  O   UNL     1      11.244  56.750  18.220  1.00  0.00    -0.289 OA
ATOM      5  C   UNL     1      13.498  56.832  18.804  1.00  0.00     0.107 A 
ATOM      6  C   UNL     1      13.323  56.315  20.109  1.00  0.00     0.134 A 
ATOM      7  C   UNL     1      14.438  56.156  20.948  1.00  0.00     0.093 A 
ATOM      8  C   UNL     1      15.718  56.505  20.505  1.00  0.00     0.123 A 
ATOM      9  C   UNL     1      15.895  57.016  19.218  1.00  0.00     0.094 A 
ATOM     10  C   UNL     1      14.799  57.180  18.367  1.00  0.00     0.146 A 
ATOM     11  O   UNL     1      14.993  57.667  17.145  1.00  0.00    -0.456 OA
ENDROOT
BRANCH   1  12
ATOM     12  C   UNL     1      14.344  58.405  14.929  1.00  0.00     0.021 A 
ATOM     13  C   UNL     1      14.223  57.586  13.795  1.00  0.00     0.016 A 
ATOM     14  C   UNL     1      14.524  58.083  12.526  1.00  0.00     0.051 A 
ATOM     15  C   UNL     1      14.940  59.408  12.358  1.00  0.00     0.157 A 
ATOM     16  C   UNL     1      14.749  59.742  14.759  1.00  0.00     0.062 A 
ATOM     17  C   UNL     1      15.049  60.250  13.488  1.00  0.00     0.158 A 
BRANCH  15  18
ATOM     18  O   UNL     1      15.231  59.841  11.062  1.00  0.00    -0.504 OA
ATOM     19  H   UNL     1      14.941  60.733  10.687  1.00  0.00     0.293 HD
ENDBRANCH  15  18
BRANCH  17  20
ATOM     20  O   UNL     1      15.443  61.586  13.397  1.00  0.00    -0.504 OA
ATOM     21  H   UNL     1      15.741  62.142  14.187  1.00  0.00     0.293 HD
ENDBRANCH  17  20
ENDBRANCH   1  12
BRANCH   6  22
ATOM     22  O   UNL     1      12.058  55.959  20.577  1.00  0.00    -0.507 OA
ATOM     23  H   UNL     1      11.761  56.170  21.523  1.00  0.00     0.293 HD
ENDBRANCH   6  22
BRANCH   8  24
ATOM     24  O   UNL     1      16.824  56.348  21.339  1.00  0.00    -0.508 OA
ATOM     25  H   UNL     1      17.104  57.072  21.989  1.00  0.00     0.293 HD
ENDBRANCH   8  24
TORSDOF 5
ENDMDL
MODEL 6
REMARK VINA RESULT:    -4.899      1.258      2.796
REMARK INTER + INTRA:          -6.023
REMARK INTER:                  -5.758
REMARK INTRA:                  -0.265
REMARK UNBOUND:                -0.264
REMARK SMILES O=c1cc(-c2ccc(O)c(O)c2)oc2cc(O)cc(O)c12
REMARK SMILES IDX 4 1 3 2 2 3 1 4 21 5 19 6 18 7 16 8 15 9 14 10 13 11 5 12
REMARK SMILES IDX 6 13 7 14 8 15 12 16 10 17 9 18 11 20 20 22 17 24
REMARK H PARENT 9 19 11 21 20 23 17 25
REMARK Flexibility Score: inf
ROOT
ATOM      1  C   UNL     1      15.382  58.323  16.176  1.00  0.00     0.138 A 
ATOM      2  C   UNL     1      16.653  57.989  16.672  1.00  0.00     0.100 A 
ATOM      3  C   UNL     1      16.759  57.286  17.873  1.00  0.00     0.197 A 
ATOM      4  O   UNL     1      17.903  56.990  18.309  1.00  0.00    -0.289 OA
ATOM      5  C   UNL     1      15.589  56.917  18.569  1.00  0.00     0.107 A 
ATOM      6  C   UNL     1      15.608  56.206  19.792  1.00  0.00     0.134 A 
ATOM      7  C   UNL     1      14.398  55.872  20.419  1.00  0.00     0.093 A 
ATOM      8  C   UNL     1      13.174  56.236  19.847  1.00  0.00     0.123 A 
ATOM      9  C   UNL     1      13.151  56.938  18.640  1.00  0.00     0.094 A 
ATOM     10  C   UNL     1      14.345  57.281  18.000  1.00  0.00     0.146 A 
ATOM     11  O   UNL     1      14.297  57.952  16.853  1.00  0.00    -0.456 OA
ENDROOT
BRANCH   1  12
ATOM     12  C   UNL     1      15.209  59.069  14.903  1.00  0.00     0.021 A 
ATOM     13  C   UNL     1      15.206  60.471  14.920  1.00  0.00     0.016 A 
ATOM     14  C   UNL     1      15.052  61.195  13.737  1.00  0.00     0.051 A 
ATOM     15  C   UNL     1      14.908  60.537  12.511  1.00  0.00     0.157 A 
ATOM     16  C   UNL     1      15.079  58.405  13.669  1.00  0.00     0.062 A 
ATOM     17  C   UNL     1      14.927  59.123  12.476  1.00  0.00     0.158 A 
BRANCH  15  18
ATOM     18  O   UNL     1      14.753  61.319  11.365  1.00  0.00    -0.504 OA
ATOM     19  H   UNL     1      14.323  60.992  10.511  1.00  0.00     0.293 HD
ENDBRANCH  15  18
BRANCH  17  20
ATOM     20  O   UNL     1      14.805  58.397  11.290  1.00  0.00    -0.504 OA
ATOM     21  H   UNL     1      14.362  57.492  11.224  1.00  0.00     0.293 HD
ENDBRANCH  17  20
ENDBRANCH   1  12
BRANCH   6  22
ATOM     22  O   UNL     1      16.813  55.829  20.385  1.00  0.00    -0.507 OA
ATOM     23  H   UNL     1      16.843  55.385  21.295  1.00  0.00     0.293 HD
ENDBRANCH   6  22
BRANCH   8  24
ATOM     24  O   UNL     1      11.972  55.904  20.470  1.00  0.00    -0.508 OA
ATOM     25  H   UNL     1      11.936  55.228  21.224  1.00  0.00     0.293 HD
ENDBRANCH   8  24
TORSDOF 5
ENDMDL
MODEL 7
REMARK VINA RESULT:    -4.778      2.845      7.384
REMARK INTER + INTRA:          -5.881
REMARK INTER:                  -5.617
REMARK INTRA:                  -0.264
REMARK UNBOUND:                -0.264
REMARK SMILES O=c1cc(-c2ccc(O)c(O)c2)oc2cc(O)cc(O)c12
REMARK SMILES IDX 4 1 3 2 2 3 1 4 21 5 19 6 18 7 16 8 15 9 14 10 13 11 5 12
REMARK SMILES IDX 6 13 7 14 8 15 12 16 10 17 9 18 11 20 20 22 17 24
REMARK H PARENT 9 19 11 21 20 23 17 25
REMARK Flexibility Score: inf
ROOT
ATOM      1  C   UNL     1      13.504  55.818  20.080  1.00  0.00     0.138 A 
ATOM      2  C   UNL     1      12.236  55.442  19.606  1.00  0.00     0.100 A 
ATOM      3  C   UNL     1      11.637  56.183  18.587  1.00  0.00     0.197 A 
ATOM      4  O   UNL     1      10.499  55.837  18.168  1.00  0.00    -0.289 OA
ATOM      5  C   UNL     1      12.313  57.294  18.044  1.00  0.00     0.107 A 
ATOM      6  C   UNL     1      11.776  58.099  17.011  1.00  0.00     0.134 A 
ATOM      7  C   UNL     1      12.516  59.186  16.522  1.00  0.00     0.093 A 
ATOM      8  C   UNL     1      13.780  59.482  17.046  1.00  0.00     0.123 A 
ATOM      9  C   UNL     1      14.313  58.690  18.066  1.00  0.00     0.094 A 
ATOM     10  C   UNL     1      13.591  57.604  18.567  1.00  0.00     0.146 A 
ATOM     11  O   UNL     1      14.120  56.867  19.539  1.00  0.00    -0.456 OA
ENDROOT
BRANCH   1  12
ATOM     12  C   UNL     1      14.191  55.066  21.161  1.00  0.00     0.021 A 
ATOM     13  C   UNL     1      14.093  55.518  22.485  1.00  0.00     0.016 A 
ATOM     14  C   UNL     1      14.724  54.825  23.520  1.00  0.00     0.051 A 
ATOM     15  C   UNL     1      15.455  53.662  23.259  1.00  0.00     0.157 A 
ATOM     16  C   UNL     1      14.914  53.887  20.899  1.00  0.00     0.062 A 
ATOM     17  C   UNL     1      15.547  53.184  21.931  1.00  0.00     0.158 A 
BRANCH  15  18
ATOM     18  O   UNL     1      16.066  53.019  24.337  1.00  0.00    -0.504 OA
ATOM     19  H   UNL     1      15.585  52.393  24.967  1.00  0.00     0.293 HD
ENDBRANCH  15  18
BRANCH  17  20
ATOM     20  O   UNL     1      16.245  52.022  21.595  1.00  0.00    -0.504 OA
ATOM     21  H   UNL     1      15.889  51.087  21.737  1.00  0.00     0.293 HD
ENDBRANCH  17  20
ENDBRANCH   1  12
BRANCH   6  22
ATOM     22  O   UNL     1      10.519  57.827  16.470  1.00  0.00    -0.507 OA
ATOM     23  H   UNL     1      10.307  58.015  15.497  1.00  0.00     0.293 HD
ENDBRANCH   6  22
BRANCH   8  24
ATOM     24  O   UNL     1      14.515  60.561  16.560  1.00  0.00    -0.508 OA
ATOM     25  H   UNL     1      15.521  60.512  16.453  1.00  0.00     0.293 HD
ENDBRANCH   8  24
TORSDOF 5
ENDMDL
MODEL 8
REMARK VINA RESULT:    -4.657      3.728      5.105
REMARK INTER + INTRA:          -5.738
REMARK INTER:                  -5.440
REMARK INTRA:                  -0.298
REMARK UNBOUND:                -0.264
REMARK SMILES O=c1cc(-c2ccc(O)c(O)c2)oc2cc(O)cc(O)c12
REMARK SMILES IDX 4 1 3 2 2 3 1 4 21 5 19 6 18 7 16 8 15 9 14 10 13 11 5 12
REMARK SMILES IDX 6 13 7 14 8 15 12 16 10 17 9 18 11 20 20 22 17 24
REMARK H PARENT 9 19 11 21 20 23 17 25
REMARK Flexibility Score: inf
ROOT
ATOM      1  C   UNL     1      14.567  56.528  19.011  1.00  0.00     0.138 A 
ATOM      2  C   UNL     1      15.907  56.875  18.768  1.00  0.00     0.100 A 
ATOM      3  C   UNL     1      16.928  56.084  19.296  1.00  0.00     0.197 A 
ATOM      4  O   UNL     1      18.127  56.402  19.071  1.00  0.00    -0.289 OA
ATOM      5  C   UNL     1      16.602  54.947  20.063  1.00  0.00     0.107 A 
ATOM      6  C   UNL     1      17.575  54.094  20.636  1.00  0.00     0.134 A 
ATOM      7  C   UNL     1      17.167  52.979  21.383  1.00  0.00     0.093 A 
ATOM      8  C   UNL     1      15.808  52.702  21.566  1.00  0.00     0.123 A 
ATOM      9  C   UNL     1      14.844  53.541  21.003  1.00  0.00     0.094 A 
ATOM     10  C   UNL     1      15.230  54.658  20.256  1.00  0.00     0.146 A 
ATOM     11  O   UNL     1      14.294  55.442  19.732  1.00  0.00    -0.456 OA
ENDROOT
BRANCH   1  12
ATOM     12  C   UNL     1      13.440  57.330  18.473  1.00  0.00     0.021 A 
ATOM     13  C   UNL     1      13.533  58.730  18.463  1.00  0.00     0.016 A 
ATOM     14  C   UNL     1      12.490  59.507  17.956  1.00  0.00     0.051 A 
ATOM     15  C   UNL     1      11.338  58.905  17.438  1.00  0.00     0.157 A 
ATOM     16  C   UNL     1      12.288  56.724  17.939  1.00  0.00     0.062 A 
ATOM     17  C   UNL     1      11.239  57.495  17.424  1.00  0.00     0.158 A 
BRANCH  15  18
ATOM     18  O   UNL     1      10.330  59.739  16.951  1.00  0.00    -0.504 OA
ATOM     19  H   UNL     1      10.467  60.425  16.222  1.00  0.00     0.293 HD
ENDBRANCH  15  18
BRANCH  17  20
ATOM     20  O   UNL     1      10.128  56.823  16.910  1.00  0.00    -0.504 OA
ATOM     21  H   UNL     1       9.176  56.997  17.204  1.00  0.00     0.293 HD
ENDBRANCH  17  20
ENDBRANCH   1  12
BRANCH   6  22
ATOM     22  O   UNL     1      18.937  54.346  20.469  1.00  0.00    -0.507 OA
ATOM     23  H   UNL     1      19.574  53.630  20.137  1.00  0.00     0.293 HD
ENDBRANCH   6  22
BRANCH   8  24
ATOM     24  O   UNL     1      15.403  51.593  22.308  1.00  0.00    -0.508 OA
ATOM     25  H   UNL     1      14.491  51.554  22.747  1.00  0.00     0.293 HD
ENDBRANCH   8  24
TORSDOF 5
ENDMDL
MODEL 9
REMARK VINA RESULT:    -4.525      2.586      3.647
REMARK INTER + INTRA:          -5.583
REMARK INTER:                  -5.292
REMARK INTRA:                  -0.292
REMARK UNBOUND:                -0.264
REMARK SMILES O=c1cc(-c2ccc(O)c(O)c2)oc2cc(O)cc(O)c12
REMARK SMILES IDX 4 1 3 2 2 3 1 4 21 5 19 6 18 7 16 8 15 9 14 10 13 11 5 12
REMARK SMILES IDX 6 13 7 14 8 15 12 16 10 17 9 18 11 20 20 22 17 24
REMARK H PARENT 9 19 11 21 20 23 17 25
REMARK Flexibility Score: inf
ROOT
ATOM      1  C   UNL     1      15.445  56.686  18.768  1.00  0.00     0.138 A 
ATOM      2  C   UNL     1      14.252  56.680  19.511  1.00  0.00     0.100 A 
ATOM      3  C   UNL     1      14.061  55.710  20.495  1.00  0.00     0.197 A 
ATOM      4  O   UNL     1      12.988  55.714  21.157  1.00  0.00    -0.289 OA
ATOM      5  C   UNL     1      15.067  54.752  20.733  1.00  0.00     0.107 A 
ATOM      6  C   UNL     1      14.952  53.735  21.710  1.00  0.00     0.134 A 
ATOM      7  C   UNL     1      16.004  52.822  21.889  1.00  0.00     0.093 A 
ATOM      8  C   UNL     1      17.163  52.909  21.110  1.00  0.00     0.123 A 
ATOM      9  C   UNL     1      17.280  53.911  20.145  1.00  0.00     0.094 A 
ATOM     10  C   UNL     1      16.244  54.829  19.951  1.00  0.00     0.146 A 
ATOM     11  O   UNL     1      16.380  55.773  19.025  1.00  0.00    -0.456 OA
ENDROOT
BRANCH   1  12
ATOM     12  C   UNL     1      15.704  57.695  17.710  1.00  0.00     0.021 A 
ATOM     13  C   UNL     1      17.027  57.994  17.351  1.00  0.00     0.016 A 
ATOM     14  C   UNL     1      17.296  58.934  16.355  1.00  0.00     0.051 A 
ATOM     15  C   UNL     1      16.254  59.587  15.688  1.00  0.00     0.157 A 
ATOM     16  C   UNL     1      14.654  58.341  17.030  1.00  0.00     0.062 A 
ATOM     17  C   UNL     1      14.916  59.282  16.027  1.00  0.00     0.158 A 
BRANCH  15  18
ATOM     18  O   UNL     1      16.592  60.520  14.706  1.00  0.00    -0.504 OA
ATOM     19  H   UNL     1      16.187  61.443  14.641  1.00  0.00     0.293 HD
ENDBRANCH  15  18
BRANCH  17  20
ATOM     20  O   UNL     1      13.824  59.881  15.395  1.00  0.00    -0.504 OA
ATOM     21  H   UNL     1      13.049  60.305  15.887  1.00  0.00     0.293 HD
ENDBRANCH  17  20
ENDBRANCH   1  12
BRANCH   6  22
ATOM     22  O   UNL     1      13.808  53.625  22.501  1.00  0.00    -0.507 OA
ATOM     23  H   UNL     1      12.939  53.257  22.131  1.00  0.00     0.293 HD
ENDBRANCH   6  22
BRANCH   8  24
ATOM     24  O   UNL     1      18.207  52.003  21.289  1.00  0.00    -0.508 OA
ATOM     25  H   UNL     1      18.151  51.055  20.936  1.00  0.00     0.293 HD
ENDBRANCH   8  24
TORSDOF 5
ENDMDL
