MODEL 1
REMARK VINA RESULT:    -3.666      0.000      0.000
REMARK INTER + INTRA:          -7.798
REMARK INTER:                  -6.238
REMARK INTRA:                  -1.560
REMARK UNBOUND:                -1.560
REMARK SMILES CCCCCCCCCCCCCC(=O)[O-]
REMARK SMILES IDX 8 1 9 2 10 3 11 4 12 5 13 6 14 7 15 8 16 9 7 10 6 11 5 12
REMARK SMILES IDX 4 13 3 14 2 15 1 16
REMARK H PARENT
REMARK Flexibility Score: inf
ROOT
ATOM      1  C   UNL     1       9.909 -25.299  41.300  1.00  0.00     0.000 C 
ENDROOT
BRANCH   1   2
ATOM      2  C   UNL     1      10.110 -26.703  40.707  1.00  0.00     0.000 C 
BRANCH   2   3
ATOM      3  C   UNL     1      11.360 -26.793  39.815  1.00  0.00     0.000 C 
BRANCH   3   4
ATOM      4  C   UNL     1      12.664 -26.585  40.599  1.00  0.00     0.000 C 
BRANCH   4   5
ATOM      5  C   UNL     1      13.436 -25.335  40.139  1.00  0.00     0.006 C 
BRANCH   5   6
ATOM      6  C   UNL     1      12.915 -24.790  38.803  1.00  0.00     0.053 C 
BRANCH   6   7
ATOM      7  C   UNL     1      13.959 -24.850  37.730  1.00  0.00     0.041 C 
ATOM      8  O   UNL     1      15.109 -24.382  37.940  1.00  0.00    -0.550 OA
ATOM      9  O   UNL     1      13.672 -25.449  36.510  1.00  0.00    -0.550 OA
ENDBRANCH   6   7
ENDBRANCH   5   6
ENDBRANCH   4   5
ENDBRANCH   3   4
ENDBRANCH   2   3
ENDBRANCH   1   2
BRANCH   1  10
ATOM     10  C   UNL     1       9.374 -24.294  40.265  1.00  0.00     0.000 C 
BRANCH  10  11
ATOM     11  C   UNL     1       9.665 -22.835  40.654  1.00  0.00    -0.000 C 
BRANCH  11  12
ATOM     12  C   UNL     1      10.810 -22.711  41.672  1.00  0.00    -0.000 C 
BRANCH  12  13
ATOM     13  C   UNL     1      11.996 -21.890  41.121  1.00  0.00    -0.000 C 
BRANCH  13  14
ATOM     14  C   UNL     1      13.301 -22.074  41.919  1.00  0.00    -0.000 C 
BRANCH  14  15
ATOM     15  C   UNL     1      13.420 -21.181  43.166  1.00  0.00    -0.003 C 
ATOM     16  C   UNL     1      13.454 -21.981  44.467  1.00  0.00     0.004 C 
ENDBRANCH  14  15
ENDBRANCH  13  14
ENDBRANCH  12  13
ENDBRANCH  11  12
ENDBRANCH  10  11
ENDBRANCH   1  10
TORSDOF 12
ENDMDL
MODEL 2
REMARK VINA RESULT:    -3.661      2.424      3.329
REMARK INTER + INTRA:          -7.790
REMARK INTER:                  -6.275
REMARK INTRA:                  -1.515
REMARK UNBOUND:                -1.560
REMARK SMILES CCCCCCCCCCCCCC(=O)[O-]
REMARK SMILES IDX 8 1 9 2 10 3 11 4 12 5 13 6 14 7 15 8 16 9 7 10 6 11 5 12
REMARK SMILES IDX 4 13 3 14 2 15 1 16
REMARK H PARENT
REMARK Flexibility Score: inf
ROOT
ATOM      1  C   UNL     1      12.946 -24.875  39.182  1.00  0.00     0.000 C 
ENDROOT
BRANCH   1   2
ATOM      2  C   UNL     1      13.841 -24.749  40.425  1.00  0.00     0.000 C 
BRANCH   2   3
ATOM      3  C   UNL     1      14.599 -23.411  40.473  1.00  0.00     0.000 C 
BRANCH   3   4
ATOM      4  C   UNL     1      15.200 -23.021  39.115  1.00  0.00     0.000 C 
BRANCH   4   5
ATOM      5  C   UNL     1      14.975 -21.537  38.774  1.00  0.00     0.006 C 
BRANCH   5   6
ATOM      6  C   UNL     1      13.883 -21.345  37.713  1.00  0.00     0.053 C 
BRANCH   6   7
ATOM      7  C   UNL     1      14.452 -21.287  36.329  1.00  0.00     0.041 C 
ATOM      8  O   UNL     1      15.686 -21.455  36.144  1.00  0.00    -0.550 OA
ATOM      9  O   UNL     1      13.615 -21.077  35.239  1.00  0.00    -0.550 OA
ENDBRANCH   6   7
ENDBRANCH   5   6
ENDBRANCH   4   5
ENDBRANCH   3   4
ENDBRANCH   2   3
ENDBRANCH   1   2
BRANCH   1  10
ATOM     10  C   UNL     1      11.844 -23.802  39.138  1.00  0.00     0.000 C 
BRANCH  10  11
ATOM     11  C   UNL     1      10.709 -24.080  40.136  1.00  0.00    -0.000 C 
BRANCH  11  12
ATOM     12  C   UNL     1      10.180 -22.799  40.803  1.00  0.00    -0.000 C 
BRANCH  12  13
ATOM     13  C   UNL     1      11.301 -21.997  41.499  1.00  0.00    -0.000 C 
BRANCH  13  14
ATOM     14  C   UNL     1      11.738 -22.590  42.852  1.00  0.00    -0.000 C 
BRANCH  14  15
ATOM     15  C   UNL     1      13.025 -21.981  43.433  1.00  0.00    -0.003 C 
ATOM     16  C   UNL     1      13.500 -20.752  42.660  1.00  0.00     0.004 C 
ENDBRANCH  14  15
ENDBRANCH  13  14
ENDBRANCH  12  13
ENDBRANCH  11  12
ENDBRANCH  10  11
ENDBRANCH   1  10
TORSDOF 12
ENDMDL
MODEL 3
REMARK VINA RESULT:    -3.653      1.793      4.111
REMARK INTER + INTRA:          -7.776
REMARK INTER:                  -6.335
REMARK INTRA:                  -1.441
REMARK UNBOUND:                -1.560
REMARK SMILES CCCCCCCCCCCCCC(=O)[O-]
REMARK SMILES IDX 8 1 9 2 10 3 11 4 12 5 13 6 14 7 15 8 16 9 7 10 6 11 5 12
REMARK SMILES IDX 4 13 3 14 2 15 1 16
REMARK H PARENT
REMARK Flexibility Score: inf
ROOT
ATOM      1  C   UNL     1      11.032 -22.221  41.228  1.00  0.00     0.000 C 
ENDROOT
BRANCH   1   2
ATOM      2  C   UNL     1      12.016 -22.466  40.073  1.00  0.00     0.000 C 
BRANCH   2   3
ATOM      3  C   UNL     1      13.256 -23.263  40.514  1.00  0.00     0.000 C 
BRANCH   3   4
ATOM      4  C   UNL     1      12.977 -24.768  40.645  1.00  0.00     0.000 C 
BRANCH   4   5
ATOM      5  C   UNL     1      12.818 -25.461  39.280  1.00  0.00     0.006 C 
BRANCH   5   6
ATOM      6  C   UNL     1      14.018 -26.356  38.942  1.00  0.00     0.053 C 
BRANCH   6   7
ATOM      7  C   UNL     1      14.532 -26.102  37.558  1.00  0.00     0.041 C 
ATOM      8  O   UNL     1      15.743 -26.308  37.285  1.00  0.00    -0.550 OA
ATOM      9  O   UNL     1      13.666 -25.667  36.562  1.00  0.00    -0.550 OA
ENDBRANCH   6   7
ENDBRANCH   5   6
ENDBRANCH   4   5
ENDBRANCH   3   4
ENDBRANCH   2   3
ENDBRANCH   1   2
BRANCH   1  10
ATOM     10  C   UNL     1       9.659 -22.870  40.979  1.00  0.00     0.000 C 
BRANCH  10  11
ATOM     11  C   UNL     1       9.556 -23.520  39.590  1.00  0.00    -0.000 C 
BRANCH  11  12
ATOM     12  C   UNL     1       9.201 -25.014  39.660  1.00  0.00    -0.000 C 
BRANCH  12  13
ATOM     13  C   UNL     1       8.948 -25.487  41.108  1.00  0.00    -0.000 C 
BRANCH  13  14
ATOM     14  C   UNL     1       8.186 -26.822  41.199  1.00  0.00    -0.000 C 
BRANCH  14  15
ATOM     15  C   UNL     1       9.083 -28.066  41.309  1.00  0.00    -0.003 C 
ATOM     16  C   UNL     1      10.509 -27.731  41.745  1.00  0.00     0.004 C 
ENDBRANCH  14  15
ENDBRANCH  13  14
ENDBRANCH  12  13
ENDBRANCH  11  12
ENDBRANCH  10  11
ENDBRANCH   1  10
TORSDOF 12
ENDMDL
MODEL 4
REMARK VINA RESULT:    -3.649      1.520      2.626
REMARK INTER + INTRA:          -7.768
REMARK INTER:                  -6.127
REMARK INTRA:                  -1.641
REMARK UNBOUND:                -1.560
REMARK SMILES CCCCCCCCCCCCCC(=O)[O-]
REMARK SMILES IDX 8 1 9 2 10 3 11 4 12 5 13 6 14 7 15 8 16 9 7 10 6 11 5 12
REMARK SMILES IDX 4 13 3 14 2 15 1 16
REMARK H PARENT
REMARK Flexibility Score: inf
ROOT
ATOM      1  C   UNL     1      10.227 -28.100  41.780  1.00  0.00     0.000 C 
ENDROOT
BRANCH   1   2
ATOM      2  C   UNL     1      11.500 -28.588  41.070  1.00  0.00     0.000 C 
BRANCH   2   3
ATOM      3  C   UNL     1      11.629 -28.030  39.642  1.00  0.00     0.000 C 
BRANCH   3   4
ATOM      4  C   UNL     1      13.039 -27.501  39.338  1.00  0.00     0.000 C 
BRANCH   4   5
ATOM      5  C   UNL     1      13.307 -26.129  39.982  1.00  0.00     0.006 C 
BRANCH   5   6
ATOM      6  C   UNL     1      14.296 -25.288  39.165  1.00  0.00     0.053 C 
BRANCH   6   7
ATOM      7  C   UNL     1      13.642 -24.655  37.975  1.00  0.00     0.041 C 
ATOM      8  O   UNL     1      13.028 -23.563  38.096  1.00  0.00    -0.550 OA
ATOM      9  O   UNL     1      13.736 -25.257  36.726  1.00  0.00    -0.550 OA
ENDBRANCH   6   7
ENDBRANCH   5   6
ENDBRANCH   4   5
ENDBRANCH   3   4
ENDBRANCH   2   3
ENDBRANCH   1   2
BRANCH   1  10
ATOM     10  C   UNL     1      10.088 -26.568  41.752  1.00  0.00     0.000 C 
BRANCH  10  11
ATOM     11  C   UNL     1       8.773 -26.105  41.105  1.00  0.00    -0.000 C 
BRANCH  11  12
ATOM     12  C   UNL     1       8.994 -25.393  39.760  1.00  0.00    -0.000 C 
BRANCH  12  13
ATOM     13  C   UNL     1      10.087 -24.306  39.848  1.00  0.00    -0.000 C 
BRANCH  13  14
ATOM     14  C   UNL     1       9.645 -23.044  40.613  1.00  0.00    -0.000 C 
BRANCH  14  15
ATOM     15  C   UNL     1      10.798 -22.217  41.205  1.00  0.00    -0.003 C 
ATOM     16  C   UNL     1      11.995 -23.075  41.614  1.00  0.00     0.004 C 
ENDBRANCH  14  15
ENDBRANCH  13  14
ENDBRANCH  12  13
ENDBRANCH  11  12
ENDBRANCH  10  11
ENDBRANCH   1  10
TORSDOF 12
ENDMDL
MODEL 5
REMARK VINA RESULT:    -3.598      1.908      2.489
REMARK INTER + INTRA:          -7.683
REMARK INTER:                  -6.125
REMARK INTRA:                  -1.558
REMARK UNBOUND:                -1.560
REMARK SMILES CCCCCCCCCCCCCC(=O)[O-]
REMARK SMILES IDX 8 1 9 2 10 3 11 4 12 5 13 6 14 7 15 8 16 9 7 10 6 11 5 12
REMARK SMILES IDX 4 13 3 14 2 15 1 16
REMARK H PARENT
REMARK Flexibility Score: inf
ROOT
ATOM      1  C   UNL     1       9.737 -26.542  41.872  1.00  0.00     0.000 C 
ENDROOT
BRANCH   1   2
ATOM      2  C   UNL     1       9.801 -28.022  41.462  1.00  0.00     0.000 C 
BRANCH   2   3
ATOM      3  C   UNL     1      11.243 -28.516  41.258  1.00  0.00     0.000 C 
BRANCH   3   4
ATOM      4  C   UNL     1      11.696 -28.436  39.792  1.00  0.00     0.000 C 
BRANCH   4   5
ATOM      5  C   UNL     1      12.657 -27.262  39.534  1.00  0.00     0.006 C 
BRANCH   5   6
ATOM      6  C   UNL     1      12.385 -26.575  38.189  1.00  0.00     0.053 C 
BRANCH   6   7
ATOM      7  C   UNL     1      13.644 -26.364  37.405  1.00  0.00     0.041 C 
ATOM      8  O   UNL     1      13.673 -25.523  36.468  1.00  0.00    -0.550 OA
ATOM      9  O   UNL     1      14.794 -27.074  37.729  1.00  0.00    -0.550 OA
ENDBRANCH   6   7
ENDBRANCH   5   6
ENDBRANCH   4   5
ENDBRANCH   3   4
ENDBRANCH   2   3
ENDBRANCH   1   2
BRANCH   1  10
ATOM     10  C   UNL     1       8.732 -25.740  41.028  1.00  0.00     0.000 C 
BRANCH  10  11
ATOM     11  C   UNL     1       9.310 -25.309  39.670  1.00  0.00    -0.000 C 
BRANCH  11  12
ATOM     12  C   UNL     1       9.390 -23.781  39.518  1.00  0.00    -0.000 C 
BRANCH  12  13
ATOM     13  C   UNL     1       9.507 -23.064  40.881  1.00  0.00    -0.000 C 
BRANCH  13  14
ATOM     14  C   UNL     1      10.830 -22.295  41.063  1.00  0.00    -0.000 C 
BRANCH  14  15
ATOM     15  C   UNL     1      11.991 -22.800  40.191  1.00  0.00    -0.003 C 
ATOM     16  C   UNL     1      12.842 -23.857  40.892  1.00  0.00     0.004 C 
ENDBRANCH  14  15
ENDBRANCH  13  14
ENDBRANCH  12  13
ENDBRANCH  11  12
ENDBRANCH  10  11
ENDBRANCH   1  10
TORSDOF 12
ENDMDL
MODEL 6
REMARK VINA RESULT:    -3.580      1.417      2.178
REMARK INTER + INTRA:          -7.652
REMARK INTER:                  -6.069
REMARK INTRA:                  -1.583
REMARK UNBOUND:                -1.560
REMARK SMILES CCCCCCCCCCCCCC(=O)[O-]
REMARK SMILES IDX 8 1 9 2 10 3 11 4 12 5 13 6 14 7 15 8 16 9 7 10 6 11 5 12
REMARK SMILES IDX 4 13 3 14 2 15 1 16
REMARK H PARENT
REMARK Flexibility Score: inf
ROOT
ATOM      1  C   UNL     1      10.339 -23.944  39.962  1.00  0.00     0.000 C 
ENDROOT
BRANCH   1   2
ATOM      2  C   UNL     1       9.986 -25.264  40.666  1.00  0.00     0.000 C 
BRANCH   2   3
ATOM      3  C   UNL     1      11.112 -26.307  40.563  1.00  0.00     0.000 C 
BRANCH   3   4
ATOM      4  C   UNL     1      12.418 -25.717  40.010  1.00  0.00     0.000 C 
BRANCH   4   5
ATOM      5  C   UNL     1      13.340 -26.789  39.401  1.00  0.00     0.006 C 
BRANCH   5   6
ATOM      6  C   UNL     1      13.047 -27.029  37.914  1.00  0.00     0.053 C 
BRANCH   6   7
ATOM      7  C   UNL     1      13.914 -26.185  37.031  1.00  0.00     0.041 C 
ATOM      8  O   UNL     1      15.081 -25.882  37.392  1.00  0.00    -0.550 OA
ATOM      9  O   UNL     1      13.442 -25.758  35.795  1.00  0.00    -0.550 OA
ENDBRANCH   6   7
ENDBRANCH   5   6
ENDBRANCH   4   5
ENDBRANCH   3   4
ENDBRANCH   2   3
ENDBRANCH   1   2
BRANCH   1  10
ATOM     10  C   UNL     1       9.951 -22.710  40.794  1.00  0.00     0.000 C 
BRANCH  10  11
ATOM     11  C   UNL     1      11.175 -21.952  41.332  1.00  0.00    -0.000 C 
BRANCH  11  12
ATOM     12  C   UNL     1      11.864 -22.687  42.494  1.00  0.00    -0.000 C 
BRANCH  12  13
ATOM     13  C   UNL     1      13.348 -22.286  42.640  1.00  0.00    -0.000 C 
BRANCH  13  14
ATOM     14  C   UNL     1      14.289 -23.036  41.678  1.00  0.00    -0.000 C 
BRANCH  14  15
ATOM     15  C   UNL     1      14.761 -22.208  40.470  1.00  0.00    -0.003 C 
ATOM     16  C   UNL     1      14.141 -22.675  39.153  1.00  0.00     0.004 C 
ENDBRANCH  14  15
ENDBRANCH  13  14
ENDBRANCH  12  13
ENDBRANCH  11  12
ENDBRANCH  10  11
ENDBRANCH   1  10
TORSDOF 12
ENDMDL
MODEL 7
REMARK VINA RESULT:    -3.577      2.482      4.515
REMARK INTER + INTRA:          -7.647
REMARK INTER:                  -6.201
REMARK INTRA:                  -1.446
REMARK UNBOUND:                -1.560
REMARK SMILES CCCCCCCCCCCCCC(=O)[O-]
REMARK SMILES IDX 8 1 9 2 10 3 11 4 12 5 13 6 14 7 15 8 16 9 7 10 6 11 5 12
REMARK SMILES IDX 4 13 3 14 2 15 1 16
REMARK H PARENT
REMARK Flexibility Score: inf
ROOT
ATOM      1  C   UNL     1      11.977 -21.841  41.028  1.00  0.00     0.000 C 
ENDROOT
BRANCH   1   2
ATOM      2  C   UNL     1      13.267 -22.656  41.208  1.00  0.00     0.000 C 
BRANCH   2   3
ATOM      3  C   UNL     1      13.507 -23.644  40.053  1.00  0.00     0.000 C 
BRANCH   3   4
ATOM      4  C   UNL     1      12.874 -23.178  38.734  1.00  0.00     0.000 C 
BRANCH   4   5
ATOM      5  C   UNL     1      13.906 -22.578  37.762  1.00  0.00     0.006 C 
BRANCH   5   6
ATOM      6  C   UNL     1      13.885 -21.043  37.769  1.00  0.00     0.053 C 
BRANCH   6   7
ATOM      7  C   UNL     1      13.883 -20.479  36.381  1.00  0.00     0.041 C 
ATOM      8  O   UNL     1      14.086 -19.250  36.197  1.00  0.00    -0.550 OA
ATOM      9  O   UNL     1      13.689 -21.316  35.289  1.00  0.00    -0.550 OA
ENDBRANCH   6   7
ENDBRANCH   5   6
ENDBRANCH   4   5
ENDBRANCH   3   4
ENDBRANCH   2   3
ENDBRANCH   1   2
BRANCH   1  10
ATOM     10  C   UNL     1      10.751 -22.533  41.650  1.00  0.00     0.000 C 
BRANCH  10  11
ATOM     11  C   UNL     1       9.660 -22.845  40.615  1.00  0.00    -0.000 C 
BRANCH  11  12
ATOM     12  C   UNL     1       9.395 -24.353  40.469  1.00  0.00    -0.000 C 
BRANCH  12  13
ATOM     13  C   UNL     1      10.186 -25.186  41.500  1.00  0.00    -0.000 C 
BRANCH  13  14
ATOM     14  C   UNL     1      10.461 -26.633  41.046  1.00  0.00    -0.000 C 
BRANCH  14  15
ATOM     15  C   UNL     1      11.683 -26.794  40.127  1.00  0.00    -0.003 C 
ATOM     16  C   UNL     1      12.522 -28.026  40.466  1.00  0.00     0.004 C 
ENDBRANCH  14  15
ENDBRANCH  13  14
ENDBRANCH  12  13
ENDBRANCH  11  12
ENDBRANCH  10  11
ENDBRANCH   1  10
TORSDOF 12
ENDMDL
MODEL 8
REMARK VINA RESULT:    -3.536      1.881      5.154
REMARK INTER + INTRA:          -7.577
REMARK INTER:                  -5.959
REMARK INTRA:                  -1.618
REMARK UNBOUND:                -1.560
REMARK SMILES CCCCCCCCCCCCCC(=O)[O-]
REMARK SMILES IDX 8 1 9 2 10 3 11 4 12 5 13 6 14 7 15 8 16 9 7 10 6 11 5 12
REMARK SMILES IDX 4 13 3 14 2 15 1 16
REMARK H PARENT
REMARK Flexibility Score: inf
ROOT
ATOM      1  C   UNL     1      10.508 -25.171  41.067  1.00  0.00     0.000 C 
ENDROOT
BRANCH   1   2
ATOM      2  C   UNL     1       9.629 -24.211  40.250  1.00  0.00     0.000 C 
BRANCH   2   3
ATOM      3  C   UNL     1       9.894 -22.734  40.591  1.00  0.00     0.000 C 
BRANCH   3   4
ATOM      4  C   UNL     1      10.900 -22.562  41.738  1.00  0.00     0.000 C 
BRANCH   4   5
ATOM      5  C   UNL     1      12.210 -21.896  41.279  1.00  0.00     0.006 C 
BRANCH   5   6
ATOM      6  C   UNL     1      12.375 -21.929  39.754  1.00  0.00     0.053 C 
BRANCH   6   7
ATOM      7  C   UNL     1      13.148 -23.130  39.302  1.00  0.00     0.041 C 
ATOM      8  O   UNL     1      13.790 -23.820  40.136  1.00  0.00    -0.550 OA
ATOM      9  O   UNL     1      13.133 -23.505  37.964  1.00  0.00    -0.550 OA
ENDBRANCH   6   7
ENDBRANCH   5   6
ENDBRANCH   4   5
ENDBRANCH   3   4
ENDBRANCH   2   3
ENDBRANCH   1   2
BRANCH   1  10
ATOM     10  C   UNL     1       9.697 -26.310  41.709  1.00  0.00     0.000 C 
BRANCH  10  11
ATOM     11  C   UNL     1       8.214 -26.278  41.309  1.00  0.00    -0.000 C 
BRANCH  11  12
ATOM     12  C   UNL     1       7.654 -27.676  40.996  1.00  0.00    -0.000 C 
BRANCH  12  13
ATOM     13  C   UNL     1       8.461 -28.395  39.894  1.00  0.00    -0.000 C 
BRANCH  13  14
ATOM     14  C   UNL     1       8.327 -27.743  38.504  1.00  0.00    -0.000 C 
BRANCH  14  15
ATOM     15  C   UNL     1       9.630 -27.145  37.949  1.00  0.00    -0.003 C 
ATOM     16  C   UNL     1      10.878 -27.864  38.462  1.00  0.00     0.004 C 
ENDBRANCH  14  15
ENDBRANCH  13  14
ENDBRANCH  12  13
ENDBRANCH  11  12
ENDBRANCH  10  11
ENDBRANCH   1  10
TORSDOF 12
ENDMDL
MODEL 9
REMARK VINA RESULT:    -3.489      4.409      6.273
REMARK INTER + INTRA:          -7.497
REMARK INTER:                  -5.386
REMARK INTRA:                  -2.112
REMARK UNBOUND:                -1.560
REMARK SMILES CCCCCCCCCCCCCC(=O)[O-]
REMARK SMILES IDX 8 1 9 2 10 3 11 4 12 5 13 6 14 7 15 8 16 9 7 10 6 11 5 12
REMARK SMILES IDX 4 13 3 14 2 15 1 16
REMARK H PARENT
REMARK Flexibility Score: inf
ROOT
ATOM      1  C   UNL     1      12.737 -31.916  39.545  1.00  0.00     0.000 C 
ENDROOT
BRANCH   1   2
ATOM      2  C   UNL     1      11.925 -30.882  38.748  1.00  0.00     0.000 C 
BRANCH   2   3
ATOM      3  C   UNL     1      12.797 -29.733  38.214  1.00  0.00     0.000 C 
BRANCH   3   4
ATOM      4  C   UNL     1      14.204 -29.720  38.830  1.00  0.00     0.000 C 
BRANCH   4   5
ATOM      5  C   UNL     1      14.912 -28.364  38.658  1.00  0.00     0.006 C 
BRANCH   5   6
ATOM      6  C   UNL     1      13.919 -27.215  38.434  1.00  0.00     0.053 C 
BRANCH   6   7
ATOM      7  C   UNL     1      14.434 -26.216  37.444  1.00  0.00     0.041 C 
ATOM      8  O   UNL     1      15.607 -25.771  37.547  1.00  0.00    -0.550 OA
ATOM      9  O   UNL     1      13.629 -25.801  36.390  1.00  0.00    -0.550 OA
ENDBRANCH   6   7
ENDBRANCH   5   6
ENDBRANCH   4   5
ENDBRANCH   3   4
ENDBRANCH   2   3
ENDBRANCH   1   2
BRANCH   1  10
ATOM     10  C   UNL     1      11.935 -32.523  40.709  1.00  0.00     0.000 C 
BRANCH  10  11
ATOM     11  C   UNL     1      12.414 -32.021  42.081  1.00  0.00    -0.000 C 
BRANCH  11  12
ATOM     12  C   UNL     1      13.851 -31.476  42.043  1.00  0.00    -0.000 C 
BRANCH  12  13
ATOM     13  C   UNL     1      13.934 -30.013  42.529  1.00  0.00    -0.000 C 
BRANCH  13  14
ATOM     14  C   UNL     1      12.558 -29.347  42.722  1.00  0.00    -0.000 C 
BRANCH  14  15
ATOM     15  C   UNL     1      12.156 -28.370  41.605  1.00  0.00    -0.003 C 
ATOM     16  C   UNL     1      10.674 -28.462  41.242  1.00  0.00     0.004 C 
ENDBRANCH  14  15
ENDBRANCH  13  14
ENDBRANCH  12  13
ENDBRANCH  11  12
ENDBRANCH  10  11
ENDBRANCH   1  10
TORSDOF 12
ENDMDL
