MODEL 1
REMARK VINA RESULT:    -4.123      0.000      0.000
REMARK INTER + INTRA:          -9.549
REMARK INTER:                  -8.944
REMARK INTRA:                  -0.605
REMARK UNBOUND:                -0.605
REMARK SMILES CCCCCCCCCCCCCCCCCCCCCC(=O)[O-]
REMARK SMILES IDX 12 1 11 2 10 3 9 4 8 5 7 6 6 7 5 8 4 9 3 10 2 11 1 12 13 13
REMARK SMILES IDX 14 14 15 15 16 16 17 17 18 18 19 19 20 20 21 21 22 22 23 23
REMARK SMILES IDX 24 24
REMARK H PARENT
REMARK Flexibility Score: inf
ROOT
ATOM      1  C   UNL     1      33.641  25.990  70.389  1.00  0.00     0.000 C 
ENDROOT
BRANCH   1   2
ATOM      2  C   UNL     1      35.087  25.710  70.832  1.00  0.00     0.000 C 
BRANCH   2   3
ATOM      3  C   UNL     1      35.516  24.260  70.558  1.00  0.00     0.000 C 
BRANCH   3   4
ATOM      4  C   UNL     1      36.737  24.167  69.629  1.00  0.00    -0.000 C 
BRANCH   4   5
ATOM      5  C   UNL     1      38.016  23.886  70.431  1.00  0.00    -0.000 C 
BRANCH   5   6
ATOM      6  C   UNL     1      38.014  24.561  71.814  1.00  0.00    -0.000 C 
BRANCH   6   7
ATOM      7  C   UNL     1      39.152  24.121  72.759  1.00  0.00    -0.000 C 
BRANCH   7   8
ATOM      8  C   UNL     1      40.071  25.253  73.255  1.00  0.00    -0.000 C 
BRANCH   8   9
ATOM      9  C   UNL     1      39.635  25.822  74.616  1.00  0.00    -0.000 C 
BRANCH   9  10
ATOM     10  C   UNL     1      39.617  27.361  74.643  1.00  0.00    -0.000 C 
BRANCH  10  11
ATOM     11  C   UNL     1      40.270  27.999  75.882  1.00  0.00    -0.003 C 
ATOM     12  C   UNL     1      39.253  28.446  76.932  1.00  0.00     0.004 C 
ENDBRANCH  10  11
ENDBRANCH   9  10
ENDBRANCH   8   9
ENDBRANCH   7   8
ENDBRANCH   6   7
ENDBRANCH   5   6
ENDBRANCH   4   5
ENDBRANCH   3   4
ENDBRANCH   2   3
ENDBRANCH   1   2
BRANCH   1  13
ATOM     13  C   UNL     1      32.697  24.796  70.630  1.00  0.00     0.000 C 
BRANCH  13  14
ATOM     14  C   UNL     1      31.217  25.042  70.281  1.00  0.00     0.000 C 
BRANCH  14  15
ATOM     15  C   UNL     1      30.660  24.026  69.270  1.00  0.00     0.000 C 
BRANCH  15  16
ATOM     16  C   UNL     1      31.340  24.111  67.890  1.00  0.00     0.000 C 
BRANCH  16  17
ATOM     17  C   UNL     1      30.380  24.260  66.696  1.00  0.00     0.000 C 
BRANCH  17  18
ATOM     18  C   UNL     1      31.081  24.090  65.338  1.00  0.00     0.000 C 
BRANCH  18  19
ATOM     19  C   UNL     1      31.678  25.405  64.805  1.00  0.00     0.000 C 
BRANCH  19  20
ATOM     20  C   UNL     1      32.493  25.266  63.502  1.00  0.00     0.006 C 
BRANCH  20  21
ATOM     21  C   UNL     1      32.402  26.475  62.558  1.00  0.00     0.053 C 
BRANCH  21  22
ATOM     22  C   UNL     1      31.188  27.309  62.831  1.00  0.00     0.041 C 
ATOM     23  O   UNL     1      31.283  28.361  63.516  1.00  0.00    -0.550 OA
ATOM     24  O   UNL     1      29.946  26.911  62.352  1.00  0.00    -0.550 OA
ENDBRANCH  21  22
ENDBRANCH  20  21
ENDBRANCH  19  20
ENDBRANCH  18  19
ENDBRANCH  17  18
ENDBRANCH  16  17
ENDBRANCH  15  16
ENDBRANCH  14  15
ENDBRANCH  13  14
ENDBRANCH   1  13
TORSDOF 20
ENDMDL
MODEL 2
REMARK VINA RESULT:    -3.925      4.832     11.065
REMARK INTER + INTRA:          -9.120
REMARK INTER:                  -8.461
REMARK INTRA:                  -0.659
REMARK UNBOUND:                -0.605
REMARK SMILES CCCCCCCCCCCCCCCCCCCCCC(=O)[O-]
REMARK SMILES IDX 12 1 11 2 10 3 9 4 8 5 7 6 6 7 5 8 4 9 3 10 2 11 1 12 13 13
REMARK SMILES IDX 14 14 15 15 16 16 17 17 18 18 19 19 20 20 21 21 22 22 23 23
REMARK SMILES IDX 24 24
REMARK H PARENT
REMARK Flexibility Score: inf
ROOT
ATOM      1  C   UNL     1      33.616  25.534  71.340  1.00  0.00     0.000 C 
ENDROOT
BRANCH   1   2
ATOM      2  C   UNL     1      32.458  26.487  70.998  1.00  0.00     0.000 C 
BRANCH   2   3
ATOM      3  C   UNL     1      31.108  25.760  70.898  1.00  0.00     0.000 C 
BRANCH   3   4
ATOM      4  C   UNL     1      31.261  24.254  70.631  1.00  0.00    -0.000 C 
BRANCH   4   5
ATOM      5  C   UNL     1      32.026  24.006  69.323  1.00  0.00    -0.000 C 
BRANCH   5   6
ATOM      6  C   UNL     1      31.169  24.259  68.071  1.00  0.00    -0.000 C 
BRANCH   6   7
ATOM      7  C   UNL     1      31.960  24.614  66.796  1.00  0.00    -0.000 C 
BRANCH   7   8
ATOM      8  C   UNL     1      31.450  23.959  65.499  1.00  0.00    -0.000 C 
BRANCH   8   9
ATOM      9  C   UNL     1      30.898  24.982  64.491  1.00  0.00    -0.000 C 
BRANCH   9  10
ATOM     10  C   UNL     1      31.996  25.872  63.880  1.00  0.00    -0.000 C 
BRANCH  10  11
ATOM     11  C   UNL     1      31.528  26.793  62.739  1.00  0.00    -0.003 C 
ATOM     12  C   UNL     1      30.271  27.588  63.090  1.00  0.00     0.004 C 
ENDBRANCH  10  11
ENDBRANCH   9  10
ENDBRANCH   8   9
ENDBRANCH   7   8
ENDBRANCH   6   7
ENDBRANCH   5   6
ENDBRANCH   4   5
ENDBRANCH   3   4
ENDBRANCH   2   3
ENDBRANCH   1   2
BRANCH   1  13
ATOM     13  C   UNL     1      34.928  25.899  70.618  1.00  0.00     0.000 C 
BRANCH  13  14
ATOM     14  C   UNL     1      35.724  24.708  70.052  1.00  0.00     0.000 C 
BRANCH  14  15
ATOM     15  C   UNL     1      36.765  24.155  71.040  1.00  0.00     0.000 C 
BRANCH  15  16
ATOM     16  C   UNL     1      38.152  23.944  70.402  1.00  0.00     0.000 C 
BRANCH  16  17
ATOM     17  C   UNL     1      39.346  24.357  71.281  1.00  0.00     0.000 C 
BRANCH  17  18
ATOM     18  C   UNL     1      38.963  24.561  72.756  1.00  0.00     0.000 C 
BRANCH  18  19
ATOM     19  C   UNL     1      40.049  25.296  73.561  1.00  0.00     0.000 C 
BRANCH  19  20
ATOM     20  C   UNL     1      39.551  25.979  74.852  1.00  0.00     0.006 C 
BRANCH  20  21
ATOM     21  C   UNL     1      39.456  27.510  74.769  1.00  0.00     0.053 C 
BRANCH  21  22
ATOM     22  C   UNL     1      39.982  28.172  76.006  1.00  0.00     0.041 C 
ATOM     23  O   UNL     1      41.222  28.291  76.183  1.00  0.00    -0.550 OA
ATOM     24  O   UNL     1      39.102  28.634  76.977  1.00  0.00    -0.550 OA
ENDBRANCH  21  22
ENDBRANCH  20  21
ENDBRANCH  19  20
ENDBRANCH  18  19
ENDBRANCH  17  18
ENDBRANCH  16  17
ENDBRANCH  15  16
ENDBRANCH  14  15
ENDBRANCH  13  14
ENDBRANCH   1  13
TORSDOF 20
ENDMDL
MODEL 3
REMARK VINA RESULT:    -3.866      4.939     12.972
REMARK INTER + INTRA:          -8.992
REMARK INTER:                  -7.792
REMARK INTRA:                  -1.200
REMARK UNBOUND:                -0.605
REMARK SMILES CCCCCCCCCCCCCCCCCCCCCC(=O)[O-]
REMARK SMILES IDX 12 1 11 2 10 3 9 4 8 5 7 6 6 7 5 8 4 9 3 10 2 11 1 12 13 13
REMARK SMILES IDX 14 14 15 15 16 16 17 17 18 18 19 19 20 20 21 21 22 22 23 23
REMARK SMILES IDX 24 24
REMARK H PARENT
REMARK Flexibility Score: inf
ROOT
ATOM      1  C   UNL     1      31.298  27.202  63.421  1.00  0.00     0.000 C 
ENDROOT
BRANCH   1   2
ATOM      2  C   UNL     1      29.942  27.118  62.698  1.00  0.00     0.000 C 
BRANCH   2   3
ATOM      3  C   UNL     1      28.946  26.197  63.420  1.00  0.00     0.000 C 
BRANCH   3   4
ATOM      4  C   UNL     1      27.695  25.899  62.579  1.00  0.00    -0.000 C 
BRANCH   4   5
ATOM      5  C   UNL     1      27.746  24.475  62.006  1.00  0.00    -0.000 C 
BRANCH   5   6
ATOM      6  C   UNL     1      26.359  23.936  61.618  1.00  0.00    -0.000 C 
BRANCH   6   7
ATOM      7  C   UNL     1      25.183  24.501  62.441  1.00  0.00    -0.000 C 
BRANCH   7   8
ATOM      8  C   UNL     1      24.104  25.241  61.628  1.00  0.00    -0.000 C 
BRANCH   8   9
ATOM      9  C   UNL     1      24.698  26.149  60.537  1.00  0.00    -0.000 C 
BRANCH   9  10
ATOM     10  C   UNL     1      23.703  27.211  60.035  1.00  0.00    -0.000 C 
BRANCH  10  11
ATOM     11  C   UNL     1      24.176  28.023  58.817  1.00  0.00    -0.003 C 
ATOM     12  C   UNL     1      23.891  29.519  58.947  1.00  0.00     0.004 C 
ENDBRANCH  10  11
ENDBRANCH   9  10
ENDBRANCH   8   9
ENDBRANCH   7   8
ENDBRANCH   6   7
ENDBRANCH   5   6
ENDBRANCH   4   5
ENDBRANCH   3   4
ENDBRANCH   2   3
ENDBRANCH   1   2
BRANCH   1  13
ATOM     13  C   UNL     1      32.496  27.210  62.452  1.00  0.00     0.000 C 
BRANCH  13  14
ATOM     14  C   UNL     1      33.005  25.823  62.018  1.00  0.00     0.000 C 
BRANCH  14  15
ATOM     15  C   UNL     1      32.413  24.676  62.853  1.00  0.00     0.000 C 
BRANCH  15  16
ATOM     16  C   UNL     1      33.042  24.562  64.255  1.00  0.00     0.000 C 
BRANCH  16  17
ATOM     17  C   UNL     1      32.141  23.921  65.326  1.00  0.00     0.000 C 
BRANCH  17  18
ATOM     18  C   UNL     1      31.670  24.922  66.393  1.00  0.00     0.000 C 
BRANCH  18  19
ATOM     19  C   UNL     1      31.643  24.319  67.809  1.00  0.00     0.000 C 
BRANCH  19  20
ATOM     20  C   UNL     1      33.030  24.080  68.440  1.00  0.00     0.006 C 
BRANCH  20  21
ATOM     21  C   UNL     1      33.035  24.029  69.975  1.00  0.00     0.053 C 
BRANCH  21  22
ATOM     22  C   UNL     1      33.858  25.129  70.571  1.00  0.00     0.041 C 
ATOM     23  O   UNL     1      33.339  26.252  70.807  1.00  0.00    -0.550 OA
ATOM     24  O   UNL     1      35.205  24.923  70.842  1.00  0.00    -0.550 OA
ENDBRANCH  21  22
ENDBRANCH  20  21
ENDBRANCH  19  20
ENDBRANCH  18  19
ENDBRANCH  17  18
ENDBRANCH  16  17
ENDBRANCH  15  16
ENDBRANCH  14  15
ENDBRANCH  13  14
ENDBRANCH   1  13
TORSDOF 20
ENDMDL
MODEL 4
REMARK VINA RESULT:    -3.580      1.280      2.735
REMARK INTER + INTRA:          -8.371
REMARK INTER:                  -8.270
REMARK INTRA:                  -0.102
REMARK UNBOUND:                -0.605
REMARK SMILES CCCCCCCCCCCCCCCCCCCCCC(=O)[O-]
REMARK SMILES IDX 12 1 11 2 10 3 9 4 8 5 7 6 6 7 5 8 4 9 3 10 2 11 1 12 13 13
REMARK SMILES IDX 14 14 15 15 16 16 17 17 18 18 19 19 20 20 21 21 22 22 23 23
REMARK SMILES IDX 24 24
REMARK H PARENT
REMARK Flexibility Score: inf
ROOT
ATOM      1  C   UNL     1      31.174  23.955  70.207  1.00  0.00     0.000 C 
ENDROOT
BRANCH   1   2
ATOM      2  C   UNL     1      31.930  24.977  71.073  1.00  0.00     0.000 C 
BRANCH   2   3
ATOM      3  C   UNL     1      32.951  25.793  70.265  1.00  0.00     0.000 C 
BRANCH   3   4
ATOM      4  C   UNL     1      33.990  24.910  69.556  1.00  0.00    -0.000 C 
BRANCH   4   5
ATOM      5  C   UNL     1      34.799  24.093  70.573  1.00  0.00    -0.000 C 
BRANCH   5   6
ATOM      6  C   UNL     1      36.260  23.875  70.139  1.00  0.00    -0.000 C 
BRANCH   6   7
ATOM      7  C   UNL     1      37.320  24.267  71.189  1.00  0.00    -0.000 C 
BRANCH   7   8
ATOM      8  C   UNL     1      38.784  24.103  70.740  1.00  0.00    -0.000 C 
BRANCH   8   9
ATOM      9  C   UNL     1      39.786  24.312  71.889  1.00  0.00    -0.000 C 
BRANCH   9  10
ATOM     10  C   UNL     1      39.119  24.820  73.180  1.00  0.00    -0.000 C 
BRANCH  10  11
ATOM     11  C   UNL     1      40.082  25.429  74.215  1.00  0.00    -0.003 C 
ATOM     12  C   UNL     1      39.603  26.775  74.758  1.00  0.00     0.004 C 
ENDBRANCH  10  11
ENDBRANCH   9  10
ENDBRANCH   8   9
ENDBRANCH   7   8
ENDBRANCH   6   7
ENDBRANCH   5   6
ENDBRANCH   4   5
ENDBRANCH   3   4
ENDBRANCH   2   3
ENDBRANCH   1   2
BRANCH   1  13
ATOM     13  C   UNL     1      31.600  23.990  68.727  1.00  0.00     0.000 C 
BRANCH  13  14
ATOM     14  C   UNL     1      30.453  24.156  67.713  1.00  0.00     0.000 C 
BRANCH  14  15
ATOM     15  C   UNL     1      30.910  23.989  66.254  1.00  0.00     0.000 C 
BRANCH  15  16
ATOM     16  C   UNL     1      32.440  23.875  66.109  1.00  0.00     0.000 C 
BRANCH  16  17
ATOM     17  C   UNL     1      33.025  24.519  64.839  1.00  0.00     0.000 C 
BRANCH  17  18
ATOM     18  C   UNL     1      32.106  25.591  64.231  1.00  0.00     0.000 C 
BRANCH  18  19
ATOM     19  C   UNL     1      32.706  26.254  62.979  1.00  0.00     0.000 C 
BRANCH  19  20
ATOM     20  C   UNL     1      31.707  27.073  62.135  1.00  0.00     0.006 C 
BRANCH  20  21
ATOM     21  C   UNL     1      30.561  27.708  62.939  1.00  0.00     0.053 C 
BRANCH  21  22
ATOM     22  C   UNL     1      29.324  26.864  62.915  1.00  0.00     0.041 C 
ATOM     23  O   UNL     1      28.265  27.278  63.455  1.00  0.00    -0.550 OA
ATOM     24  O   UNL     1      29.348  25.608  62.321  1.00  0.00    -0.550 OA
ENDBRANCH  21  22
ENDBRANCH  20  21
ENDBRANCH  19  20
ENDBRANCH  18  19
ENDBRANCH  17  18
ENDBRANCH  16  17
ENDBRANCH  15  16
ENDBRANCH  14  15
ENDBRANCH  13  14
ENDBRANCH   1  13
TORSDOF 20
ENDMDL
MODEL 5
REMARK VINA RESULT:    -3.170      2.825      4.257
REMARK INTER + INTRA:          -7.481
REMARK INTER:                  -6.605
REMARK INTRA:                  -0.875
REMARK UNBOUND:                -0.605
REMARK SMILES CCCCCCCCCCCCCCCCCCCCCC(=O)[O-]
REMARK SMILES IDX 12 1 11 2 10 3 9 4 8 5 7 6 6 7 5 8 4 9 3 10 2 11 1 12 13 13
REMARK SMILES IDX 14 14 15 15 16 16 17 17 18 18 19 19 20 20 21 21 22 22 23 23
REMARK SMILES IDX 24 24
REMARK H PARENT
REMARK Flexibility Score: inf
ROOT
ATOM      1  C   UNL     1      32.402  24.055  68.626  1.00  0.00     0.000 C 
ENDROOT
BRANCH   1   2
ATOM      2  C   UNL     1      32.039  24.063  70.121  1.00  0.00     0.000 C 
BRANCH   2   3
ATOM      3  C   UNL     1      31.984  25.483  70.706  1.00  0.00     0.000 C 
BRANCH   3   4
ATOM      4  C   UNL     1      33.276  26.279  70.459  1.00  0.00    -0.000 C 
BRANCH   4   5
ATOM      5  C   UNL     1      34.420  25.751  71.337  1.00  0.00    -0.000 C 
BRANCH   5   6
ATOM      6  C   UNL     1      35.623  25.254  70.516  1.00  0.00    -0.000 C 
BRANCH   6   7
ATOM      7  C   UNL     1      36.764  24.625  71.342  1.00  0.00    -0.000 C 
BRANCH   7   8
ATOM      8  C   UNL     1      37.970  24.125  70.525  1.00  0.00    -0.000 C 
BRANCH   8   9
ATOM      9  C   UNL     1      39.246  23.982  71.373  1.00  0.00    -0.000 C 
BRANCH   9  10
ATOM     10  C   UNL     1      39.029  24.362  72.849  1.00  0.00    -0.000 C 
BRANCH  10  11
ATOM     11  C   UNL     1      40.053  25.358  73.423  1.00  0.00    -0.003 C 
ATOM     12  C   UNL     1      39.627  25.946  74.768  1.00  0.00     0.004 C 
ENDBRANCH  10  11
ENDBRANCH   9  10
ENDBRANCH   8   9
ENDBRANCH   7   8
ENDBRANCH   6   7
ENDBRANCH   5   6
ENDBRANCH   4   5
ENDBRANCH   3   4
ENDBRANCH   2   3
ENDBRANCH   1   2
BRANCH   1  13
ATOM     13  C   UNL     1      31.621  25.105  67.812  1.00  0.00     0.000 C 
BRANCH  13  14
ATOM     14  C   UNL     1      30.855  24.560  66.592  1.00  0.00     0.000 C 
BRANCH  14  15
ATOM     15  C   UNL     1      31.456  25.016  65.252  1.00  0.00     0.000 C 
BRANCH  15  16
ATOM     16  C   UNL     1      32.171  23.881  64.493  1.00  0.00     0.000 C 
BRANCH  16  17
ATOM     17  C   UNL     1      33.484  24.285  63.799  1.00  0.00     0.000 C 
BRANCH  17  18
ATOM     18  C   UNL     1      33.301  25.427  62.787  1.00  0.00     0.000 C 
BRANCH  18  19
ATOM     19  C   UNL     1      33.575  24.991  61.337  1.00  0.00     0.000 C 
BRANCH  19  20
ATOM     20  C   UNL     1      34.775  24.038  61.161  1.00  0.00     0.006 C 
BRANCH  20  21
ATOM     21  C   UNL     1      36.121  24.742  60.925  1.00  0.00     0.053 C 
BRANCH  21  22
ATOM     22  C   UNL     1      36.284  25.178  59.501  1.00  0.00     0.041 C 
ATOM     23  O   UNL     1      37.269  24.781  58.826  1.00  0.00    -0.550 OA
ATOM     24  O   UNL     1      35.361  26.044  58.927  1.00  0.00    -0.550 OA
ENDBRANCH  21  22
ENDBRANCH  20  21
ENDBRANCH  19  20
ENDBRANCH  18  19
ENDBRANCH  17  18
ENDBRANCH  16  17
ENDBRANCH  15  16
ENDBRANCH  14  15
ENDBRANCH  13  14
ENDBRANCH   1  13
TORSDOF 20
ENDMDL
MODEL 6
REMARK VINA RESULT:    -2.939      4.499      8.285
REMARK INTER + INTRA:          -6.980
REMARK INTER:                  -5.850
REMARK INTRA:                  -1.130
REMARK UNBOUND:                -0.605
REMARK SMILES CCCCCCCCCCCCCCCCCCCCCC(=O)[O-]
REMARK SMILES IDX 12 1 11 2 10 3 9 4 8 5 7 6 6 7 5 8 4 9 3 10 2 11 1 12 13 13
REMARK SMILES IDX 14 14 15 15 16 16 17 17 18 18 19 19 20 20 21 21 22 22 23 23
REMARK SMILES IDX 24 24
REMARK H PARENT
REMARK Flexibility Score: inf
ROOT
ATOM      1  C   UNL     1      31.819  27.129  62.144  1.00  0.00     0.000 C 
ENDROOT
BRANCH   1   2
ATOM      2  C   UNL     1      32.696  26.086  62.858  1.00  0.00     0.000 C 
BRANCH   2   3
ATOM      3  C   UNL     1      32.200  24.648  62.636  1.00  0.00     0.000 C 
BRANCH   3   4
ATOM      4  C   UNL     1      32.009  23.875  63.950  1.00  0.00    -0.000 C 
BRANCH   4   5
ATOM      5  C   UNL     1      32.842  24.499  65.078  1.00  0.00    -0.000 C 
BRANCH   5   6
ATOM      6  C   UNL     1      31.986  24.950  66.275  1.00  0.00    -0.000 C 
BRANCH   6   7
ATOM      7  C   UNL     1      31.782  23.885  67.372  1.00  0.00    -0.000 C 
BRANCH   7   8
ATOM      8  C   UNL     1      32.254  24.290  68.781  1.00  0.00    -0.000 C 
BRANCH   8   9
ATOM      9  C   UNL     1      31.094  24.713  69.699  1.00  0.00    -0.000 C 
BRANCH   9  10
ATOM     10  C   UNL     1      31.568  25.163  71.094  1.00  0.00    -0.000 C 
BRANCH  10  11
ATOM     11  C   UNL     1      32.382  26.469  71.115  1.00  0.00    -0.003 C 
ATOM     12  C   UNL     1      33.880  26.238  71.308  1.00  0.00     0.004 C 
ENDBRANCH  10  11
ENDBRANCH   9  10
ENDBRANCH   8   9
ENDBRANCH   7   8
ENDBRANCH   6   7
ENDBRANCH   5   6
ENDBRANCH   4   5
ENDBRANCH   3   4
ENDBRANCH   2   3
ENDBRANCH   1   2
BRANCH   1  13
ATOM     13  C   UNL     1      30.702  27.692  63.043  1.00  0.00     0.000 C 
BRANCH  13  14
ATOM     14  C   UNL     1      29.703  26.653  63.586  1.00  0.00     0.000 C 
BRANCH  14  15
ATOM     15  C   UNL     1      28.931  25.922  62.474  1.00  0.00     0.000 C 
BRANCH  15  16
ATOM     16  C   UNL     1      27.404  26.104  62.580  1.00  0.00     0.000 C 
BRANCH  16  17
ATOM     17  C   UNL     1      26.570  24.890  62.134  1.00  0.00     0.000 C 
BRANCH  17  18
ATOM     18  C   UNL     1      25.084  25.228  61.924  1.00  0.00     0.000 C 
BRANCH  18  19
ATOM     19  C   UNL     1      24.765  25.651  60.479  1.00  0.00     0.000 C 
BRANCH  19  20
ATOM     20  C   UNL     1      24.014  26.992  60.346  1.00  0.00     0.006 C 
BRANCH  20  21
ATOM     21  C   UNL     1      24.148  27.667  58.973  1.00  0.00     0.053 C 
BRANCH  21  22
ATOM     22  C   UNL     1      23.803  29.124  59.027  1.00  0.00     0.041 C 
ATOM     23  O   UNL     1      22.887  29.585  58.297  1.00  0.00    -0.550 OA
ATOM     24  O   UNL     1      24.510  29.976  59.866  1.00  0.00    -0.550 OA
ENDBRANCH  21  22
ENDBRANCH  20  21
ENDBRANCH  19  20
ENDBRANCH  18  19
ENDBRANCH  17  18
ENDBRANCH  16  17
ENDBRANCH  15  16
ENDBRANCH  14  15
ENDBRANCH  13  14
ENDBRANCH   1  13
TORSDOF 20
ENDMDL
MODEL 7
REMARK VINA RESULT:    -2.751      4.184     10.189
REMARK INTER + INTRA:          -6.572
REMARK INTER:                  -5.274
REMARK INTRA:                  -1.298
REMARK UNBOUND:                -0.605
REMARK SMILES CCCCCCCCCCCCCCCCCCCCCC(=O)[O-]
REMARK SMILES IDX 12 1 11 2 10 3 9 4 8 5 7 6 6 7 5 8 4 9 3 10 2 11 1 12 13 13
REMARK SMILES IDX 14 14 15 15 16 16 17 17 18 18 19 19 20 20 21 21 22 22 23 23
REMARK SMILES IDX 24 24
REMARK H PARENT
REMARK Flexibility Score: inf
ROOT
ATOM      1  C   UNL     1      31.620  26.327  70.769  1.00  0.00     0.000 C 
ENDROOT
BRANCH   1   2
ATOM      2  C   UNL     1      30.742  25.173  71.281  1.00  0.00     0.000 C 
BRANCH   2   3
ATOM      3  C   UNL     1      30.779  23.949  70.354  1.00  0.00     0.000 C 
BRANCH   3   4
ATOM      4  C   UNL     1      31.710  24.145  69.146  1.00  0.00    -0.000 C 
BRANCH   4   5
ATOM      5  C   UNL     1      30.921  24.079  67.831  1.00  0.00    -0.000 C 
BRANCH   5   6
ATOM      6  C   UNL     1      31.820  24.192  66.587  1.00  0.00    -0.000 C 
BRANCH   6   7
ATOM      7  C   UNL     1      31.233  25.023  65.428  1.00  0.00    -0.000 C 
BRANCH   7   8
ATOM      8  C   UNL     1      32.142  25.166  64.193  1.00  0.00    -0.000 C 
BRANCH   8   9
ATOM      9  C   UNL     1      31.454  25.897  63.027  1.00  0.00    -0.000 C 
BRANCH   9  10
ATOM     10  C   UNL     1      30.010  25.416  62.789  1.00  0.00    -0.000 C 
BRANCH  10  11
ATOM     11  C   UNL     1      28.914  26.377  63.283  1.00  0.00    -0.003 C 
ATOM     12  C   UNL     1      29.166  27.830  62.882  1.00  0.00     0.004 C 
ENDBRANCH  10  11
ENDBRANCH   9  10
ENDBRANCH   8   9
ENDBRANCH   7   8
ENDBRANCH   6   7
ENDBRANCH   5   6
ENDBRANCH   4   5
ENDBRANCH   3   4
ENDBRANCH   2   3
ENDBRANCH   1   2
BRANCH   1  13
ATOM     13  C   UNL     1      32.793  26.655  71.713  1.00  0.00     0.000 C 
BRANCH  13  14
ATOM     14  C   UNL     1      34.103  25.898  71.427  1.00  0.00     0.000 C 
BRANCH  14  15
ATOM     15  C   UNL     1      34.779  26.336  70.117  1.00  0.00     0.000 C 
BRANCH  15  16
ATOM     16  C   UNL     1      34.786  25.231  69.042  1.00  0.00     0.000 C 
BRANCH  16  17
ATOM     17  C   UNL     1      35.399  23.891  69.488  1.00  0.00     0.000 C 
BRANCH  17  18
ATOM     18  C   UNL     1      36.571  24.064  70.468  1.00  0.00     0.000 C 
BRANCH  18  19
ATOM     19  C   UNL     1      37.944  23.887  69.797  1.00  0.00     0.000 C 
BRANCH  19  20
ATOM     20  C   UNL     1      39.084  24.720  70.420  1.00  0.00     0.006 C 
BRANCH  20  21
ATOM     21  C   UNL     1      39.738  24.085  71.657  1.00  0.00     0.053 C 
BRANCH  21  22
ATOM     22  C   UNL     1      39.549  24.924  72.884  1.00  0.00     0.041 C 
ATOM     23  O   UNL     1      40.468  25.009  73.740  1.00  0.00    -0.550 OA
ATOM     24  O   UNL     1      38.349  25.592  73.094  1.00  0.00    -0.550 OA
ENDBRANCH  21  22
ENDBRANCH  20  21
ENDBRANCH  19  20
ENDBRANCH  18  19
ENDBRANCH  17  18
ENDBRANCH  16  17
ENDBRANCH  15  16
ENDBRANCH  14  15
ENDBRANCH  13  14
ENDBRANCH   1  13
TORSDOF 20
ENDMDL
