MODEL 1
REMARK VINA RESULT:    -3.388      0.000      0.000
REMARK INTER + INTRA:          -6.055
REMARK INTER:                  -5.368
REMARK INTRA:                  -0.686
REMARK UNBOUND:                -0.686
REMARK SMILES CCCCCCCCCCCC(=O)[O-]
REMARK SMILES IDX 7 1 8 2 9 3 10 4 11 5 12 6 13 7 14 8 6 9 5 10 4 11 3 12 2 13
REMARK SMILES IDX 1 14
REMARK H PARENT
REMARK Flexibility Score: inf
ROOT
ATOM      1  C   UNL     1      -7.604   5.922   7.432  1.00  0.00     0.000 C 
ENDROOT
BRANCH   1   2
ATOM      2  C   UNL     1      -7.510   5.131   8.755  1.00  0.00     0.000 C 
BRANCH   2   3
ATOM      3  C   UNL     1      -6.642   5.841   9.804  1.00  0.00     0.000 C 
BRANCH   3   4
ATOM      4  C   UNL     1      -5.233   6.116   9.258  1.00  0.00     0.006 C 
BRANCH   4   5
ATOM      5  C   UNL     1      -4.459   7.119  10.124  1.00  0.00     0.053 C 
BRANCH   5   6
ATOM      6  C   UNL     1      -4.396   8.472   9.484  1.00  0.00     0.041 C 
ATOM      7  O   UNL     1      -3.942   9.456  10.125  1.00  0.00    -0.550 OA
ATOM      8  O   UNL     1      -4.870   8.652   8.191  1.00  0.00    -0.550 OA
ENDBRANCH   5   6
ENDBRANCH   4   5
ENDBRANCH   3   4
ENDBRANCH   2   3
ENDBRANCH   1   2
BRANCH   1   9
ATOM      9  C   UNL     1      -8.997   5.873   6.776  1.00  0.00     0.000 C 
BRANCH   9  10
ATOM     10  C   UNL     1      -9.797   7.188   6.843  1.00  0.00    -0.000 C 
BRANCH  10  11
ATOM     11  C   UNL     1      -9.976   7.909   5.494  1.00  0.00    -0.000 C 
BRANCH  11  12
ATOM     12  C   UNL     1      -9.463   7.086   4.303  1.00  0.00    -0.000 C 
BRANCH  12  13
ATOM     13  C   UNL     1      -8.179   7.694   3.728  1.00  0.00    -0.003 C 
ATOM     14  C   UNL     1      -8.051   9.169   4.100  1.00  0.00     0.004 C 
ENDBRANCH  12  13
ENDBRANCH  11  12
ENDBRANCH  10  11
ENDBRANCH   9  10
ENDBRANCH   1   9
TORSDOF 10
ENDMDL
MODEL 2
REMARK VINA RESULT:    -3.355      1.371      2.490
REMARK INTER + INTRA:          -6.002
REMARK INTER:                  -5.106
REMARK INTRA:                  -0.896
REMARK UNBOUND:                -0.686
REMARK SMILES CCCCCCCCCCCC(=O)[O-]
REMARK SMILES IDX 7 1 8 2 9 3 10 4 11 5 12 6 13 7 14 8 6 9 5 10 4 11 3 12 2 13
REMARK SMILES IDX 1 14
REMARK H PARENT
REMARK Flexibility Score: inf
ROOT
ATOM      1  C   UNL     1      -9.329   7.041   5.863  1.00  0.00     0.000 C 
ENDROOT
BRANCH   1   2
ATOM      2  C   UNL     1      -8.190   6.164   6.425  1.00  0.00     0.000 C 
BRANCH   2   3
ATOM      3  C   UNL     1      -8.401   5.801   7.902  1.00  0.00     0.000 C 
BRANCH   3   4
ATOM      4  C   UNL     1      -7.107   5.996   8.707  1.00  0.00     0.006 C 
BRANCH   4   5
ATOM      5  C   UNL     1      -6.650   7.461   8.725  1.00  0.00     0.053 C 
BRANCH   5   6
ATOM      6  C   UNL     1      -5.168   7.582   8.547  1.00  0.00     0.041 C 
ATOM      7  O   UNL     1      -4.657   8.681   8.206  1.00  0.00    -0.550 OA
ATOM      8  O   UNL     1      -4.353   6.471   8.725  1.00  0.00    -0.550 OA
ENDBRANCH   5   6
ENDBRANCH   4   5
ENDBRANCH   3   4
ENDBRANCH   2   3
ENDBRANCH   1   2
BRANCH   1   9
ATOM      9  C   UNL     1      -9.465   6.977   4.330  1.00  0.00     0.000 C 
BRANCH   9  10
ATOM     10  C   UNL     1     -10.096   8.222   3.677  1.00  0.00    -0.000 C 
BRANCH  10  11
ATOM     11  C   UNL     1      -9.102   9.150   2.953  1.00  0.00    -0.000 C 
BRANCH  11  12
ATOM     12  C   UNL     1      -7.659   8.626   2.992  1.00  0.00    -0.000 C 
BRANCH  12  13
ATOM     13  C   UNL     1      -6.714   9.667   3.603  1.00  0.00    -0.003 C 
ATOM     14  C   UNL     1      -6.982   9.849   5.094  1.00  0.00     0.004 C 
ENDBRANCH  12  13
ENDBRANCH  11  12
ENDBRANCH  10  11
ENDBRANCH   9  10
ENDBRANCH   1   9
TORSDOF 10
ENDMDL
MODEL 3
REMARK VINA RESULT:    -3.229      2.303      5.860
REMARK INTER + INTRA:          -5.803
REMARK INTER:                  -5.014
REMARK INTRA:                  -0.789
REMARK UNBOUND:                -0.686
REMARK SMILES CCCCCCCCCCCC(=O)[O-]
REMARK SMILES IDX 7 1 8 2 9 3 10 4 11 5 12 6 13 7 14 8 6 9 5 10 4 11 3 12 2 13
REMARK SMILES IDX 1 14
REMARK H PARENT
REMARK Flexibility Score: inf
ROOT
ATOM      1  C   UNL     1      -7.476   5.951   7.499  1.00  0.00     0.000 C 
ENDROOT
BRANCH   1   2
ATOM      2  C   UNL     1      -8.831   5.921   6.759  1.00  0.00     0.000 C 
BRANCH   2   3
ATOM      3  C   UNL     1      -9.663   7.187   7.004  1.00  0.00     0.000 C 
BRANCH   3   4
ATOM      4  C   UNL     1     -10.119   7.812   5.677  1.00  0.00     0.006 C 
BRANCH   4   5
ATOM      5  C   UNL     1      -9.444   7.156   4.465  1.00  0.00     0.053 C 
BRANCH   5   6
ATOM      6  C   UNL     1      -8.547   8.114   3.743  1.00  0.00     0.041 C 
ATOM      7  O   UNL     1      -7.713   8.807   4.382  1.00  0.00    -0.550 OA
ATOM      8  O   UNL     1      -8.658   8.267   2.366  1.00  0.00    -0.550 OA
ENDBRANCH   5   6
ENDBRANCH   4   5
ENDBRANCH   3   4
ENDBRANCH   2   3
ENDBRANCH   1   2
BRANCH   1   9
ATOM      9  C   UNL     1      -7.556   5.475   8.962  1.00  0.00     0.000 C 
BRANCH   9  10
ATOM     10  C   UNL     1      -6.197   5.302   9.668  1.00  0.00    -0.000 C 
BRANCH  10  11
ATOM     11  C   UNL     1      -5.039   6.112   9.055  1.00  0.00    -0.000 C 
BRANCH  11  12
ATOM     12  C   UNL     1      -4.286   6.958  10.092  1.00  0.00    -0.000 C 
BRANCH  12  13
ATOM     13  C   UNL     1      -4.712   8.429  10.013  1.00  0.00    -0.003 C 
ATOM     14  C   UNL     1      -5.214   8.785   8.617  1.00  0.00     0.004 C 
ENDBRANCH  12  13
ENDBRANCH  11  12
ENDBRANCH  10  11
ENDBRANCH   9  10
ENDBRANCH   1   9
TORSDOF 10
ENDMDL
MODEL 4
REMARK VINA RESULT:    -3.188     23.506     24.523
REMARK INTER + INTRA:          -5.738
REMARK INTER:                  -5.279
REMARK INTRA:                  -0.460
REMARK UNBOUND:                -0.686
REMARK SMILES CCCCCCCCCCCC(=O)[O-]
REMARK SMILES IDX 7 1 8 2 9 3 10 4 11 5 12 6 13 7 14 8 6 9 5 10 4 11 3 12 2 13
REMARK SMILES IDX 1 14
REMARK H PARENT
REMARK Flexibility Score: inf
ROOT
ATOM      1  C   UNL     1       9.469  -4.970  -8.780  1.00  0.00     0.000 C 
ENDROOT
BRANCH   1   2
ATOM      2  C   UNL     1       9.379  -6.391  -8.181  1.00  0.00     0.000 C 
BRANCH   2   3
ATOM      3  C   UNL     1      10.098  -6.506  -6.830  1.00  0.00     0.000 C 
BRANCH   3   4
ATOM      4  C   UNL     1       9.855  -5.258  -5.968  1.00  0.00     0.006 C 
BRANCH   4   5
ATOM      5  C   UNL     1       9.944  -5.562  -4.467  1.00  0.00     0.053 C 
BRANCH   5   6
ATOM      6  C   UNL     1       9.280  -4.500  -3.645  1.00  0.00     0.041 C 
ATOM      7  O   UNL     1       8.573  -4.814  -2.652  1.00  0.00    -0.550 OA
ATOM      8  O   UNL     1       9.415  -3.162  -3.998  1.00  0.00    -0.550 OA
ENDBRANCH   5   6
ENDBRANCH   4   5
ENDBRANCH   3   4
ENDBRANCH   2   3
ENDBRANCH   1   2
BRANCH   1   9
ATOM      9  C   UNL     1       8.735  -4.814 -10.125  1.00  0.00     0.000 C 
BRANCH   9  10
ATOM     10  C   UNL     1       7.577  -3.797 -10.123  1.00  0.00    -0.000 C 
BRANCH  10  11
ATOM     11  C   UNL     1       8.009  -2.321 -10.033  1.00  0.00    -0.000 C 
BRANCH  11  12
ATOM     12  C   UNL     1       7.832  -1.731  -8.627  1.00  0.00    -0.000 C 
BRANCH  12  13
ATOM     13  C   UNL     1       7.274  -0.305  -8.696  1.00  0.00    -0.003 C 
ATOM     14  C   UNL     1       8.040   0.539  -9.711  1.00  0.00     0.004 C 
ENDBRANCH  12  13
ENDBRANCH  11  12
ENDBRANCH  10  11
ENDBRANCH   9  10
ENDBRANCH   1   9
TORSDOF 10
ENDMDL
MODEL 5
REMARK VINA RESULT:    -3.151      2.282      5.394
REMARK INTER + INTRA:          -5.679
REMARK INTER:                  -4.743
REMARK INTRA:                  -0.937
REMARK UNBOUND:                -0.686
REMARK SMILES CCCCCCCCCCCC(=O)[O-]
REMARK SMILES IDX 7 1 8 2 9 3 10 4 11 5 12 6 13 7 14 8 6 9 5 10 4 11 3 12 2 13
REMARK SMILES IDX 1 14
REMARK H PARENT
REMARK Flexibility Score: inf
ROOT
ATOM      1  C   UNL     1      -8.256   5.988   6.748  1.00  0.00     0.000 C 
ENDROOT
BRANCH   1   2
ATOM      2  C   UNL     1      -8.987   7.184   6.099  1.00  0.00     0.000 C 
BRANCH   2   3
ATOM      3  C   UNL     1      -9.270   6.961   4.607  1.00  0.00     0.000 C 
BRANCH   3   4
ATOM      4  C   UNL     1      -8.833   8.178   3.777  1.00  0.00     0.006 C 
BRANCH   4   5
ATOM      5  C   UNL     1      -7.988   9.165   4.594  1.00  0.00     0.053 C 
BRANCH   5   6
ATOM      6  C   UNL     1      -6.900   9.780   3.768  1.00  0.00     0.041 C 
ATOM      7  O   UNL     1      -7.063   9.957   2.533  1.00  0.00    -0.550 OA
ATOM      8  O   UNL     1      -5.690  10.125   4.359  1.00  0.00    -0.550 OA
ENDBRANCH   5   6
ENDBRANCH   4   5
ENDBRANCH   3   4
ENDBRANCH   2   3
ENDBRANCH   1   2
BRANCH   1   9
ATOM      9  C   UNL     1      -8.610   5.773   8.231  1.00  0.00     0.000 C 
BRANCH   9  10
ATOM     10  C   UNL     1      -7.614   4.901   9.021  1.00  0.00    -0.000 C 
BRANCH  10  11
ATOM     11  C   UNL     1      -6.311   5.612   9.431  1.00  0.00    -0.000 C 
BRANCH  11  12
ATOM     12  C   UNL     1      -6.481   7.130   9.586  1.00  0.00    -0.000 C 
BRANCH  12  13
ATOM     13  C   UNL     1      -5.513   7.887   8.669  1.00  0.00    -0.003 C 
ATOM     14  C   UNL     1      -6.226   9.006   7.915  1.00  0.00     0.004 C 
ENDBRANCH  12  13
ENDBRANCH  11  12
ENDBRANCH  10  11
ENDBRANCH   9  10
ENDBRANCH   1   9
TORSDOF 10
ENDMDL
MODEL 6
REMARK VINA RESULT:    -2.998      3.186      4.753
REMARK INTER + INTRA:          -5.437
REMARK INTER:                  -4.950
REMARK INTRA:                  -0.487
REMARK UNBOUND:                -0.686
REMARK SMILES CCCCCCCCCCCC(=O)[O-]
REMARK SMILES IDX 7 1 8 2 9 3 10 4 11 5 12 6 13 7 14 8 6 9 5 10 4 11 3 12 2 13
REMARK SMILES IDX 1 14
REMARK H PARENT
REMARK Flexibility Score: inf
ROOT
ATOM      1  C   UNL     1      -8.536   8.353   4.530  1.00  0.00     0.000 C 
ENDROOT
BRANCH   1   2
ATOM      2  C   UNL     1      -9.497   7.179   4.822  1.00  0.00     0.000 C 
BRANCH   2   3
ATOM      3  C   UNL     1      -9.483   6.762   6.300  1.00  0.00     0.000 C 
BRANCH   3   4
ATOM      4  C   UNL     1      -8.182   6.025   6.651  1.00  0.00     0.006 C 
BRANCH   4   5
ATOM      5  C   UNL     1      -7.623   6.452   8.014  1.00  0.00     0.053 C 
BRANCH   5   6
ATOM      6  C   UNL     1      -7.398   5.276   8.915  1.00  0.00     0.041 C 
ATOM      7  O   UNL     1      -6.288   5.117   9.488  1.00  0.00    -0.550 OA
ATOM      8  O   UNL     1      -8.406   4.337   9.096  1.00  0.00    -0.550 OA
ENDBRANCH   5   6
ENDBRANCH   4   5
ENDBRANCH   3   4
ENDBRANCH   2   3
ENDBRANCH   1   2
BRANCH   1   9
ATOM      9  C   UNL     1      -7.783   8.221   3.192  1.00  0.00     0.000 C 
BRANCH   9  10
ATOM     10  C   UNL     1      -8.084   9.327   2.162  1.00  0.00    -0.000 C 
BRANCH  10  11
ATOM     11  C   UNL     1      -9.522   9.328   1.611  1.00  0.00    -0.000 C 
BRANCH  11  12
ATOM     12  C   UNL     1      -9.644   8.619   0.254  1.00  0.00    -0.000 C 
BRANCH  12  13
ATOM     13  C   UNL     1      -8.770   9.305  -0.803  1.00  0.00    -0.003 C 
ATOM     14  C   UNL     1      -9.547   9.535  -2.096  1.00  0.00     0.004 C 
ENDBRANCH  12  13
ENDBRANCH  11  12
ENDBRANCH  10  11
ENDBRANCH   9  10
ENDBRANCH   1   9
TORSDOF 10
ENDMDL
MODEL 7
REMARK VINA RESULT:    -2.882      2.042      3.385
REMARK INTER + INTRA:          -5.254
REMARK INTER:                  -4.698
REMARK INTRA:                  -0.556
REMARK UNBOUND:                -0.686
REMARK SMILES CCCCCCCCCCCC(=O)[O-]
REMARK SMILES IDX 7 1 8 2 9 3 10 4 11 5 12 6 13 7 14 8 6 9 5 10 4 11 3 12 2 13
REMARK SMILES IDX 1 14
REMARK H PARENT
REMARK Flexibility Score: inf
ROOT
ATOM      1  C   UNL     1      -8.884   7.184   5.454  1.00  0.00     0.000 C 
ENDROOT
BRANCH   1   2
ATOM      2  C   UNL     1      -8.996   5.979   6.414  1.00  0.00     0.000 C 
BRANCH   2   3
ATOM      3  C   UNL     1      -9.648   6.352   7.753  1.00  0.00     0.000 C 
BRANCH   3   4
ATOM      4  C   UNL     1      -8.623   6.307   8.895  1.00  0.00     0.006 C 
BRANCH   4   5
ATOM      5  C   UNL     1      -7.303   5.653   8.465  1.00  0.00     0.053 C 
BRANCH   5   6
ATOM      6  C   UNL     1      -6.141   6.582   8.640  1.00  0.00     0.041 C 
ATOM      7  O   UNL     1      -6.263   7.808   8.382  1.00  0.00    -0.550 OA
ATOM      8  O   UNL     1      -4.911   6.086   9.056  1.00  0.00    -0.550 OA
ENDBRANCH   5   6
ENDBRANCH   4   5
ENDBRANCH   3   4
ENDBRANCH   2   3
ENDBRANCH   1   2
BRANCH   1   9
ATOM      9  C   UNL     1      -9.749   7.051   4.186  1.00  0.00     0.000 C 
BRANCH   9  10
ATOM     10  C   UNL     1      -9.606   8.204   3.174  1.00  0.00    -0.000 C 
BRANCH  10  11
ATOM     11  C   UNL     1      -8.261   8.953   3.228  1.00  0.00    -0.000 C 
BRANCH  11  12
ATOM     12  C   UNL     1      -7.831   9.510   1.863  1.00  0.00    -0.000 C 
BRANCH  12  13
ATOM     13  C   UNL     1      -9.043   9.709   0.945  1.00  0.00    -0.003 C 
ATOM     14  C   UNL     1      -8.723   9.302  -0.490  1.00  0.00     0.004 C 
ENDBRANCH  12  13
ENDBRANCH  11  12
ENDBRANCH  10  11
ENDBRANCH   9  10
ENDBRANCH   1   9
TORSDOF 10
ENDMDL
MODEL 8
REMARK VINA RESULT:    -2.838     13.156     14.788
REMARK INTER + INTRA:          -5.184
REMARK INTER:                  -4.723
REMARK INTRA:                  -0.461
REMARK UNBOUND:                -0.686
REMARK SMILES CCCCCCCCCCCC(=O)[O-]
REMARK SMILES IDX 7 1 8 2 9 3 10 4 11 5 12 6 13 7 14 8 6 9 5 10 4 11 3 12 2 13
REMARK SMILES IDX 1 14
REMARK H PARENT
REMARK Flexibility Score: inf
ROOT
ATOM      1  C   UNL     1      -6.118  -5.606   9.363  1.00  0.00     0.000 C 
ENDROOT
BRANCH   1   2
ATOM      2  C   UNL     1      -4.750  -4.979   9.016  1.00  0.00     0.000 C 
BRANCH   2   3
ATOM      3  C   UNL     1      -3.766  -6.000   8.429  1.00  0.00     0.000 C 
BRANCH   3   4
ATOM      4  C   UNL     1      -2.570  -6.214   9.368  1.00  0.00     0.006 C 
BRANCH   4   5
ATOM      5  C   UNL     1      -2.045  -7.655   9.322  1.00  0.00     0.053 C 
BRANCH   5   6
ATOM      6  C   UNL     1      -0.627  -7.745   9.796  1.00  0.00     0.041 C 
ATOM      7  O   UNL     1       0.001  -6.704  10.123  1.00  0.00    -0.550 OA
ATOM      8  O   UNL     1       0.013  -8.977   9.845  1.00  0.00    -0.550 OA
ENDBRANCH   5   6
ENDBRANCH   4   5
ENDBRANCH   3   4
ENDBRANCH   2   3
ENDBRANCH   1   2
BRANCH   1   9
ATOM      9  C   UNL     1      -7.282  -4.598   9.367  1.00  0.00     0.000 C 
BRANCH   9  10
ATOM     10  C   UNL     1      -8.657  -5.189   9.735  1.00  0.00    -0.000 C 
BRANCH  10  11
ATOM     11  C   UNL     1      -9.208  -6.225   8.737  1.00  0.00    -0.000 C 
BRANCH  11  12
ATOM     12  C   UNL     1     -10.011  -7.343   9.417  1.00  0.00    -0.000 C 
BRANCH  12  13
ATOM     13  C   UNL     1      -9.107  -8.530   9.771  1.00  0.00    -0.003 C 
ATOM     14  C   UNL     1      -8.624  -9.250   8.515  1.00  0.00     0.004 C 
ENDBRANCH  12  13
ENDBRANCH  11  12
ENDBRANCH  10  11
ENDBRANCH   9  10
ENDBRANCH   1   9
TORSDOF 10
ENDMDL
MODEL 9
REMARK VINA RESULT:    -2.824      3.451      6.527
REMARK INTER + INTRA:          -5.161
REMARK INTER:                  -4.384
REMARK INTRA:                  -0.777
REMARK UNBOUND:                -0.686
REMARK SMILES CCCCCCCCCCCC(=O)[O-]
REMARK SMILES IDX 7 1 8 2 9 3 10 4 11 5 12 6 13 7 14 8 6 9 5 10 4 11 3 12 2 13
REMARK SMILES IDX 1 14
REMARK H PARENT
REMARK Flexibility Score: inf
ROOT
ATOM      1  C   UNL     1      -7.864   8.201   6.860  1.00  0.00     0.000 C 
ENDROOT
BRANCH   1   2
ATOM      2  C   UNL     1      -8.374   9.132   5.738  1.00  0.00     0.000 C 
BRANCH   2   3
ATOM      3  C   UNL     1      -7.249   9.597   4.802  1.00  0.00     0.000 C 
BRANCH   3   4
ATOM      4  C   UNL     1      -7.400   8.971   3.408  1.00  0.00     0.006 C 
BRANCH   4   5
ATOM      5  C   UNL     1      -8.661   9.462   2.684  1.00  0.00     0.053 C 
BRANCH   5   6
ATOM      6  C   UNL     1      -9.521   8.322   2.232  1.00  0.00     0.041 C 
ATOM      7  O   UNL     1      -9.767   8.158   1.009  1.00  0.00    -0.550 OA
ATOM      8  O   UNL     1     -10.080   7.460   3.168  1.00  0.00    -0.550 OA
ENDBRANCH   5   6
ENDBRANCH   4   5
ENDBRANCH   3   4
ENDBRANCH   2   3
ENDBRANCH   1   2
BRANCH   1   9
ATOM      9  C   UNL     1      -8.260   6.724   6.670  1.00  0.00     0.000 C 
BRANCH   9  10
ATOM     10  C   UNL     1      -7.590   5.738   7.646  1.00  0.00    -0.000 C 
BRANCH  10  11
ATOM     11  C   UNL     1      -7.233   6.328   9.024  1.00  0.00    -0.000 C 
BRANCH  11  12
ATOM     12  C   UNL     1      -5.912   5.782   9.584  1.00  0.00    -0.000 C 
BRANCH  12  13
ATOM     13  C   UNL     1      -4.711   6.408   8.865  1.00  0.00    -0.003 C 
ATOM     14  C   UNL     1      -4.801   7.932   8.863  1.00  0.00     0.004 C 
ENDBRANCH  12  13
ENDBRANCH  11  12
ENDBRANCH  10  11
ENDBRANCH   9  10
ENDBRANCH   1   9
TORSDOF 10
ENDMDL
