MODEL 1
REMARK VINA RESULT:    -6.947      0.000      0.000
REMARK INTER + INTRA:         -10.822
REMARK INTER:                  -9.993
REMARK INTRA:                  -0.828
REMARK UNBOUND:                -0.828
REMARK SMILES O=c1cc(-c2ccc(O)c(O)c2)oc2cc(O[C@H]3O[C@H](CO)[C@@H](O)[C@H](O)[C@@H]3O)cc(O)c12
REMARK SMILES IDX 17 1 16 2 4 3 3 4 13 5 2 6 14 7 1 8 32 9 15 10 30 11 29 12
REMARK SMILES IDX 5 13 6 14 7 15 8 16 12 17 10 18 9 19 11 21 31 23 18 25 27 26
REMARK SMILES IDX 19 27 25 28 20 29 23 30 28 31 26 33 21 35 22 36 24 38
REMARK H PARENT 9 20 11 22 31 24 28 32 26 34 22 37 24 39
REMARK Flexibility Score: inf
ROOT
ATOM      1  O   UNL     1      21.745   2.784  43.095  1.00  0.00    -0.462 OA
ENDROOT
BRANCH   1   2
ATOM      2  C   UNL     1      21.029   1.662  43.544  1.00  0.00     0.130 A 
ATOM      3  C   UNL     1      20.907  -2.697  45.478  1.00  0.00     0.138 A 
ATOM      4  C   UNL     1      19.507  -2.753  45.436  1.00  0.00     0.100 A 
ATOM      5  O   UNL     1      21.527  -1.617  45.018  1.00  0.00    -0.456 OA
ATOM      6  C   UNL     1      18.788  -1.671  44.928  1.00  0.00     0.197 A 
ATOM      7  C   UNL     1      20.893  -0.566  44.508  1.00  0.00     0.146 A 
ATOM      8  O   UNL     1      17.531  -1.727  44.962  1.00  0.00    -0.289 OA
ATOM      9  C   UNL     1      19.476  -0.546  44.415  1.00  0.00     0.107 A 
ATOM     10  C   UNL     1      21.652   0.522  44.072  1.00  0.00     0.094 A 
ATOM     11  C   UNL     1      18.851   0.598  43.836  1.00  0.00     0.134 A 
ATOM     12  C   UNL     1      19.637   1.688  43.439  1.00  0.00     0.093 A 
BRANCH   3  13
ATOM     13  C   UNL     1      21.729  -3.814  46.017  1.00  0.00     0.021 A 
ATOM     14  C   UNL     1      22.722  -3.604  46.993  1.00  0.00     0.016 A 
ATOM     15  C   UNL     1      23.481  -4.673  47.473  1.00  0.00     0.051 A 
ATOM     16  C   UNL     1      23.275  -5.968  46.978  1.00  0.00     0.157 A 
ATOM     17  C   UNL     1      21.540  -5.114  45.515  1.00  0.00     0.062 A 
ATOM     18  C   UNL     1      22.303  -6.187  45.989  1.00  0.00     0.158 A 
BRANCH  16  19
ATOM     19  O   UNL     1      24.034  -7.033  47.460  1.00  0.00    -0.504 OA
ATOM     20  H   UNL     1      24.724  -6.904  48.191  1.00  0.00     0.293 HD
ENDBRANCH  16  19
BRANCH  18  21
ATOM     21  O   UNL     1      22.084  -7.461  45.463  1.00  0.00    -0.504 OA
ATOM     22  H   UNL     1      21.520  -8.152  45.942  1.00  0.00     0.293 HD
ENDBRANCH  18  21
ENDBRANCH   3  13
BRANCH  11  23
ATOM     23  O   UNL     1      17.475   0.708  43.606  1.00  0.00    -0.507 OA
ATOM     24  H   UNL     1      16.811  -0.043  43.697  1.00  0.00     0.293 HD
ENDBRANCH  11  23
ENDBRANCH   1   2
BRANCH   1  25
ATOM     25  C   UNL     1      21.748   3.301  41.759  1.00  0.00     0.339 C 
ATOM     26  C   UNL     1      22.357   2.291  40.761  1.00  0.00     0.214 C 
ATOM     27  O   UNL     1      22.436   4.541  41.708  1.00  0.00    -0.332 OA
ATOM     28  C   UNL     1      23.860   2.119  41.037  1.00  0.00     0.180 C 
ATOM     29  C   UNL     1      23.800   4.410  42.088  1.00  0.00     0.179 C 
ATOM     30  C   UNL     1      24.554   3.487  41.096  1.00  0.00     0.177 C 
BRANCH  26  31
ATOM     31  O   UNL     1      22.168   2.748  39.445  1.00  0.00    -0.384 OA
ATOM     32  H   UNL     1      23.074   2.902  39.063  1.00  0.00     0.211 HD
ENDBRANCH  26  31
BRANCH  28  33
ATOM     33  O   UNL     1      24.454   1.335  40.037  1.00  0.00    -0.387 OA
ATOM     34  H   UNL     1      23.716   0.934  39.509  1.00  0.00     0.211 HD
ENDBRANCH  28  33
BRANCH  29  35
ATOM     35  C   UNL     1      24.411   5.817  42.124  1.00  0.00     0.191 C 
BRANCH  35  36
ATOM     36  O   UNL     1      24.241   6.460  40.890  1.00  0.00    -0.394 OA
ATOM     37  H   UNL     1      24.308   5.751  40.198  1.00  0.00     0.210 HD
ENDBRANCH  35  36
ENDBRANCH  29  35
BRANCH  30  38
ATOM     38  O   UNL     1      25.884   3.299  41.509  1.00  0.00    -0.387 OA
ATOM     39  H   UNL     1      26.333   4.182  41.459  1.00  0.00     0.211 HD
ENDBRANCH  30  38
ENDBRANCH   1  25
TORSDOF 11
ENDMDL
MODEL 2
REMARK VINA RESULT:    -6.885      5.725     11.635
REMARK INTER + INTRA:         -10.733
REMARK INTER:                  -9.834
REMARK INTRA:                  -0.899
REMARK UNBOUND:                -0.828
REMARK SMILES O=c1cc(-c2ccc(O)c(O)c2)oc2cc(O[C@H]3O[C@H](CO)[C@@H](O)[C@H](O)[C@@H]3O)cc(O)c12
REMARK SMILES IDX 17 1 16 2 4 3 3 4 13 5 2 6 14 7 1 8 32 9 15 10 30 11 29 12
REMARK SMILES IDX 5 13 6 14 7 15 8 16 12 17 10 18 9 19 11 21 31 23 18 25 27 26
REMARK SMILES IDX 19 27 25 28 20 29 23 30 28 31 26 33 21 35 22 36 24 38
REMARK H PARENT 9 20 11 22 31 24 28 32 26 34 22 37 24 39
REMARK Flexibility Score: inf
ROOT
ATOM      1  O   UNL     1      25.599   3.806  42.143  1.00  0.00    -0.462 OA
ENDROOT
BRANCH   1   2
ATOM      2  C   UNL     1      26.910   4.204  41.833  1.00  0.00     0.130 A 
ATOM      3  C   UNL     1      30.951   6.468  42.977  1.00  0.00     0.138 A 
ATOM      4  C   UNL     1      31.577   6.102  41.778  1.00  0.00     0.100 A 
ATOM      5  O   UNL     1      29.701   6.078  43.201  1.00  0.00    -0.456 OA
ATOM      6  C   UNL     1      30.887   5.325  40.847  1.00  0.00     0.197 A 
ATOM      7  C   UNL     1      28.993   5.352  42.343  1.00  0.00     0.146 A 
ATOM      8  O   UNL     1      31.500   4.961  39.810  1.00  0.00    -0.289 OA
ATOM      9  C   UNL     1      29.545   4.951  41.098  1.00  0.00     0.107 A 
ATOM     10  C   UNL     1      27.691   4.986  42.696  1.00  0.00     0.094 A 
ATOM     11  C   UNL     1      28.731   4.193  40.206  1.00  0.00     0.134 A 
ATOM     12  C   UNL     1      27.442   3.813  40.603  1.00  0.00     0.093 A 
BRANCH   3  13
ATOM     13  C   UNL     1      31.637   7.288  44.012  1.00  0.00     0.021 A 
ATOM     14  C   UNL     1      30.947   8.247  44.780  1.00  0.00     0.016 A 
ATOM     15  C   UNL     1      31.623   9.004  45.739  1.00  0.00     0.051 A 
ATOM     16  C   UNL     1      32.999   8.831  45.940  1.00  0.00     0.157 A 
ATOM     17  C   UNL     1      33.020   7.131  44.211  1.00  0.00     0.062 A 
ATOM     18  C   UNL     1      33.701   7.893  45.166  1.00  0.00     0.158 A 
BRANCH  16  19
ATOM     19  O   UNL     1      33.669   9.588  46.899  1.00  0.00    -0.504 OA
ATOM     20  H   UNL     1      33.247  10.411  47.314  1.00  0.00     0.293 HD
ENDBRANCH  16  19
BRANCH  18  21
ATOM     21  O   UNL     1      35.074   7.707  45.330  1.00  0.00    -0.504 OA
ATOM     22  H   UNL     1      35.605   7.071  44.748  1.00  0.00     0.293 HD
ENDBRANCH  18  21
ENDBRANCH   3  13
BRANCH  11  23
ATOM     23  O   UNL     1      29.121   3.810  38.919  1.00  0.00    -0.507 OA
ATOM     24  H   UNL     1      29.513   2.915  38.675  1.00  0.00     0.293 HD
ENDBRANCH  11  23
ENDBRANCH   1   2
BRANCH   1  25
ATOM     25  C   UNL     1      24.425   4.112  41.381  1.00  0.00     0.339 C 
ATOM     26  C   UNL     1      23.198   4.337  42.294  1.00  0.00     0.214 C 
ATOM     27  O   UNL     1      24.169   3.089  40.431  1.00  0.00    -0.332 OA
ATOM     28  C   UNL     1      22.799   3.017  42.973  1.00  0.00     0.180 C 
ATOM     29  C   UNL     1      23.925   1.834  41.052  1.00  0.00     0.179 C 
ATOM     30  C   UNL     1      22.648   1.902  41.929  1.00  0.00     0.177 C 
BRANCH  26  31
ATOM     31  O   UNL     1      22.120   4.822  41.532  1.00  0.00    -0.384 OA
ATOM     32  H   UNL     1      21.864   4.094  40.905  1.00  0.00     0.211 HD
ENDBRANCH  26  31
BRANCH  28  33
ATOM     33  O   UNL     1      21.592   3.173  43.671  1.00  0.00    -0.387 OA
ATOM     34  H   UNL     1      21.764   3.819  44.403  1.00  0.00     0.211 HD
ENDBRANCH  28  33
BRANCH  29  35
ATOM     35  C   UNL     1      23.790   0.783  39.941  1.00  0.00     0.191 C 
BRANCH  35  36
ATOM     36  O   UNL     1      24.081  -0.496  40.436  1.00  0.00    -0.394 OA
ATOM     37  H   UNL     1      24.557  -0.357  41.296  1.00  0.00     0.210 HD
ENDBRANCH  35  36
ENDBRANCH  29  35
BRANCH  30  38
ATOM     38  O   UNL     1      22.444   0.683  42.600  1.00  0.00    -0.387 OA
ATOM     39  H   UNL     1      22.300  -0.012  41.906  1.00  0.00     0.211 HD
ENDBRANCH  30  38
ENDBRANCH   1  25
TORSDOF 11
ENDMDL
MODEL 3
REMARK VINA RESULT:    -6.812      6.557     11.963
REMARK INTER + INTRA:         -10.627
REMARK INTER:                  -9.674
REMARK INTRA:                  -0.953
REMARK UNBOUND:                -0.828
REMARK SMILES O=c1cc(-c2ccc(O)c(O)c2)oc2cc(O[C@H]3O[C@H](CO)[C@@H](O)[C@H](O)[C@@H]3O)cc(O)c12
REMARK SMILES IDX 17 1 16 2 4 3 3 4 13 5 2 6 14 7 1 8 32 9 15 10 30 11 29 12
REMARK SMILES IDX 5 13 6 14 7 15 8 16 12 17 10 18 9 19 11 21 31 23 18 25 27 26
REMARK SMILES IDX 19 27 25 28 20 29 23 30 28 31 26 33 21 35 22 36 24 38
REMARK H PARENT 9 20 11 22 31 24 28 32 26 34 22 37 24 39
REMARK Flexibility Score: inf
ROOT
ATOM      1  O   UNL     1      26.706   3.839  41.703  1.00  0.00    -0.462 OA
ENDROOT
BRANCH   1   2
ATOM      2  C   UNL     1      27.875   4.262  42.358  1.00  0.00     0.130 A 
ATOM      3  C   UNL     1      32.489   5.473  42.272  1.00  0.00     0.138 A 
ATOM      4  C   UNL     1      32.514   5.748  43.645  1.00  0.00     0.100 A 
ATOM      5  O   UNL     1      31.358   5.054  41.715  1.00  0.00    -0.456 OA
ATOM      6  C   UNL     1      31.352   5.593  44.403  1.00  0.00     0.197 A 
ATOM      7  C   UNL     1      30.228   4.875  42.391  1.00  0.00     0.146 A 
ATOM      8  O   UNL     1      31.393   5.908  45.620  1.00  0.00    -0.289 OA
ATOM      9  C   UNL     1      30.170   5.115  43.789  1.00  0.00     0.107 A 
ATOM     10  C   UNL     1      29.095   4.448  41.693  1.00  0.00     0.094 A 
ATOM     11  C   UNL     1      28.938   4.882  44.467  1.00  0.00     0.134 A 
ATOM     12  C   UNL     1      27.810   4.487  43.734  1.00  0.00     0.093 A 
BRANCH   3  13
ATOM     13  C   UNL     1      33.691   5.627  41.410  1.00  0.00     0.021 A 
ATOM     14  C   UNL     1      34.332   6.870  41.240  1.00  0.00     0.016 A 
ATOM     15  C   UNL     1      35.455   6.982  40.419  1.00  0.00     0.051 A 
ATOM     16  C   UNL     1      35.951   5.861  39.739  1.00  0.00     0.157 A 
ATOM     17  C   UNL     1      34.188   4.511  40.711  1.00  0.00     0.062 A 
ATOM     18  C   UNL     1      35.309   4.621  39.883  1.00  0.00     0.158 A 
BRANCH  16  19
ATOM     19  O   UNL     1      37.073   5.976  38.920  1.00  0.00    -0.504 OA
ATOM     20  H   UNL     1      37.443   6.882  38.653  1.00  0.00     0.293 HD
ENDBRANCH  16  19
BRANCH  18  21
ATOM     21  O   UNL     1      35.768   3.489  39.207  1.00  0.00    -0.504 OA
ATOM     22  H   UNL     1      35.478   2.554  39.465  1.00  0.00     0.293 HD
ENDBRANCH  18  21
ENDBRANCH   3  13
BRANCH  11  23
ATOM     23  O   UNL     1      28.769   4.996  45.851  1.00  0.00    -0.507 OA
ATOM     24  H   UNL     1      29.484   5.283  46.500  1.00  0.00     0.293 HD
ENDBRANCH  11  23
ENDBRANCH   1   2
BRANCH   1  25
ATOM     25  C   UNL     1      25.860   4.654  40.883  1.00  0.00     0.339 C 
ATOM     26  C   UNL     1      24.853   5.462  41.733  1.00  0.00     0.214 C 
ATOM     27  O   UNL     1      25.187   3.859  39.919  1.00  0.00    -0.332 OA
ATOM     28  C   UNL     1      23.838   4.511  42.389  1.00  0.00     0.180 C 
ATOM     29  C   UNL     1      24.342   2.890  40.525  1.00  0.00     0.179 C 
ATOM     30  C   UNL     1      23.216   3.582  41.337  1.00  0.00     0.177 C 
BRANCH  26  31
ATOM     31  O   UNL     1      24.176   6.387  40.919  1.00  0.00    -0.384 OA
ATOM     32  H   UNL     1      23.894   7.135  41.511  1.00  0.00     0.211 HD
ENDBRANCH  26  31
BRANCH  28  33
ATOM     33  O   UNL     1      22.824   5.243  43.025  1.00  0.00    -0.387 OA
ATOM     34  H   UNL     1      22.971   6.197  42.798  1.00  0.00     0.211 HD
ENDBRANCH  28  33
BRANCH  29  35
ATOM     35  C   UNL     1      23.769   2.007  39.407  1.00  0.00     0.191 C 
BRANCH  35  36
ATOM     36  O   UNL     1      22.516   2.483  38.997  1.00  0.00    -0.394 OA
ATOM     37  H   UNL     1      22.501   3.450  39.223  1.00  0.00     0.210 HD
ENDBRANCH  35  36
ENDBRANCH  29  35
BRANCH  30  38
ATOM     38  O   UNL     1      22.422   2.627  41.994  1.00  0.00    -0.387 OA
ATOM     39  H   UNL     1      21.725   2.334  41.352  1.00  0.00     0.211 HD
ENDBRANCH  30  38
ENDBRANCH   1  25
TORSDOF 11
ENDMDL
MODEL 4
REMARK VINA RESULT:    -6.733      1.636      2.900
REMARK INTER + INTRA:         -10.513
REMARK INTER:                  -9.765
REMARK INTRA:                  -0.748
REMARK UNBOUND:                -0.828
REMARK SMILES O=c1cc(-c2ccc(O)c(O)c2)oc2cc(O[C@H]3O[C@H](CO)[C@@H](O)[C@H](O)[C@@H]3O)cc(O)c12
REMARK SMILES IDX 17 1 16 2 4 3 3 4 13 5 2 6 14 7 1 8 32 9 15 10 30 11 29 12
REMARK SMILES IDX 5 13 6 14 7 15 8 16 12 17 10 18 9 19 11 21 31 23 18 25 27 26
REMARK SMILES IDX 19 27 25 28 20 29 23 30 28 31 26 33 21 35 22 36 24 38
REMARK H PARENT 9 20 11 22 31 24 28 32 26 34 22 37 24 39
REMARK Flexibility Score: inf
ROOT
ATOM      1  O   UNL     1      21.828   2.363  42.803  1.00  0.00    -0.462 OA
ENDROOT
BRANCH   1   2
ATOM      2  C   UNL     1      20.879   1.593  43.495  1.00  0.00     0.130 A 
ATOM      3  C   UNL     1      19.546  -2.492  45.568  1.00  0.00     0.138 A 
ATOM      4  C   UNL     1      18.302  -1.974  45.950  1.00  0.00     0.100 A 
ATOM      5  O   UNL     1      20.392  -1.720  44.896  1.00  0.00    -0.456 OA
ATOM      6  C   UNL     1      17.976  -0.654  45.633  1.00  0.00     0.197 A 
ATOM      7  C   UNL     1      20.127  -0.464  44.554  1.00  0.00     0.146 A 
ATOM      8  O   UNL     1      16.877  -0.201  46.045  1.00  0.00    -0.289 OA
ATOM      9  C   UNL     1      18.884   0.136  44.888  1.00  0.00     0.107 A 
ATOM     10  C   UNL     1      21.103   0.258  43.862  1.00  0.00     0.094 A 
ATOM     11  C   UNL     1      18.644   1.479  44.474  1.00  0.00     0.134 A 
ATOM     12  C   UNL     1      19.656   2.187  43.811  1.00  0.00     0.093 A 
BRANCH   3  13
ATOM     13  C   UNL     1      19.955  -3.887  45.884  1.00  0.00     0.021 A 
ATOM     14  C   UNL     1      21.130  -4.457  45.355  1.00  0.00     0.016 A 
ATOM     15  C   UNL     1      21.481  -5.773  45.667  1.00  0.00     0.051 A 
ATOM     16  C   UNL     1      20.661  -6.548  46.498  1.00  0.00     0.157 A 
ATOM     17  C   UNL     1      19.132  -4.678  46.706  1.00  0.00     0.062 A 
ATOM     18  C   UNL     1      19.477  -5.998  47.015  1.00  0.00     0.158 A 
BRANCH  16  19
ATOM     19  O   UNL     1      21.016  -7.859  46.808  1.00  0.00    -0.504 OA
ATOM     20  H   UNL     1      21.541  -8.434  46.159  1.00  0.00     0.293 HD
ENDBRANCH  16  19
BRANCH  18  21
ATOM     21  O   UNL     1      18.631  -6.748  47.832  1.00  0.00    -0.504 OA
ATOM     22  H   UNL     1      17.808  -6.349  48.266  1.00  0.00     0.293 HD
ENDBRANCH  18  21
ENDBRANCH   3  13
BRANCH  11  23
ATOM     23  O   UNL     1      17.435   2.155  44.662  1.00  0.00    -0.507 OA
ATOM     24  H   UNL     1      17.159   2.623  45.510  1.00  0.00     0.293 HD
ENDBRANCH  11  23
ENDBRANCH   1   2
BRANCH   1  25
ATOM     25  C   UNL     1      23.247   2.172  42.831  1.00  0.00     0.339 C 
ATOM     26  C   UNL     1      24.003   3.486  42.528  1.00  0.00     0.214 C 
ATOM     27  O   UNL     1      23.629   1.148  41.925  1.00  0.00    -0.332 OA
ATOM     28  C   UNL     1      23.769   3.902  41.066  1.00  0.00     0.180 C 
ATOM     29  C   UNL     1      23.296   1.473  40.582  1.00  0.00     0.179 C 
ATOM     30  C   UNL     1      24.074   2.733  40.120  1.00  0.00     0.177 C 
BRANCH  26  31
ATOM     31  O   UNL     1      25.379   3.307  42.753  1.00  0.00    -0.384 OA
ATOM     32  H   UNL     1      25.832   4.127  42.418  1.00  0.00     0.211 HD
ENDBRANCH  26  31
BRANCH  28  33
ATOM     33  O   UNL     1      24.580   4.998  40.735  1.00  0.00    -0.387 OA
ATOM     34  H   UNL     1      24.042   5.815  40.902  1.00  0.00     0.211 HD
ENDBRANCH  28  33
BRANCH  29  35
ATOM     35  C   UNL     1      23.630   0.254  39.711  1.00  0.00     0.191 C 
BRANCH  35  36
ATOM     36  O   UNL     1      23.712  -0.904  40.495  1.00  0.00    -0.394 OA
ATOM     37  H   UNL     1      24.225  -0.652  41.308  1.00  0.00     0.210 HD
ENDBRANCH  35  36
ENDBRANCH  29  35
BRANCH  30  38
ATOM     38  O   UNL     1      23.695   3.098  38.817  1.00  0.00    -0.387 OA
ATOM     39  H   UNL     1      23.813   2.297  38.243  1.00  0.00     0.211 HD
ENDBRANCH  30  38
ENDBRANCH   1  25
TORSDOF 11
ENDMDL
MODEL 5
REMARK VINA RESULT:    -6.529      4.736     10.644
REMARK INTER + INTRA:         -10.220
REMARK INTER:                  -9.509
REMARK INTRA:                  -0.710
REMARK UNBOUND:                -0.828
REMARK SMILES O=c1cc(-c2ccc(O)c(O)c2)oc2cc(O[C@H]3O[C@H](CO)[C@@H](O)[C@H](O)[C@@H]3O)cc(O)c12
REMARK SMILES IDX 17 1 16 2 4 3 3 4 13 5 2 6 14 7 1 8 32 9 15 10 30 11 29 12
REMARK SMILES IDX 5 13 6 14 7 15 8 16 12 17 10 18 9 19 11 21 31 23 18 25 27 26
REMARK SMILES IDX 19 27 25 28 20 29 23 30 28 31 26 33 21 35 22 36 24 38
REMARK H PARENT 9 20 11 22 31 24 28 32 26 34 22 37 24 39
REMARK Flexibility Score: inf
ROOT
ATOM      1  O   UNL     1      24.183   4.013  42.875  1.00  0.00    -0.462 OA
ENDROOT
BRANCH   1   2
ATOM      2  C   UNL     1      25.081   5.026  42.499  1.00  0.00     0.130 A 
ATOM      3  C   UNL     1      29.516   6.524  41.577  1.00  0.00     0.138 A 
ATOM      4  C   UNL     1      29.085   7.816  41.248  1.00  0.00     0.100 A 
ATOM      5  O   UNL     1      28.619   5.617  41.948  1.00  0.00    -0.456 OA
ATOM      6  C   UNL     1      27.726   8.126  41.300  1.00  0.00     0.197 A 
ATOM      7  C   UNL     1      27.316   5.862  42.030  1.00  0.00     0.146 A 
ATOM      8  O   UNL     1      27.367   9.277  40.939  1.00  0.00    -0.289 OA
ATOM      9  C   UNL     1      26.796   7.149  41.729  1.00  0.00     0.107 A 
ATOM     10  C   UNL     1      26.466   4.822  42.415  1.00  0.00     0.094 A 
ATOM     11  C   UNL     1      25.393   7.362  41.859  1.00  0.00     0.134 A 
ATOM     12  C   UNL     1      24.562   6.290  42.213  1.00  0.00     0.093 A 
BRANCH   3  13
ATOM     13  C   UNL     1      30.950   6.130  41.532  1.00  0.00     0.021 A 
ATOM     14  C   UNL     1      31.559   5.672  40.348  1.00  0.00     0.016 A 
ATOM     15  C   UNL     1      32.906   5.304  40.341  1.00  0.00     0.051 A 
ATOM     16  C   UNL     1      33.665   5.370  41.517  1.00  0.00     0.157 A 
ATOM     17  C   UNL     1      31.716   6.179  42.711  1.00  0.00     0.062 A 
ATOM     18  C   UNL     1      33.064   5.804  42.709  1.00  0.00     0.158 A 
BRANCH  16  19
ATOM     19  O   UNL     1      35.010   5.002  41.507  1.00  0.00    -0.504 OA
ATOM     20  H   UNL     1      35.693   5.510  40.957  1.00  0.00     0.293 HD
ENDBRANCH  16  19
BRANCH  18  21
ATOM     21  O   UNL     1      33.787   5.867  43.900  1.00  0.00    -0.504 OA
ATOM     22  H   UNL     1      34.785   6.036  43.917  1.00  0.00     0.293 HD
ENDBRANCH  18  21
ENDBRANCH   3  13
BRANCH  11  23
ATOM     23  O   UNL     1      24.766   8.599  41.678  1.00  0.00    -0.507 OA
ATOM     24  H   UNL     1      23.771   8.752  41.700  1.00  0.00     0.293 HD
ENDBRANCH  11  23
ENDBRANCH   1   2
BRANCH   1  25
ATOM     25  C   UNL     1      22.903   3.760  42.282  1.00  0.00     0.339 C 
ATOM     26  C   UNL     1      22.197   2.556  42.946  1.00  0.00     0.214 C 
ATOM     27  O   UNL     1      23.036   3.561  40.883  1.00  0.00    -0.332 OA
ATOM     28  C   UNL     1      22.957   1.259  42.626  1.00  0.00     0.180 C 
ATOM     29  C   UNL     1      23.846   2.434  40.580  1.00  0.00     0.179 C 
ATOM     30  C   UNL     1      23.190   1.134  41.114  1.00  0.00     0.177 C 
BRANCH  26  31
ATOM     31  O   UNL     1      20.876   2.459  42.475  1.00  0.00    -0.384 OA
ATOM     32  H   UNL     1      20.419   1.784  43.045  1.00  0.00     0.211 HD
ENDBRANCH  26  31
BRANCH  28  33
ATOM     33  O   UNL     1      22.236   0.145  43.083  1.00  0.00    -0.387 OA
ATOM     34  H   UNL     1      22.395  -0.587  42.433  1.00  0.00     0.211 HD
ENDBRANCH  28  33
BRANCH  29  35
ATOM     35  C   UNL     1      24.029   2.387  39.056  1.00  0.00     0.191 C 
BRANCH  35  36
ATOM     36  O   UNL     1      24.412   3.644  38.568  1.00  0.00    -0.394 OA
ATOM     37  H   UNL     1      23.903   3.779  37.725  1.00  0.00     0.210 HD
ENDBRANCH  35  36
ENDBRANCH  29  35
BRANCH  30  38
ATOM     38  O   UNL     1      24.023   0.026  40.878  1.00  0.00    -0.387 OA
ATOM     39  H   UNL     1      24.946   0.374  40.763  1.00  0.00     0.211 HD
ENDBRANCH  30  38
ENDBRANCH   1  25
TORSDOF 11
ENDMDL
MODEL 6
REMARK VINA RESULT:    -6.528      1.252      2.733
REMARK INTER + INTRA:         -10.219
REMARK INTER:                  -9.526
REMARK INTRA:                  -0.693
REMARK UNBOUND:                -0.828
REMARK SMILES O=c1cc(-c2ccc(O)c(O)c2)oc2cc(O[C@H]3O[C@H](CO)[C@@H](O)[C@H](O)[C@@H]3O)cc(O)c12
REMARK SMILES IDX 17 1 16 2 4 3 3 4 13 5 2 6 14 7 1 8 32 9 15 10 30 11 29 12
REMARK SMILES IDX 5 13 6 14 7 15 8 16 12 17 10 18 9 19 11 21 31 23 18 25 27 26
REMARK SMILES IDX 19 27 25 28 20 29 23 30 28 31 26 33 21 35 22 36 24 38
REMARK H PARENT 9 20 11 22 31 24 28 32 26 34 22 37 24 39
REMARK Flexibility Score: inf
ROOT
ATOM      1  O   UNL     1      21.758   1.981  43.049  1.00  0.00    -0.462 OA
ENDROOT
BRANCH   1   2
ATOM      2  C   UNL     1      20.970   0.964  43.612  1.00  0.00     0.130 A 
ATOM      3  C   UNL     1      20.558  -3.294  45.725  1.00  0.00     0.138 A 
ATOM      4  C   UNL     1      19.164  -3.187  45.825  1.00  0.00     0.100 A 
ATOM      5  O   UNL     1      21.245  -2.307  45.162  1.00  0.00    -0.456 OA
ATOM      6  C   UNL     1      18.522  -2.045  45.346  1.00  0.00     0.197 A 
ATOM      7  C   UNL     1      20.684  -1.205  44.676  1.00  0.00     0.146 A 
ATOM      8  O   UNL     1      17.278  -1.953  45.507  1.00  0.00    -0.289 OA
ATOM      9  C   UNL     1      19.277  -1.022  44.722  1.00  0.00     0.107 A 
ATOM     10  C   UNL     1      21.512  -0.225  44.122  1.00  0.00     0.094 A 
ATOM     11  C   UNL     1      18.728   0.168  44.162  1.00  0.00     0.134 A 
ATOM     12  C   UNL     1      19.586   1.148  43.645  1.00  0.00     0.093 A 
BRANCH   3  13
ATOM     13  C   UNL     1      21.300  -4.482  46.225  1.00  0.00     0.021 A 
ATOM     14  C   UNL     1      21.341  -5.692  45.504  1.00  0.00     0.016 A 
ATOM     15  C   UNL     1      22.042  -6.791  46.005  1.00  0.00     0.051 A 
ATOM     16  C   UNL     1      22.701  -6.710  47.239  1.00  0.00     0.157 A 
ATOM     17  C   UNL     1      21.953  -4.416  47.469  1.00  0.00     0.062 A 
ATOM     18  C   UNL     1      22.650  -5.517  47.976  1.00  0.00     0.158 A 
BRANCH  16  19
ATOM     19  O   UNL     1      23.400  -7.809  47.735  1.00  0.00    -0.504 OA
ATOM     20  H   UNL     1      24.389  -7.934  47.553  1.00  0.00     0.293 HD
ENDBRANCH  16  19
BRANCH  18  21
ATOM     21  O   UNL     1      23.282  -5.408  49.216  1.00  0.00    -0.504 OA
ATOM     22  H   UNL     1      23.500  -6.218  49.783  1.00  0.00     0.293 HD
ENDBRANCH  18  21
ENDBRANCH   3  13
BRANCH  11  23
ATOM     23  O   UNL     1      17.357   0.431  44.065  1.00  0.00    -0.507 OA
ATOM     24  H   UNL     1      16.953   1.334  43.875  1.00  0.00     0.293 HD
ENDBRANCH  11  23
ENDBRANCH   1   2
BRANCH   1  25
ATOM     25  C   UNL     1      23.190   2.013  43.013  1.00  0.00     0.339 C 
ATOM     26  C   UNL     1      23.719   3.430  42.693  1.00  0.00     0.214 C 
ATOM     27  O   UNL     1      23.683   1.065  42.078  1.00  0.00    -0.332 OA
ATOM     28  C   UNL     1      23.357   3.813  41.249  1.00  0.00     0.180 C 
ATOM     29  C   UNL     1      23.245   1.343  40.755  1.00  0.00     0.179 C 
ATOM     30  C   UNL     1      23.796   2.711  40.276  1.00  0.00     0.177 C 
BRANCH  26  31
ATOM     31  O   UNL     1      25.115   3.465  42.856  1.00  0.00    -0.384 OA
ATOM     32  H   UNL     1      25.401   4.397  42.658  1.00  0.00     0.211 HD
ENDBRANCH  26  31
BRANCH  28  33
ATOM     33  O   UNL     1      23.973   5.023  40.897  1.00  0.00    -0.387 OA
ATOM     34  H   UNL     1      23.828   5.651  41.651  1.00  0.00     0.211 HD
ENDBRANCH  28  33
BRANCH  29  35
ATOM     35  C   UNL     1      23.722   0.196  39.855  1.00  0.00     0.191 C 
BRANCH  35  36
ATOM     36  O   UNL     1      23.684  -1.022  40.546  1.00  0.00    -0.394 OA
ATOM     37  H   UNL     1      24.595  -1.158  40.917  1.00  0.00     0.210 HD
ENDBRANCH  35  36
ENDBRANCH  29  35
BRANCH  30  38
ATOM     38  O   UNL     1      23.306   3.021  38.995  1.00  0.00    -0.387 OA
ATOM     39  H   UNL     1      23.129   3.997  38.978  1.00  0.00     0.211 HD
ENDBRANCH  30  38
ENDBRANCH   1  25
TORSDOF 11
ENDMDL
MODEL 7
REMARK VINA RESULT:    -6.485      1.213      2.316
REMARK INTER + INTRA:         -10.156
REMARK INTER:                  -9.257
REMARK INTRA:                  -0.899
REMARK UNBOUND:                -0.828
REMARK SMILES O=c1cc(-c2ccc(O)c(O)c2)oc2cc(O[C@H]3O[C@H](CO)[C@@H](O)[C@H](O)[C@@H]3O)cc(O)c12
REMARK SMILES IDX 17 1 16 2 4 3 3 4 13 5 2 6 14 7 1 8 32 9 15 10 30 11 29 12
REMARK SMILES IDX 5 13 6 14 7 15 8 16 12 17 10 18 9 19 11 21 31 23 18 25 27 26
REMARK SMILES IDX 19 27 25 28 20 29 23 30 28 31 26 33 21 35 22 36 24 38
REMARK H PARENT 9 20 11 22 31 24 28 32 26 34 22 37 24 39
REMARK Flexibility Score: inf
ROOT
ATOM      1  O   UNL     1      22.279   2.969  43.024  1.00  0.00    -0.462 OA
ENDROOT
BRANCH   1   2
ATOM      2  C   UNL     1      21.413   1.949  43.451  1.00  0.00     0.130 A 
ATOM      3  C   UNL     1      20.683  -2.422  45.218  1.00  0.00     0.138 A 
ATOM      4  C   UNL     1      19.290  -2.266  45.218  1.00  0.00     0.100 A 
ATOM      5  O   UNL     1      21.447  -1.428  44.781  1.00  0.00    -0.456 OA
ATOM      6  C   UNL     1      18.729  -1.067  44.775  1.00  0.00     0.197 A 
ATOM      7  C   UNL     1      20.966  -0.274  44.333  1.00  0.00     0.146 A 
ATOM      8  O   UNL     1      17.480  -0.936  44.847  1.00  0.00    -0.289 OA
ATOM      9  C   UNL     1      19.567  -0.037  44.284  1.00  0.00     0.107 A 
ATOM     10  C   UNL     1      21.870   0.706  43.915  1.00  0.00     0.094 A 
ATOM     11  C   UNL     1      19.107   1.211  43.770  1.00  0.00     0.134 A 
ATOM     12  C   UNL     1      20.038   2.187  43.391  1.00  0.00     0.093 A 
BRANCH   3  13
ATOM     13  C   UNL     1      21.340  -3.672  45.687  1.00  0.00     0.021 A 
ATOM     14  C   UNL     1      22.244  -3.677  46.768  1.00  0.00     0.016 A 
ATOM     15  C   UNL     1      22.849  -4.867  47.179  1.00  0.00     0.051 A 
ATOM     16  C   UNL     1      22.577  -6.069  46.511  1.00  0.00     0.157 A 
ATOM     17  C   UNL     1      21.084  -4.881  45.015  1.00  0.00     0.062 A 
ATOM     18  C   UNL     1      21.694  -6.073  45.420  1.00  0.00     0.158 A 
BRANCH  16  19
ATOM     19  O   UNL     1      23.181  -7.254  46.925  1.00  0.00    -0.504 OA
ATOM     20  H   UNL     1      23.990  -7.632  46.445  1.00  0.00     0.293 HD
ENDBRANCH  16  19
BRANCH  18  21
ATOM     21  O   UNL     1      21.413  -7.249  44.724  1.00  0.00    -0.504 OA
ATOM     22  H   UNL     1      22.098  -7.987  44.615  1.00  0.00     0.293 HD
ENDBRANCH  18  21
ENDBRANCH   3  13
BRANCH  11  23
ATOM     23  O   UNL     1      17.759   1.536  43.588  1.00  0.00    -0.507 OA
ATOM     24  H   UNL     1      17.410   2.211  42.927  1.00  0.00     0.293 HD
ENDBRANCH  11  23
ENDBRANCH   1   2
BRANCH   1  25
ATOM     25  C   UNL     1      23.671   3.079  43.344  1.00  0.00     0.339 C 
ATOM     26  C   UNL     1      24.014   4.473  43.916  1.00  0.00     0.214 C 
ATOM     27  O   UNL     1      24.467   2.788  42.206  1.00  0.00    -0.332 OA
ATOM     28  C   UNL     1      23.855   5.543  42.823  1.00  0.00     0.180 C 
ATOM     29  C   UNL     1      24.229   3.701  41.142  1.00  0.00     0.179 C 
ATOM     30  C   UNL     1      24.630   5.140  41.561  1.00  0.00     0.177 C 
BRANCH  26  31
ATOM     31  O   UNL     1      25.335   4.480  44.396  1.00  0.00    -0.384 OA
ATOM     32  H   UNL     1      25.280   4.395  45.385  1.00  0.00     0.211 HD
ENDBRANCH  26  31
BRANCH  28  33
ATOM     33  O   UNL     1      24.321   6.784  43.283  1.00  0.00    -0.387 OA
ATOM     34  H   UNL     1      25.134   6.604  43.822  1.00  0.00     0.211 HD
ENDBRANCH  28  33
BRANCH  29  35
ATOM     35  C   UNL     1      25.035   3.223  39.928  1.00  0.00     0.191 C 
BRANCH  35  36
ATOM     36  O   UNL     1      24.695   3.964  38.787  1.00  0.00    -0.394 OA
ATOM     37  H   UNL     1      25.063   4.875  38.931  1.00  0.00     0.210 HD
ENDBRANCH  35  36
ENDBRANCH  29  35
BRANCH  30  38
ATOM     38  O   UNL     1      24.329   6.055  40.538  1.00  0.00    -0.387 OA
ATOM     39  H   UNL     1      24.856   5.785  39.741  1.00  0.00     0.211 HD
ENDBRANCH  30  38
ENDBRANCH   1  25
TORSDOF 11
ENDMDL
MODEL 8
REMARK VINA RESULT:    -6.456      1.891      3.397
REMARK INTER + INTRA:         -10.114
REMARK INTER:                  -9.273
REMARK INTRA:                  -0.841
REMARK UNBOUND:                -0.828
REMARK SMILES O=c1cc(-c2ccc(O)c(O)c2)oc2cc(O[C@H]3O[C@H](CO)[C@@H](O)[C@H](O)[C@@H]3O)cc(O)c12
REMARK SMILES IDX 17 1 16 2 4 3 3 4 13 5 2 6 14 7 1 8 32 9 15 10 30 11 29 12
REMARK SMILES IDX 5 13 6 14 7 15 8 16 12 17 10 18 9 19 11 21 31 23 18 25 27 26
REMARK SMILES IDX 19 27 25 28 20 29 23 30 28 31 26 33 21 35 22 36 24 38
REMARK H PARENT 9 20 11 22 31 24 28 32 26 34 22 37 24 39
REMARK Flexibility Score: inf
ROOT
ATOM      1  O   UNL     1      22.943   3.640  42.856  1.00  0.00    -0.462 OA
ENDROOT
BRANCH   1   2
ATOM      2  C   UNL     1      21.723   2.961  43.013  1.00  0.00     0.130 A 
ATOM      3  C   UNL     1      19.213  -0.775  44.596  1.00  0.00     0.138 A 
ATOM      4  C   UNL     1      18.000  -0.243  44.138  1.00  0.00     0.100 A 
ATOM      5  O   UNL     1      20.336  -0.094  44.397  1.00  0.00    -0.456 OA
ATOM      6  C   UNL     1      17.987   0.996  43.495  1.00  0.00     0.197 A 
ATOM      7  C   UNL     1      20.384   1.080  43.777  1.00  0.00     0.146 A 
ATOM      8  O   UNL     1      16.875   1.474  43.152  1.00  0.00    -0.289 OA
ATOM      9  C   UNL     1      19.203   1.684  43.269  1.00  0.00     0.107 A 
ATOM     10  C   UNL     1      21.622   1.712  43.643  1.00  0.00     0.094 A 
ATOM     11  C   UNL     1      19.318   2.933  42.591  1.00  0.00     0.134 A 
ATOM     12  C   UNL     1      20.569   3.558  42.502  1.00  0.00     0.093 A 
BRANCH   3  13
ATOM     13  C   UNL     1      19.290  -2.085  45.296  1.00  0.00     0.021 A 
ATOM     14  C   UNL     1      18.240  -2.559  46.107  1.00  0.00     0.016 A 
ATOM     15  C   UNL     1      18.347  -3.791  46.755  1.00  0.00     0.051 A 
ATOM     16  C   UNL     1      19.507  -4.566  46.620  1.00  0.00     0.157 A 
ATOM     17  C   UNL     1      20.456  -2.863  45.178  1.00  0.00     0.062 A 
ATOM     18  C   UNL     1      20.569  -4.094  45.832  1.00  0.00     0.158 A 
BRANCH  16  19
ATOM     19  O   UNL     1      19.610  -5.795  47.268  1.00  0.00    -0.504 OA
ATOM     20  H   UNL     1      20.492  -6.123  47.645  1.00  0.00     0.293 HD
ENDBRANCH  16  19
BRANCH  18  21
ATOM     21  O   UNL     1      21.744  -4.833  45.689  1.00  0.00    -0.504 OA
ATOM     22  H   UNL     1      21.735  -5.825  45.484  1.00  0.00     0.293 HD
ENDBRANCH  18  21
ENDBRANCH   3  13
BRANCH  11  23
ATOM     23  O   UNL     1      18.251   3.590  41.969  1.00  0.00    -0.507 OA
ATOM     24  H   UNL     1      18.070   4.579  42.023  1.00  0.00     0.293 HD
ENDBRANCH  11  23
ENDBRANCH   1   2
BRANCH   1  25
ATOM     25  C   UNL     1      24.239   3.033  42.778  1.00  0.00     0.339 C 
ATOM     26  C   UNL     1      25.346   4.087  42.552  1.00  0.00     0.214 C 
ATOM     27  O   UNL     1      24.264   2.045  41.760  1.00  0.00    -0.332 OA
ATOM     28  C   UNL     1      25.203   4.708  41.153  1.00  0.00     0.180 C 
ATOM     29  C   UNL     1      24.004   2.597  40.476  1.00  0.00     0.179 C 
ATOM     30  C   UNL     1      25.111   3.610  40.085  1.00  0.00     0.177 C 
BRANCH  26  31
ATOM     31  O   UNL     1      26.610   3.484  42.674  1.00  0.00    -0.384 OA
ATOM     32  H   UNL     1      27.283   4.187  42.467  1.00  0.00     0.211 HD
ENDBRANCH  26  31
BRANCH  28  33
ATOM     33  O   UNL     1      26.297   5.543  40.875  1.00  0.00    -0.387 OA
ATOM     34  H   UNL     1      25.930   6.443  40.680  1.00  0.00     0.211 HD
ENDBRANCH  28  33
BRANCH  29  35
ATOM     35  C   UNL     1      23.926   1.434  39.476  1.00  0.00     0.191 C 
BRANCH  35  36
ATOM     36  O   UNL     1      22.957   1.691  38.496  1.00  0.00    -0.394 OA
ATOM     37  H   UNL     1      22.510   2.536  38.766  1.00  0.00     0.210 HD
ENDBRANCH  35  36
ENDBRANCH  29  35
BRANCH  30  38
ATOM     38  O   UNL     1      24.819   4.209  38.847  1.00  0.00    -0.387 OA
ATOM     39  H   UNL     1      23.864   4.024  38.651  1.00  0.00     0.211 HD
ENDBRANCH  30  38
ENDBRANCH   1  25
TORSDOF 11
ENDMDL
MODEL 9
REMARK VINA RESULT:    -6.424      1.558      9.218
REMARK INTER + INTRA:         -10.069
REMARK INTER:                  -9.171
REMARK INTRA:                  -0.898
REMARK UNBOUND:                -0.828
REMARK SMILES O=c1cc(-c2ccc(O)c(O)c2)oc2cc(O[C@H]3O[C@H](CO)[C@@H](O)[C@H](O)[C@@H]3O)cc(O)c12
REMARK SMILES IDX 17 1 16 2 4 3 3 4 13 5 2 6 14 7 1 8 32 9 15 10 30 11 29 12
REMARK SMILES IDX 5 13 6 14 7 15 8 16 12 17 10 18 9 19 11 21 31 23 18 25 27 26
REMARK SMILES IDX 19 27 25 28 20 29 23 30 28 31 26 33 21 35 22 36 24 38
REMARK H PARENT 9 20 11 22 31 24 28 32 26 34 22 37 24 39
REMARK Flexibility Score: inf
ROOT
ATOM      1  O   UNL     1      21.283  -4.651  45.942  1.00  0.00    -0.462 OA
ENDROOT
BRANCH   1   2
ATOM      2  C   UNL     1      20.657  -3.438  45.609  1.00  0.00     0.130 A 
ATOM      3  C   UNL     1      20.800   0.935  43.707  1.00  0.00     0.138 A 
ATOM      4  C   UNL     1      19.443   1.169  43.968  1.00  0.00     0.100 A 
ATOM      5  O   UNL     1      21.339  -0.224  44.067  1.00  0.00    -0.456 OA
ATOM      6  C   UNL     1      18.678   0.179  44.586  1.00  0.00     0.197 A 
ATOM      7  C   UNL     1      20.662  -1.194  44.672  1.00  0.00     0.146 A 
ATOM      8  O   UNL     1      17.449   0.397  44.749  1.00  0.00    -0.289 OA
ATOM      9  C   UNL     1      19.286  -1.034  44.987  1.00  0.00     0.107 A 
ATOM     10  C   UNL     1      21.332  -2.378  44.987  1.00  0.00     0.094 A 
ATOM     11  C   UNL     1      18.616  -2.098  45.660  1.00  0.00     0.134 A 
ATOM     12  C   UNL     1      19.307  -3.286  45.931  1.00  0.00     0.093 A 
BRANCH   3  13
ATOM     13  C   UNL     1      21.666   1.946  43.043  1.00  0.00     0.021 A 
ATOM     14  C   UNL     1      21.422   3.329  43.162  1.00  0.00     0.016 A 
ATOM     15  C   UNL     1      22.250   4.252  42.520  1.00  0.00     0.051 A 
ATOM     16  C   UNL     1      23.326   3.814  41.736  1.00  0.00     0.157 A 
ATOM     17  C   UNL     1      22.739   1.517  42.242  1.00  0.00     0.062 A 
ATOM     18  C   UNL     1      23.567   2.439  41.593  1.00  0.00     0.158 A 
BRANCH  16  19
ATOM     19  O   UNL     1      24.151   4.739  41.098  1.00  0.00    -0.504 OA
ATOM     20  H   UNL     1      24.492   4.583  40.156  1.00  0.00     0.293 HD
ENDBRANCH  16  19
BRANCH  18  21
ATOM     21  O   UNL     1      24.620   1.970  40.806  1.00  0.00    -0.504 OA
ATOM     22  H   UNL     1      25.050   1.067  40.965  1.00  0.00     0.293 HD
ENDBRANCH  18  21
ENDBRANCH   3  13
BRANCH  11  23
ATOM     23  O   UNL     1      17.291  -2.035  46.103  1.00  0.00    -0.507 OA
ATOM     24  H   UNL     1      16.526  -1.632  45.586  1.00  0.00     0.293 HD
ENDBRANCH  11  23
ENDBRANCH   1   2
BRANCH   1  25
ATOM     25  C   UNL     1      20.998  -5.931  45.366  1.00  0.00     0.339 C 
ATOM     26  C   UNL     1      20.157  -6.809  46.320  1.00  0.00     0.214 C 
ATOM     27  O   UNL     1      22.200  -6.589  44.999  1.00  0.00    -0.332 OA
ATOM     28  C   UNL     1      20.993  -7.196  47.552  1.00  0.00     0.180 C 
ATOM     29  C   UNL     1      23.037  -6.835  46.121  1.00  0.00     0.179 C 
ATOM     30  C   UNL     1      22.339  -7.794  47.120  1.00  0.00     0.177 C 
BRANCH  26  31
ATOM     31  O   UNL     1      19.736  -7.971  45.651  1.00  0.00    -0.384 OA
ATOM     32  H   UNL     1      18.742  -7.984  45.699  1.00  0.00     0.211 HD
ENDBRANCH  26  31
BRANCH  28  33
ATOM     33  O   UNL     1      20.298  -8.125  48.341  1.00  0.00    -0.387 OA
ATOM     34  H   UNL     1      19.362  -7.806  48.404  1.00  0.00     0.211 HD
ENDBRANCH  28  33
BRANCH  29  35
ATOM     35  C   UNL     1      24.355  -7.426  45.600  1.00  0.00     0.191 C 
BRANCH  35  36
ATOM     36  O   UNL     1      25.320  -7.448  46.615  1.00  0.00    -0.394 OA
ATOM     37  H   UNL     1      26.154  -7.091  46.211  1.00  0.00     0.210 HD
ENDBRANCH  35  36
ENDBRANCH  29  35
BRANCH  30  38
ATOM     38  O   UNL     1      23.135  -7.982  48.264  1.00  0.00    -0.387 OA
ATOM     39  H   UNL     1      23.196  -8.960  48.419  1.00  0.00     0.211 HD
ENDBRANCH  30  38
ENDBRANCH   1  25
TORSDOF 11
ENDMDL
