MODEL 1
REMARK VINA RESULT:    -0.800      0.000      0.000
REMARK INTER + INTRA:          -4.668
REMARK INTER:                  -1.549
REMARK INTRA:                  -3.119
REMARK UNBOUND:                -3.119
REMARK SMILES CCCCCCCCCCCCCCCCCC(=O)[O-]
REMARK SMILES IDX 10 1 11 2 12 3 13 4 14 5 15 6 16 7 17 8 18 9 19 10 20 11
REMARK SMILES IDX 9 12 8 13 7 14 6 15 5 16 4 17 3 18 2 19 1 20
REMARK H PARENT
REMARK Flexibility Score: inf
ROOT
ATOM      1  C   UNL     1      33.056   5.362  40.904  1.00  0.00     0.000 C 
ENDROOT
BRANCH   1   2
ATOM      2  C   UNL     1      32.162   4.164  41.266  1.00  0.00     0.000 C 
BRANCH   2   3
ATOM      3  C   UNL     1      32.367   2.965  40.322  1.00  0.00     0.000 C 
BRANCH   3   4
ATOM      4  C   UNL     1      33.168   1.829  40.980  1.00  0.00     0.000 C 
BRANCH   4   5
ATOM      5  C   UNL     1      34.686   1.993  40.792  1.00  0.00     0.000 C 
BRANCH   5   6
ATOM      6  C   UNL     1      35.435   2.140  42.125  1.00  0.00     0.000 C 
BRANCH   6   7
ATOM      7  C   UNL     1      36.590   3.150  42.051  1.00  0.00     0.006 C 
BRANCH   7   8
ATOM      8  C   UNL     1      37.942   2.434  41.984  1.00  0.00     0.053 C 
BRANCH   8   9
ATOM      9  C   UNL     1      38.455   2.410  40.579  1.00  0.00     0.041 C 
ATOM     10  O   UNL     1      38.102   1.494  39.791  1.00  0.00    -0.550 OA
ATOM     11  O   UNL     1      39.285   3.426  40.124  1.00  0.00    -0.550 OA
ENDBRANCH   8   9
ENDBRANCH   7   8
ENDBRANCH   6   7
ENDBRANCH   5   6
ENDBRANCH   4   5
ENDBRANCH   3   4
ENDBRANCH   2   3
ENDBRANCH   1   2
BRANCH   1  12
ATOM     12  C   UNL     1      34.011   5.757  42.044  1.00  0.00     0.000 C 
BRANCH  12  13
ATOM     13  C   UNL     1      35.264   6.485  41.531  1.00  0.00    -0.000 C 
BRANCH  13  14
ATOM     14  C   UNL     1      35.252   6.674  40.004  1.00  0.00    -0.000 C 
BRANCH  14  15
ATOM     15  C   UNL     1      36.423   5.959  39.304  1.00  0.00    -0.000 C 
BRANCH  15  16
ATOM     16  C   UNL     1      36.081   4.587  38.693  1.00  0.00    -0.000 C 
BRANCH  16  17
ATOM     17  C   UNL     1      35.383   4.639  37.320  1.00  0.00    -0.000 C 
BRANCH  17  18
ATOM     18  C   UNL     1      33.866   4.359  37.382  1.00  0.00    -0.000 C 
BRANCH  18  19
ATOM     19  C   UNL     1      33.024   5.622  37.150  1.00  0.00    -0.003 C 
ATOM     20  C   UNL     1      33.866   6.740  36.542  1.00  0.00     0.004 C 
ENDBRANCH  18  19
ENDBRANCH  17  18
ENDBRANCH  16  17
ENDBRANCH  15  16
ENDBRANCH  14  15
ENDBRANCH  13  14
ENDBRANCH  12  13
ENDBRANCH   1  12
TORSDOF 16
ENDMDL
MODEL 2
REMARK VINA RESULT:    -0.779      2.572      4.644
REMARK INTER + INTRA:          -4.627
REMARK INTER:                  -1.277
REMARK INTRA:                  -3.349
REMARK UNBOUND:                -3.119
REMARK SMILES CCCCCCCCCCCCCCCCCC(=O)[O-]
REMARK SMILES IDX 10 1 11 2 12 3 13 4 14 5 15 6 16 7 17 8 18 9 19 10 20 11
REMARK SMILES IDX 9 12 8 13 7 14 6 15 5 16 4 17 3 18 2 19 1 20
REMARK H PARENT
REMARK Flexibility Score: inf
ROOT
ATOM      1  C   UNL     1      36.765   2.990  38.571  1.00  0.00     0.000 C 
ENDROOT
BRANCH   1   2
ATOM      2  C   UNL     1      37.868   3.838  39.226  1.00  0.00     0.000 C 
BRANCH   2   3
ATOM      3  C   UNL     1      37.581   5.348  39.145  1.00  0.00     0.000 C 
BRANCH   3   4
ATOM      4  C   UNL     1      37.956   6.087  40.441  1.00  0.00     0.000 C 
BRANCH   4   5
ATOM      5  C   UNL     1      38.597   5.155  41.484  1.00  0.00     0.000 C 
BRANCH   5   6
ATOM      6  C   UNL     1      40.069   5.499  41.759  1.00  0.00     0.000 C 
BRANCH   6   7
ATOM      7  C   UNL     1      41.044   4.642  40.939  1.00  0.00     0.006 C 
BRANCH   7   8
ATOM      8  C   UNL     1      41.850   5.507  39.965  1.00  0.00     0.053 C 
BRANCH   8   9
ATOM      9  C   UNL     1      41.248   5.456  38.596  1.00  0.00     0.041 C 
ATOM     10  O   UNL     1      41.167   4.362  37.980  1.00  0.00    -0.550 OA
ATOM     11  O   UNL     1      40.732   6.610  38.020  1.00  0.00    -0.550 OA
ENDBRANCH   8   9
ENDBRANCH   7   8
ENDBRANCH   6   7
ENDBRANCH   5   6
ENDBRANCH   4   5
ENDBRANCH   3   4
ENDBRANCH   2   3
ENDBRANCH   1   2
BRANCH   1  12
ATOM     12  C   UNL     1      35.870   2.280  39.602  1.00  0.00     0.000 C 
BRANCH  12  13
ATOM     13  C   UNL     1      36.611   1.989  40.918  1.00  0.00    -0.000 C 
BRANCH  13  14
ATOM     14  C   UNL     1      35.987   2.720  42.119  1.00  0.00    -0.000 C 
BRANCH  14  15
ATOM     15  C   UNL     1      34.711   3.500  41.748  1.00  0.00    -0.000 C 
BRANCH  15  16
ATOM     16  C   UNL     1      34.728   4.995  42.117  1.00  0.00    -0.000 C 
BRANCH  16  17
ATOM     17  C   UNL     1      34.268   5.950  40.998  1.00  0.00    -0.000 C 
BRANCH  17  18
ATOM     18  C   UNL     1      33.768   5.226  39.729  1.00  0.00    -0.000 C 
BRANCH  18  19
ATOM     19  C   UNL     1      34.016   6.041  38.452  1.00  0.00    -0.003 C 
ATOM     20  C   UNL     1      34.566   7.426  38.780  1.00  0.00     0.004 C 
ENDBRANCH  18  19
ENDBRANCH  17  18
ENDBRANCH  16  17
ENDBRANCH  15  16
ENDBRANCH  14  15
ENDBRANCH  13  14
ENDBRANCH  12  13
ENDBRANCH   1  12
TORSDOF 16
ENDMDL
MODEL 3
REMARK VINA RESULT:    -0.772      2.102      4.356
REMARK INTER + INTRA:          -4.612
REMARK INTER:                  -1.766
REMARK INTRA:                  -2.846
REMARK UNBOUND:                -3.119
REMARK SMILES CCCCCCCCCCCCCCCCCC(=O)[O-]
REMARK SMILES IDX 10 1 11 2 12 3 13 4 14 5 15 6 16 7 17 8 18 9 19 10 20 11
REMARK SMILES IDX 9 12 8 13 7 14 6 15 5 16 4 17 3 18 2 19 1 20
REMARK H PARENT
REMARK Flexibility Score: inf
ROOT
ATOM      1  C   UNL     1      36.502   2.651  38.674  1.00  0.00     0.000 C 
ENDROOT
BRANCH   1   2
ATOM      2  C   UNL     1      35.509   1.932  39.602  1.00  0.00     0.000 C 
BRANCH   2   3
ATOM      3  C   UNL     1      36.088   1.676  41.005  1.00  0.00     0.000 C 
BRANCH   3   4
ATOM      4  C   UNL     1      37.442   0.948  40.957  1.00  0.00     0.000 C 
BRANCH   4   5
ATOM      5  C   UNL     1      38.508   1.631  41.833  1.00  0.00     0.000 C 
BRANCH   5   6
ATOM      6  C   UNL     1      38.183   3.105  42.119  1.00  0.00     0.000 C 
BRANCH   6   7
ATOM      7  C   UNL     1      39.183   4.072  41.468  1.00  0.00     0.006 C 
BRANCH   7   8
ATOM      8  C   UNL     1      39.058   5.476  42.068  1.00  0.00     0.053 C 
BRANCH   8   9
ATOM      9  C   UNL     1      39.701   6.488  41.172  1.00  0.00     0.041 C 
ATOM     10  O   UNL     1      39.708   6.316  39.925  1.00  0.00    -0.550 OA
ATOM     11  O   UNL     1      40.248   7.645  41.711  1.00  0.00    -0.550 OA
ENDBRANCH   8   9
ENDBRANCH   7   8
ENDBRANCH   6   7
ENDBRANCH   5   6
ENDBRANCH   4   5
ENDBRANCH   3   4
ENDBRANCH   2   3
ENDBRANCH   1   2
BRANCH   1  12
ATOM     12  C   UNL     1      36.048   4.074  38.305  1.00  0.00     0.000 C 
BRANCH  12  13
ATOM     13  C   UNL     1      36.528   5.124  39.320  1.00  0.00    -0.000 C 
BRANCH  13  14
ATOM     14  C   UNL     1      35.363   5.798  40.065  1.00  0.00    -0.000 C 
BRANCH  14  15
ATOM     15  C   UNL     1      35.413   5.566  41.588  1.00  0.00    -0.000 C 
BRANCH  15  16
ATOM     16  C   UNL     1      34.409   4.528  42.123  1.00  0.00    -0.000 C 
BRANCH  16  17
ATOM     17  C   UNL     1      33.076   4.452  41.353  1.00  0.00    -0.000 C 
BRANCH  17  18
ATOM     18  C   UNL     1      32.067   3.449  41.954  1.00  0.00    -0.000 C 
BRANCH  18  19
ATOM     19  C   UNL     1      32.054   2.108  41.206  1.00  0.00    -0.003 C 
ATOM     20  C   UNL     1      32.577   0.980  42.089  1.00  0.00     0.004 C 
ENDBRANCH  18  19
ENDBRANCH  17  18
ENDBRANCH  16  17
ENDBRANCH  15  16
ENDBRANCH  14  15
ENDBRANCH  13  14
ENDBRANCH  12  13
ENDBRANCH   1  12
TORSDOF 16
ENDMDL
MODEL 4
REMARK VINA RESULT:    -0.718      2.605      4.699
REMARK INTER + INTRA:          -4.509
REMARK INTER:                  -1.192
REMARK INTRA:                  -3.317
REMARK UNBOUND:                -3.119
REMARK SMILES CCCCCCCCCCCCCCCCCC(=O)[O-]
REMARK SMILES IDX 10 1 11 2 12 3 13 4 14 5 15 6 16 7 17 8 18 9 19 10 20 11
REMARK SMILES IDX 9 12 8 13 7 14 6 15 5 16 4 17 3 18 2 19 1 20
REMARK H PARENT
REMARK Flexibility Score: inf
ROOT
ATOM      1  C   UNL     1      37.632   5.051  37.444  1.00  0.00     0.000 C 
ENDROOT
BRANCH   1   2
ATOM      2  C   UNL     1      38.678   3.927  37.360  1.00  0.00     0.000 C 
BRANCH   2   3
ATOM      3  C   UNL     1      38.104   2.554  37.754  1.00  0.00     0.000 C 
BRANCH   3   4
ATOM      4  C   UNL     1      39.069   1.748  38.640  1.00  0.00     0.000 C 
BRANCH   4   5
ATOM      5  C   UNL     1      38.565   1.616  40.089  1.00  0.00     0.000 C 
BRANCH   5   6
ATOM      6  C   UNL     1      39.685   1.806  41.123  1.00  0.00     0.000 C 
BRANCH   6   7
ATOM      7  C   UNL     1      41.081   1.871  40.484  1.00  0.00     0.006 C 
BRANCH   7   8
ATOM      8  C   UNL     1      41.803   3.164  40.874  1.00  0.00     0.053 C 
BRANCH   8   9
ATOM      9  C   UNL     1      42.562   3.715  39.707  1.00  0.00     0.041 C 
ATOM     10  O   UNL     1      42.052   3.699  38.557  1.00  0.00    -0.550 OA
ATOM     11  O   UNL     1      43.811   4.290  39.899  1.00  0.00    -0.550 OA
ENDBRANCH   8   9
ENDBRANCH   7   8
ENDBRANCH   6   7
ENDBRANCH   5   6
ENDBRANCH   4   5
ENDBRANCH   3   4
ENDBRANCH   2   3
ENDBRANCH   1   2
BRANCH   1  12
ATOM     12  C   UNL     1      37.947   6.074  38.550  1.00  0.00     0.000 C 
BRANCH  12  13
ATOM     13  C   UNL     1      39.241   5.736  39.308  1.00  0.00    -0.000 C 
BRANCH  13  14
ATOM     14  C   UNL     1      38.994   5.469  40.804  1.00  0.00    -0.000 C 
BRANCH  14  15
ATOM     15  C   UNL     1      37.497   5.449  41.168  1.00  0.00    -0.000 C 
BRANCH  15  16
ATOM     16  C   UNL     1      37.073   4.320  42.125  1.00  0.00    -0.000 C 
BRANCH  16  17
ATOM     17  C   UNL     1      35.842   3.508  41.673  1.00  0.00    -0.000 C 
BRANCH  17  18
ATOM     18  C   UNL     1      35.478   3.707  40.186  1.00  0.00    -0.000 C 
BRANCH  18  19
ATOM     19  C   UNL     1      34.138   4.434  40.001  1.00  0.00    -0.003 C 
ATOM     20  C   UNL     1      34.247   5.527  38.943  1.00  0.00     0.004 C 
ENDBRANCH  18  19
ENDBRANCH  17  18
ENDBRANCH  16  17
ENDBRANCH  15  16
ENDBRANCH  14  15
ENDBRANCH  13  14
ENDBRANCH  12  13
ENDBRANCH   1  12
TORSDOF 16
ENDMDL
MODEL 5
REMARK VINA RESULT:    -0.711      3.192      6.272
REMARK INTER + INTRA:          -4.495
REMARK INTER:                  -1.317
REMARK INTRA:                  -3.178
REMARK UNBOUND:                -3.119
REMARK SMILES CCCCCCCCCCCCCCCCCC(=O)[O-]
REMARK SMILES IDX 10 1 11 2 12 3 13 4 14 5 15 6 16 7 17 8 18 9 19 10 20 11
REMARK SMILES IDX 9 12 8 13 7 14 6 15 5 16 4 17 3 18 2 19 1 20
REMARK H PARENT
REMARK Flexibility Score: inf
ROOT
ATOM      1  C   UNL     1      40.968   5.308  40.067  1.00  0.00     0.000 C 
ENDROOT
BRANCH   1   2
ATOM      2  C   UNL     1      40.507   3.847  39.941  1.00  0.00     0.000 C 
BRANCH   2   3
ATOM      3  C   UNL     1      39.410   3.662  38.877  1.00  0.00     0.000 C 
BRANCH   3   4
ATOM      4  C   UNL     1      39.528   4.677  37.729  1.00  0.00     0.000 C 
BRANCH   4   5
ATOM      5  C   UNL     1      38.252   5.520  37.556  1.00  0.00     0.000 C 
BRANCH   5   6
ATOM      6  C   UNL     1      37.012   4.846  38.162  1.00  0.00     0.000 C 
BRANCH   6   7
ATOM      7  C   UNL     1      35.818   5.804  38.291  1.00  0.00     0.006 C 
BRANCH   7   8
ATOM      8  C   UNL     1      35.977   7.009  37.359  1.00  0.00     0.053 C 
BRANCH   8   9
ATOM      9  C   UNL     1      35.850   8.287  38.126  1.00  0.00     0.041 C 
ATOM     10  O   UNL     1      36.877   8.951  38.424  1.00  0.00    -0.550 OA
ATOM     11  O   UNL     1      34.594   8.770  38.469  1.00  0.00    -0.550 OA
ENDBRANCH   8   9
ENDBRANCH   7   8
ENDBRANCH   6   7
ENDBRANCH   5   6
ENDBRANCH   4   5
ENDBRANCH   3   4
ENDBRANCH   2   3
ENDBRANCH   1   2
BRANCH   1  12
ATOM     12  C   UNL     1      40.280   6.052  41.225  1.00  0.00     0.000 C 
BRANCH  12  13
ATOM     13  C   UNL     1      39.318   7.144  40.729  1.00  0.00    -0.000 C 
BRANCH  13  14
ATOM     14  C   UNL     1      37.868   6.903  41.183  1.00  0.00    -0.000 C 
BRANCH  14  15
ATOM     15  C   UNL     1      37.657   5.502  41.790  1.00  0.00    -0.000 C 
BRANCH  15  16
ATOM     16  C   UNL     1      36.188   5.061  41.922  1.00  0.00    -0.000 C 
BRANCH  16  17
ATOM     17  C   UNL     1      35.975   3.548  42.124  1.00  0.00    -0.000 C 
BRANCH  17  18
ATOM     18  C   UNL     1      36.199   2.712  40.845  1.00  0.00    -0.000 C 
BRANCH  18  19
ATOM     19  C   UNL     1      37.014   1.438  41.110  1.00  0.00    -0.003 C 
ATOM     20  C   UNL     1      38.239   1.738  41.968  1.00  0.00     0.004 C 
ENDBRANCH  18  19
ENDBRANCH  17  18
ENDBRANCH  16  17
ENDBRANCH  15  16
ENDBRANCH  14  15
ENDBRANCH  13  14
ENDBRANCH  12  13
ENDBRANCH   1  12
TORSDOF 16
ENDMDL
MODEL 6
REMARK VINA RESULT:    -0.701      3.473      6.407
REMARK INTER + INTRA:          -4.476
REMARK INTER:                  -1.262
REMARK INTRA:                  -3.213
REMARK UNBOUND:                -3.119
REMARK SMILES CCCCCCCCCCCCCCCCCC(=O)[O-]
REMARK SMILES IDX 10 1 11 2 12 3 13 4 14 5 15 6 16 7 17 8 18 9 19 10 20 11
REMARK SMILES IDX 9 12 8 13 7 14 6 15 5 16 4 17 3 18 2 19 1 20
REMARK H PARENT
REMARK Flexibility Score: inf
ROOT
ATOM      1  C   UNL     1      37.796   5.182  38.117  1.00  0.00     0.000 C 
ENDROOT
BRANCH   1   2
ATOM      2  C   UNL     1      39.091   4.591  38.698  1.00  0.00     0.000 C 
BRANCH   2   3
ATOM      3  C   UNL     1      39.626   5.398  39.895  1.00  0.00     0.000 C 
BRANCH   3   4
ATOM      4  C   UNL     1      38.974   6.786  40.005  1.00  0.00     0.000 C 
BRANCH   4   5
ATOM      5  C   UNL     1      39.320   7.495  41.327  1.00  0.00     0.000 C 
BRANCH   5   6
ATOM      6  C   UNL     1      38.072   7.900  42.125  1.00  0.00     0.000 C 
BRANCH   6   7
ATOM      7  C   UNL     1      36.933   8.413  41.230  1.00  0.00     0.006 C 
BRANCH   7   8
ATOM      8  C   UNL     1      35.684   8.728  42.058  1.00  0.00     0.053 C 
BRANCH   8   9
ATOM      9  C   UNL     1      35.038   9.988  41.575  1.00  0.00     0.041 C 
ATOM     10  O   UNL     1      33.796  10.151  41.698  1.00  0.00    -0.550 OA
ATOM     11  O   UNL     1      35.815  11.004  41.034  1.00  0.00    -0.550 OA
ENDBRANCH   8   9
ENDBRANCH   7   8
ENDBRANCH   6   7
ENDBRANCH   5   6
ENDBRANCH   4   5
ENDBRANCH   3   4
ENDBRANCH   2   3
ENDBRANCH   1   2
BRANCH   1  12
ATOM     12  C   UNL     1      36.728   4.111  37.832  1.00  0.00     0.000 C 
BRANCH  12  13
ATOM     13  C   UNL     1      35.369   4.459  38.461  1.00  0.00    -0.000 C 
BRANCH  13  14
ATOM     14  C   UNL     1      35.474   5.582  39.508  1.00  0.00    -0.000 C 
BRANCH  14  15
ATOM     15  C   UNL     1      35.096   5.114  40.926  1.00  0.00    -0.000 C 
BRANCH  15  16
ATOM     16  C   UNL     1      36.286   4.754  41.835  1.00  0.00    -0.000 C 
BRANCH  16  17
ATOM     17  C   UNL     1      36.455   3.249  42.124  1.00  0.00    -0.000 C 
BRANCH  17  18
ATOM     18  C   UNL     1      37.682   2.617  41.433  1.00  0.00    -0.000 C 
BRANCH  18  19
ATOM     19  C   UNL     1      37.322   1.358  40.631  1.00  0.00    -0.003 C 
ATOM     20  C   UNL     1      35.820   1.282  40.371  1.00  0.00     0.004 C 
ENDBRANCH  18  19
ENDBRANCH  17  18
ENDBRANCH  16  17
ENDBRANCH  15  16
ENDBRANCH  14  15
ENDBRANCH  13  14
ENDBRANCH  12  13
ENDBRANCH   1  12
TORSDOF 16
ENDMDL
MODEL 7
REMARK VINA RESULT:    -0.676      2.926      5.677
REMARK INTER + INTRA:          -4.427
REMARK INTER:                  -1.587
REMARK INTRA:                  -2.840
REMARK UNBOUND:                -3.119
REMARK SMILES CCCCCCCCCCCCCCCCCC(=O)[O-]
REMARK SMILES IDX 10 1 11 2 12 3 13 4 14 5 15 6 16 7 17 8 18 9 19 10 20 11
REMARK SMILES IDX 9 12 8 13 7 14 6 15 5 16 4 17 3 18 2 19 1 20
REMARK H PARENT
REMARK Flexibility Score: inf
ROOT
ATOM      1  C   UNL     1      36.334   4.100  39.637  1.00  0.00     0.000 C 
ENDROOT
BRANCH   1   2
ATOM      2  C   UNL     1      35.767   2.673  39.572  1.00  0.00     0.000 C 
BRANCH   2   3
ATOM      3  C   UNL     1      35.582   2.044  40.965  1.00  0.00     0.000 C 
BRANCH   3   4
ATOM      4  C   UNL     1      36.596   0.920  41.240  1.00  0.00     0.000 C 
BRANCH   4   5
ATOM      5  C   UNL     1      37.766   1.388  42.124  1.00  0.00     0.000 C 
BRANCH   5   6
ATOM      6  C   UNL     1      39.111   1.365  41.384  1.00  0.00     0.000 C 
BRANCH   6   7
ATOM      7  C   UNL     1      38.985   0.875  39.933  1.00  0.00     0.006 C 
BRANCH   7   8
ATOM      8  C   UNL     1      39.904   1.672  39.003  1.00  0.00     0.053 C 
BRANCH   8   9
ATOM      9  C   UNL     1      39.123   2.261  37.870  1.00  0.00     0.041 C 
ATOM     10  O   UNL     1      38.378   1.529  37.168  1.00  0.00    -0.550 OA
ATOM     11  O   UNL     1      39.180   3.626  37.622  1.00  0.00    -0.550 OA
ENDBRANCH   8   9
ENDBRANCH   7   8
ENDBRANCH   6   7
ENDBRANCH   5   6
ENDBRANCH   4   5
ENDBRANCH   3   4
ENDBRANCH   2   3
ENDBRANCH   1   2
BRANCH   1  12
ATOM     12  C   UNL     1      36.058   4.788  40.986  1.00  0.00     0.000 C 
BRANCH  12  13
ATOM     13  C   UNL     1      37.352   5.142  41.737  1.00  0.00    -0.000 C 
BRANCH  13  14
ATOM     14  C   UNL     1      38.548   5.341  40.789  1.00  0.00    -0.000 C 
BRANCH  14  15
ATOM     15  C   UNL     1      39.871   4.814  41.378  1.00  0.00    -0.000 C 
BRANCH  15  16
ATOM     16  C   UNL     1      41.061   4.800  40.401  1.00  0.00    -0.000 C 
BRANCH  16  17
ATOM     17  C   UNL     1      42.443   4.606  41.057  1.00  0.00    -0.000 C 
BRANCH  17  18
ATOM     18  C   UNL     1      43.156   3.304  40.634  1.00  0.00    -0.000 C 
BRANCH  18  19
ATOM     19  C   UNL     1      42.657   2.080  41.417  1.00  0.00    -0.003 C 
ATOM     20  C   UNL     1      43.769   1.053  41.599  1.00  0.00     0.004 C 
ENDBRANCH  18  19
ENDBRANCH  17  18
ENDBRANCH  16  17
ENDBRANCH  15  16
ENDBRANCH  14  15
ENDBRANCH  13  14
ENDBRANCH  12  13
ENDBRANCH   1  12
TORSDOF 16
ENDMDL
MODEL 8
REMARK VINA RESULT:    -0.622      2.887      5.154
REMARK INTER + INTRA:          -4.323
REMARK INTER:                  -1.242
REMARK INTRA:                  -3.082
REMARK UNBOUND:                -3.119
REMARK SMILES CCCCCCCCCCCCCCCCCC(=O)[O-]
REMARK SMILES IDX 10 1 11 2 12 3 13 4 14 5 15 6 16 7 17 8 18 9 19 10 20 11
REMARK SMILES IDX 9 12 8 13 7 14 6 15 5 16 4 17 3 18 2 19 1 20
REMARK H PARENT
REMARK Flexibility Score: inf
ROOT
ATOM      1  C   UNL     1      40.336   2.917  39.698  1.00  0.00     0.000 C 
ENDROOT
BRANCH   1   2
ATOM      2  C   UNL     1      40.780   2.208  40.987  1.00  0.00     0.000 C 
BRANCH   2   3
ATOM      3  C   UNL     1      39.911   0.980  41.317  1.00  0.00     0.000 C 
BRANCH   3   4
ATOM      4  C   UNL     1      38.644   0.907  40.449  1.00  0.00     0.000 C 
BRANCH   4   5
ATOM      5  C   UNL     1      37.374   1.288  41.230  1.00  0.00     0.000 C 
BRANCH   5   6
ATOM      6  C   UNL     1      36.290   1.903  40.331  1.00  0.00     0.000 C 
BRANCH   6   7
ATOM      7  C   UNL     1      36.786   2.180  38.904  1.00  0.00     0.006 C 
BRANCH   7   8
ATOM      8  C   UNL     1      35.776   1.682  37.865  1.00  0.00     0.053 C 
BRANCH   8   9
ATOM      9  C   UNL     1      34.923   2.812  37.380  1.00  0.00     0.041 C 
ATOM     10  O   UNL     1      35.222   3.422  36.321  1.00  0.00    -0.550 OA
ATOM     11  O   UNL     1      33.770   3.159  38.073  1.00  0.00    -0.550 OA
ENDBRANCH   8   9
ENDBRANCH   7   8
ENDBRANCH   6   7
ENDBRANCH   5   6
ENDBRANCH   4   5
ENDBRANCH   3   4
ENDBRANCH   2   3
ENDBRANCH   1   2
BRANCH   1  12
ATOM     12  C   UNL     1      39.851   4.356  39.947  1.00  0.00     0.000 C 
BRANCH  12  13
ATOM     13  C   UNL     1      40.129   4.826  41.384  1.00  0.00    -0.000 C 
BRANCH  13  14
ATOM     14  C   UNL     1      38.976   5.665  41.962  1.00  0.00    -0.000 C 
BRANCH  14  15
ATOM     15  C   UNL     1      37.659   4.873  42.077  1.00  0.00    -0.000 C 
BRANCH  15  16
ATOM     16  C   UNL     1      36.382   5.732  42.125  1.00  0.00    -0.000 C 
BRANCH  16  17
ATOM     17  C   UNL     1      36.061   6.498  40.826  1.00  0.00    -0.000 C 
BRANCH  17  18
ATOM     18  C   UNL     1      35.934   5.590  39.584  1.00  0.00    -0.000 C 
BRANCH  18  19
ATOM     19  C   UNL     1      36.821   6.057  38.421  1.00  0.00    -0.003 C 
ATOM     20  C   UNL     1      37.770   7.167  38.864  1.00  0.00     0.004 C 
ENDBRANCH  18  19
ENDBRANCH  17  18
ENDBRANCH  16  17
ENDBRANCH  15  16
ENDBRANCH  14  15
ENDBRANCH  13  14
ENDBRANCH  12  13
ENDBRANCH   1  12
TORSDOF 16
ENDMDL
