MODEL 1
REMARK VINA RESULT:    -7.136      0.000      0.000
REMARK INTER + INTRA:         -17.001
REMARK INTER:                 -15.480
REMARK INTRA:                  -1.522
REMARK UNBOUND:                -1.522
REMARK SMILES CCCCCCCCCCCCCCCCCCCCCC(=O)[O-]
REMARK SMILES IDX 12 1 11 2 10 3 9 4 8 5 7 6 6 7 5 8 4 9 3 10 2 11 1 12 13 13
REMARK SMILES IDX 14 14 15 15 16 16 17 17 18 18 19 19 20 20 21 21 22 22 23 23
REMARK SMILES IDX 24 24
REMARK H PARENT
REMARK Flexibility Score: inf
ROOT
ATOM      1  C   UNL     1     -22.112 -23.509  29.357  1.00  0.00     0.000 C 
ENDROOT
BRANCH   1   2
ATOM      2  C   UNL     1     -23.049 -24.494  28.648  1.00  0.00     0.000 C 
BRANCH   2   3
ATOM      3  C   UNL     1     -23.361 -25.699  29.542  1.00  0.00     0.000 C 
BRANCH   3   4
ATOM      4  C   UNL     1     -23.578 -25.264  30.996  1.00  0.00    -0.000 C 
BRANCH   4   5
ATOM      5  C   UNL     1     -24.920 -25.785  31.531  1.00  0.00    -0.000 C 
BRANCH   5   6
ATOM      6  C   UNL     1     -25.741 -26.521  30.460  1.00  0.00    -0.000 C 
BRANCH   6   7
ATOM      7  C   UNL     1     -26.017 -27.987  30.828  1.00  0.00    -0.000 C 
BRANCH   7   8
ATOM      8  C   UNL     1     -26.592 -28.754  29.628  1.00  0.00    -0.000 C 
BRANCH   8   9
ATOM      9  C   UNL     1     -26.046 -28.250  28.281  1.00  0.00    -0.000 C 
BRANCH   9  10
ATOM     10  C   UNL     1     -27.117 -27.986  27.205  1.00  0.00    -0.000 C 
BRANCH  10  11
ATOM     11  C   UNL     1     -26.791 -28.616  25.834  1.00  0.00    -0.003 C 
ATOM     12  C   UNL     1     -28.015 -28.693  24.922  1.00  0.00     0.004 C 
ENDBRANCH  10  11
ENDBRANCH   9  10
ENDBRANCH   8   9
ENDBRANCH   7   8
ENDBRANCH   6   7
ENDBRANCH   5   6
ENDBRANCH   4   5
ENDBRANCH   3   4
ENDBRANCH   2   3
ENDBRANCH   1   2
BRANCH   1  13
ATOM     13  C   UNL     1     -22.295 -22.089  28.802  1.00  0.00     0.000 C 
BRANCH  13  14
ATOM     14  C   UNL     1     -22.571 -21.043  29.896  1.00  0.00     0.000 C 
BRANCH  14  15
ATOM     15  C   UNL     1     -22.085 -21.422  31.310  1.00  0.00     0.000 C 
BRANCH  15  16
ATOM     16  C   UNL     1     -20.855 -20.646  31.816  1.00  0.00     0.000 C 
BRANCH  16  17
ATOM     17  C   UNL     1     -20.953 -19.131  31.563  1.00  0.00     0.000 C 
BRANCH  17  18
ATOM     18  C   UNL     1     -19.983 -18.653  30.462  1.00  0.00     0.000 C 
BRANCH  18  19
ATOM     19  C   UNL     1     -20.681 -17.968  29.272  1.00  0.00     0.000 C 
BRANCH  19  20
ATOM     20  C   UNL     1     -19.718 -17.135  28.409  1.00  0.00     0.006 C 
BRANCH  20  21
ATOM     21  C   UNL     1     -18.429 -16.774  29.158  1.00  0.00     0.053 C 
BRANCH  21  22
ATOM     22  C   UNL     1     -17.749 -15.583  28.554  1.00  0.00     0.041 C 
ATOM     23  O   UNL     1     -17.536 -14.556  29.252  1.00  0.00    -0.550 OA
ATOM     24  O   UNL     1     -17.325 -15.618  27.232  1.00  0.00    -0.550 OA
ENDBRANCH  21  22
ENDBRANCH  20  21
ENDBRANCH  19  20
ENDBRANCH  18  19
ENDBRANCH  17  18
ENDBRANCH  16  17
ENDBRANCH  15  16
ENDBRANCH  14  15
ENDBRANCH  13  14
ENDBRANCH   1  13
TORSDOF 20
ENDMDL
MODEL 2
REMARK VINA RESULT:    -7.009      5.097     11.480
REMARK INTER + INTRA:         -16.726
REMARK INTER:                 -15.307
REMARK INTRA:                  -1.419
REMARK UNBOUND:                -1.522
REMARK SMILES CCCCCCCCCCCCCCCCCCCCCC(=O)[O-]
REMARK SMILES IDX 12 1 11 2 10 3 9 4 8 5 7 6 6 7 5 8 4 9 3 10 2 11 1 12 13 13
REMARK SMILES IDX 14 14 15 15 16 16 17 17 18 18 19 19 20 20 21 21 22 22 23 23
REMARK SMILES IDX 24 24
REMARK H PARENT
REMARK Flexibility Score: inf
ROOT
ATOM      1  C   UNL     1     -21.822 -21.876  28.362  1.00  0.00     0.000 C 
ENDROOT
BRANCH   1   2
ATOM      2  C   UNL     1     -22.437 -20.681  29.100  1.00  0.00     0.000 C 
BRANCH   2   3
ATOM      3  C   UNL     1     -21.349 -19.762  29.667  1.00  0.00     0.000 C 
BRANCH   3   4
ATOM      4  C   UNL     1     -21.497 -19.607  31.186  1.00  0.00    -0.000 C 
BRANCH   4   5
ATOM      5  C   UNL     1     -20.400 -18.694  31.754  1.00  0.00    -0.000 C 
BRANCH   5   6
ATOM      6  C   UNL     1     -19.736 -17.822  30.676  1.00  0.00    -0.000 C 
BRANCH   6   7
ATOM      7  C   UNL     1     -18.748 -16.803  31.264  1.00  0.00    -0.000 C 
BRANCH   7   8
ATOM      8  C   UNL     1     -18.320 -15.780  30.201  1.00  0.00    -0.000 C 
BRANCH   8   9
ATOM      9  C   UNL     1     -18.208 -16.392  28.794  1.00  0.00    -0.000 C 
BRANCH   9  10
ATOM     10  C   UNL     1     -17.300 -15.618  27.820  1.00  0.00    -0.000 C 
BRANCH  10  11
ATOM     11  C   UNL     1     -17.874 -15.502  26.392  1.00  0.00    -0.003 C 
ATOM     12  C   UNL     1     -16.790 -15.244  25.346  1.00  0.00     0.004 C 
ENDBRANCH  10  11
ENDBRANCH   9  10
ENDBRANCH   8   9
ENDBRANCH   7   8
ENDBRANCH   6   7
ENDBRANCH   5   6
ENDBRANCH   4   5
ENDBRANCH   3   4
ENDBRANCH   2   3
ENDBRANCH   1   2
BRANCH   1  13
ATOM     13  C   UNL     1     -22.221 -23.196  29.037  1.00  0.00     0.000 C 
BRANCH  13  14
ATOM     14  C   UNL     1     -21.966 -23.201  30.554  1.00  0.00     0.000 C 
BRANCH  14  15
ATOM     15  C   UNL     1     -23.195 -23.524  31.430  1.00  0.00     0.000 C 
BRANCH  15  16
ATOM     16  C   UNL     1     -23.447 -25.020  31.689  1.00  0.00     0.000 C 
BRANCH  16  17
ATOM     17  C   UNL     1     -24.436 -25.645  30.688  1.00  0.00     0.000 C 
BRANCH  17  18
ATOM     18  C   UNL     1     -23.729 -26.499  29.615  1.00  0.00     0.000 C 
BRANCH  18  19
ATOM     19  C   UNL     1     -24.598 -26.789  28.377  1.00  0.00     0.000 C 
BRANCH  19  20
ATOM     20  C   UNL     1     -26.078 -27.027  28.722  1.00  0.00     0.006 C 
BRANCH  20  21
ATOM     21  C   UNL     1     -26.455 -28.513  28.671  1.00  0.00     0.053 C 
BRANCH  21  22
ATOM     22  C   UNL     1     -26.552 -29.110  30.043  1.00  0.00     0.041 C 
ATOM     23  O   UNL     1     -26.386 -28.385  31.060  1.00  0.00    -0.550 OA
ATOM     24  O   UNL     1     -26.854 -30.457  30.198  1.00  0.00    -0.550 OA
ENDBRANCH  21  22
ENDBRANCH  20  21
ENDBRANCH  19  20
ENDBRANCH  18  19
ENDBRANCH  17  18
ENDBRANCH  16  17
ENDBRANCH  15  16
ENDBRANCH  14  15
ENDBRANCH  13  14
ENDBRANCH   1  13
TORSDOF 20
ENDMDL
MODEL 3
REMARK VINA RESULT:    -6.979      4.948     11.574
REMARK INTER + INTRA:         -16.661
REMARK INTER:                 -15.321
REMARK INTRA:                  -1.340
REMARK UNBOUND:                -1.522
REMARK SMILES CCCCCCCCCCCCCCCCCCCCCC(=O)[O-]
REMARK SMILES IDX 12 1 11 2 10 3 9 4 8 5 7 6 6 7 5 8 4 9 3 10 2 11 1 12 13 13
REMARK SMILES IDX 14 14 15 15 16 16 17 17 18 18 19 19 20 20 21 21 22 22 23 23
REMARK SMILES IDX 24 24
REMARK H PARENT
REMARK Flexibility Score: inf
ROOT
ATOM      1  C   UNL     1     -21.640 -19.682  28.583  1.00  0.00     0.000 C 
ENDROOT
BRANCH   1   2
ATOM      2  C   UNL     1     -21.121 -18.731  29.668  1.00  0.00     0.000 C 
BRANCH   2   3
ATOM      3  C   UNL     1     -19.588 -18.708  29.695  1.00  0.00     0.000 C 
BRANCH   3   4
ATOM      4  C   UNL     1     -19.063 -18.761  31.135  1.00  0.00    -0.000 C 
BRANCH   4   5
ATOM      5  C   UNL     1     -18.748 -17.351  31.656  1.00  0.00    -0.000 C 
BRANCH   5   6
ATOM      6  C   UNL     1     -19.034 -16.255  30.616  1.00  0.00    -0.000 C 
BRANCH   6   7
ATOM      7  C   UNL     1     -17.904 -15.219  30.522  1.00  0.00    -0.000 C 
BRANCH   7   8
ATOM      8  C   UNL     1     -17.509 -14.972  29.058  1.00  0.00    -0.000 C 
BRANCH   8   9
ATOM      9  C   UNL     1     -18.281 -15.867  28.073  1.00  0.00    -0.000 C 
BRANCH   9  10
ATOM     10  C   UNL     1     -17.472 -16.327  26.844  1.00  0.00    -0.000 C 
BRANCH  10  11
ATOM     11  C   UNL     1     -17.483 -15.317  25.678  1.00  0.00    -0.003 C 
ATOM     12  C   UNL     1     -16.136 -15.238  24.961  1.00  0.00     0.004 C 
ENDBRANCH  10  11
ENDBRANCH   9  10
ENDBRANCH   8   9
ENDBRANCH   7   8
ENDBRANCH   6   7
ENDBRANCH   5   6
ENDBRANCH   4   5
ENDBRANCH   3   4
ENDBRANCH   2   3
ENDBRANCH   1   2
BRANCH   1  13
ATOM     13  C   UNL     1     -21.902 -21.079  29.164  1.00  0.00     0.000 C 
BRANCH  13  14
ATOM     14  C   UNL     1     -22.390 -21.046  30.623  1.00  0.00     0.000 C 
BRANCH  14  15
ATOM     15  C   UNL     1     -22.032 -22.286  31.468  1.00  0.00     0.000 C 
BRANCH  15  16
ATOM     16  C   UNL     1     -22.389 -23.643  30.834  1.00  0.00     0.000 C 
BRANCH  16  17
ATOM     17  C   UNL     1     -23.435 -24.429  31.645  1.00  0.00     0.000 C 
BRANCH  17  18
ATOM     18  C   UNL     1     -24.337 -25.306  30.752  1.00  0.00     0.000 C 
BRANCH  18  19
ATOM     19  C   UNL     1     -23.734 -25.616  29.369  1.00  0.00     0.000 C 
BRANCH  19  20
ATOM     20  C   UNL     1     -24.359 -26.853  28.703  1.00  0.00     0.006 C 
BRANCH  20  21
ATOM     21  C   UNL     1     -25.887 -26.876  28.838  1.00  0.00     0.053 C 
BRANCH  21  22
ATOM     22  C   UNL     1     -26.465 -28.185  28.391  1.00  0.00     0.041 C 
ATOM     23  O   UNL     1     -26.575 -28.441  27.162  1.00  0.00    -0.550 OA
ATOM     24  O   UNL     1     -26.855 -29.132  29.330  1.00  0.00    -0.550 OA
ENDBRANCH  21  22
ENDBRANCH  20  21
ENDBRANCH  19  20
ENDBRANCH  18  19
ENDBRANCH  17  18
ENDBRANCH  16  17
ENDBRANCH  15  16
ENDBRANCH  14  15
ENDBRANCH  13  14
ENDBRANCH   1  13
TORSDOF 20
ENDMDL
MODEL 4
REMARK VINA RESULT:    -6.916      1.410      2.545
REMARK INTER + INTRA:         -16.523
REMARK INTER:                 -15.356
REMARK INTRA:                  -1.167
REMARK UNBOUND:                -1.522
REMARK SMILES CCCCCCCCCCCCCCCCCCCCCC(=O)[O-]
REMARK SMILES IDX 12 1 11 2 10 3 9 4 8 5 7 6 6 7 5 8 4 9 3 10 2 11 1 12 13 13
REMARK SMILES IDX 14 14 15 15 16 16 17 17 18 18 19 19 20 20 21 21 22 22 23 23
REMARK SMILES IDX 24 24
REMARK H PARENT
REMARK Flexibility Score: inf
ROOT
ATOM      1  C   UNL     1     -22.437 -21.052  30.610  1.00  0.00     0.000 C 
ENDROOT
BRANCH   1   2
ATOM      2  C   UNL     1     -21.973 -22.514  30.610  1.00  0.00     0.000 C 
BRANCH   2   3
ATOM      3  C   UNL     1     -21.885 -23.066  29.183  1.00  0.00     0.000 C 
BRANCH   3   4
ATOM      4  C   UNL     1     -22.923 -24.171  28.956  1.00  0.00    -0.000 C 
BRANCH   4   5
ATOM      5  C   UNL     1     -23.344 -24.812  30.287  1.00  0.00    -0.000 C 
BRANCH   5   6
ATOM      6  C   UNL     1     -23.831 -26.261  30.122  1.00  0.00    -0.000 C 
BRANCH   6   7
ATOM      7  C   UNL     1     -25.240 -26.481  30.692  1.00  0.00    -0.000 C 
BRANCH   7   8
ATOM      8  C   UNL     1     -25.946 -27.641  29.974  1.00  0.00    -0.000 C 
BRANCH   8   9
ATOM      9  C   UNL     1     -25.709 -27.634  28.454  1.00  0.00    -0.000 C 
BRANCH   9  10
ATOM     10  C   UNL     1     -26.555 -28.649  27.661  1.00  0.00    -0.000 C 
BRANCH  10  11
ATOM     11  C   UNL     1     -27.185 -28.068  26.378  1.00  0.00    -0.003 C 
ATOM     12  C   UNL     1     -27.257 -29.093  25.247  1.00  0.00     0.004 C 
ENDBRANCH  10  11
ENDBRANCH   9  10
ENDBRANCH   8   9
ENDBRANCH   7   8
ENDBRANCH   6   7
ENDBRANCH   5   6
ENDBRANCH   4   5
ENDBRANCH   3   4
ENDBRANCH   2   3
ENDBRANCH   1   2
BRANCH   1  13
ATOM     13  C   UNL     1     -21.923 -20.319  29.362  1.00  0.00     0.000 C 
BRANCH  13  14
ATOM     14  C   UNL     1     -20.779 -19.336  29.667  1.00  0.00     0.000 C 
BRANCH  14  15
ATOM     15  C   UNL     1     -20.528 -19.058  31.164  1.00  0.00     0.000 C 
BRANCH  15  16
ATOM     16  C   UNL     1     -19.673 -17.815  31.470  1.00  0.00     0.000 C 
BRANCH  16  17
ATOM     17  C   UNL     1     -19.004 -17.221  30.217  1.00  0.00     0.000 C 
BRANCH  17  18
ATOM     18  C   UNL     1     -18.140 -15.984  30.538  1.00  0.00     0.000 C 
BRANCH  18  19
ATOM     19  C   UNL     1     -17.673 -15.209  29.293  1.00  0.00     0.000 C 
BRANCH  19  20
ATOM     20  C   UNL     1     -18.288 -15.740  27.987  1.00  0.00     0.006 C 
BRANCH  20  21
ATOM     21  C   UNL     1     -17.219 -16.114  26.952  1.00  0.00     0.053 C 
BRANCH  21  22
ATOM     22  C   UNL     1     -17.334 -15.285  25.708  1.00  0.00     0.041 C 
ATOM     23  O   UNL     1     -16.315 -14.721  25.228  1.00  0.00    -0.550 OA
ATOM     24  O   UNL     1     -18.559 -15.158  25.065  1.00  0.00    -0.550 OA
ENDBRANCH  21  22
ENDBRANCH  20  21
ENDBRANCH  19  20
ENDBRANCH  18  19
ENDBRANCH  17  18
ENDBRANCH  16  17
ENDBRANCH  15  16
ENDBRANCH  14  15
ENDBRANCH  13  14
ENDBRANCH   1  13
TORSDOF 20
ENDMDL
MODEL 5
REMARK VINA RESULT:    -6.898      4.996     11.575
REMARK INTER + INTRA:         -16.486
REMARK INTER:                 -15.321
REMARK INTRA:                  -1.165
REMARK UNBOUND:                -1.522
REMARK SMILES CCCCCCCCCCCCCCCCCCCCCC(=O)[O-]
REMARK SMILES IDX 12 1 11 2 10 3 9 4 8 5 7 6 6 7 5 8 4 9 3 10 2 11 1 12 13 13
REMARK SMILES IDX 14 14 15 15 16 16 17 17 18 18 19 19 20 20 21 21 22 22 23 23
REMARK SMILES IDX 24 24
REMARK H PARENT
REMARK Flexibility Score: inf
ROOT
ATOM      1  C   UNL     1     -22.613 -23.308  29.231  1.00  0.00     0.000 C 
ENDROOT
BRANCH   1   2
ATOM      2  C   UNL     1     -22.001 -22.080  28.547  1.00  0.00     0.000 C 
BRANCH   2   3
ATOM      3  C   UNL     1     -22.305 -20.801  29.335  1.00  0.00     0.000 C 
BRANCH   3   4
ATOM      4  C   UNL     1     -21.300 -19.693  28.996  1.00  0.00    -0.000 C 
BRANCH   4   5
ATOM      5  C   UNL     1     -20.907 -18.905  30.254  1.00  0.00    -0.000 C 
BRANCH   5   6
ATOM      6  C   UNL     1     -19.388 -18.695  30.373  1.00  0.00    -0.000 C 
BRANCH   6   7
ATOM      7  C   UNL     1     -19.023 -17.489  31.251  1.00  0.00    -0.000 C 
BRANCH   7   8
ATOM      8  C   UNL     1     -18.526 -16.317  30.390  1.00  0.00    -0.000 C 
BRANCH   8   9
ATOM      9  C   UNL     1     -18.610 -16.606  28.882  1.00  0.00    -0.000 C 
BRANCH   9  10
ATOM     10  C   UNL     1     -17.855 -15.606  27.986  1.00  0.00    -0.000 C 
BRANCH  10  11
ATOM     11  C   UNL     1     -17.534 -16.149  26.578  1.00  0.00    -0.003 C 
ATOM     12  C   UNL     1     -16.995 -15.067  25.643  1.00  0.00     0.004 C 
ENDBRANCH  10  11
ENDBRANCH   9  10
ENDBRANCH   8   9
ENDBRANCH   7   8
ENDBRANCH   6   7
ENDBRANCH   5   6
ENDBRANCH   4   5
ENDBRANCH   3   4
ENDBRANCH   2   3
ENDBRANCH   1   2
BRANCH   1  13
ATOM     13  C   UNL     1     -22.326 -23.291  30.739  1.00  0.00     0.000 C 
BRANCH  13  14
ATOM     14  C   UNL     1     -23.478 -23.869  31.580  1.00  0.00     0.000 C 
BRANCH  14  15
ATOM     15  C   UNL     1     -23.487 -25.406  31.718  1.00  0.00     0.000 C 
BRANCH  15  16
ATOM     16  C   UNL     1     -24.806 -26.096  31.322  1.00  0.00     0.000 C 
BRANCH  16  17
ATOM     17  C   UNL     1     -25.282 -25.718  29.908  1.00  0.00     0.000 C 
BRANCH  17  18
ATOM     18  C   UNL     1     -25.128 -26.878  28.903  1.00  0.00     0.000 C 
BRANCH  18  19
ATOM     19  C   UNL     1     -25.950 -28.129  29.264  1.00  0.00     0.000 C 
BRANCH  19  20
ATOM     20  C   UNL     1     -26.948 -28.532  28.165  1.00  0.00     0.006 C 
BRANCH  20  21
ATOM     21  C   UNL     1     -26.685 -27.798  26.844  1.00  0.00     0.053 C 
BRANCH  21  22
ATOM     22  C   UNL     1     -26.889 -28.692  25.659  1.00  0.00     0.041 C 
ATOM     23  O   UNL     1     -25.901 -29.067  24.972  1.00  0.00    -0.550 OA
ATOM     24  O   UNL     1     -28.164 -29.135  25.330  1.00  0.00    -0.550 OA
ENDBRANCH  21  22
ENDBRANCH  20  21
ENDBRANCH  19  20
ENDBRANCH  18  19
ENDBRANCH  17  18
ENDBRANCH  16  17
ENDBRANCH  15  16
ENDBRANCH  14  15
ENDBRANCH  13  14
ENDBRANCH   1  13
TORSDOF 20
ENDMDL
MODEL 6
REMARK VINA RESULT:    -6.784      1.419      2.108
REMARK INTER + INTRA:         -16.238
REMARK INTER:                 -14.918
REMARK INTRA:                  -1.320
REMARK UNBOUND:                -1.522
REMARK SMILES CCCCCCCCCCCCCCCCCCCCCC(=O)[O-]
REMARK SMILES IDX 12 1 11 2 10 3 9 4 8 5 7 6 6 7 5 8 4 9 3 10 2 11 1 12 13 13
REMARK SMILES IDX 14 14 15 15 16 16 17 17 18 18 19 19 20 20 21 21 22 22 23 23
REMARK SMILES IDX 24 24
REMARK H PARENT
REMARK Flexibility Score: inf
ROOT
ATOM      1  C   UNL     1     -22.562 -22.996  29.628  1.00  0.00     0.000 C 
ENDROOT
BRANCH   1   2
ATOM      2  C   UNL     1     -22.829 -22.313  30.975  1.00  0.00     0.000 C 
BRANCH   2   3
ATOM      3  C   UNL     1     -23.126 -23.345  32.068  1.00  0.00     0.000 C 
BRANCH   3   4
ATOM      4  C   UNL     1     -23.130 -24.767  31.495  1.00  0.00    -0.000 C 
BRANCH   4   5
ATOM      5  C   UNL     1     -24.509 -25.423  31.664  1.00  0.00    -0.000 C 
BRANCH   5   6
ATOM      6  C   UNL     1     -24.735 -26.591  30.689  1.00  0.00    -0.000 C 
BRANCH   6   7
ATOM      7  C   UNL     1     -24.377 -26.230  29.239  1.00  0.00    -0.000 C 
BRANCH   7   8
ATOM      8  C   UNL     1     -24.948 -27.267  28.260  1.00  0.00    -0.000 C 
BRANCH   8   9
ATOM      9  C   UNL     1     -26.230 -27.938  28.783  1.00  0.00    -0.000 C 
BRANCH   9  10
ATOM     10  C   UNL     1     -26.999 -28.770  27.738  1.00  0.00    -0.000 C 
BRANCH  10  11
ATOM     11  C   UNL     1     -26.616 -28.445  26.280  1.00  0.00    -0.003 C 
ATOM     12  C   UNL     1     -27.744 -28.759  25.296  1.00  0.00     0.004 C 
ENDBRANCH  10  11
ENDBRANCH   9  10
ENDBRANCH   8   9
ENDBRANCH   7   8
ENDBRANCH   6   7
ENDBRANCH   5   6
ENDBRANCH   4   5
ENDBRANCH   3   4
ENDBRANCH   2   3
ENDBRANCH   1   2
BRANCH   1  13
ATOM     13  C   UNL     1     -22.022 -21.988  28.604  1.00  0.00     0.000 C 
BRANCH  13  14
ATOM     14  C   UNL     1     -22.279 -20.525  29.002  1.00  0.00     0.000 C 
BRANCH  14  15
ATOM     15  C   UNL     1     -21.016 -19.679  29.267  1.00  0.00     0.000 C 
BRANCH  15  16
ATOM     16  C   UNL     1     -20.758 -19.322  30.742  1.00  0.00     0.000 C 
BRANCH  16  17
ATOM     17  C   UNL     1     -19.800 -18.129  30.914  1.00  0.00     0.000 C 
BRANCH  17  18
ATOM     18  C   UNL     1     -19.885 -17.130  29.741  1.00  0.00     0.000 C 
BRANCH  18  19
ATOM     19  C   UNL     1     -18.514 -16.648  29.232  1.00  0.00     0.000 C 
BRANCH  19  20
ATOM     20  C   UNL     1     -18.589 -15.964  27.856  1.00  0.00     0.006 C 
BRANCH  20  21
ATOM     21  C   UNL     1     -17.200 -15.652  27.285  1.00  0.00     0.053 C 
BRANCH  21  22
ATOM     22  C   UNL     1     -17.262 -15.304  25.828  1.00  0.00     0.041 C 
ATOM     23  O   UNL     1     -18.377 -15.193  25.252  1.00  0.00    -0.550 OA
ATOM     24  O   UNL     1     -16.092 -15.075  25.115  1.00  0.00    -0.550 OA
ENDBRANCH  21  22
ENDBRANCH  20  21
ENDBRANCH  19  20
ENDBRANCH  18  19
ENDBRANCH  17  18
ENDBRANCH  16  17
ENDBRANCH  15  16
ENDBRANCH  14  15
ENDBRANCH  13  14
ENDBRANCH   1  13
TORSDOF 20
ENDMDL
MODEL 7
REMARK VINA RESULT:    -6.074      5.211     11.483
REMARK INTER + INTRA:         -14.697
REMARK INTER:                 -13.230
REMARK INTRA:                  -1.467
REMARK UNBOUND:                -1.522
REMARK SMILES CCCCCCCCCCCCCCCCCCCCCC(=O)[O-]
REMARK SMILES IDX 12 1 11 2 10 3 9 4 8 5 7 6 6 7 5 8 4 9 3 10 2 11 1 12 13 13
REMARK SMILES IDX 14 14 15 15 16 16 17 17 18 18 19 19 20 20 21 21 22 22 23 23
REMARK SMILES IDX 24 24
REMARK H PARENT
REMARK Flexibility Score: inf
ROOT
ATOM      1  C   UNL     1     -23.875 -24.753  29.387  1.00  0.00     0.000 C 
ENDROOT
BRANCH   1   2
ATOM      2  C   UNL     1     -22.688 -24.056  30.062  1.00  0.00     0.000 C 
BRANCH   2   3
ATOM      3  C   UNL     1     -23.037 -23.636  31.494  1.00  0.00     0.000 C 
BRANCH   3   4
ATOM      4  C   UNL     1     -22.590 -22.195  31.768  1.00  0.00    -0.000 C 
BRANCH   4   5
ATOM      5  C   UNL     1     -21.781 -21.637  30.588  1.00  0.00    -0.000 C 
BRANCH   5   6
ATOM      6  C   UNL     1     -22.312 -20.282  30.091  1.00  0.00    -0.000 C 
BRANCH   6   7
ATOM      7  C   UNL     1     -21.211 -19.401  29.482  1.00  0.00    -0.000 C 
BRANCH   7   8
ATOM      8  C   UNL     1     -20.151 -19.044  30.536  1.00  0.00    -0.000 C 
BRANCH   8   9
ATOM      9  C   UNL     1     -19.003 -18.196  29.964  1.00  0.00    -0.000 C 
BRANCH   9  10
ATOM     10  C   UNL     1     -19.406 -17.246  28.820  1.00  0.00    -0.000 C 
BRANCH  10  11
ATOM     11  C   UNL     1     -18.239 -16.399  28.272  1.00  0.00    -0.003 C 
ATOM     12  C   UNL     1     -17.784 -15.324  29.258  1.00  0.00     0.004 C 
ENDBRANCH  10  11
ENDBRANCH   9  10
ENDBRANCH   8   9
ENDBRANCH   7   8
ENDBRANCH   6   7
ENDBRANCH   5   6
ENDBRANCH   4   5
ENDBRANCH   3   4
ENDBRANCH   2   3
ENDBRANCH   1   2
BRANCH   1  13
ATOM     13  C   UNL     1     -23.641 -26.269  29.303  1.00  0.00     0.000 C 
BRANCH  13  14
ATOM     14  C   UNL     1     -23.978 -27.005  30.611  1.00  0.00     0.000 C 
BRANCH  14  15
ATOM     15  C   UNL     1     -25.243 -26.509  31.342  1.00  0.00     0.000 C 
BRANCH  15  16
ATOM     16  C   UNL     1     -26.390 -27.532  31.445  1.00  0.00     0.000 C 
BRANCH  16  17
ATOM     17  C   UNL     1     -26.213 -28.732  30.497  1.00  0.00     0.000 C 
BRANCH  17  18
ATOM     18  C   UNL     1     -27.062 -28.601  29.216  1.00  0.00     0.000 C 
BRANCH  18  19
ATOM     19  C   UNL     1     -26.252 -28.746  27.914  1.00  0.00     0.000 C 
BRANCH  19  20
ATOM     20  C   UNL     1     -26.849 -27.948  26.742  1.00  0.00     0.006 C 
BRANCH  20  21
ATOM     21  C   UNL     1     -26.949 -28.785  25.460  1.00  0.00     0.053 C 
BRANCH  21  22
ATOM     22  C   UNL     1     -28.322 -28.725  24.862  1.00  0.00     0.041 C 
ATOM     23  O   UNL     1     -28.538 -28.008  23.848  1.00  0.00    -0.550 OA
ATOM     24  O   UNL     1     -29.353 -29.481  25.404  1.00  0.00    -0.550 OA
ENDBRANCH  21  22
ENDBRANCH  20  21
ENDBRANCH  19  20
ENDBRANCH  18  19
ENDBRANCH  17  18
ENDBRANCH  16  17
ENDBRANCH  15  16
ENDBRANCH  14  15
ENDBRANCH  13  14
ENDBRANCH   1  13
TORSDOF 20
ENDMDL
MODEL 8
REMARK VINA RESULT:    -6.058      4.756     11.523
REMARK INTER + INTRA:         -14.663
REMARK INTER:                 -13.403
REMARK INTRA:                  -1.260
REMARK UNBOUND:                -1.522
REMARK SMILES CCCCCCCCCCCCCCCCCCCCCC(=O)[O-]
REMARK SMILES IDX 12 1 11 2 10 3 9 4 8 5 7 6 6 7 5 8 4 9 3 10 2 11 1 12 13 13
REMARK SMILES IDX 14 14 15 15 16 16 17 17 18 18 19 19 20 20 21 21 22 22 23 23
REMARK SMILES IDX 24 24
REMARK H PARENT
REMARK Flexibility Score: inf
ROOT
ATOM      1  C   UNL     1     -21.435 -21.038  31.809  1.00  0.00     0.000 C 
ENDROOT
BRANCH   1   2
ATOM      2  C   UNL     1     -21.525 -19.625  31.221  1.00  0.00     0.000 C 
BRANCH   2   3
ATOM      3  C   UNL     1     -21.688 -19.671  29.698  1.00  0.00     0.000 C 
BRANCH   3   4
ATOM      4  C   UNL     1     -20.684 -18.739  29.008  1.00  0.00    -0.000 C 
BRANCH   4   5
ATOM      5  C   UNL     1     -20.183 -17.658  29.978  1.00  0.00    -0.000 C 
BRANCH   5   6
ATOM      6  C   UNL     1     -18.677 -17.770  30.266  1.00  0.00    -0.000 C 
BRANCH   6   7
ATOM      7  C   UNL     1     -18.103 -16.503  30.918  1.00  0.00    -0.000 C 
BRANCH   7   8
ATOM      8  C   UNL     1     -18.234 -15.296  29.977  1.00  0.00    -0.000 C 
BRANCH   8   9
ATOM      9  C   UNL     1     -17.352 -15.418  28.724  1.00  0.00    -0.000 C 
BRANCH   9  10
ATOM     10  C   UNL     1     -18.121 -15.658  27.410  1.00  0.00    -0.000 C 
BRANCH  10  11
ATOM     11  C   UNL     1     -17.222 -16.083  26.231  1.00  0.00    -0.003 C 
ATOM     12  C   UNL     1     -16.876 -14.914  25.309  1.00  0.00     0.004 C 
ENDBRANCH  10  11
ENDBRANCH   9  10
ENDBRANCH   8   9
ENDBRANCH   7   8
ENDBRANCH   6   7
ENDBRANCH   5   6
ENDBRANCH   4   5
ENDBRANCH   3   4
ENDBRANCH   2   3
ENDBRANCH   1   2
BRANCH   1  13
ATOM     13  C   UNL     1     -22.393 -21.992  31.082  1.00  0.00     0.000 C 
BRANCH  13  14
ATOM     14  C   UNL     1     -21.672 -22.967  30.135  1.00  0.00     0.000 C 
BRANCH  14  15
ATOM     15  C   UNL     1     -22.389 -23.241  28.796  1.00  0.00     0.000 C 
BRANCH  15  16
ATOM     16  C   UNL     1     -22.946 -24.666  28.624  1.00  0.00     0.000 C 
BRANCH  16  17
ATOM     17  C   UNL     1     -24.079 -24.993  29.614  1.00  0.00     0.000 C 
BRANCH  17  18
ATOM     18  C   UNL     1     -23.634 -25.977  30.716  1.00  0.00     0.000 C 
BRANCH  18  19
ATOM     19  C   UNL     1     -24.684 -26.190  31.822  1.00  0.00     0.000 C 
BRANCH  19  20
ATOM     20  C   UNL     1     -26.047 -26.652  31.278  1.00  0.00     0.006 C 
BRANCH  20  21
ATOM     21  C   UNL     1     -26.044 -28.135  30.885  1.00  0.00     0.053 C 
BRANCH  21  22
ATOM     22  C   UNL     1     -26.335 -28.325  29.427  1.00  0.00     0.041 C 
ATOM     23  O   UNL     1     -25.828 -27.548  28.575  1.00  0.00    -0.550 OA
ATOM     24  O   UNL     1     -27.142 -29.376  29.008  1.00  0.00    -0.550 OA
ENDBRANCH  21  22
ENDBRANCH  20  21
ENDBRANCH  19  20
ENDBRANCH  18  19
ENDBRANCH  17  18
ENDBRANCH  16  17
ENDBRANCH  15  16
ENDBRANCH  14  15
ENDBRANCH  13  14
ENDBRANCH   1  13
TORSDOF 20
ENDMDL
MODEL 9
REMARK VINA RESULT:    -5.865      1.286      2.108
REMARK INTER + INTRA:         -14.244
REMARK INTER:                 -12.691
REMARK INTRA:                  -1.554
REMARK UNBOUND:                -1.522
REMARK SMILES CCCCCCCCCCCCCCCCCCCCCC(=O)[O-]
REMARK SMILES IDX 12 1 11 2 10 3 9 4 8 5 7 6 6 7 5 8 4 9 3 10 2 11 1 12 13 13
REMARK SMILES IDX 14 14 15 15 16 16 17 17 18 18 19 19 20 20 21 21 22 22 23 23
REMARK SMILES IDX 24 24
REMARK H PARENT
REMARK Flexibility Score: inf
ROOT
ATOM      1  C   UNL     1     -22.532 -22.200  31.220  1.00  0.00     0.000 C 
ENDROOT
BRANCH   1   2
ATOM      2  C   UNL     1     -23.246 -23.296  32.021  1.00  0.00     0.000 C 
BRANCH   2   3
ATOM      3  C   UNL     1     -22.871 -24.690  31.504  1.00  0.00     0.000 C 
BRANCH   3   4
ATOM      4  C   UNL     1     -24.026 -25.679  31.706  1.00  0.00    -0.000 C 
BRANCH   4   5
ATOM      5  C   UNL     1     -25.007 -25.626  30.525  1.00  0.00    -0.000 C 
BRANCH   5   6
ATOM      6  C   UNL     1     -24.324 -25.889  29.173  1.00  0.00    -0.000 C 
BRANCH   6   7
ATOM      7  C   UNL     1     -24.785 -27.201  28.521  1.00  0.00    -0.000 C 
BRANCH   7   8
ATOM      8  C   UNL     1     -26.264 -27.476  28.833  1.00  0.00    -0.000 C 
BRANCH   8   9
ATOM      9  C   UNL     1     -26.841 -28.639  28.008  1.00  0.00    -0.000 C 
BRANCH   9  10
ATOM     10  C   UNL     1     -26.447 -28.635  26.518  1.00  0.00    -0.000 C 
BRANCH  10  11
ATOM     11  C   UNL     1     -27.514 -28.013  25.593  1.00  0.00    -0.003 C 
ATOM     12  C   UNL     1     -28.308 -29.070  24.825  1.00  0.00     0.004 C 
ENDBRANCH  10  11
ENDBRANCH   9  10
ENDBRANCH   8   9
ENDBRANCH   7   8
ENDBRANCH   6   7
ENDBRANCH   5   6
ENDBRANCH   4   5
ENDBRANCH   3   4
ENDBRANCH   2   3
ENDBRANCH   1   2
BRANCH   1  13
ATOM     13  C   UNL     1     -22.787 -22.373  29.716  1.00  0.00     0.000 C 
BRANCH  13  14
ATOM     14  C   UNL     1     -21.805 -21.575  28.841  1.00  0.00     0.000 C 
BRANCH  14  15
ATOM     15  C   UNL     1     -22.169 -20.092  28.622  1.00  0.00     0.000 C 
BRANCH  15  16
ATOM     16  C   UNL     1     -20.976 -19.120  28.564  1.00  0.00     0.000 C 
BRANCH  16  17
ATOM     17  C   UNL     1     -20.878 -18.213  29.804  1.00  0.00     0.000 C 
BRANCH  17  18
ATOM     18  C   UNL     1     -20.314 -18.954  31.035  1.00  0.00     0.000 C 
BRANCH  18  19
ATOM     19  C   UNL     1     -19.199 -18.186  31.768  1.00  0.00     0.000 C 
BRANCH  19  20
ATOM     20  C   UNL     1     -19.179 -16.685  31.430  1.00  0.00     0.006 C 
BRANCH  20  21
ATOM     21  C   UNL     1     -17.792 -16.210  30.979  1.00  0.00     0.053 C 
BRANCH  21  22
ATOM     22  C   UNL     1     -17.848 -15.507  29.656  1.00  0.00     0.041 C 
ATOM     23  O   UNL     1     -18.008 -16.170  28.595  1.00  0.00    -0.550 OA
ATOM     24  O   UNL     1     -17.753 -14.123  29.595  1.00  0.00    -0.550 OA
ENDBRANCH  21  22
ENDBRANCH  20  21
ENDBRANCH  19  20
ENDBRANCH  18  19
ENDBRANCH  17  18
ENDBRANCH  16  17
ENDBRANCH  15  16
ENDBRANCH  14  15
ENDBRANCH  13  14
ENDBRANCH   1  13
TORSDOF 20
ENDMDL
