MODEL 1
REMARK VINA RESULT:    -5.630      0.000      0.000
REMARK INTER + INTRA:         -13.390
REMARK INTER:                 -12.213
REMARK INTRA:                  -1.177
REMARK UNBOUND:                -1.177
REMARK SMILES CCCCCCCCCCCCCCCCCCCCCC(=O)[O-]
REMARK SMILES IDX 12 1 11 2 10 3 9 4 8 5 7 6 6 7 5 8 4 9 3 10 2 11 1 12 13 13
REMARK SMILES IDX 14 14 15 15 16 16 17 17 18 18 19 19 20 20 21 21 22 22 23 23
REMARK SMILES IDX 24 24
REMARK H PARENT
REMARK Flexibility Score: inf
ROOT
ATOM      1  C   UNL     1      26.617  41.894  34.289  1.00  0.00     0.000 C 
ENDROOT
BRANCH   1   2
ATOM      2  C   UNL     1      27.911  41.204  33.819  1.00  0.00     0.000 C 
BRANCH   2   3
ATOM      3  C   UNL     1      27.828  40.713  32.358  1.00  0.00     0.000 C 
BRANCH   3   4
ATOM      4  C   UNL     1      27.955  39.185  32.200  1.00  0.00    -0.000 C 
BRANCH   4   5
ATOM      5  C   UNL     1      27.468  38.355  33.402  1.00  0.00    -0.000 C 
BRANCH   5   6
ATOM      6  C   UNL     1      27.595  36.829  33.234  1.00  0.00    -0.000 C 
BRANCH   6   7
ATOM      7  C   UNL     1      27.450  36.376  31.771  1.00  0.00    -0.000 C 
BRANCH   7   8
ATOM      8  C   UNL     1      28.389  35.211  31.423  1.00  0.00    -0.000 C 
BRANCH   8   9
ATOM      9  C   UNL     1      27.624  33.919  31.084  1.00  0.00    -0.000 C 
BRANCH   9  10
ATOM     10  C   UNL     1      26.336  34.180  30.282  1.00  0.00    -0.000 C 
BRANCH  10  11
ATOM     11  C   UNL     1      25.780  32.952  29.540  1.00  0.00    -0.003 C 
ATOM     12  C   UNL     1      24.257  32.970  29.407  1.00  0.00     0.004 C 
ENDBRANCH  10  11
ENDBRANCH   9  10
ENDBRANCH   8   9
ENDBRANCH   7   8
ENDBRANCH   6   7
ENDBRANCH   5   6
ENDBRANCH   4   5
ENDBRANCH   3   4
ENDBRANCH   2   3
ENDBRANCH   1   2
BRANCH   1  13
ATOM     13  C   UNL     1      26.875  43.011  35.312  1.00  0.00     0.000 C 
BRANCH  13  14
ATOM     14  C   UNL     1      25.591  43.478  36.019  1.00  0.00     0.000 C 
BRANCH  14  15
ATOM     15  C   UNL     1      24.334  42.801  35.447  1.00  0.00     0.000 C 
BRANCH  15  16
ATOM     16  C   UNL     1      23.138  43.762  35.370  1.00  0.00     0.000 C 
BRANCH  16  17
ATOM     17  C   UNL     1      23.284  44.904  36.385  1.00  0.00     0.000 C 
BRANCH  17  18
ATOM     18  C   UNL     1      21.972  45.693  36.580  1.00  0.00     0.000 C 
BRANCH  18  19
ATOM     19  C   UNL     1      20.701  44.827  36.480  1.00  0.00     0.000 C 
BRANCH  19  20
ATOM     20  C   UNL     1      19.649  45.319  35.469  1.00  0.00     0.006 C 
BRANCH  20  21
ATOM     21  C   UNL     1      20.234  46.057  34.253  1.00  0.00     0.053 C 
BRANCH  21  22
ATOM     22  C   UNL     1      19.730  45.493  32.960  1.00  0.00     0.041 C 
ATOM     23  O   UNL     1      18.512  45.199  32.830  1.00  0.00    -0.550 OA
ATOM     24  O   UNL     1      20.596  45.325  31.888  1.00  0.00    -0.550 OA
ENDBRANCH  21  22
ENDBRANCH  20  21
ENDBRANCH  19  20
ENDBRANCH  18  19
ENDBRANCH  17  18
ENDBRANCH  16  17
ENDBRANCH  15  16
ENDBRANCH  14  15
ENDBRANCH  13  14
ENDBRANCH   1  13
TORSDOF 20
ENDMDL
MODEL 2
REMARK VINA RESULT:    -5.528      4.583     11.015
REMARK INTER + INTRA:         -13.167
REMARK INTER:                 -11.780
REMARK INTRA:                  -1.388
REMARK UNBOUND:                -1.177
REMARK SMILES CCCCCCCCCCCCCCCCCCCCCC(=O)[O-]
REMARK SMILES IDX 12 1 11 2 10 3 9 4 8 5 7 6 6 7 5 8 4 9 3 10 2 11 1 12 13 13
REMARK SMILES IDX 14 14 15 15 16 16 17 17 18 18 19 19 20 20 21 21 22 22 23 23
REMARK SMILES IDX 24 24
REMARK H PARENT
REMARK Flexibility Score: inf
ROOT
ATOM      1  C   UNL     1      26.394  43.877  35.506  1.00  0.00     0.000 C 
ENDROOT
BRANCH   1   2
ATOM      2  C   UNL     1      25.186  42.921  35.505  1.00  0.00     0.000 C 
BRANCH   2   3
ATOM      3  C   UNL     1      23.836  43.668  35.472  1.00  0.00     0.000 C 
BRANCH   3   4
ATOM      4  C   UNL     1      23.632  44.653  36.640  1.00  0.00    -0.000 C 
BRANCH   4   5
ATOM      5  C   UNL     1      22.261  45.353  36.681  1.00  0.00    -0.000 C 
BRANCH   5   6
ATOM      6  C   UNL     1      21.528  45.428  35.328  1.00  0.00    -0.000 C 
BRANCH   6   7
ATOM      7  C   UNL     1      21.366  46.868  34.816  1.00  0.00    -0.000 C 
BRANCH   7   8
ATOM      8  C   UNL     1      20.674  46.928  33.445  1.00  0.00    -0.000 C 
BRANCH   8   9
ATOM      9  C   UNL     1      19.978  45.605  33.079  1.00  0.00    -0.000 C 
BRANCH   9  10
ATOM     10  C   UNL     1      18.468  45.773  32.829  1.00  0.00    -0.000 C 
BRANCH  10  11
ATOM     11  C   UNL     1      17.577  45.461  34.045  1.00  0.00    -0.003 C 
ATOM     12  C   UNL     1      17.962  44.160  34.751  1.00  0.00     0.004 C 
ENDBRANCH  10  11
ENDBRANCH   9  10
ENDBRANCH   8   9
ENDBRANCH   7   8
ENDBRANCH   6   7
ENDBRANCH   5   6
ENDBRANCH   4   5
ENDBRANCH   3   4
ENDBRANCH   2   3
ENDBRANCH   1   2
BRANCH   1  13
ATOM     13  C   UNL     1      27.609  43.301  34.762  1.00  0.00     0.000 C 
BRANCH  13  14
ATOM     14  C   UNL     1      27.427  41.821  34.382  1.00  0.00     0.000 C 
BRANCH  14  15
ATOM     15  C   UNL     1      27.747  41.559  32.900  1.00  0.00     0.000 C 
BRANCH  15  16
ATOM     16  C   UNL     1      27.940  40.065  32.602  1.00  0.00     0.000 C 
BRANCH  16  17
ATOM     17  C   UNL     1      27.727  39.219  33.865  1.00  0.00     0.000 C 
BRANCH  17  18
ATOM     18  C   UNL     1      27.547  37.719  33.548  1.00  0.00     0.000 C 
BRANCH  18  19
ATOM     19  C   UNL     1      27.438  37.406  32.043  1.00  0.00     0.000 C 
BRANCH  19  20
ATOM     20  C   UNL     1      27.801  35.964  31.644  1.00  0.00     0.006 C 
BRANCH  20  21
ATOM     21  C   UNL     1      28.013  35.012  32.833  1.00  0.00     0.053 C 
BRANCH  21  22
ATOM     22  C   UNL     1      28.380  33.630  32.385  1.00  0.00     0.041 C 
ATOM     23  O   UNL     1      29.284  32.990  32.983  1.00  0.00    -0.550 OA
ATOM     24  O   UNL     1      27.699  33.035  31.330  1.00  0.00    -0.550 OA
ENDBRANCH  21  22
ENDBRANCH  20  21
ENDBRANCH  19  20
ENDBRANCH  18  19
ENDBRANCH  17  18
ENDBRANCH  16  17
ENDBRANCH  15  16
ENDBRANCH  14  15
ENDBRANCH  13  14
ENDBRANCH   1  13
TORSDOF 20
ENDMDL
MODEL 3
REMARK VINA RESULT:    -5.441      4.131     10.926
REMARK INTER + INTRA:         -12.979
REMARK INTER:                 -11.390
REMARK INTRA:                  -1.589
REMARK UNBOUND:                -1.177
REMARK SMILES CCCCCCCCCCCCCCCCCCCCCC(=O)[O-]
REMARK SMILES IDX 12 1 11 2 10 3 9 4 8 5 7 6 6 7 5 8 4 9 3 10 2 11 1 12 13 13
REMARK SMILES IDX 14 14 15 15 16 16 17 17 18 18 19 19 20 20 21 21 22 22 23 23
REMARK SMILES IDX 24 24
REMARK H PARENT
REMARK Flexibility Score: inf
ROOT
ATOM      1  C   UNL     1      23.740  43.412  35.409  1.00  0.00     0.000 C 
ENDROOT
BRANCH   1   2
ATOM      2  C   UNL     1      23.844  44.609  36.372  1.00  0.00     0.000 C 
BRANCH   2   3
ATOM      3  C   UNL     1      22.532  45.417  36.463  1.00  0.00     0.000 C 
BRANCH   3   4
ATOM      4  C   UNL     1      21.271  44.614  36.087  1.00  0.00    -0.000 C 
BRANCH   4   5
ATOM      5  C   UNL     1      19.942  45.384  36.198  1.00  0.00    -0.000 C 
BRANCH   5   6
ATOM      6  C   UNL     1      18.676  44.508  36.133  1.00  0.00    -0.000 C 
BRANCH   6   7
ATOM      7  C   UNL     1      17.501  45.211  35.434  1.00  0.00    -0.000 C 
BRANCH   7   8
ATOM      8  C   UNL     1      17.107  44.523  34.117  1.00  0.00    -0.000 C 
BRANCH   8   9
ATOM      9  C   UNL     1      17.410  45.395  32.885  1.00  0.00    -0.000 C 
BRANCH   9  10
ATOM     10  C   UNL     1      18.013  46.763  33.254  1.00  0.00    -0.000 C 
BRANCH  10  11
ATOM     11  C   UNL     1      19.499  46.930  32.890  1.00  0.00    -0.003 C 
ATOM     12  C   UNL     1      20.155  45.625  32.436  1.00  0.00     0.004 C 
ENDBRANCH  10  11
ENDBRANCH   9  10
ENDBRANCH   8   9
ENDBRANCH   7   8
ENDBRANCH   6   7
ENDBRANCH   5   6
ENDBRANCH   4   5
ENDBRANCH   3   4
ENDBRANCH   2   3
ENDBRANCH   1   2
BRANCH   1  13
ATOM     13  C   UNL     1      24.971  42.495  35.463  1.00  0.00     0.000 C 
BRANCH  13  14
ATOM     14  C   UNL     1      26.278  43.268  35.710  1.00  0.00     0.000 C 
BRANCH  14  15
ATOM     15  C   UNL     1      27.444  42.718  34.871  1.00  0.00     0.000 C 
BRANCH  15  16
ATOM     16  C   UNL     1      27.033  41.502  34.028  1.00  0.00     0.000 C 
BRANCH  16  17
ATOM     17  C   UNL     1      27.622  41.589  32.613  1.00  0.00     0.000 C 
BRANCH  17  18
ATOM     18  C   UNL     1      28.062  40.212  32.070  1.00  0.00     0.000 C 
BRANCH  18  19
ATOM     19  C   UNL     1      27.789  39.043  33.036  1.00  0.00     0.000 C 
BRANCH  19  20
ATOM     20  C   UNL     1      27.440  37.703  32.362  1.00  0.00     0.006 C 
BRANCH  20  21
ATOM     21  C   UNL     1      27.533  36.482  33.293  1.00  0.00     0.053 C 
BRANCH  21  22
ATOM     22  C   UNL     1      27.872  35.231  32.543  1.00  0.00     0.041 C 
ATOM     23  O   UNL     1      27.157  34.861  31.574  1.00  0.00    -0.550 OA
ATOM     24  O   UNL     1      28.996  34.493  32.888  1.00  0.00    -0.550 OA
ENDBRANCH  21  22
ENDBRANCH  20  21
ENDBRANCH  19  20
ENDBRANCH  18  19
ENDBRANCH  17  18
ENDBRANCH  16  17
ENDBRANCH  15  16
ENDBRANCH  14  15
ENDBRANCH  13  14
ENDBRANCH   1  13
TORSDOF 20
ENDMDL
MODEL 4
REMARK VINA RESULT:    -5.419      4.124     10.892
REMARK INTER + INTRA:         -12.932
REMARK INTER:                 -10.992
REMARK INTRA:                  -1.940
REMARK UNBOUND:                -1.177
REMARK SMILES CCCCCCCCCCCCCCCCCCCCCC(=O)[O-]
REMARK SMILES IDX 12 1 11 2 10 3 9 4 8 5 7 6 6 7 5 8 4 9 3 10 2 11 1 12 13 13
REMARK SMILES IDX 14 14 15 15 16 16 17 17 18 18 19 19 20 20 21 21 22 22 23 23
REMARK SMILES IDX 24 24
REMARK H PARENT
REMARK Flexibility Score: inf
ROOT
ATOM      1  C   UNL     1      22.739  44.058  35.372  1.00  0.00     0.000 C 
ENDROOT
BRANCH   1   2
ATOM      2  C   UNL     1      22.605  45.385  36.142  1.00  0.00     0.000 C 
BRANCH   2   3
ATOM      3  C   UNL     1      21.327  46.165  35.767  1.00  0.00     0.000 C 
BRANCH   3   4
ATOM      4  C   UNL     1      20.870  45.961  34.309  1.00  0.00    -0.000 C 
BRANCH   4   5
ATOM      5  C   UNL     1      20.745  47.247  33.471  1.00  0.00    -0.000 C 
BRANCH   5   6
ATOM      6  C   UNL     1      19.405  47.413  32.730  1.00  0.00    -0.000 C 
BRANCH   6   7
ATOM      7  C   UNL     1      18.365  48.198  33.547  1.00  0.00    -0.000 C 
BRANCH   7   8
ATOM      8  C   UNL     1      17.010  47.476  33.618  1.00  0.00    -0.000 C 
BRANCH   8   9
ATOM      9  C   UNL     1      16.888  46.350  32.576  1.00  0.00    -0.000 C 
BRANCH   9  10
ATOM     10  C   UNL     1      16.524  44.992  33.202  1.00  0.00    -0.000 C 
BRANCH  10  11
ATOM     11  C   UNL     1      17.720  44.197  33.755  1.00  0.00    -0.003 C 
ATOM     12  C   UNL     1      17.819  44.246  35.280  1.00  0.00     0.004 C 
ENDBRANCH  10  11
ENDBRANCH   9  10
ENDBRANCH   8   9
ENDBRANCH   7   8
ENDBRANCH   6   7
ENDBRANCH   5   6
ENDBRANCH   4   5
ENDBRANCH   3   4
ENDBRANCH   2   3
ENDBRANCH   1   2
BRANCH   1  13
ATOM     13  C   UNL     1      24.139  43.438  35.494  1.00  0.00     0.000 C 
BRANCH  13  14
ATOM     14  C   UNL     1      24.217  42.022  34.896  1.00  0.00     0.000 C 
BRANCH  14  15
ATOM     15  C   UNL     1      25.645  41.454  34.934  1.00  0.00     0.000 C 
BRANCH  15  16
ATOM     16  C   UNL     1      26.712  42.559  34.941  1.00  0.00     0.000 C 
BRANCH  16  17
ATOM     17  C   UNL     1      27.866  42.216  33.988  1.00  0.00     0.000 C 
BRANCH  17  18
ATOM     18  C   UNL     1      27.369  41.704  32.619  1.00  0.00     0.000 C 
BRANCH  18  19
ATOM     19  C   UNL     1      28.173  40.510  32.068  1.00  0.00     0.000 C 
BRANCH  19  20
ATOM     20  C   UNL     1      28.275  39.297  33.011  1.00  0.00     0.006 C 
BRANCH  20  21
ATOM     21  C   UNL     1      27.073  38.340  32.945  1.00  0.00     0.053 C 
BRANCH  21  22
ATOM     22  C   UNL     1      27.490  36.941  32.607  1.00  0.00     0.041 C 
ATOM     23  O   UNL     1      27.360  36.019  33.455  1.00  0.00    -0.550 OA
ATOM     24  O   UNL     1      27.988  36.648  31.344  1.00  0.00    -0.550 OA
ENDBRANCH  21  22
ENDBRANCH  20  21
ENDBRANCH  19  20
ENDBRANCH  18  19
ENDBRANCH  17  18
ENDBRANCH  16  17
ENDBRANCH  15  16
ENDBRANCH  14  15
ENDBRANCH  13  14
ENDBRANCH   1  13
TORSDOF 20
ENDMDL
MODEL 5
REMARK VINA RESULT:    -5.397      3.738     10.820
REMARK INTER + INTRA:         -12.884
REMARK INTER:                 -10.818
REMARK INTRA:                  -2.066
REMARK UNBOUND:                -1.177
REMARK SMILES CCCCCCCCCCCCCCCCCCCCCC(=O)[O-]
REMARK SMILES IDX 12 1 11 2 10 3 9 4 8 5 7 6 6 7 5 8 4 9 3 10 2 11 1 12 13 13
REMARK SMILES IDX 14 14 15 15 16 16 17 17 18 18 19 19 20 20 21 21 22 22 23 23
REMARK SMILES IDX 24 24
REMARK H PARENT
REMARK Flexibility Score: inf
ROOT
ATOM      1  C   UNL     1      23.506  43.295  35.342  1.00  0.00     0.000 C 
ENDROOT
BRANCH   1   2
ATOM      2  C   UNL     1      22.384  44.323  35.109  1.00  0.00     0.000 C 
BRANCH   2   3
ATOM      3  C   UNL     1      22.131  45.220  36.339  1.00  0.00     0.000 C 
BRANCH   3   4
ATOM      4  C   UNL     1      21.441  46.559  36.011  1.00  0.00    -0.000 C 
BRANCH   4   5
ATOM      5  C   UNL     1      20.779  46.636  34.623  1.00  0.00    -0.000 C 
BRANCH   5   6
ATOM      6  C   UNL     1      19.496  47.485  34.560  1.00  0.00    -0.000 C 
BRANCH   6   7
ATOM      7  C   UNL     1      18.284  46.699  34.031  1.00  0.00    -0.000 C 
BRANCH   7   8
ATOM      8  C   UNL     1      18.676  45.316  33.489  1.00  0.00    -0.000 C 
BRANCH   8   9
ATOM      9  C   UNL     1      18.134  44.167  34.359  1.00  0.00    -0.000 C 
BRANCH   9  10
ATOM     10  C   UNL     1      17.649  44.642  35.741  1.00  0.00    -0.000 C 
BRANCH  10  11
ATOM     11  C   UNL     1      18.526  44.188  36.921  1.00  0.00    -0.003 C 
ATOM     12  C   UNL     1      18.634  45.239  38.027  1.00  0.00     0.004 C 
ENDBRANCH  10  11
ENDBRANCH   9  10
ENDBRANCH   8   9
ENDBRANCH   7   8
ENDBRANCH   6   7
ENDBRANCH   5   6
ENDBRANCH   4   5
ENDBRANCH   3   4
ENDBRANCH   2   3
ENDBRANCH   1   2
BRANCH   1  13
ATOM     13  C   UNL     1      24.705  43.882  36.102  1.00  0.00     0.000 C 
BRANCH  13  14
ATOM     14  C   UNL     1      26.051  43.314  35.619  1.00  0.00     0.000 C 
BRANCH  14  15
ATOM     15  C   UNL     1      25.885  41.972  34.887  1.00  0.00     0.000 C 
BRANCH  15  16
ATOM     16  C   UNL     1      27.230  41.387  34.430  1.00  0.00     0.000 C 
BRANCH  16  17
ATOM     17  C   UNL     1      27.541  41.788  32.981  1.00  0.00     0.000 C 
BRANCH  17  18
ATOM     18  C   UNL     1      27.952  40.582  32.109  1.00  0.00     0.000 C 
BRANCH  18  19
ATOM     19  C   UNL     1      28.177  39.282  32.906  1.00  0.00     0.000 C 
BRANCH  19  20
ATOM     20  C   UNL     1      27.209  38.132  32.572  1.00  0.00     0.006 C 
BRANCH  20  21
ATOM     21  C   UNL     1      27.757  37.118  31.554  1.00  0.00     0.053 C 
BRANCH  21  22
ATOM     22  C   UNL     1      27.014  35.818  31.603  1.00  0.00     0.041 C 
ATOM     23  O   UNL     1      25.929  35.686  30.978  1.00  0.00    -0.550 OA
ATOM     24  O   UNL     1      27.537  34.742  32.308  1.00  0.00    -0.550 OA
ENDBRANCH  21  22
ENDBRANCH  20  21
ENDBRANCH  19  20
ENDBRANCH  18  19
ENDBRANCH  17  18
ENDBRANCH  16  17
ENDBRANCH  15  16
ENDBRANCH  14  15
ENDBRANCH  13  14
ENDBRANCH   1  13
TORSDOF 20
ENDMDL
MODEL 6
REMARK VINA RESULT:    -5.335      1.356      2.548
REMARK INTER + INTRA:         -12.749
REMARK INTER:                 -11.577
REMARK INTRA:                  -1.172
REMARK UNBOUND:                -1.177
REMARK SMILES CCCCCCCCCCCCCCCCCCCCCC(=O)[O-]
REMARK SMILES IDX 12 1 11 2 10 3 9 4 8 5 7 6 6 7 5 8 4 9 3 10 2 11 1 12 13 13
REMARK SMILES IDX 14 14 15 15 16 16 17 17 18 18 19 19 20 20 21 21 22 22 23 23
REMARK SMILES IDX 24 24
REMARK H PARENT
REMARK Flexibility Score: inf
ROOT
ATOM      1  C   UNL     1      25.696  43.351  35.995  1.00  0.00     0.000 C 
ENDROOT
BRANCH   1   2
ATOM      2  C   UNL     1      26.892  43.795  35.132  1.00  0.00     0.000 C 
BRANCH   2   3
ATOM      3  C   UNL     1      27.936  42.675  34.940  1.00  0.00     0.000 C 
BRANCH   3   4
ATOM      4  C   UNL     1      27.783  41.893  33.620  1.00  0.00    -0.000 C 
BRANCH   4   5
ATOM      5  C   UNL     1      27.117  40.510  33.747  1.00  0.00    -0.000 C 
BRANCH   5   6
ATOM      6  C   UNL     1      28.088  39.339  33.984  1.00  0.00    -0.000 C 
BRANCH   6   7
ATOM      7  C   UNL     1      27.480  37.975  33.617  1.00  0.00    -0.000 C 
BRANCH   7   8
ATOM      8  C   UNL     1      27.396  37.760  32.097  1.00  0.00    -0.000 C 
BRANCH   8   9
ATOM      9  C   UNL     1      27.727  36.314  31.688  1.00  0.00    -0.000 C 
BRANCH   9  10
ATOM     10  C   UNL     1      26.578  35.632  30.923  1.00  0.00    -0.000 C 
BRANCH  10  11
ATOM     11  C   UNL     1      26.811  34.144  30.604  1.00  0.00    -0.003 C 
ATOM     12  C   UNL     1      27.777  33.468  31.577  1.00  0.00     0.004 C 
ENDBRANCH  10  11
ENDBRANCH   9  10
ENDBRANCH   8   9
ENDBRANCH   7   8
ENDBRANCH   6   7
ENDBRANCH   5   6
ENDBRANCH   4   5
ENDBRANCH   3   4
ENDBRANCH   2   3
ENDBRANCH   1   2
BRANCH   1  13
ATOM     13  C   UNL     1      24.590  42.669  35.174  1.00  0.00     0.000 C 
BRANCH  13  14
ATOM     14  C   UNL     1      23.285  43.485  35.142  1.00  0.00     0.000 C 
BRANCH  14  15
ATOM     15  C   UNL     1      23.315  44.666  36.125  1.00  0.00     0.000 C 
BRANCH  15  16
ATOM     16  C   UNL     1      21.909  45.065  36.599  1.00  0.00     0.000 C 
BRANCH  16  17
ATOM     17  C   UNL     1      21.734  46.591  36.578  1.00  0.00     0.000 C 
BRANCH  17  18
ATOM     18  C   UNL     1      22.108  47.210  35.214  1.00  0.00     0.000 C 
BRANCH  18  19
ATOM     19  C   UNL     1      20.968  47.171  34.177  1.00  0.00     0.000 C 
BRANCH  19  20
ATOM     20  C   UNL     1      19.626  46.622  34.696  1.00  0.00     0.006 C 
BRANCH  20  21
ATOM     21  C   UNL     1      19.161  45.329  34.007  1.00  0.00     0.053 C 
BRANCH  21  22
ATOM     22  C   UNL     1      18.006  45.572  33.084  1.00  0.00     0.041 C 
ATOM     23  O   UNL     1      17.877  46.687  32.512  1.00  0.00    -0.550 OA
ATOM     24  O   UNL     1      17.092  44.558  32.827  1.00  0.00    -0.550 OA
ENDBRANCH  21  22
ENDBRANCH  20  21
ENDBRANCH  19  20
ENDBRANCH  18  19
ENDBRANCH  17  18
ENDBRANCH  16  17
ENDBRANCH  15  16
ENDBRANCH  14  15
ENDBRANCH  13  14
ENDBRANCH   1  13
TORSDOF 20
ENDMDL
MODEL 7
REMARK VINA RESULT:    -5.296      6.303     12.303
REMARK INTER + INTRA:         -12.665
REMARK INTER:                 -10.676
REMARK INTRA:                  -1.988
REMARK UNBOUND:                -1.177
REMARK SMILES CCCCCCCCCCCCCCCCCCCCCC(=O)[O-]
REMARK SMILES IDX 12 1 11 2 10 3 9 4 8 5 7 6 6 7 5 8 4 9 3 10 2 11 1 12 13 13
REMARK SMILES IDX 14 14 15 15 16 16 17 17 18 18 19 19 20 20 21 21 22 22 23 23
REMARK SMILES IDX 24 24
REMARK H PARENT
REMARK Flexibility Score: inf
ROOT
ATOM      1  C   UNL     1      15.691  45.106  33.187  1.00  0.00     0.000 C 
ENDROOT
BRANCH   1   2
ATOM      2  C   UNL     1      14.991  46.329  32.566  1.00  0.00     0.000 C 
BRANCH   2   3
ATOM      3  C   UNL     1      14.677  46.138  31.067  1.00  0.00     0.000 C 
BRANCH   3   4
ATOM      4  C   UNL     1      13.380  46.831  30.603  1.00  0.00    -0.000 C 
BRANCH   4   5
ATOM      5  C   UNL     1      12.596  46.091  29.503  1.00  0.00    -0.000 C 
BRANCH   5   6
ATOM      6  C   UNL     1      11.100  45.875  29.803  1.00  0.00    -0.000 C 
BRANCH   6   7
ATOM      7  C   UNL     1      10.843  44.658  30.707  1.00  0.00    -0.000 C 
BRANCH   7   8
ATOM      8  C   UNL     1      10.856  43.335  29.926  1.00  0.00    -0.000 C 
BRANCH   8   9
ATOM      9  C   UNL     1      11.662  42.237  30.642  1.00  0.00    -0.000 C 
BRANCH   9  10
ATOM     10  C   UNL     1      13.018  42.740  31.172  1.00  0.00    -0.000 C 
BRANCH  10  11
ATOM     11  C   UNL     1      14.168  42.687  30.151  1.00  0.00    -0.003 C 
ATOM     12  C   UNL     1      15.506  42.289  30.775  1.00  0.00     0.004 C 
ENDBRANCH  10  11
ENDBRANCH   9  10
ENDBRANCH   8   9
ENDBRANCH   7   8
ENDBRANCH   6   7
ENDBRANCH   5   6
ENDBRANCH   4   5
ENDBRANCH   3   4
ENDBRANCH   2   3
ENDBRANCH   1   2
BRANCH   1  13
ATOM     13  C   UNL     1      17.220  45.161  33.049  1.00  0.00     0.000 C 
BRANCH  13  14
ATOM     14  C   UNL     1      17.749  46.594  32.854  1.00  0.00     0.000 C 
BRANCH  14  15
ATOM     15  C   UNL     1      19.284  46.641  32.780  1.00  0.00     0.000 C 
BRANCH  15  16
ATOM     16  C   UNL     1      19.895  47.497  33.899  1.00  0.00     0.000 C 
BRANCH  16  17
ATOM     17  C   UNL     1      21.105  46.793  34.532  1.00  0.00     0.000 C 
BRANCH  17  18
ATOM     18  C   UNL     1      20.892  45.271  34.680  1.00  0.00     0.000 C 
BRANCH  18  19
ATOM     19  C   UNL     1      21.775  44.618  35.761  1.00  0.00     0.000 C 
BRANCH  19  20
ATOM     20  C   UNL     1      23.003  43.853  35.231  1.00  0.00     0.006 C 
BRANCH  20  21
ATOM     21  C   UNL     1      24.329  44.237  35.908  1.00  0.00     0.053 C 
BRANCH  21  22
ATOM     22  C   UNL     1      25.341  43.136  35.819  1.00  0.00     0.041 C 
ATOM     23  O   UNL     1      24.977  41.963  35.544  1.00  0.00    -0.550 OA
ATOM     24  O   UNL     1      26.690  43.412  36.004  1.00  0.00    -0.550 OA
ENDBRANCH  21  22
ENDBRANCH  20  21
ENDBRANCH  19  20
ENDBRANCH  18  19
ENDBRANCH  17  18
ENDBRANCH  16  17
ENDBRANCH  15  16
ENDBRANCH  14  15
ENDBRANCH  13  14
ENDBRANCH   1  13
TORSDOF 20
ENDMDL
MODEL 8
REMARK VINA RESULT:    -5.270      4.806      9.411
REMARK INTER + INTRA:         -12.608
REMARK INTER:                 -11.168
REMARK INTRA:                  -1.440
REMARK UNBOUND:                -1.177
REMARK SMILES CCCCCCCCCCCCCCCCCCCCCC(=O)[O-]
REMARK SMILES IDX 12 1 11 2 10 3 9 4 8 5 7 6 6 7 5 8 4 9 3 10 2 11 1 12 13 13
REMARK SMILES IDX 14 14 15 15 16 16 17 17 18 18 19 19 20 20 21 21 22 22 23 23
REMARK SMILES IDX 24 24
REMARK H PARENT
REMARK Flexibility Score: inf
ROOT
ATOM      1  C   UNL     1      24.901  33.683  29.940  1.00  0.00     0.000 C 
ENDROOT
BRANCH   1   2
ATOM      2  C   UNL     1      25.628  32.615  29.102  1.00  0.00     0.000 C 
BRANCH   2   3
ATOM      3  C   UNL     1      24.654  31.648  28.395  1.00  0.00     0.000 C 
BRANCH   3   4
ATOM      4  C   UNL     1      23.303  32.284  28.013  1.00  0.00    -0.000 C 
BRANCH   4   5
ATOM      5  C   UNL     1      22.761  31.896  26.624  1.00  0.00    -0.000 C 
BRANCH   5   6
ATOM      6  C   UNL     1      21.909  32.977  25.933  1.00  0.00    -0.000 C 
BRANCH   6   7
ATOM      7  C   UNL     1      20.627  32.411  25.299  1.00  0.00    -0.000 C 
BRANCH   7   8
ATOM      8  C   UNL     1      19.561  32.057  26.348  1.00  0.00    -0.000 C 
BRANCH   8   9
ATOM      9  C   UNL     1      19.543  33.048  27.526  1.00  0.00    -0.000 C 
BRANCH   9  10
ATOM     10  C   UNL     1      19.102  32.396  28.849  1.00  0.00    -0.000 C 
BRANCH  10  11
ATOM     11  C   UNL     1      20.026  31.272  29.352  1.00  0.00    -0.003 C 
ATOM     12  C   UNL     1      20.750  31.628  30.651  1.00  0.00     0.004 C 
ENDBRANCH  10  11
ENDBRANCH   9  10
ENDBRANCH   8   9
ENDBRANCH   7   8
ENDBRANCH   6   7
ENDBRANCH   5   6
ENDBRANCH   4   5
ENDBRANCH   3   4
ENDBRANCH   2   3
ENDBRANCH   1   2
BRANCH   1  13
ATOM     13  C   UNL     1      25.858  34.731  30.528  1.00  0.00     0.000 C 
BRANCH  13  14
ATOM     14  C   UNL     1      27.269  34.172  30.784  1.00  0.00     0.000 C 
BRANCH  14  15
ATOM     15  C   UNL     1      28.209  35.225  31.394  1.00  0.00     0.000 C 
BRANCH  15  16
ATOM     16  C   UNL     1      28.007  35.380  32.908  1.00  0.00     0.000 C 
BRANCH  16  17
ATOM     17  C   UNL     1      27.228  36.663  33.231  1.00  0.00     0.000 C 
BRANCH  17  18
ATOM     18  C   UNL     1      27.540  37.808  32.244  1.00  0.00     0.000 C 
BRANCH  18  19
ATOM     19  C   UNL     1      28.001  39.112  32.924  1.00  0.00     0.000 C 
BRANCH  19  20
ATOM     20  C   UNL     1      28.171  40.319  31.982  1.00  0.00     0.006 C 
BRANCH  20  21
ATOM     21  C   UNL     1      27.566  41.629  32.515  1.00  0.00     0.053 C 
BRANCH  21  22
ATOM     22  C   UNL     1      27.300  41.563  33.988  1.00  0.00     0.041 C 
ATOM     23  O   UNL     1      28.177  41.945  34.807  1.00  0.00    -0.550 OA
ATOM     24  O   UNL     1      26.071  41.115  34.455  1.00  0.00    -0.550 OA
ENDBRANCH  21  22
ENDBRANCH  20  21
ENDBRANCH  19  20
ENDBRANCH  18  19
ENDBRANCH  17  18
ENDBRANCH  16  17
ENDBRANCH  15  16
ENDBRANCH  14  15
ENDBRANCH  13  14
ENDBRANCH   1  13
TORSDOF 20
ENDMDL
MODEL 9
REMARK VINA RESULT:    -5.226     11.818     15.646
REMARK INTER + INTRA:         -12.512
REMARK INTER:                  -8.632
REMARK INTRA:                  -3.880
REMARK UNBOUND:                -1.177
REMARK SMILES CCCCCCCCCCCCCCCCCCCCCC(=O)[O-]
REMARK SMILES IDX 12 1 11 2 10 3 9 4 8 5 7 6 6 7 5 8 4 9 3 10 2 11 1 12 13 13
REMARK SMILES IDX 14 14 15 15 16 16 17 17 18 18 19 19 20 20 21 21 22 22 23 23
REMARK SMILES IDX 24 24
REMARK H PARENT
REMARK Flexibility Score: inf
ROOT
ATOM      1  C   UNL     1      13.367  34.423  26.885  1.00  0.00     0.000 C 
ENDROOT
BRANCH   1   2
ATOM      2  C   UNL     1      12.104  33.656  26.451  1.00  0.00     0.000 C 
BRANCH   2   3
ATOM      3  C   UNL     1      11.357  33.017  27.641  1.00  0.00     0.000 C 
BRANCH   3   4
ATOM      4  C   UNL     1      11.557  31.494  27.766  1.00  0.00    -0.000 C 
BRANCH   4   5
ATOM      5  C   UNL     1      12.455  31.040  28.933  1.00  0.00    -0.000 C 
BRANCH   5   6
ATOM      6  C   UNL     1      13.884  30.628  28.533  1.00  0.00    -0.000 C 
BRANCH   6   7
ATOM      7  C   UNL     1      13.937  29.898  27.180  1.00  0.00    -0.000 C 
BRANCH   7   8
ATOM      8  C   UNL     1      15.215  30.222  26.390  1.00  0.00    -0.000 C 
BRANCH   8   9
ATOM      9  C   UNL     1      14.986  31.306  25.321  1.00  0.00    -0.000 C 
BRANCH   9  10
ATOM     10  C   UNL     1      16.232  31.561  24.453  1.00  0.00    -0.000 C 
BRANCH  10  11
ATOM     11  C   UNL     1      16.171  32.843  23.601  1.00  0.00    -0.003 C 
ATOM     12  C   UNL     1      15.934  34.104  24.433  1.00  0.00     0.004 C 
ENDBRANCH  10  11
ENDBRANCH   9  10
ENDBRANCH   8   9
ENDBRANCH   7   8
ENDBRANCH   6   7
ENDBRANCH   5   6
ENDBRANCH   4   5
ENDBRANCH   3   4
ENDBRANCH   2   3
ENDBRANCH   1   2
BRANCH   1  13
ATOM     13  C   UNL     1      13.428  34.662  28.401  1.00  0.00     0.000 C 
BRANCH  13  14
ATOM     14  C   UNL     1      14.765  34.216  29.021  1.00  0.00     0.000 C 
BRANCH  14  15
ATOM     15  C   UNL     1      15.748  33.690  27.962  1.00  0.00     0.000 C 
BRANCH  15  16
ATOM     16  C   UNL     1      16.864  32.832  28.578  1.00  0.00     0.000 C 
BRANCH  16  17
ATOM     17  C   UNL     1      18.008  32.616  27.576  1.00  0.00     0.000 C 
BRANCH  17  18
ATOM     18  C   UNL     1      18.531  31.163  27.583  1.00  0.00     0.000 C 
BRANCH  18  19
ATOM     19  C   UNL     1      18.152  30.368  28.847  1.00  0.00     0.000 C 
BRANCH  19  20
ATOM     20  C   UNL     1      19.339  29.781  29.634  1.00  0.00     0.006 C 
BRANCH  20  21
ATOM     21  C   UNL     1      20.720  30.221  29.120  1.00  0.00     0.053 C 
BRANCH  21  22
ATOM     22  C   UNL     1      21.290  31.340  29.936  1.00  0.00     0.041 C 
ATOM     23  O   UNL     1      20.676  31.757  30.954  1.00  0.00    -0.550 OA
ATOM     24  O   UNL     1      22.515  31.899  29.595  1.00  0.00    -0.550 OA
ENDBRANCH  21  22
ENDBRANCH  20  21
ENDBRANCH  19  20
ENDBRANCH  18  19
ENDBRANCH  17  18
ENDBRANCH  16  17
ENDBRANCH  15  16
ENDBRANCH  14  15
ENDBRANCH  13  14
ENDBRANCH   1  13
TORSDOF 20
ENDMDL
