MODEL 1
REMARK VINA RESULT:    -0.586      0.000      0.000
REMARK INTER + INTRA:          -0.934
REMARK INTER:                  -0.689
REMARK INTRA:                  -0.244
REMARK UNBOUND:                -0.244
REMARK SMILES O=c1c(O)c(-c2ccc(O)cc2)oc2cc(O)cc(O)c12
REMARK SMILES IDX 5 1 3 2 2 3 1 4 21 5 19 6 18 7 16 8 15 9 14 10 13 11 6 12
REMARK SMILES IDX 7 13 8 14 9 15 12 16 11 17 10 18 4 20 20 22 17 24
REMARK H PARENT 10 19 4 21 20 23 17 25
REMARK Flexibility Score: inf
ROOT
ATOM      1  C   UNL     1       0.137  21.207  49.930  1.00  0.00     0.180 A 
ATOM      2  C   UNL     1       0.908  20.165  49.387  1.00  0.00     0.208 A 
ATOM      3  C   UNL     1       0.907  19.972  47.996  1.00  0.00     0.238 A 
ATOM      4  O   UNL     1       1.556  19.004  47.520  1.00  0.00    -0.285 OA
ATOM      5  C   UNL     1       0.149  20.832  47.166  1.00  0.00     0.111 A 
ATOM      6  C   UNL     1       0.107  20.754  45.741  1.00  0.00     0.134 A 
ATOM      7  C   UNL     1      -0.779  21.572  45.030  1.00  0.00     0.093 A 
ATOM      8  C   UNL     1      -1.575  22.511  45.685  1.00  0.00     0.123 A 
ATOM      9  C   UNL     1      -1.498  22.638  47.073  1.00  0.00     0.094 A 
ATOM     10  C   UNL     1      -0.650  21.810  47.813  1.00  0.00     0.146 A 
ATOM     11  O   UNL     1      -0.614  21.956  49.132  1.00  0.00    -0.452 OA
ENDROOT
BRANCH   1  12
ATOM     12  C   UNL     1       0.107  21.488  51.384  1.00  0.00     0.021 A 
ATOM     13  C   UNL     1       1.197  22.142  51.985  1.00  0.00     0.016 A 
ATOM     14  C   UNL     1       1.200  22.397  53.359  1.00  0.00     0.047 A 
ATOM     15  C   UNL     1       0.123  21.990  54.153  1.00  0.00     0.115 A 
ATOM     16  C   UNL     1      -0.964  21.065  52.192  1.00  0.00     0.016 A 
ATOM     17  C   UNL     1      -0.957  21.320  53.567  1.00  0.00     0.047 A 
BRANCH  15  18
ATOM     18  O   UNL     1       0.140  22.253  55.521  1.00  0.00    -0.508 OA
ATOM     19  H   UNL     1      -0.209  21.579  56.193  1.00  0.00     0.293 HD
ENDBRANCH  15  18
ENDBRANCH   1  12
BRANCH   2  20
ATOM     20  O   UNL     1       1.631  19.314  50.226  1.00  0.00    -0.502 OA
ATOM     21  H   UNL     1       2.315  18.654  49.874  1.00  0.00     0.293 HD
ENDBRANCH   2  20
BRANCH   6  22
ATOM     22  O   UNL     1       0.927  19.914  44.981  1.00  0.00    -0.507 OA
ATOM     23  H   UNL     1       1.917  19.792  45.129  1.00  0.00     0.293 HD
ENDBRANCH   6  22
BRANCH   8  24
ATOM     24  O   UNL     1      -2.434  23.321  44.944  1.00  0.00    -0.508 OA
ATOM     25  H   UNL     1      -3.379  23.029  44.725  1.00  0.00     0.293 HD
ENDBRANCH   8  24
TORSDOF 5
ENDMDL
MODEL 2
REMARK VINA RESULT:     0.351      1.417      3.078
REMARK INTER + INTRA:           0.169
REMARK INTER:                   0.407
REMARK INTRA:                  -0.238
REMARK UNBOUND:                -0.244
REMARK SMILES O=c1c(O)c(-c2ccc(O)cc2)oc2cc(O)cc(O)c12
REMARK SMILES IDX 5 1 3 2 2 3 1 4 21 5 19 6 18 7 16 8 15 9 14 10 13 11 6 12
REMARK SMILES IDX 7 13 8 14 9 15 12 16 11 17 10 18 4 20 20 22 17 24
REMARK H PARENT 10 19 4 21 20 23 17 25
REMARK Flexibility Score: inf
ROOT
ATOM      1  C   UNL     1      -0.311  21.879  50.554  1.00  0.00     0.180 A 
ATOM      2  C   UNL     1      -0.537  23.087  49.871  1.00  0.00     0.208 A 
ATOM      3  C   UNL     1      -0.562  23.080  48.467  1.00  0.00     0.238 A 
ATOM      4  O   UNL     1      -0.711  24.173  47.860  1.00  0.00    -0.285 OA
ATOM      5  C   UNL     1      -0.379  21.865  47.765  1.00  0.00     0.111 A 
ATOM      6  C   UNL     1      -0.426  21.735  46.343  1.00  0.00     0.134 A 
ATOM      7  C   UNL     1      -0.100  20.508  45.751  1.00  0.00     0.093 A 
ATOM      8  C   UNL     1       0.206  19.392  46.529  1.00  0.00     0.123 A 
ATOM      9  C   UNL     1       0.197  19.492  47.921  1.00  0.00     0.094 A 
ATOM     10  C   UNL     1      -0.089  20.712  48.539  1.00  0.00     0.146 A 
ATOM     11  O   UNL     1      -0.077  20.768  49.866  1.00  0.00    -0.452 OA
ENDROOT
BRANCH   1  12
ATOM     12  C   UNL     1      -0.295  21.802  52.033  1.00  0.00     0.021 A 
ATOM     13  C   UNL     1      -1.426  21.318  52.712  1.00  0.00     0.016 A 
ATOM     14  C   UNL     1      -1.441  21.258  54.109  1.00  0.00     0.047 A 
ATOM     15  C   UNL     1      -0.335  21.695  54.844  1.00  0.00     0.115 A 
ATOM     16  C   UNL     1       0.807  22.258  52.779  1.00  0.00     0.016 A 
ATOM     17  C   UNL     1       0.788  22.198  54.176  1.00  0.00     0.047 A 
BRANCH  15  18
ATOM     18  O   UNL     1      -0.364  21.628  56.236  1.00  0.00    -0.508 OA
ATOM     19  H   UNL     1       0.469  21.416  56.772  1.00  0.00     0.293 HD
ENDBRANCH  15  18
ENDBRANCH   1  12
BRANCH   2  20
ATOM     20  O   UNL     1      -0.694  24.279  50.583  1.00  0.00    -0.502 OA
ATOM     21  H   UNL     1      -1.481  24.899  50.438  1.00  0.00     0.293 HD
ENDBRANCH   2  20
BRANCH   6  22
ATOM     22  O   UNL     1      -0.810  22.763  45.478  1.00  0.00    -0.507 OA
ATOM     23  H   UNL     1      -1.207  22.624  44.562  1.00  0.00     0.293 HD
ENDBRANCH   6  22
BRANCH   8  24
ATOM     24  O   UNL     1       0.510  18.183  45.906  1.00  0.00    -0.508 OA
ATOM     25  H   UNL     1      -0.145  17.409  45.903  1.00  0.00     0.293 HD
ENDBRANCH   8  24
TORSDOF 5
ENDMDL
MODEL 3
REMARK VINA RESULT:     0.821      2.769      7.140
REMARK INTER + INTRA:           0.720
REMARK INTER:                   0.195
REMARK INTRA:                   0.526
REMARK UNBOUND:                -0.244
REMARK SMILES O=c1c(O)c(-c2ccc(O)cc2)oc2cc(O)cc(O)c12
REMARK SMILES IDX 5 1 3 2 2 3 1 4 21 5 19 6 18 7 16 8 15 9 14 10 13 11 6 12
REMARK SMILES IDX 7 13 8 14 9 15 12 16 11 17 10 18 4 20 20 22 17 24
REMARK H PARENT 10 19 4 21 20 23 17 25
REMARK Flexibility Score: inf
ROOT
ATOM      1  C   UNL     1      -0.105  24.171  48.781  1.00  0.00     0.180 A 
ATOM      2  C   UNL     1       0.822  24.979  49.463  1.00  0.00     0.208 A 
ATOM      3  C   UNL     1       1.186  24.636  50.775  1.00  0.00     0.238 A 
ATOM      4  O   UNL     1       1.975  25.392  51.400  1.00  0.00    -0.285 OA
ATOM      5  C   UNL     1       0.634  23.483  51.381  1.00  0.00     0.111 A 
ATOM      6  C   UNL     1       0.963  23.018  52.691  1.00  0.00     0.134 A 
ATOM      7  C   UNL     1       0.257  21.940  53.239  1.00  0.00     0.093 A 
ATOM      8  C   UNL     1      -0.718  21.269  52.503  1.00  0.00     0.123 A 
ATOM      9  C   UNL     1      -1.006  21.677  51.200  1.00  0.00     0.094 A 
ATOM     10  C   UNL     1      -0.345  22.772  50.639  1.00  0.00     0.146 A 
ATOM     11  O   UNL     1      -0.655  23.134  49.400  1.00  0.00    -0.452 OA
ENDROOT
BRANCH   1  12
ATOM     12  C   UNL     1      -0.520  24.454  47.387  1.00  0.00     0.021 A 
ATOM     13  C   UNL     1      -0.242  25.712  46.825  1.00  0.00     0.016 A 
ATOM     14  C   UNL     1      -0.645  26.008  45.520  1.00  0.00     0.047 A 
ATOM     15  C   UNL     1      -1.342  25.060  44.765  1.00  0.00     0.115 A 
ATOM     16  C   UNL     1      -1.239  23.511  46.630  1.00  0.00     0.016 A 
ATOM     17  C   UNL     1      -1.641  23.812  45.324  1.00  0.00     0.047 A 
BRANCH  15  18
ATOM     18  O   UNL     1      -1.736  25.369  43.465  1.00  0.00    -0.508 OA
ATOM     19  H   UNL     1      -2.642  25.091  43.106  1.00  0.00     0.293 HD
ENDBRANCH  15  18
ENDBRANCH   1  12
BRANCH   2  20
ATOM     20  O   UNL     1       1.338  26.125  48.854  1.00  0.00    -0.502 OA
ATOM     21  H   UNL     1       2.049  26.085  48.133  1.00  0.00     0.293 HD
ENDBRANCH   2  20
BRANCH   6  22
ATOM     22  O   UNL     1       1.985  23.560  53.477  1.00  0.00    -0.507 OA
ATOM     23  H   UNL     1       1.872  24.339  54.107  1.00  0.00     0.293 HD
ENDBRANCH   6  22
BRANCH   8  24
ATOM     24  O   UNL     1      -1.390  20.190  53.075  1.00  0.00    -0.508 OA
ATOM     25  H   UNL     1      -2.330  19.941  52.790  1.00  0.00     0.293 HD
ENDBRANCH   8  24
TORSDOF 5
ENDMDL
MODEL 4
REMARK VINA RESULT:     1.298      1.849      7.103
REMARK INTER + INTRA:           1.281
REMARK INTER:                   1.570
REMARK INTRA:                  -0.289
REMARK UNBOUND:                -0.244
REMARK SMILES O=c1c(O)c(-c2ccc(O)cc2)oc2cc(O)cc(O)c12
REMARK SMILES IDX 5 1 3 2 2 3 1 4 21 5 19 6 18 7 16 8 15 9 14 10 13 11 6 12
REMARK SMILES IDX 7 13 8 14 9 15 12 16 11 17 10 18 4 20 20 22 17 24
REMARK H PARENT 10 19 4 21 20 23 17 25
REMARK Flexibility Score: inf
ROOT
ATOM      1  C   UNL     1       0.456  21.303  50.733  1.00  0.00     0.180 A 
ATOM      2  C   UNL     1       1.263  22.383  51.130  1.00  0.00     0.208 A 
ATOM      3  C   UNL     1       1.255  22.778  52.478  1.00  0.00     0.238 A 
ATOM      4  O   UNL     1       1.938  23.780  52.818  1.00  0.00    -0.285 OA
ATOM      5  C   UNL     1       0.456  22.078  53.412  1.00  0.00     0.111 A 
ATOM      6  C   UNL     1       0.403  22.366  54.810  1.00  0.00     0.134 A 
ATOM      7  C   UNL     1      -0.522  21.694  55.619  1.00  0.00     0.093 A 
ATOM      8  C   UNL     1      -1.348  20.700  55.096  1.00  0.00     0.123 A 
ATOM      9  C   UNL     1      -1.263  20.369  53.743  1.00  0.00     0.094 A 
ATOM     10  C   UNL     1      -0.376  21.047  52.903  1.00  0.00     0.146 A 
ATOM     11  O   UNL     1      -0.332  20.708  51.620  1.00  0.00    -0.452 OA
ENDROOT
BRANCH   1  12
ATOM     12  C   UNL     1       0.429  20.813  49.335  1.00  0.00     0.021 A 
ATOM     13  C   UNL     1       1.362  19.845  48.924  1.00  0.00     0.016 A 
ATOM     14  C   UNL     1       1.369  19.385  47.604  1.00  0.00     0.047 A 
ATOM     15  C   UNL     1       0.457  19.896  46.675  1.00  0.00     0.115 A 
ATOM     16  C   UNL     1      -0.473  21.337  48.391  1.00  0.00     0.016 A 
ATOM     17  C   UNL     1      -0.462  20.875  47.071  1.00  0.00     0.047 A 
BRANCH  15  18
ATOM     18  O   UNL     1       0.476  19.427  45.363  1.00  0.00    -0.508 OA
ATOM     19  H   UNL     1       1.315  19.034  44.954  1.00  0.00     0.293 HD
ENDBRANCH  15  18
ENDBRANCH   1  12
BRANCH   2  20
ATOM     20  O   UNL     1       2.027  23.074  50.187  1.00  0.00    -0.502 OA
ATOM     21  H   UNL     1       2.994  22.841  49.994  1.00  0.00     0.293 HD
ENDBRANCH   2  20
BRANCH   6  22
ATOM     22  O   UNL     1       1.248  23.275  55.452  1.00  0.00    -0.507 OA
ATOM     23  H   UNL     1       1.029  24.246  55.614  1.00  0.00     0.293 HD
ENDBRANCH   6  22
BRANCH   8  24
ATOM     24  O   UNL     1      -2.247  20.041  55.933  1.00  0.00    -0.508 OA
ATOM     25  H   UNL     1      -3.191  19.827  55.633  1.00  0.00     0.293 HD
ENDBRANCH   8  24
TORSDOF 5
ENDMDL
MODEL 5
REMARK VINA RESULT:     2.076      2.252      6.872
REMARK INTER + INTRA:           2.196
REMARK INTER:                   1.671
REMARK INTRA:                   0.525
REMARK UNBOUND:                -0.244
REMARK SMILES O=c1c(O)c(-c2ccc(O)cc2)oc2cc(O)cc(O)c12
REMARK SMILES IDX 5 1 3 2 2 3 1 4 21 5 19 6 18 7 16 8 15 9 14 10 13 11 6 12
REMARK SMILES IDX 7 13 8 14 9 15 12 16 11 17 10 18 4 20 20 22 17 24
REMARK H PARENT 10 19 4 21 20 23 17 25
REMARK Flexibility Score: inf
ROOT
ATOM      1  C   UNL     1      -0.481  23.304  47.657  1.00  0.00     0.180 A 
ATOM      2  C   UNL     1      -0.633  21.909  47.733  1.00  0.00     0.208 A 
ATOM      3  C   UNL     1      -0.337  21.257  48.941  1.00  0.00     0.238 A 
ATOM      4  O   UNL     1      -0.423  20.002  48.988  1.00  0.00    -0.285 OA
ATOM      5  C   UNL     1       0.089  22.010  50.061  1.00  0.00     0.111 A 
ATOM      6  C   UNL     1       0.377  21.458  51.347  1.00  0.00     0.134 A 
ATOM      7  C   UNL     1       0.918  22.278  52.345  1.00  0.00     0.093 A 
ATOM      8  C   UNL     1       1.119  23.641  52.126  1.00  0.00     0.123 A 
ATOM      9  C   UNL     1       0.786  24.203  50.893  1.00  0.00     0.094 A 
ATOM     10  C   UNL     1       0.279  23.403  49.866  1.00  0.00     0.146 A 
ATOM     11  O   UNL     1      -0.017  23.974  48.705  1.00  0.00    -0.452 OA
ENDROOT
BRANCH   1  12
ATOM     12  C   UNL     1      -0.797  24.065  46.426  1.00  0.00     0.021 A 
ATOM     13  C   UNL     1      -1.519  23.441  45.393  1.00  0.00     0.016 A 
ATOM     14  C   UNL     1      -1.808  24.132  44.214  1.00  0.00     0.047 A 
ATOM     15  C   UNL     1      -1.368  25.448  44.042  1.00  0.00     0.115 A 
ATOM     16  C   UNL     1      -0.341  25.382  46.240  1.00  0.00     0.016 A 
ATOM     17  C   UNL     1      -0.631  26.071  45.057  1.00  0.00     0.047 A 
BRANCH  15  18
ATOM     18  O   UNL     1      -1.665  26.125  42.862  1.00  0.00    -0.508 OA
ATOM     19  H   UNL     1      -1.034  26.107  42.069  1.00  0.00     0.293 HD
ENDBRANCH  15  18
ENDBRANCH   1  12
BRANCH   2  20
ATOM     20  O   UNL     1      -1.035  21.183  46.609  1.00  0.00    -0.502 OA
ATOM     21  H   UNL     1      -0.602  20.306  46.345  1.00  0.00     0.293 HD
ENDBRANCH   2  20
BRANCH   6  22
ATOM     22  O   UNL     1       0.127  20.129  51.699  1.00  0.00    -0.507 OA
ATOM     23  H   UNL     1      -0.625  19.826  52.299  1.00  0.00     0.293 HD
ENDBRANCH   6  22
BRANCH   8  24
ATOM     24  O   UNL     1       1.645  24.430  53.148  1.00  0.00    -0.508 OA
ATOM     25  H   UNL     1       1.784  25.427  53.028  1.00  0.00     0.293 HD
ENDBRANCH   8  24
TORSDOF 5
ENDMDL
MODEL 6
REMARK VINA RESULT:     2.232      2.139      3.428
REMARK INTER + INTRA:           2.379
REMARK INTER:                   2.305
REMARK INTRA:                   0.074
REMARK UNBOUND:                -0.244
REMARK SMILES O=c1c(O)c(-c2ccc(O)cc2)oc2cc(O)cc(O)c12
REMARK SMILES IDX 5 1 3 2 2 3 1 4 21 5 19 6 18 7 16 8 15 9 14 10 13 11 6 12
REMARK SMILES IDX 7 13 8 14 9 15 12 16 11 17 10 18 4 20 20 22 17 24
REMARK H PARENT 10 19 4 21 20 23 17 25
REMARK Flexibility Score: inf
ROOT
ATOM      1  C   UNL     1      -0.354  22.995  50.157  1.00  0.00     0.180 A 
ATOM      2  C   UNL     1       0.105  24.317  50.019  1.00  0.00     0.208 A 
ATOM      3  C   UNL     1       0.025  24.937  48.761  1.00  0.00     0.238 A 
ATOM      4  O   UNL     1       0.488  26.100  48.630  1.00  0.00    -0.285 OA
ATOM      5  C   UNL     1      -0.528  24.235  47.664  1.00  0.00     0.111 A 
ATOM      6  C   UNL     1      -0.696  24.780  46.354  1.00  0.00     0.134 A 
ATOM      7  C   UNL     1      -1.133  23.952  45.313  1.00  0.00     0.093 A 
ATOM      8  C   UNL     1      -1.472  22.620  45.545  1.00  0.00     0.123 A 
ATOM      9  C   UNL     1      -1.368  22.092  46.833  1.00  0.00     0.094 A 
ATOM     10  C   UNL     1      -0.900  22.883  47.885  1.00  0.00     0.146 A 
ATOM     11  O   UNL     1      -0.807  22.341  49.094  1.00  0.00    -0.452 OA
ENDROOT
BRANCH   1  12
ATOM     12  C   UNL     1      -0.325  22.284  51.455  1.00  0.00     0.021 A 
ATOM     13  C   UNL     1      -1.490  21.652  51.924  1.00  0.00     0.016 A 
ATOM     14  C   UNL     1      -1.491  20.994  53.157  1.00  0.00     0.047 A 
ATOM     15  C   UNL     1      -0.337  20.972  53.945  1.00  0.00     0.115 A 
ATOM     16  C   UNL     1       0.828  22.275  52.261  1.00  0.00     0.016 A 
ATOM     17  C   UNL     1       0.822  21.617  53.496  1.00  0.00     0.047 A 
BRANCH  15  18
ATOM     18  O   UNL     1      -0.353  20.312  55.171  1.00  0.00    -0.508 OA
ATOM     19  H   UNL     1      -0.084  20.781  56.028  1.00  0.00     0.293 HD
ENDBRANCH  15  18
ENDBRANCH   1  12
BRANCH   2  20
ATOM     20  O   UNL     1       0.668  24.983  51.109  1.00  0.00    -0.502 OA
ATOM     21  H   UNL     1       1.459  24.614  51.624  1.00  0.00     0.293 HD
ENDBRANCH   2  20
BRANCH   6  22
ATOM     22  O   UNL     1      -0.475  26.122  46.033  1.00  0.00    -0.507 OA
ATOM     23  H   UNL     1       0.132  26.443  45.294  1.00  0.00     0.293 HD
ENDBRANCH   6  22
BRANCH   8  24
ATOM     24  O   UNL     1      -1.919  21.829  44.488  1.00  0.00    -0.508 OA
ATOM     25  H   UNL     1      -1.322  21.130  44.060  1.00  0.00     0.293 HD
ENDBRANCH   8  24
TORSDOF 5
ENDMDL
