MODEL 1
REMARK VINA RESULT:    -6.232      0.000      0.000
REMARK INTER + INTRA:         -21.835
REMARK INTER:                 -16.433
REMARK INTRA:                  -5.402
REMARK UNBOUND:                -5.402
REMARK SMILES CCCCCCCCCCCCCCCCCCCCCCCCCCCCCC(=O)[O-]
REMARK SMILES IDX 16 1 17 2 18 3 19 4 20 5 21 6 22 7 23 8 24 9 25 10 26 11
REMARK SMILES IDX 27 12 28 13 29 14 30 15 31 16 32 17 15 18 14 19 13 20 12 21
REMARK SMILES IDX 11 22 10 23 9 24 8 25 7 26 6 27 5 28 4 29 3 30 2 31 1 32
REMARK H PARENT
REMARK Flexibility Score: inf
ROOT
ATOM      1  C   UNL     1       9.075  74.190  -2.039  1.00  0.00     0.000 C 
ENDROOT
BRANCH   1   2
ATOM      2  C   UNL     1       8.790  74.957  -3.351  1.00  0.00     0.000 C 
BRANCH   2   3
ATOM      3  C   UNL     1       9.058  76.475  -3.284  1.00  0.00     0.000 C 
BRANCH   3   4
ATOM      4  C   UNL     1       9.288  77.058  -1.873  1.00  0.00     0.000 C 
BRANCH   4   5
ATOM      5  C   UNL     1       9.763  78.521  -1.829  1.00  0.00     0.000 C 
BRANCH   5   6
ATOM      6  C   UNL     1       8.999  79.366  -0.798  1.00  0.00     0.000 C 
BRANCH   6   7
ATOM      7  C   UNL     1       9.939  80.078   0.188  1.00  0.00     0.000 C 
BRANCH   7   8
ATOM      8  C   UNL     1      10.763  79.092   1.036  1.00  0.00     0.000 C 
BRANCH   8   9
ATOM      9  C   UNL     1       9.889  78.252   1.981  1.00  0.00     0.000 C 
BRANCH   9  10
ATOM     10  C   UNL     1       9.262  79.087   3.111  1.00  0.00     0.000 C 
BRANCH  10  11
ATOM     11  C   UNL     1       7.768  78.760   3.314  1.00  0.00     0.000 C 
BRANCH  11  12
ATOM     12  C   UNL     1       6.932  78.879   2.028  1.00  0.00     0.000 C 
BRANCH  12  13
ATOM     13  C   UNL     1       6.074  77.637   1.754  1.00  0.00     0.006 C 
BRANCH  13  14
ATOM     14  C   UNL     1       6.798  76.666   0.815  1.00  0.00     0.053 C 
BRANCH  14  15
ATOM     15  C   UNL     1       5.964  75.452   0.539  1.00  0.00     0.041 C 
ATOM     16  O   UNL     1       5.325  74.901   1.475  1.00  0.00    -0.550 OA
ATOM     17  O   UNL     1       5.945  74.886  -0.729  1.00  0.00    -0.550 OA
ENDBRANCH  14  15
ENDBRANCH  13  14
ENDBRANCH  12  13
ENDBRANCH  11  12
ENDBRANCH  10  11
ENDBRANCH   9  10
ENDBRANCH   8   9
ENDBRANCH   7   8
ENDBRANCH   6   7
ENDBRANCH   5   6
ENDBRANCH   4   5
ENDBRANCH   3   4
ENDBRANCH   2   3
ENDBRANCH   1   2
BRANCH   1  18
ATOM     18  C   UNL     1      10.396  73.403  -2.053  1.00  0.00     0.000 C 
BRANCH  18  19
ATOM     19  C   UNL     1      10.190  71.897  -1.831  1.00  0.00     0.000 C 
BRANCH  19  20
ATOM     20  C   UNL     1      10.672  71.061  -3.038  1.00  0.00     0.000 C 
BRANCH  20  21
ATOM     21  C   UNL     1       9.787  71.222  -4.284  1.00  0.00     0.000 C 
BRANCH  21  22
ATOM     22  C   UNL     1      10.597  71.539  -5.548  1.00  0.00     0.000 C 
BRANCH  22  23
ATOM     23  C   UNL     1      10.430  73.013  -5.945  1.00  0.00     0.000 C 
BRANCH  23  24
ATOM     24  C   UNL     1      11.742  73.804  -5.845  1.00  0.00    -0.000 C 
BRANCH  24  25
ATOM     25  C   UNL     1      12.841  73.033  -5.091  1.00  0.00    -0.000 C 
BRANCH  25  26
ATOM     26  C   UNL     1      13.483  73.884  -3.975  1.00  0.00    -0.000 C 
BRANCH  26  27
ATOM     27  C   UNL     1      14.338  75.051  -4.502  1.00  0.00    -0.000 C 
BRANCH  27  28
ATOM     28  C   UNL     1      13.761  76.428  -4.135  1.00  0.00    -0.000 C 
BRANCH  28  29
ATOM     29  C   UNL     1      12.834  76.386  -2.906  1.00  0.00    -0.000 C 
BRANCH  29  30
ATOM     30  C   UNL     1      13.146  77.427  -1.815  1.00  0.00    -0.000 C 
BRANCH  30  31
ATOM     31  C   UNL     1      13.342  76.800  -0.426  1.00  0.00    -0.003 C 
ATOM     32  C   UNL     1      12.353  75.662  -0.194  1.00  0.00     0.004 C 
ENDBRANCH  30  31
ENDBRANCH  29  30
ENDBRANCH  28  29
ENDBRANCH  27  28
ENDBRANCH  26  27
ENDBRANCH  25  26
ENDBRANCH  24  25
ENDBRANCH  23  24
ENDBRANCH  22  23
ENDBRANCH  21  22
ENDBRANCH  20  21
ENDBRANCH  19  20
ENDBRANCH  18  19
ENDBRANCH   1  18
TORSDOF 28
ENDMDL
MODEL 2
REMARK VINA RESULT:    -6.024      1.097      2.078
REMARK INTER + INTRA:         -21.287
REMARK INTER:                 -16.428
REMARK INTRA:                  -4.859
REMARK UNBOUND:                -5.402
REMARK SMILES CCCCCCCCCCCCCCCCCCCCCCCCCCCCCC(=O)[O-]
REMARK SMILES IDX 16 1 17 2 18 3 19 4 20 5 21 6 22 7 23 8 24 9 25 10 26 11
REMARK SMILES IDX 27 12 28 13 29 14 30 15 31 16 32 17 15 18 14 19 13 20 12 21
REMARK SMILES IDX 11 22 10 23 9 24 8 25 7 26 6 27 5 28 4 29 3 30 2 31 1 32
REMARK H PARENT
REMARK Flexibility Score: inf
ROOT
ATOM      1  C   UNL     1       8.640  74.434  -4.317  1.00  0.00     0.000 C 
ENDROOT
BRANCH   1   2
ATOM      2  C   UNL     1       9.493  75.227  -3.302  1.00  0.00     0.000 C 
BRANCH   2   3
ATOM      3  C   UNL     1       9.178  76.736  -3.232  1.00  0.00     0.000 C 
BRANCH   3   4
ATOM      4  C   UNL     1       9.531  77.438  -1.902  1.00  0.00     0.000 C 
BRANCH   4   5
ATOM      5  C   UNL     1       9.118  78.917  -1.803  1.00  0.00     0.000 C 
BRANCH   5   6
ATOM      6  C   UNL     1       9.472  79.545  -0.446  1.00  0.00     0.000 C 
BRANCH   6   7
ATOM      7  C   UNL     1      10.304  78.601   0.437  1.00  0.00     0.000 C 
BRANCH   7   8
ATOM      8  C   UNL     1      10.964  79.329   1.622  1.00  0.00     0.000 C 
BRANCH   8   9
ATOM      9  C   UNL     1       9.947  79.759   2.691  1.00  0.00     0.000 C 
BRANCH   9  10
ATOM     10  C   UNL     1       9.156  78.574   3.270  1.00  0.00     0.000 C 
BRANCH  10  11
ATOM     11  C   UNL     1       7.647  78.881   3.380  1.00  0.00     0.000 C 
BRANCH  11  12
ATOM     12  C   UNL     1       6.926  78.913   2.021  1.00  0.00     0.000 C 
BRANCH  12  13
ATOM     13  C   UNL     1       6.258  77.578   1.666  1.00  0.00     0.006 C 
BRANCH  13  14
ATOM     14  C   UNL     1       7.199  76.698   0.835  1.00  0.00     0.053 C 
BRANCH  14  15
ATOM     15  C   UNL     1       6.488  75.488   0.310  1.00  0.00     0.041 C 
ATOM     16  O   UNL     1       5.490  75.028   0.925  1.00  0.00    -0.550 OA
ATOM     17  O   UNL     1       6.964  74.826  -0.814  1.00  0.00    -0.550 OA
ENDBRANCH  14  15
ENDBRANCH  13  14
ENDBRANCH  12  13
ENDBRANCH  11  12
ENDBRANCH  10  11
ENDBRANCH   9  10
ENDBRANCH   8   9
ENDBRANCH   7   8
ENDBRANCH   6   7
ENDBRANCH   5   6
ENDBRANCH   4   5
ENDBRANCH   3   4
ENDBRANCH   2   3
ENDBRANCH   1   2
BRANCH   1  18
ATOM     18  C   UNL     1       9.431  73.931  -5.536  1.00  0.00     0.000 C 
BRANCH  18  19
ATOM     19  C   UNL     1       9.128  72.464  -5.876  1.00  0.00     0.000 C 
BRANCH  19  20
ATOM     20  C   UNL     1      10.281  71.523  -5.464  1.00  0.00     0.000 C 
BRANCH  20  21
ATOM     21  C   UNL     1      10.246  71.130  -3.979  1.00  0.00     0.000 C 
BRANCH  21  22
ATOM     22  C   UNL     1      11.410  71.733  -3.180  1.00  0.00     0.000 C 
BRANCH  22  23
ATOM     23  C   UNL     1      12.390  72.460  -4.112  1.00  0.00     0.000 C 
BRANCH  23  24
ATOM     24  C   UNL     1      13.640  72.965  -3.378  1.00  0.00    -0.000 C 
BRANCH  24  25
ATOM     25  C   UNL     1      14.243  74.221  -4.032  1.00  0.00    -0.000 C 
BRANCH  25  26
ATOM     26  C   UNL     1      13.156  75.224  -4.470  1.00  0.00    -0.000 C 
BRANCH  26  27
ATOM     27  C   UNL     1      13.184  76.548  -3.686  1.00  0.00    -0.000 C 
BRANCH  27  28
ATOM     28  C   UNL     1      13.007  76.351  -2.171  1.00  0.00    -0.000 C 
BRANCH  28  29
ATOM     29  C   UNL     1      13.270  77.632  -1.361  1.00  0.00    -0.000 C 
BRANCH  29  30
ATOM     30  C   UNL     1      14.378  78.544  -1.919  1.00  0.00    -0.000 C 
BRANCH  30  31
ATOM     31  C   UNL     1      13.933  80.007  -2.069  1.00  0.00    -0.003 C 
ATOM     32  C   UNL     1      12.516  80.095  -2.629  1.00  0.00     0.004 C 
ENDBRANCH  30  31
ENDBRANCH  29  30
ENDBRANCH  28  29
ENDBRANCH  27  28
ENDBRANCH  26  27
ENDBRANCH  25  26
ENDBRANCH  24  25
ENDBRANCH  23  24
ENDBRANCH  22  23
ENDBRANCH  21  22
ENDBRANCH  20  21
ENDBRANCH  19  20
ENDBRANCH  18  19
ENDBRANCH   1  18
TORSDOF 28
ENDMDL
MODEL 3
REMARK VINA RESULT:    -5.863      1.135      3.312
REMARK INTER + INTRA:         -20.860
REMARK INTER:                 -14.881
REMARK INTRA:                  -5.979
REMARK UNBOUND:                -5.402
REMARK SMILES CCCCCCCCCCCCCCCCCCCCCCCCCCCCCC(=O)[O-]
REMARK SMILES IDX 16 1 17 2 18 3 19 4 20 5 21 6 22 7 23 8 24 9 25 10 26 11
REMARK SMILES IDX 27 12 28 13 29 14 30 15 31 16 32 17 15 18 14 19 13 20 12 21
REMARK SMILES IDX 11 22 10 23 9 24 8 25 7 26 6 27 5 28 4 29 3 30 2 31 1 32
REMARK H PARENT
REMARK Flexibility Score: inf
ROOT
ATOM      1  C   UNL     1       9.865  70.758  -3.743  1.00  0.00     0.000 C 
ENDROOT
BRANCH   1   2
ATOM      2  C   UNL     1      10.971  71.411  -2.884  1.00  0.00     0.000 C 
BRANCH   2   3
ATOM      3  C   UNL     1      10.462  72.419  -1.832  1.00  0.00     0.000 C 
BRANCH   3   4
ATOM      4  C   UNL     1      10.353  73.887  -2.301  1.00  0.00     0.000 C 
BRANCH   4   5
ATOM      5  C   UNL     1       8.922  74.405  -2.528  1.00  0.00     0.000 C 
BRANCH   5   6
ATOM      6  C   UNL     1       8.887  75.767  -3.238  1.00  0.00     0.000 C 
BRANCH   6   7
ATOM      7  C   UNL     1       9.752  76.821  -2.528  1.00  0.00     0.000 C 
BRANCH   7   8
ATOM      8  C   UNL     1       9.054  78.189  -2.428  1.00  0.00     0.000 C 
BRANCH   8   9
ATOM      9  C   UNL     1       9.617  79.057  -1.292  1.00  0.00     0.000 C 
BRANCH   9  10
ATOM     10  C   UNL     1       8.516  79.750  -0.470  1.00  0.00     0.000 C 
BRANCH  10  11
ATOM     11  C   UNL     1       8.608  79.407   1.032  1.00  0.00     0.000 C 
BRANCH  11  12
ATOM     12  C   UNL     1       8.561  77.897   1.322  1.00  0.00     0.000 C 
BRANCH  12  13
ATOM     13  C   UNL     1       7.211  77.261   0.966  1.00  0.00     0.006 C 
BRANCH  13  14
ATOM     14  C   UNL     1       7.408  75.911   0.266  1.00  0.00     0.053 C 
BRANCH  14  15
ATOM     15  C   UNL     1       6.148  75.101   0.285  1.00  0.00     0.041 C 
ATOM     16  O   UNL     1       5.755  74.524  -0.763  1.00  0.00    -0.550 OA
ATOM     17  O   UNL     1       5.370  75.039   1.434  1.00  0.00    -0.550 OA
ENDBRANCH  14  15
ENDBRANCH  13  14
ENDBRANCH  12  13
ENDBRANCH  11  12
ENDBRANCH  10  11
ENDBRANCH   9  10
ENDBRANCH   8   9
ENDBRANCH   7   8
ENDBRANCH   6   7
ENDBRANCH   5   6
ENDBRANCH   4   5
ENDBRANCH   3   4
ENDBRANCH   2   3
ENDBRANCH   1   2
BRANCH   1  18
ATOM     18  C   UNL     1       9.927  71.139  -5.232  1.00  0.00     0.000 C 
BRANCH  18  19
ATOM     19  C   UNL     1       9.384  72.549  -5.505  1.00  0.00     0.000 C 
BRANCH  19  20
ATOM     20  C   UNL     1      10.451  73.468  -6.140  1.00  0.00     0.000 C 
BRANCH  20  21
ATOM     21  C   UNL     1      11.891  72.993  -5.893  1.00  0.00     0.000 C 
BRANCH  21  22
ATOM     22  C   UNL     1      12.836  74.140  -5.512  1.00  0.00     0.000 C 
BRANCH  22  23
ATOM     23  C   UNL     1      13.583  73.820  -4.209  1.00  0.00     0.000 C 
BRANCH  23  24
ATOM     24  C   UNL     1      13.671  75.028  -3.266  1.00  0.00    -0.000 C 
BRANCH  24  25
ATOM     25  C   UNL     1      12.868  76.238  -3.779  1.00  0.00    -0.000 C 
BRANCH  25  26
ATOM     26  C   UNL     1      13.688  77.544  -3.717  1.00  0.00    -0.000 C 
BRANCH  26  27
ATOM     27  C   UNL     1      13.224  78.513  -2.614  1.00  0.00    -0.000 C 
BRANCH  27  28
ATOM     28  C   UNL     1      14.247  78.658  -1.476  1.00  0.00    -0.000 C 
BRANCH  28  29
ATOM     29  C   UNL     1      13.935  77.759  -0.266  1.00  0.00    -0.000 C 
BRANCH  29  30
ATOM     30  C   UNL     1      12.463  77.325  -0.135  1.00  0.00    -0.000 C 
BRANCH  30  31
ATOM     31  C   UNL     1      12.294  75.804  -0.003  1.00  0.00    -0.003 C 
ATOM     32  C   UNL     1      11.103  75.459   0.885  1.00  0.00     0.004 C 
ENDBRANCH  30  31
ENDBRANCH  29  30
ENDBRANCH  28  29
ENDBRANCH  27  28
ENDBRANCH  26  27
ENDBRANCH  25  26
ENDBRANCH  24  25
ENDBRANCH  23  24
ENDBRANCH  22  23
ENDBRANCH  21  22
ENDBRANCH  20  21
ENDBRANCH  19  20
ENDBRANCH  18  19
ENDBRANCH   1  18
TORSDOF 28
ENDMDL
MODEL 4
REMARK VINA RESULT:    -5.853      1.314      2.695
REMARK INTER + INTRA:         -20.836
REMARK INTER:                 -16.643
REMARK INTRA:                  -4.193
REMARK UNBOUND:                -5.402
REMARK SMILES CCCCCCCCCCCCCCCCCCCCCCCCCCCCCC(=O)[O-]
REMARK SMILES IDX 16 1 17 2 18 3 19 4 20 5 21 6 22 7 23 8 24 9 25 10 26 11
REMARK SMILES IDX 27 12 28 13 29 14 30 15 31 16 32 17 15 18 14 19 13 20 12 21
REMARK SMILES IDX 11 22 10 23 9 24 8 25 7 26 6 27 5 28 4 29 3 30 2 31 1 32
REMARK H PARENT
REMARK Flexibility Score: inf
ROOT
ATOM      1  C   UNL     1       9.537  76.041  -1.825  1.00  0.00     0.000 C 
ENDROOT
BRANCH   1   2
ATOM      2  C   UNL     1       9.473  77.423  -2.514  1.00  0.00     0.000 C 
BRANCH   2   3
ATOM      3  C   UNL     1       9.485  78.627  -1.549  1.00  0.00     0.000 C 
BRANCH   3   4
ATOM      4  C   UNL     1      10.727  79.542  -1.627  1.00  0.00     0.000 C 
BRANCH   4   5
ATOM      5  C   UNL     1      11.900  79.145  -0.714  1.00  0.00     0.000 C 
BRANCH   5   6
ATOM      6  C   UNL     1      11.444  78.724   0.693  1.00  0.00     0.000 C 
BRANCH   6   7
ATOM      7  C   UNL     1      11.270  79.926   1.636  1.00  0.00     0.000 C 
BRANCH   7   8
ATOM      8  C   UNL     1       9.841  80.033   2.198  1.00  0.00     0.000 C 
BRANCH   8   9
ATOM      9  C   UNL     1       9.261  78.669   2.603  1.00  0.00     0.000 C 
BRANCH   9  10
ATOM     10  C   UNL     1       7.953  78.792   3.402  1.00  0.00     0.000 C 
BRANCH  10  11
ATOM     11  C   UNL     1       6.716  78.433   2.552  1.00  0.00     0.000 C 
BRANCH  11  12
ATOM     12  C   UNL     1       7.053  78.092   1.090  1.00  0.00     0.000 C 
BRANCH  12  13
ATOM     13  C   UNL     1       7.228  76.587   0.852  1.00  0.00     0.006 C 
BRANCH  13  14
ATOM     14  C   UNL     1       5.909  75.838   1.080  1.00  0.00     0.053 C 
BRANCH  14  15
ATOM     15  C   UNL     1       5.497  75.080  -0.145  1.00  0.00     0.041 C 
ATOM     16  O   UNL     1       6.353  74.430  -0.801  1.00  0.00    -0.550 OA
ATOM     17  O   UNL     1       4.188  75.146  -0.604  1.00  0.00    -0.550 OA
ENDBRANCH  14  15
ENDBRANCH  13  14
ENDBRANCH  12  13
ENDBRANCH  11  12
ENDBRANCH  10  11
ENDBRANCH   9  10
ENDBRANCH   8   9
ENDBRANCH   7   8
ENDBRANCH   6   7
ENDBRANCH   5   6
ENDBRANCH   4   5
ENDBRANCH   3   4
ENDBRANCH   2   3
ENDBRANCH   1   2
BRANCH   1  18
ATOM     18  C   UNL     1       9.456  74.855  -2.801  1.00  0.00     0.000 C 
BRANCH  18  19
ATOM     19  C   UNL     1       8.260  74.956  -3.759  1.00  0.00     0.000 C 
BRANCH  19  20
ATOM     20  C   UNL     1       8.695  74.886  -5.240  1.00  0.00     0.000 C 
BRANCH  20  21
ATOM     21  C   UNL     1       8.970  73.455  -5.727  1.00  0.00     0.000 C 
BRANCH  21  22
ATOM     22  C   UNL     1      10.469  73.134  -5.805  1.00  0.00     0.000 C 
BRANCH  22  23
ATOM     23  C   UNL     1      10.720  71.643  -5.536  1.00  0.00     0.000 C 
BRANCH  23  24
ATOM     24  C   UNL     1       9.883  71.105  -4.366  1.00  0.00    -0.000 C 
BRANCH  24  25
ATOM     25  C   UNL     1      10.263  71.751  -3.022  1.00  0.00    -0.000 C 
BRANCH  25  26
ATOM     26  C   UNL     1      11.747  71.520  -2.667  1.00  0.00    -0.000 C 
BRANCH  26  27
ATOM     27  C   UNL     1      12.591  72.808  -2.668  1.00  0.00    -0.000 C 
BRANCH  27  28
ATOM     28  C   UNL     1      13.745  72.766  -3.683  1.00  0.00    -0.000 C 
BRANCH  28  29
ATOM     29  C   UNL     1      14.283  74.162  -4.043  1.00  0.00    -0.000 C 
BRANCH  29  30
ATOM     30  C   UNL     1      13.207  75.216  -4.365  1.00  0.00    -0.000 C 
BRANCH  30  31
ATOM     31  C   UNL     1      12.993  76.224  -3.225  1.00  0.00    -0.003 C 
ATOM     32  C   UNL     1      13.227  77.653  -3.705  1.00  0.00     0.004 C 
ENDBRANCH  30  31
ENDBRANCH  29  30
ENDBRANCH  28  29
ENDBRANCH  27  28
ENDBRANCH  26  27
ENDBRANCH  25  26
ENDBRANCH  24  25
ENDBRANCH  23  24
ENDBRANCH  22  23
ENDBRANCH  21  22
ENDBRANCH  20  21
ENDBRANCH  19  20
ENDBRANCH  18  19
ENDBRANCH   1  18
TORSDOF 28
ENDMDL
MODEL 5
REMARK VINA RESULT:    -5.840      2.336      7.883
REMARK INTER + INTRA:         -20.800
REMARK INTER:                 -15.637
REMARK INTRA:                  -5.163
REMARK UNBOUND:                -5.402
REMARK SMILES CCCCCCCCCCCCCCCCCCCCCCCCCCCCCC(=O)[O-]
REMARK SMILES IDX 16 1 17 2 18 3 19 4 20 5 21 6 22 7 23 8 24 9 25 10 26 11
REMARK SMILES IDX 27 12 28 13 29 14 30 15 31 16 32 17 15 18 14 19 13 20 12 21
REMARK SMILES IDX 11 22 10 23 9 24 8 25 7 26 6 27 5 28 4 29 3 30 2 31 1 32
REMARK H PARENT
REMARK Flexibility Score: inf
ROOT
ATOM      1  C   UNL     1       8.906  74.462  -1.606  1.00  0.00     0.000 C 
ENDROOT
BRANCH   1   2
ATOM      2  C   UNL     1       8.523  75.317  -2.835  1.00  0.00     0.000 C 
BRANCH   2   3
ATOM      3  C   UNL     1       8.415  74.535  -4.160  1.00  0.00     0.000 C 
BRANCH   3   4
ATOM      4  C   UNL     1       9.698  74.480  -5.018  1.00  0.00     0.000 C 
BRANCH   4   5
ATOM      5  C   UNL     1       9.646  73.533  -6.229  1.00  0.00     0.000 C 
BRANCH   5   6
ATOM      6  C   UNL     1       9.424  72.065  -5.829  1.00  0.00     0.000 C 
BRANCH   6   7
ATOM      7  C   UNL     1      10.603  71.492  -5.025  1.00  0.00     0.000 C 
BRANCH   7   8
ATOM      8  C   UNL     1      10.191  71.037  -3.614  1.00  0.00     0.000 C 
BRANCH   8   9
ATOM      9  C   UNL     1      11.146  71.551  -2.525  1.00  0.00     0.000 C 
BRANCH   9  10
ATOM     10  C   UNL     1      11.970  72.767  -2.982  1.00  0.00     0.000 C 
BRANCH  10  11
ATOM     11  C   UNL     1      13.488  72.526  -2.842  1.00  0.00     0.000 C 
BRANCH  11  12
ATOM     12  C   UNL     1      14.341  73.446  -3.732  1.00  0.00     0.000 C 
BRANCH  12  13
ATOM     13  C   UNL     1      13.503  74.463  -4.518  1.00  0.00     0.006 C 
BRANCH  13  14
ATOM     14  C   UNL     1      14.126  75.862  -4.441  1.00  0.00     0.053 C 
BRANCH  14  15
ATOM     15  C   UNL     1      13.242  76.809  -3.688  1.00  0.00     0.041 C 
ATOM     16  O   UNL     1      12.078  76.459  -3.360  1.00  0.00    -0.550 OA
ATOM     17  O   UNL     1      13.672  78.100  -3.410  1.00  0.00    -0.550 OA
ENDBRANCH  14  15
ENDBRANCH  13  14
ENDBRANCH  12  13
ENDBRANCH  11  12
ENDBRANCH  10  11
ENDBRANCH   9  10
ENDBRANCH   8   9
ENDBRANCH   7   8
ENDBRANCH   6   7
ENDBRANCH   5   6
ENDBRANCH   4   5
ENDBRANCH   3   4
ENDBRANCH   2   3
ENDBRANCH   1   2
BRANCH   1  18
ATOM     18  C   UNL     1       9.575  75.261  -0.475  1.00  0.00     0.000 C 
BRANCH  18  19
ATOM     19  C   UNL     1      11.089  75.016  -0.392  1.00  0.00     0.000 C 
BRANCH  19  20
ATOM     20  C   UNL     1      11.851  76.260   0.115  1.00  0.00     0.000 C 
BRANCH  20  21
ATOM     21  C   UNL     1      10.987  77.531   0.154  1.00  0.00     0.000 C 
BRANCH  21  22
ATOM     22  C   UNL     1      11.719  78.762  -0.399  1.00  0.00     0.000 C 
BRANCH  22  23
ATOM     23  C   UNL     1      10.911  79.409  -1.534  1.00  0.00     0.000 C 
BRANCH  23  24
ATOM     24  C   UNL     1       9.532  78.760  -1.722  1.00  0.00    -0.000 C 
BRANCH  24  25
ATOM     25  C   UNL     1       8.377  79.753  -1.505  1.00  0.00    -0.000 C 
BRANCH  25  26
ATOM     26  C   UNL     1       8.190  80.107  -0.014  1.00  0.00    -0.000 C 
BRANCH  26  27
ATOM     27  C   UNL     1       6.930  79.488   0.616  1.00  0.00    -0.000 C 
BRANCH  27  28
ATOM     28  C   UNL     1       7.251  78.380   1.631  1.00  0.00    -0.000 C 
BRANCH  28  29
ATOM     29  C   UNL     1       7.211  76.969   1.017  1.00  0.00    -0.000 C 
BRANCH  29  30
ATOM     30  C   UNL     1       5.812  76.330   0.935  1.00  0.00    -0.000 C 
BRANCH  30  31
ATOM     31  C   UNL     1       5.852  74.845   0.543  1.00  0.00    -0.003 C 
ATOM     32  C   UNL     1       5.247  74.627  -0.841  1.00  0.00     0.004 C 
ENDBRANCH  30  31
ENDBRANCH  29  30
ENDBRANCH  28  29
ENDBRANCH  27  28
ENDBRANCH  26  27
ENDBRANCH  25  26
ENDBRANCH  24  25
ENDBRANCH  23  24
ENDBRANCH  22  23
ENDBRANCH  21  22
ENDBRANCH  20  21
ENDBRANCH  19  20
ENDBRANCH  18  19
ENDBRANCH   1  18
TORSDOF 28
ENDMDL
MODEL 6
REMARK VINA RESULT:    -5.833      2.213      8.253
REMARK INTER + INTRA:         -20.784
REMARK INTER:                 -15.315
REMARK INTRA:                  -5.468
REMARK UNBOUND:                -5.402
REMARK SMILES CCCCCCCCCCCCCCCCCCCCCCCCCCCCCC(=O)[O-]
REMARK SMILES IDX 16 1 17 2 18 3 19 4 20 5 21 6 22 7 23 8 24 9 25 10 26 11
REMARK SMILES IDX 27 12 28 13 29 14 30 15 31 16 32 17 15 18 14 19 13 20 12 21
REMARK SMILES IDX 11 22 10 23 9 24 8 25 7 26 6 27 5 28 4 29 3 30 2 31 1 32
REMARK H PARENT
REMARK Flexibility Score: inf
ROOT
ATOM      1  C   UNL     1       8.669  75.394  -2.426  1.00  0.00     0.000 C 
ENDROOT
BRANCH   1   2
ATOM      2  C   UNL     1       9.490  75.313  -1.119  1.00  0.00     0.000 C 
BRANCH   2   3
ATOM      3  C   UNL     1      10.076  73.920  -0.808  1.00  0.00     0.000 C 
BRANCH   3   4
ATOM      4  C   UNL     1       9.943  72.867  -1.930  1.00  0.00     0.000 C 
BRANCH   4   5
ATOM      5  C   UNL     1      11.129  71.896  -2.071  1.00  0.00     0.000 C 
BRANCH   5   6
ATOM      6  C   UNL     1      11.237  71.287  -3.478  1.00  0.00     0.000 C 
BRANCH   6   7
ATOM      7  C   UNL     1       9.865  71.125  -4.153  1.00  0.00     0.000 C 
BRANCH   7   8
ATOM      8  C   UNL     1       9.887  71.526  -5.639  1.00  0.00     0.000 C 
BRANCH   8   9
ATOM      9  C   UNL     1       9.285  72.919  -5.883  1.00  0.00     0.000 C 
BRANCH   9  10
ATOM     10  C   UNL     1      10.259  74.057  -5.533  1.00  0.00     0.000 C 
BRANCH  10  11
ATOM     11  C   UNL     1      11.708  73.731  -5.952  1.00  0.00     0.000 C 
BRANCH  11  12
ATOM     12  C   UNL     1      12.769  74.360  -5.032  1.00  0.00     0.000 C 
BRANCH  12  13
ATOM     13  C   UNL     1      12.161  75.108  -3.839  1.00  0.00     0.006 C 
BRANCH  13  14
ATOM     14  C   UNL     1      13.084  75.037  -2.618  1.00  0.00     0.053 C 
BRANCH  14  15
ATOM     15  C   UNL     1      13.218  76.376  -1.959  1.00  0.00     0.041 C 
ATOM     16  O   UNL     1      13.653  77.359  -2.615  1.00  0.00    -0.550 OA
ATOM     17  O   UNL     1      12.932  76.526  -0.609  1.00  0.00    -0.550 OA
ENDBRANCH  14  15
ENDBRANCH  13  14
ENDBRANCH  12  13
ENDBRANCH  11  12
ENDBRANCH  10  11
ENDBRANCH   9  10
ENDBRANCH   8   9
ENDBRANCH   7   8
ENDBRANCH   6   7
ENDBRANCH   5   6
ENDBRANCH   4   5
ENDBRANCH   3   4
ENDBRANCH   2   3
ENDBRANCH   1   2
BRANCH   1  18
ATOM     18  C   UNL     1       8.805  76.737  -3.164  1.00  0.00     0.000 C 
BRANCH  18  19
ATOM     19  C   UNL     1       9.807  77.685  -2.489  1.00  0.00     0.000 C 
BRANCH  19  20
ATOM     20  C   UNL     1       9.103  78.866  -1.783  1.00  0.00     0.000 C 
BRANCH  20  21
ATOM     21  C   UNL     1       9.997  80.107  -1.634  1.00  0.00     0.000 C 
BRANCH  21  22
ATOM     22  C   UNL     1      11.426  79.758  -1.198  1.00  0.00     0.000 C 
BRANCH  22  23
ATOM     23  C   UNL     1      11.646  80.116   0.279  1.00  0.00     0.000 C 
BRANCH  23  24
ATOM     24  C   UNL     1      11.020  79.090   1.235  1.00  0.00    -0.000 C 
BRANCH  24  25
ATOM     25  C   UNL     1       9.841  79.671   2.036  1.00  0.00    -0.000 C 
BRANCH  25  26
ATOM     26  C   UNL     1       9.115  78.589   2.865  1.00  0.00    -0.000 C 
BRANCH  26  27
ATOM     27  C   UNL     1       7.583  78.737   2.868  1.00  0.00    -0.000 C 
BRANCH  27  28
ATOM     28  C   UNL     1       6.966  78.590   1.468  1.00  0.00    -0.000 C 
BRANCH  28  29
ATOM     29  C   UNL     1       7.126  77.175   0.883  1.00  0.00    -0.000 C 
BRANCH  29  30
ATOM     30  C   UNL     1       5.998  76.189   1.237  1.00  0.00    -0.000 C 
BRANCH  30  31
ATOM     31  C   UNL     1       6.128  74.842   0.510  1.00  0.00    -0.003 C 
ATOM     32  C   UNL     1       5.284  74.819  -0.760  1.00  0.00     0.004 C 
ENDBRANCH  30  31
ENDBRANCH  29  30
ENDBRANCH  28  29
ENDBRANCH  27  28
ENDBRANCH  26  27
ENDBRANCH  25  26
ENDBRANCH  24  25
ENDBRANCH  23  24
ENDBRANCH  22  23
ENDBRANCH  21  22
ENDBRANCH  20  21
ENDBRANCH  19  20
ENDBRANCH  18  19
ENDBRANCH   1  18
TORSDOF 28
ENDMDL
MODEL 7
REMARK VINA RESULT:    -5.830      2.544      7.801
REMARK INTER + INTRA:         -20.774
REMARK INTER:                 -15.714
REMARK INTRA:                  -5.060
REMARK UNBOUND:                -5.402
REMARK SMILES CCCCCCCCCCCCCCCCCCCCCCCCCCCCCC(=O)[O-]
REMARK SMILES IDX 16 1 17 2 18 3 19 4 20 5 21 6 22 7 23 8 24 9 25 10 26 11
REMARK SMILES IDX 27 12 28 13 29 14 30 15 31 16 32 17 15 18 14 19 13 20 12 21
REMARK SMILES IDX 11 22 10 23 9 24 8 25 7 26 6 27 5 28 4 29 3 30 2 31 1 32
REMARK H PARENT
REMARK Flexibility Score: inf
ROOT
ATOM      1  C   UNL     1       9.120  78.883  -1.766  1.00  0.00     0.000 C 
ENDROOT
BRANCH   1   2
ATOM      2  C   UNL     1       9.766  77.737  -2.576  1.00  0.00     0.000 C 
BRANCH   2   3
ATOM      3  C   UNL     1       8.775  76.674  -3.097  1.00  0.00     0.000 C 
BRANCH   3   4
ATOM      4  C   UNL     1       9.406  75.374  -3.643  1.00  0.00     0.000 C 
BRANCH   4   5
ATOM      5  C   UNL     1       8.509  74.546  -4.580  1.00  0.00     0.000 C 
BRANCH   5   6
ATOM      6  C   UNL     1       9.258  74.029  -5.819  1.00  0.00     0.000 C 
BRANCH   6   7
ATOM      7  C   UNL     1       9.252  72.494  -5.908  1.00  0.00     0.000 C 
BRANCH   7   8
ATOM      8  C   UNL     1      10.432  71.853  -5.156  1.00  0.00     0.000 C 
BRANCH   8   9
ATOM      9  C   UNL     1       9.975  70.855  -4.080  1.00  0.00     0.000 C 
BRANCH   9  10
ATOM     10  C   UNL     1      10.267  71.346  -2.652  1.00  0.00     0.000 C 
BRANCH  10  11
ATOM     11  C   UNL     1      11.312  72.481  -2.629  1.00  0.00     0.000 C 
BRANCH  11  12
ATOM     12  C   UNL     1      12.763  71.979  -2.525  1.00  0.00     0.000 C 
BRANCH  12  13
ATOM     13  C   UNL     1      13.788  73.119  -2.461  1.00  0.00     0.006 C 
BRANCH  13  14
ATOM     14  C   UNL     1      14.410  73.375  -3.839  1.00  0.00     0.053 C 
BRANCH  14  15
ATOM     15  C   UNL     1      13.834  74.603  -4.475  1.00  0.00     0.041 C 
ATOM     16  O   UNL     1      14.458  75.695  -4.415  1.00  0.00    -0.550 OA
ATOM     17  O   UNL     1      12.579  74.563  -5.069  1.00  0.00    -0.550 OA
ENDBRANCH  14  15
ENDBRANCH  13  14
ENDBRANCH  12  13
ENDBRANCH  11  12
ENDBRANCH  10  11
ENDBRANCH   9  10
ENDBRANCH   8   9
ENDBRANCH   7   8
ENDBRANCH   6   7
ENDBRANCH   5   6
ENDBRANCH   4   5
ENDBRANCH   3   4
ENDBRANCH   2   3
ENDBRANCH   1   2
BRANCH   1  18
ATOM     18  C   UNL     1      10.131  79.902  -1.214  1.00  0.00     0.000 C 
BRANCH  18  19
ATOM     19  C   UNL     1      11.545  79.699  -1.778  1.00  0.00     0.000 C 
BRANCH  19  20
ATOM     20  C   UNL     1      12.585  79.452  -0.663  1.00  0.00     0.000 C 
BRANCH  20  21
ATOM     21  C   UNL     1      12.445  78.076   0.007  1.00  0.00     0.000 C 
BRANCH  21  22
ATOM     22  C   UNL     1      13.150  76.961  -0.777  1.00  0.00     0.000 C 
BRANCH  22  23
ATOM     23  C   UNL     1      12.273  75.702  -0.836  1.00  0.00     0.000 C 
BRANCH  23  24
ATOM     24  C   UNL     1      11.413  75.521   0.423  1.00  0.00    -0.000 C 
BRANCH  24  25
ATOM     25  C   UNL     1       9.938  75.227   0.095  1.00  0.00    -0.000 C 
BRANCH  25  26
ATOM     26  C   UNL     1       8.996  76.322   0.638  1.00  0.00    -0.000 C 
BRANCH  26  27
ATOM     27  C   UNL     1       7.502  76.008   0.435  1.00  0.00    -0.000 C 
BRANCH  27  28
ATOM     28  C   UNL     1       6.579  76.997   1.165  1.00  0.00    -0.000 C 
BRANCH  28  29
ATOM     29  C   UNL     1       7.234  78.369   1.406  1.00  0.00    -0.000 C 
BRANCH  29  30
ATOM     30  C   UNL     1       7.463  78.734   2.885  1.00  0.00    -0.000 C 
BRANCH  30  31
ATOM     31  C   UNL     1       8.918  78.528   3.335  1.00  0.00    -0.003 C 
ATOM     32  C   UNL     1       9.835  79.586   2.730  1.00  0.00     0.004 C 
ENDBRANCH  30  31
ENDBRANCH  29  30
ENDBRANCH  28  29
ENDBRANCH  27  28
ENDBRANCH  26  27
ENDBRANCH  25  26
ENDBRANCH  24  25
ENDBRANCH  23  24
ENDBRANCH  22  23
ENDBRANCH  21  22
ENDBRANCH  20  21
ENDBRANCH  19  20
ENDBRANCH  18  19
ENDBRANCH   1  18
TORSDOF 28
ENDMDL
MODEL 8
REMARK VINA RESULT:    -5.823      1.526      3.853
REMARK INTER + INTRA:         -20.756
REMARK INTER:                 -15.257
REMARK INTRA:                  -5.500
REMARK UNBOUND:                -5.402
REMARK SMILES CCCCCCCCCCCCCCCCCCCCCCCCCCCCCC(=O)[O-]
REMARK SMILES IDX 16 1 17 2 18 3 19 4 20 5 21 6 22 7 23 8 24 9 25 10 26 11
REMARK SMILES IDX 27 12 28 13 29 14 30 15 31 16 32 17 15 18 14 19 13 20 12 21
REMARK SMILES IDX 11 22 10 23 9 24 8 25 7 26 6 27 5 28 4 29 3 30 2 31 1 32
REMARK H PARENT
REMARK Flexibility Score: inf
ROOT
ATOM      1  C   UNL     1      12.487  72.946  -2.524  1.00  0.00     0.000 C 
ENDROOT
BRANCH   1   2
ATOM      2  C   UNL     1      13.657  73.117  -3.520  1.00  0.00     0.000 C 
BRANCH   2   3
ATOM      3  C   UNL     1      13.416  74.163  -4.628  1.00  0.00     0.000 C 
BRANCH   3   4
ATOM      4  C   UNL     1      13.883  75.601  -4.311  1.00  0.00     0.000 C 
BRANCH   4   5
ATOM      5  C   UNL     1      12.811  76.529  -3.712  1.00  0.00     0.000 C 
BRANCH   5   6
ATOM      6  C   UNL     1      13.351  77.930  -3.386  1.00  0.00     0.000 C 
BRANCH   6   7
ATOM      7  C   UNL     1      12.366  78.755  -2.541  1.00  0.00     0.000 C 
BRANCH   7   8
ATOM      8  C   UNL     1      13.004  79.294  -1.248  1.00  0.00     0.000 C 
BRANCH   8   9
ATOM      9  C   UNL     1      11.969  79.900  -0.287  1.00  0.00     0.000 C 
BRANCH   9  10
ATOM     10  C   UNL     1      10.549  79.921  -0.879  1.00  0.00     0.000 C 
BRANCH  10  11
ATOM     11  C   UNL     1       9.465  80.034   0.214  1.00  0.00     0.000 C 
BRANCH  11  12
ATOM     12  C   UNL     1       9.913  79.491   1.582  1.00  0.00     0.000 C 
BRANCH  12  13
ATOM     13  C   UNL     1       9.018  78.357   2.098  1.00  0.00     0.006 C 
BRANCH  13  14
ATOM     14  C   UNL     1       7.650  78.894   2.536  1.00  0.00     0.053 C 
BRANCH  14  15
ATOM     15  C   UNL     1       6.565  78.434   1.611  1.00  0.00     0.041 C 
ATOM     16  O   UNL     1       6.363  77.202   1.440  1.00  0.00    -0.550 OA
ATOM     17  O   UNL     1       5.825  79.356   0.883  1.00  0.00    -0.550 OA
ENDBRANCH  14  15
ENDBRANCH  13  14
ENDBRANCH  12  13
ENDBRANCH  11  12
ENDBRANCH  10  11
ENDBRANCH   9  10
ENDBRANCH   8   9
ENDBRANCH   7   8
ENDBRANCH   6   7
ENDBRANCH   5   6
ENDBRANCH   4   5
ENDBRANCH   3   4
ENDBRANCH   2   3
ENDBRANCH   1   2
BRANCH   1  18
ATOM     18  C   UNL     1      11.926  71.516  -2.463  1.00  0.00     0.000 C 
BRANCH  18  19
ATOM     19  C   UNL     1      10.391  71.479  -2.507  1.00  0.00     0.000 C 
BRANCH  19  20
ATOM     20  C   UNL     1       9.863  70.842  -3.812  1.00  0.00     0.000 C 
BRANCH  20  21
ATOM     21  C   UNL     1      10.477  71.452  -5.081  1.00  0.00     0.000 C 
BRANCH  21  22
ATOM     22  C   UNL     1       9.479  72.315  -5.866  1.00  0.00     0.000 C 
BRANCH  22  23
ATOM     23  C   UNL     1       9.955  73.774  -5.929  1.00  0.00     0.000 C 
BRANCH  23  24
ATOM     24  C   UNL     1       9.709  74.533  -4.617  1.00  0.00    -0.000 C 
BRANCH  24  25
ATOM     25  C   UNL     1       8.359  75.271  -4.606  1.00  0.00    -0.000 C 
BRANCH  25  26
ATOM     26  C   UNL     1       7.545  74.970  -3.329  1.00  0.00    -0.000 C 
BRANCH  26  27
ATOM     27  C   UNL     1       8.406  74.497  -2.145  1.00  0.00    -0.000 C 
BRANCH  27  28
ATOM     28  C   UNL     1       8.109  75.264  -0.846  1.00  0.00    -0.000 C 
BRANCH  28  29
ATOM     29  C   UNL     1       9.192  76.301  -0.496  1.00  0.00    -0.000 C 
BRANCH  29  30
ATOM     30  C   UNL     1      10.623  75.922  -0.923  1.00  0.00    -0.000 C 
BRANCH  30  31
ATOM     31  C   UNL     1      11.661  76.154   0.186  1.00  0.00    -0.003 C 
ATOM     32  C   UNL     1      13.028  75.612  -0.221  1.00  0.00     0.004 C 
ENDBRANCH  30  31
ENDBRANCH  29  30
ENDBRANCH  28  29
ENDBRANCH  27  28
ENDBRANCH  26  27
ENDBRANCH  25  26
ENDBRANCH  24  25
ENDBRANCH  23  24
ENDBRANCH  22  23
ENDBRANCH  21  22
ENDBRANCH  20  21
ENDBRANCH  19  20
ENDBRANCH  18  19
ENDBRANCH   1  18
TORSDOF 28
ENDMDL
MODEL 9
REMARK VINA RESULT:    -5.730      2.000      3.394
REMARK INTER + INTRA:         -20.510
REMARK INTER:                 -15.272
REMARK INTRA:                  -5.238
REMARK UNBOUND:                -5.402
REMARK SMILES CCCCCCCCCCCCCCCCCCCCCCCCCCCCCC(=O)[O-]
REMARK SMILES IDX 16 1 17 2 18 3 19 4 20 5 21 6 22 7 23 8 24 9 25 10 26 11
REMARK SMILES IDX 27 12 28 13 29 14 30 15 31 16 32 17 15 18 14 19 13 20 12 21
REMARK SMILES IDX 11 22 10 23 9 24 8 25 7 26 6 27 5 28 4 29 3 30 2 31 1 32
REMARK H PARENT
REMARK Flexibility Score: inf
ROOT
ATOM      1  C   UNL     1       8.365  75.971  -3.747  1.00  0.00     0.000 C 
ENDROOT
BRANCH   1   2
ATOM      2  C   UNL     1       9.721  76.404  -3.144  1.00  0.00     0.000 C 
BRANCH   2   3
ATOM      3  C   UNL     1       9.711  77.784  -2.454  1.00  0.00     0.000 C 
BRANCH   3   4
ATOM      4  C   UNL     1      11.076  78.501  -2.359  1.00  0.00     0.000 C 
BRANCH   4   5
ATOM      5  C   UNL     1      11.258  79.421  -1.139  1.00  0.00     0.000 C 
BRANCH   5   6
ATOM      6  C   UNL     1      11.630  78.650   0.138  1.00  0.00     0.000 C 
BRANCH   6   7
ATOM      7  C   UNL     1      12.626  77.511  -0.134  1.00  0.00     0.000 C 
BRANCH   7   8
ATOM      8  C   UNL     1      11.973  76.120  -0.042  1.00  0.00     0.000 C 
BRANCH   8   9
ATOM      9  C   UNL     1      10.703  76.121   0.823  1.00  0.00     0.000 C 
BRANCH   9  10
ATOM     10  C   UNL     1       9.604  75.199   0.267  1.00  0.00     0.000 C 
BRANCH  10  11
ATOM     11  C   UNL     1       8.219  75.880   0.264  1.00  0.00     0.000 C 
BRANCH  11  12
ATOM     12  C   UNL     1       8.237  77.311   0.829  1.00  0.00     0.000 C 
BRANCH  12  13
ATOM     13  C   UNL     1       6.985  77.647   1.649  1.00  0.00     0.006 C 
BRANCH  13  14
ATOM     14  C   UNL     1       7.172  78.954   2.427  1.00  0.00     0.053 C 
BRANCH  14  15
ATOM     15  C   UNL     1       8.238  78.816   3.471  1.00  0.00     0.041 C 
ATOM     16  O   UNL     1       7.927  78.505   4.651  1.00  0.00    -0.550 OA
ATOM     17  O   UNL     1       9.562  79.099   3.165  1.00  0.00    -0.550 OA
ENDBRANCH  14  15
ENDBRANCH  13  14
ENDBRANCH  12  13
ENDBRANCH  11  12
ENDBRANCH  10  11
ENDBRANCH   9  10
ENDBRANCH   8   9
ENDBRANCH   7   8
ENDBRANCH   6   7
ENDBRANCH   5   6
ENDBRANCH   4   5
ENDBRANCH   3   4
ENDBRANCH   2   3
ENDBRANCH   1   2
BRANCH   1  18
ATOM     18  C   UNL     1       8.368  74.546  -4.326  1.00  0.00     0.000 C 
BRANCH  18  19
ATOM     19  C   UNL     1       9.626  74.245  -5.153  1.00  0.00     0.000 C 
BRANCH  19  20
ATOM     20  C   UNL     1       9.502  72.919  -5.936  1.00  0.00     0.000 C 
BRANCH  20  21
ATOM     21  C   UNL     1      10.436  71.815  -5.416  1.00  0.00     0.000 C 
BRANCH  21  22
ATOM     22  C   UNL     1       9.835  71.037  -4.237  1.00  0.00     0.000 C 
BRANCH  22  23
ATOM     23  C   UNL     1      10.772  71.083  -3.021  1.00  0.00     0.000 C 
BRANCH  23  24
ATOM     24  C   UNL     1      10.589  72.356  -2.183  1.00  0.00    -0.000 C 
BRANCH  24  25
ATOM     25  C   UNL     1      11.787  73.316  -2.295  1.00  0.00    -0.000 C 
BRANCH  25  26
ATOM     26  C   UNL     1      13.038  72.615  -2.867  1.00  0.00    -0.000 C 
BRANCH  26  27
ATOM     27  C   UNL     1      13.498  73.181  -4.222  1.00  0.00    -0.000 C 
BRANCH  27  28
ATOM     28  C   UNL     1      14.343  74.458  -4.081  1.00  0.00    -0.000 C 
BRANCH  28  29
ATOM     29  C   UNL     1      13.547  75.743  -4.374  1.00  0.00    -0.000 C 
BRANCH  29  30
ATOM     30  C   UNL     1      13.970  76.976  -3.554  1.00  0.00    -0.000 C 
BRANCH  30  31
ATOM     31  C   UNL     1      14.110  78.246  -4.407  1.00  0.00    -0.003 C 
ATOM     32  C   UNL     1      14.429  79.458  -3.538  1.00  0.00     0.004 C 
ENDBRANCH  30  31
ENDBRANCH  29  30
ENDBRANCH  28  29
ENDBRANCH  27  28
ENDBRANCH  26  27
ENDBRANCH  25  26
ENDBRANCH  24  25
ENDBRANCH  23  24
ENDBRANCH  22  23
ENDBRANCH  21  22
ENDBRANCH  20  21
ENDBRANCH  19  20
ENDBRANCH  18  19
ENDBRANCH   1  18
TORSDOF 28
ENDMDL
