MODEL 1
REMARK VINA RESULT:    -5.048      0.000      0.000
REMARK INTER + INTRA:          -6.064
REMARK INTER:                  -5.934
REMARK INTRA:                  -0.130
REMARK UNBOUND:                -0.130
REMARK SMILES O=C([O-])C=Cc1ccc(O)c(O)c1
REMARK SMILES IDX 6 1 13 2 7 3 11 4 8 5 9 6 5 7 4 8 2 9 1 10 3 11 12 12 10 14
REMARK H PARENT 12 13 10 15
REMARK Flexibility Score: inf
ROOT
ATOM      1  C   UNL     1      54.172  14.472  89.101  1.00  0.00    -0.022 A 
ATOM      2  C   UNL     1      53.025  14.418  89.912  1.00  0.00     0.058 A 
ATOM      3  C   UNL     1      55.429  14.213  89.683  1.00  0.00     0.012 A 
ATOM      4  C   UNL     1      53.124  14.085  91.270  1.00  0.00     0.157 A 
ATOM      5  C   UNL     1      55.527  13.882  91.038  1.00  0.00     0.051 A 
ATOM      6  C   UNL     1      54.376  13.815  91.833  1.00  0.00     0.157 A 
ENDROOT
BRANCH   1   7
ATOM      7  C   UNL     1      54.014  14.839  87.671  1.00  0.00     0.010 C 
ATOM      8  C   UNL     1      52.915  14.572  86.952  1.00  0.00     0.025 C 
BRANCH   8   9
ATOM      9  C   UNL     1      52.797  14.965  85.538  1.00  0.00     0.064 C 
ATOM     10  O   UNL     1      52.400  16.123  85.247  1.00  0.00    -0.545 OA
ATOM     11  O   UNL     1      53.114  14.076  84.518  1.00  0.00    -0.545 OA
ENDBRANCH   8   9
ENDBRANCH   1   7
BRANCH   4  12
ATOM     12  O   UNL     1      51.982  14.022  92.067  1.00  0.00    -0.504 OA
ATOM     13  H   UNL     1      51.745  14.765  92.714  1.00  0.00     0.293 HD
ENDBRANCH   4  12
BRANCH   6  14
ATOM     14  O   UNL     1      54.471  13.483  93.184  1.00  0.00    -0.504 OA
ATOM     15  H   UNL     1      55.343  13.572  93.691  1.00  0.00     0.293 HD
ENDBRANCH   6  14
TORSDOF 4
ENDMDL
MODEL 2
REMARK VINA RESULT:    -4.938      1.561      2.408
REMARK INTER + INTRA:          -5.934
REMARK INTER:                  -5.801
REMARK INTRA:                  -0.133
REMARK UNBOUND:                -0.130
REMARK SMILES O=C([O-])C=Cc1ccc(O)c(O)c1
REMARK SMILES IDX 6 1 13 2 7 3 11 4 8 5 9 6 5 7 4 8 2 9 1 10 3 11 12 12 10 14
REMARK H PARENT 12 13 10 15
REMARK Flexibility Score: inf
ROOT
ATOM      1  C   UNL     1      53.288  15.010  87.989  1.00  0.00    -0.022 A 
ATOM      2  C   UNL     1      54.641  14.748  88.265  1.00  0.00     0.058 A 
ATOM      3  C   UNL     1      52.326  14.747  88.985  1.00  0.00     0.012 A 
ATOM      4  C   UNL     1      55.033  14.257  89.518  1.00  0.00     0.157 A 
ATOM      5  C   UNL     1      52.719  14.257  90.235  1.00  0.00     0.051 A 
ATOM      6  C   UNL     1      54.071  14.013  90.505  1.00  0.00     0.157 A 
ENDROOT
BRANCH   1   7
ATOM      7  C   UNL     1      52.924  15.520  86.643  1.00  0.00     0.010 C 
ATOM      8  C   UNL     1      53.500  15.102  85.508  1.00  0.00     0.025 C 
BRANCH   8   9
ATOM      9  C   UNL     1      53.099  15.626  84.193  1.00  0.00     0.064 C 
ATOM     10  O   UNL     1      52.103  16.390  84.106  1.00  0.00    -0.545 OA
ATOM     11  O   UNL     1      53.802  15.289  83.041  1.00  0.00    -0.545 OA
ENDBRANCH   8   9
ENDBRANCH   1   7
BRANCH   4  12
ATOM     12  O   UNL     1      56.378  14.008  89.789  1.00  0.00    -0.504 OA
ATOM     13  H   UNL     1      57.005  13.650  89.078  1.00  0.00     0.293 HD
ENDBRANCH   4  12
BRANCH   6  14
ATOM     14  O   UNL     1      54.465  13.526  91.750  1.00  0.00    -0.504 OA
ATOM     15  H   UNL     1      54.560  14.137  92.553  1.00  0.00     0.293 HD
ENDBRANCH   6  14
TORSDOF 4
ENDMDL
MODEL 3
REMARK VINA RESULT:    -4.912      3.218      4.891
REMARK INTER + INTRA:          -5.904
REMARK INTER:                  -5.771
REMARK INTRA:                  -0.133
REMARK UNBOUND:                -0.130
REMARK SMILES O=C([O-])C=Cc1ccc(O)c(O)c1
REMARK SMILES IDX 6 1 13 2 7 3 11 4 8 5 9 6 5 7 4 8 2 9 1 10 3 11 12 12 10 14
REMARK H PARENT 12 13 10 15
REMARK Flexibility Score: inf
ROOT
ATOM      1  C   UNL     1      53.099  15.307  87.633  1.00  0.00    -0.022 A 
ATOM      2  C   UNL     1      53.590  14.225  88.384  1.00  0.00     0.058 A 
ATOM      3  C   UNL     1      52.674  15.078  86.308  1.00  0.00     0.012 A 
ATOM      4  C   UNL     1      53.634  12.935  87.837  1.00  0.00     0.157 A 
ATOM      5  C   UNL     1      52.719  13.791  85.764  1.00  0.00     0.051 A 
ATOM      6  C   UNL     1      53.195  12.717  86.526  1.00  0.00     0.157 A 
ENDROOT
BRANCH   1   7
ATOM      7  C   UNL     1      53.083  16.654  88.255  1.00  0.00     0.010 C 
ATOM      8  C   UNL     1      51.975  17.393  88.402  1.00  0.00     0.025 C 
BRANCH   8   9
ATOM      9  C   UNL     1      52.004  18.721  89.037  1.00  0.00     0.064 C 
ATOM     10  O   UNL     1      53.065  19.396  89.016  1.00  0.00    -0.545 OA
ATOM     11  O   UNL     1      50.876  19.241  89.662  1.00  0.00    -0.545 OA
ENDBRANCH   8   9
ENDBRANCH   1   7
BRANCH   4  12
ATOM     12  O   UNL     1      54.113  11.865  88.591  1.00  0.00    -0.504 OA
ATOM     13  H   UNL     1      54.561  11.067  88.155  1.00  0.00     0.293 HD
ENDBRANCH   4  12
BRANCH   6  14
ATOM     14  O   UNL     1      53.240  11.433  85.986  1.00  0.00    -0.504 OA
ATOM     15  H   UNL     1      52.622  11.154  85.232  1.00  0.00     0.293 HD
ENDBRANCH   6  14
TORSDOF 4
ENDMDL
MODEL 4
REMARK VINA RESULT:    -4.865      1.938      2.326
REMARK INTER + INTRA:          -5.848
REMARK INTER:                  -5.714
REMARK INTRA:                  -0.134
REMARK UNBOUND:                -0.130
REMARK SMILES O=C([O-])C=Cc1ccc(O)c(O)c1
REMARK SMILES IDX 6 1 13 2 7 3 11 4 8 5 9 6 5 7 4 8 2 9 1 10 3 11 12 12 10 14
REMARK H PARENT 12 13 10 15
REMARK Flexibility Score: inf
ROOT
ATOM      1  C   UNL     1      53.865  14.401  87.545  1.00  0.00    -0.022 A 
ATOM      2  C   UNL     1      53.485  13.055  87.691  1.00  0.00     0.058 A 
ATOM      3  C   UNL     1      54.629  15.006  88.564  1.00  0.00     0.012 A 
ATOM      4  C   UNL     1      53.879  12.318  88.816  1.00  0.00     0.157 A 
ATOM      5  C   UNL     1      55.021  14.269  89.686  1.00  0.00     0.051 A 
ATOM      6  C   UNL     1      54.650  12.925  89.814  1.00  0.00     0.157 A 
ENDROOT
BRANCH   1   7
ATOM      7  C   UNL     1      53.414  15.140  86.340  1.00  0.00     0.010 C 
ATOM      8  C   UNL     1      53.093  14.548  85.181  1.00  0.00     0.025 C 
BRANCH   8   9
ATOM      9  C   UNL     1      52.638  15.320  84.013  1.00  0.00     0.064 C 
ATOM     10  O   UNL     1      52.205  16.491  84.173  1.00  0.00    -0.545 OA
ATOM     11  O   UNL     1      52.677  14.776  82.735  1.00  0.00    -0.545 OA
ENDBRANCH   8   9
ENDBRANCH   1   7
BRANCH   4  12
ATOM     12  O   UNL     1      53.507  10.981  88.950  1.00  0.00    -0.504 OA
ATOM     13  H   UNL     1      52.675  10.615  88.502  1.00  0.00     0.293 HD
ENDBRANCH   4  12
BRANCH   6  14
ATOM     14  O   UNL     1      55.040  12.189  90.931  1.00  0.00    -0.504 OA
ATOM     15  H   UNL     1      55.133  12.619  91.844  1.00  0.00     0.293 HD
ENDBRANCH   6  14
TORSDOF 4
ENDMDL
MODEL 5
REMARK VINA RESULT:    -4.856      2.930      3.792
REMARK INTER + INTRA:          -5.838
REMARK INTER:                  -5.707
REMARK INTRA:                  -0.131
REMARK UNBOUND:                -0.130
REMARK SMILES O=C([O-])C=Cc1ccc(O)c(O)c1
REMARK SMILES IDX 6 1 13 2 7 3 11 4 8 5 9 6 5 7 4 8 2 9 1 10 3 11 12 12 10 14
REMARK H PARENT 12 13 10 15
REMARK Flexibility Score: inf
ROOT
ATOM      1  C   UNL     1      52.525  14.746  86.334  1.00  0.00    -0.022 A 
ATOM      2  C   UNL     1      52.486  16.100  86.708  1.00  0.00     0.058 A 
ATOM      3  C   UNL     1      52.360  13.760  87.328  1.00  0.00     0.012 A 
ATOM      4  C   UNL     1      52.260  16.467  88.043  1.00  0.00     0.157 A 
ATOM      5  C   UNL     1      52.135  14.128  88.658  1.00  0.00     0.051 A 
ATOM      6  C   UNL     1      52.082  15.480  89.018  1.00  0.00     0.157 A 
ENDROOT
BRANCH   1   7
ATOM      7  C   UNL     1      52.777  14.411  84.910  1.00  0.00     0.010 C 
ATOM      8  C   UNL     1      53.524  15.161  84.089  1.00  0.00     0.025 C 
BRANCH   8   9
ATOM      9  C   UNL     1      53.757  14.783  82.686  1.00  0.00     0.064 C 
ATOM     10  O   UNL     1      52.795  14.783  81.875  1.00  0.00    -0.545 OA
ATOM     11  O   UNL     1      55.024  14.423  82.241  1.00  0.00    -0.545 OA
ENDBRANCH   8   9
ENDBRANCH   1   7
BRANCH   4  12
ATOM     12  O   UNL     1      52.212  17.812  88.406  1.00  0.00    -0.504 OA
ATOM     13  H   UNL     1      51.546  18.452  87.986  1.00  0.00     0.293 HD
ENDBRANCH   4  12
BRANCH   6  14
ATOM     14  O   UNL     1      51.858  15.849  90.343  1.00  0.00    -0.504 OA
ATOM     15  H   UNL     1      52.383  15.436  91.105  1.00  0.00     0.293 HD
ENDBRANCH   6  14
TORSDOF 4
ENDMDL
MODEL 6
REMARK VINA RESULT:    -4.814      2.560      3.456
REMARK INTER + INTRA:          -5.788
REMARK INTER:                  -5.654
REMARK INTRA:                  -0.134
REMARK UNBOUND:                -0.130
REMARK SMILES O=C([O-])C=Cc1ccc(O)c(O)c1
REMARK SMILES IDX 6 1 13 2 7 3 11 4 8 5 9 6 5 7 4 8 2 9 1 10 3 11 12 12 10 14
REMARK H PARENT 12 13 10 15
REMARK Flexibility Score: inf
ROOT
ATOM      1  C   UNL     1      52.808  14.543  86.305  1.00  0.00    -0.022 A 
ATOM      2  C   UNL     1      53.016  13.463  87.181  1.00  0.00     0.058 A 
ATOM      3  C   UNL     1      52.461  15.798  86.843  1.00  0.00     0.012 A 
ATOM      4  C   UNL     1      52.905  13.636  88.568  1.00  0.00     0.157 A 
ATOM      5  C   UNL     1      52.351  15.969  88.227  1.00  0.00     0.051 A 
ATOM      6  C   UNL     1      52.574  14.890  89.091  1.00  0.00     0.157 A 
ENDROOT
BRANCH   1   7
ATOM      7  C   UNL     1      52.928  14.305  84.845  1.00  0.00     0.010 C 
ATOM      8  C   UNL     1      53.697  15.041  84.032  1.00  0.00     0.025 C 
BRANCH   8   9
ATOM      9  C   UNL     1      53.795  14.763  82.590  1.00  0.00     0.064 C 
ATOM     10  O   UNL     1      52.761  14.819  81.875  1.00  0.00    -0.545 OA
ATOM     11  O   UNL     1      55.012  14.434  82.004  1.00  0.00    -0.545 OA
ENDBRANCH   8   9
ENDBRANCH   1   7
BRANCH   4  12
ATOM     12  O   UNL     1      53.122  12.563  89.432  1.00  0.00    -0.504 OA
ATOM     13  H   UNL     1      53.292  11.627  89.082  1.00  0.00     0.293 HD
ENDBRANCH   4  12
BRANCH   6  14
ATOM     14  O   UNL     1      52.466  15.058  90.471  1.00  0.00    -0.504 OA
ATOM     15  H   UNL     1      52.576  15.967  90.905  1.00  0.00     0.293 HD
ENDBRANCH   6  14
TORSDOF 4
ENDMDL
MODEL 7
REMARK VINA RESULT:    -4.730      2.497      3.117
REMARK INTER + INTRA:          -5.690
REMARK INTER:                  -5.558
REMARK INTRA:                  -0.132
REMARK UNBOUND:                -0.130
REMARK SMILES O=C([O-])C=Cc1ccc(O)c(O)c1
REMARK SMILES IDX 6 1 13 2 7 3 11 4 8 5 9 6 5 7 4 8 2 9 1 10 3 11 12 12 10 14
REMARK H PARENT 12 13 10 15
REMARK Flexibility Score: inf
ROOT
ATOM      1  C   UNL     1      53.125  12.692  86.739  1.00  0.00    -0.022 A 
ATOM      2  C   UNL     1      53.528  13.438  87.860  1.00  0.00     0.058 A 
ATOM      3  C   UNL     1      53.186  11.285  86.800  1.00  0.00     0.012 A 
ATOM      4  C   UNL     1      53.959  12.796  89.029  1.00  0.00     0.157 A 
ATOM      5  C   UNL     1      53.617  10.646  87.967  1.00  0.00     0.051 A 
ATOM      6  C   UNL     1      54.001  11.399  89.084  1.00  0.00     0.157 A 
ENDROOT
BRANCH   1   7
ATOM      7  C   UNL     1      52.686  13.419  85.522  1.00  0.00     0.010 C 
ATOM      8  C   UNL     1      53.045  14.679  85.238  1.00  0.00     0.025 C 
BRANCH   8   9
ATOM      9  C   UNL     1      52.595  15.358  84.012  1.00  0.00     0.064 C 
ATOM     10  O   UNL     1      52.204  16.552  84.072  1.00  0.00    -0.545 OA
ATOM     11  O   UNL     1      52.594  14.700  82.787  1.00  0.00    -0.545 OA
ENDBRANCH   8   9
ENDBRANCH   1   7
BRANCH   4  12
ATOM     12  O   UNL     1      54.347  13.542  90.141  1.00  0.00    -0.504 OA
ATOM     13  H   UNL     1      55.314  13.807  90.290  1.00  0.00     0.293 HD
ENDBRANCH   4  12
BRANCH   6  14
ATOM     14  O   UNL     1      54.430  10.765  90.249  1.00  0.00    -0.504 OA
ATOM     15  H   UNL     1      55.411  10.582  90.422  1.00  0.00     0.293 HD
ENDBRANCH   6  14
TORSDOF 4
ENDMDL
MODEL 8
REMARK VINA RESULT:    -4.633      3.513      3.733
REMARK INTER + INTRA:          -5.576
REMARK INTER:                  -5.440
REMARK INTRA:                  -0.136
REMARK UNBOUND:                -0.130
REMARK SMILES O=C([O-])C=Cc1ccc(O)c(O)c1
REMARK SMILES IDX 6 1 13 2 7 3 11 4 8 5 9 6 5 7 4 8 2 9 1 10 3 11 12 12 10 14
REMARK H PARENT 12 13 10 15
REMARK Flexibility Score: inf
ROOT
ATOM      1  C   UNL     1      53.870  11.940  88.698  1.00  0.00    -0.022 A 
ATOM      2  C   UNL     1      53.832  10.601  88.272  1.00  0.00     0.058 A 
ATOM      3  C   UNL     1      54.362  12.230  89.986  1.00  0.00     0.012 A 
ATOM      4  C   UNL     1      54.300   9.573  89.102  1.00  0.00     0.157 A 
ATOM      5  C   UNL     1      54.828  11.204  90.813  1.00  0.00     0.051 A 
ATOM      6  C   UNL     1      54.800   9.875  90.373  1.00  0.00     0.157 A 
ENDROOT
BRANCH   1   7
ATOM      7  C   UNL     1      53.353  12.990  87.785  1.00  0.00     0.010 C 
ATOM      8  C   UNL     1      53.736  14.273  87.834  1.00  0.00     0.025 C 
BRANCH   8   9
ATOM      9  C   UNL     1      53.207  15.280  86.900  1.00  0.00     0.064 C 
ATOM     10  O   UNL     1      53.530  15.231  85.685  1.00  0.00    -0.545 OA
ATOM     11  O   UNL     1      52.356  16.288  87.339  1.00  0.00    -0.545 OA
ENDBRANCH   8   9
ENDBRANCH   1   7
BRANCH   4  12
ATOM     12  O   UNL     1      54.269   8.248  88.670  1.00  0.00    -0.504 OA
ATOM     13  H   UNL     1      55.003   7.593  88.915  1.00  0.00     0.293 HD
ENDBRANCH   4  12
BRANCH   6  14
ATOM     14  O   UNL     1      55.265   8.849  91.195  1.00  0.00    -0.504 OA
ATOM     15  H   UNL     1      55.474   9.009  92.174  1.00  0.00     0.293 HD
ENDBRANCH   6  14
TORSDOF 4
ENDMDL
MODEL 9
REMARK VINA RESULT:    -4.620      3.459      5.834
REMARK INTER + INTRA:          -5.561
REMARK INTER:                  -5.423
REMARK INTRA:                  -0.137
REMARK UNBOUND:                -0.130
REMARK SMILES O=C([O-])C=Cc1ccc(O)c(O)c1
REMARK SMILES IDX 6 1 13 2 7 3 11 4 8 5 9 6 5 7 4 8 2 9 1 10 3 11 12 12 10 14
REMARK H PARENT 12 13 10 15
REMARK Flexibility Score: inf
ROOT
ATOM      1  C   UNL     1      53.505  12.548  87.860  1.00  0.00    -0.022 A 
ATOM      2  C   UNL     1      53.859  13.851  88.250  1.00  0.00     0.058 A 
ATOM      3  C   UNL     1      52.801  12.367  86.652  1.00  0.00     0.012 A 
ATOM      4  C   UNL     1      53.540  14.951  87.441  1.00  0.00     0.157 A 
ATOM      5  C   UNL     1      52.484  13.465  85.847  1.00  0.00     0.051 A 
ATOM      6  C   UNL     1      52.854  14.758  86.238  1.00  0.00     0.157 A 
ENDROOT
BRANCH   1   7
ATOM      7  C   UNL     1      53.857  11.419  88.756  1.00  0.00     0.010 C 
ATOM      8  C   UNL     1      53.863  10.136  88.370  1.00  0.00     0.025 C 
BRANCH   8   9
ATOM      9  C   UNL     1      54.230   9.048  89.290  1.00  0.00     0.064 C 
ATOM     10  O   UNL     1      53.538   7.997  89.317  1.00  0.00    -0.545 OA
ATOM     11  O   UNL     1      55.330   9.162  90.133  1.00  0.00    -0.545 OA
ENDBRANCH   8   9
ENDBRANCH   1   7
BRANCH   4  12
ATOM     12  O   UNL     1      53.903  16.240  87.829  1.00  0.00    -0.504 OA
ATOM     13  H   UNL     1      53.236  17.004  87.822  1.00  0.00     0.293 HD
ENDBRANCH   4  12
BRANCH   6  14
ATOM     14  O   UNL     1      52.540  15.854  85.436  1.00  0.00    -0.504 OA
ATOM     15  H   UNL     1      53.087  16.706  85.465  1.00  0.00     0.293 HD
ENDBRANCH   6  14
TORSDOF 4
ENDMDL
