MODEL 1
REMARK VINA RESULT:    -6.402      0.000      0.000
REMARK INTER + INTRA:         -21.727
REMARK INTER:                 -16.880
REMARK INTRA:                  -4.846
REMARK UNBOUND:                -4.846
REMARK SMILES CCCCCCCCCCCCCCCCCCCCCCCCCCCCCC(=O)[O-]
REMARK SMILES IDX 16 1 17 2 18 3 19 4 20 5 21 6 22 7 23 8 24 9 25 10 26 11
REMARK SMILES IDX 27 12 28 13 29 14 30 15 31 16 32 17 15 18 14 19 13 20 12 21
REMARK SMILES IDX 11 22 10 23 9 24 8 25 7 26 6 27 5 28 4 29 3 30 2 31 1 32
REMARK H PARENT
REMARK Flexibility Score: inf
ROOT
ATOM      1  C   UNL     1     100.951 103.639 228.419  1.00  0.00     0.000 C 
ENDROOT
BRANCH   1   2
ATOM      2  C   UNL     1     100.646 103.153 229.846  1.00  0.00     0.000 C 
BRANCH   2   3
ATOM      3  C   UNL     1     101.808 102.367 230.474  1.00  0.00     0.000 C 
BRANCH   3   4
ATOM      4  C   UNL     1     103.219 102.926 230.202  1.00  0.00     0.000 C 
BRANCH   4   5
ATOM      5  C   UNL     1     104.274 102.544 231.260  1.00  0.00     0.000 C 
BRANCH   5   6
ATOM      6  C   UNL     1     105.060 101.270 230.898  1.00  0.00     0.000 C 
BRANCH   6   7
ATOM      7  C   UNL     1     106.582 101.492 230.885  1.00  0.00     0.000 C 
BRANCH   7   8
ATOM      8  C   UNL     1     107.021 102.837 231.508  1.00  0.00     0.000 C 
BRANCH   8   9
ATOM      9  C   UNL     1     107.680 103.799 230.503  1.00  0.00     0.000 C 
BRANCH   9  10
ATOM     10  C   UNL     1     108.454 103.054 229.399  1.00  0.00     0.000 C 
BRANCH  10  11
ATOM     11  C   UNL     1     109.895 102.710 229.818  1.00  0.00     0.000 C 
BRANCH  11  12
ATOM     12  C   UNL     1     110.970 103.075 228.779  1.00  0.00     0.000 C 
BRANCH  12  13
ATOM     13  C   UNL     1     111.817 104.289 229.203  1.00  0.00     0.006 C 
BRANCH  13  14
ATOM     14  C   UNL     1     112.928 103.906 230.189  1.00  0.00     0.053 C 
BRANCH  14  15
ATOM     15  C   UNL     1     112.569 104.265 231.600  1.00  0.00     0.041 C 
ATOM     16  O   UNL     1     111.589 105.019 231.832  1.00  0.00    -0.550 OA
ATOM     17  O   UNL     1     113.304 103.748 232.658  1.00  0.00    -0.550 OA
ENDBRANCH  14  15
ENDBRANCH  13  14
ENDBRANCH  12  13
ENDBRANCH  11  12
ENDBRANCH  10  11
ENDBRANCH   9  10
ENDBRANCH   8   9
ENDBRANCH   7   8
ENDBRANCH   6   7
ENDBRANCH   5   6
ENDBRANCH   4   5
ENDBRANCH   3   4
ENDBRANCH   2   3
ENDBRANCH   1   2
BRANCH   1  18
ATOM     18  C   UNL     1     101.272 105.144 228.352  1.00  0.00     0.000 C 
BRANCH  18  19
ATOM     19  C   UNL     1     100.704 105.993 229.511  1.00  0.00     0.000 C 
BRANCH  19  20
ATOM     20  C   UNL     1     101.737 106.474 230.546  1.00  0.00     0.000 C 
BRANCH  20  21
ATOM     21  C   UNL     1     101.279 106.257 231.998  1.00  0.00     0.000 C 
BRANCH  21  22
ATOM     22  C   UNL     1     102.279 105.422 232.819  1.00  0.00     0.000 C 
BRANCH  22  23
ATOM     23  C   UNL     1     103.087 106.212 233.866  1.00  0.00     0.000 C 
BRANCH  23  24
ATOM     24  C   UNL     1     104.618 106.062 233.764  1.00  0.00    -0.000 C 
BRANCH  24  25
ATOM     25  C   UNL     1     105.166 105.996 232.327  1.00  0.00    -0.000 C 
BRANCH  25  26
ATOM     26  C   UNL     1     105.010 107.323 231.569  1.00  0.00    -0.000 C 
BRANCH  26  27
ATOM     27  C   UNL     1     105.865 107.327 230.296  1.00  0.00    -0.000 C 
BRANCH  27  28
ATOM     28  C   UNL     1     105.100 107.944 229.118  1.00  0.00    -0.000 C 
BRANCH  28  29
ATOM     29  C   UNL     1     104.543 106.890 228.146  1.00  0.00    -0.000 C 
BRANCH  29  30
ATOM     30  C   UNL     1     105.210 105.506 228.291  1.00  0.00    -0.000 C 
BRANCH  30  31
ATOM     31  C   UNL     1     104.928 104.599 227.084  1.00  0.00    -0.003 C 
ATOM     32  C   UNL     1     106.209 103.937 226.585  1.00  0.00     0.004 C 
ENDBRANCH  30  31
ENDBRANCH  29  30
ENDBRANCH  28  29
ENDBRANCH  27  28
ENDBRANCH  26  27
ENDBRANCH  25  26
ENDBRANCH  24  25
ENDBRANCH  23  24
ENDBRANCH  22  23
ENDBRANCH  21  22
ENDBRANCH  20  21
ENDBRANCH  19  20
ENDBRANCH  18  19
ENDBRANCH   1  18
TORSDOF 28
ENDMDL
MODEL 2
REMARK VINA RESULT:    -6.277      1.049      4.425
REMARK INTER + INTRA:         -21.398
REMARK INTER:                 -16.452
REMARK INTRA:                  -4.946
REMARK UNBOUND:                -4.846
REMARK SMILES CCCCCCCCCCCCCCCCCCCCCCCCCCCCCC(=O)[O-]
REMARK SMILES IDX 16 1 17 2 18 3 19 4 20 5 21 6 22 7 23 8 24 9 25 10 26 11
REMARK SMILES IDX 27 12 28 13 29 14 30 15 31 16 32 17 15 18 14 19 13 20 12 21
REMARK SMILES IDX 11 22 10 23 9 24 8 25 7 26 6 27 5 28 4 29 3 30 2 31 1 32
REMARK H PARENT
REMARK Flexibility Score: inf
ROOT
ATOM      1  C   UNL     1     104.144 107.583 231.545  1.00  0.00     0.000 C 
ENDROOT
BRANCH   1   2
ATOM      2  C   UNL     1     105.160 108.386 230.714  1.00  0.00     0.000 C 
BRANCH   2   3
ATOM      3  C   UNL     1     104.995 108.176 229.200  1.00  0.00     0.000 C 
BRANCH   3   4
ATOM      4  C   UNL     1     105.178 106.729 228.701  1.00  0.00     0.000 C 
BRANCH   4   5
ATOM      5  C   UNL     1     104.104 106.256 227.700  1.00  0.00     0.000 C 
BRANCH   5   6
ATOM      6  C   UNL     1     104.503 104.976 226.944  1.00  0.00     0.000 C 
BRANCH   6   7
ATOM      7  C   UNL     1     105.704 104.256 227.582  1.00  0.00     0.000 C 
BRANCH   7   8
ATOM      8  C   UNL     1     106.808 103.871 226.571  1.00  0.00     0.000 C 
BRANCH   8   9
ATOM      9  C   UNL     1     108.211 103.767 227.197  1.00  0.00     0.000 C 
BRANCH   9  10
ATOM     10  C   UNL     1     108.162 103.335 228.675  1.00  0.00     0.000 C 
BRANCH  10  11
ATOM     11  C   UNL     1     109.507 102.771 229.168  1.00  0.00     0.000 C 
BRANCH  11  12
ATOM     12  C   UNL     1     110.743 103.318 228.430  1.00  0.00     0.000 C 
BRANCH  12  13
ATOM     13  C   UNL     1     111.762 103.971 229.382  1.00  0.00     0.006 C 
BRANCH  13  14
ATOM     14  C   UNL     1     111.468 103.651 230.853  1.00  0.00     0.053 C 
BRANCH  14  15
ATOM     15  C   UNL     1     112.400 104.376 231.778  1.00  0.00     0.041 C 
ATOM     16  O   UNL     1     113.214 103.732 232.490  1.00  0.00    -0.550 OA
ATOM     17  O   UNL     1     112.382 105.762 231.838  1.00  0.00    -0.550 OA
ENDBRANCH  14  15
ENDBRANCH  13  14
ENDBRANCH  12  13
ENDBRANCH  11  12
ENDBRANCH  10  11
ENDBRANCH   9  10
ENDBRANCH   8   9
ENDBRANCH   7   8
ENDBRANCH   6   7
ENDBRANCH   5   6
ENDBRANCH   4   5
ENDBRANCH   3   4
ENDBRANCH   2   3
ENDBRANCH   1   2
BRANCH   1  18
ATOM     18  C   UNL     1     104.796 106.445 232.354  1.00  0.00     0.000 C 
BRANCH  18  19
ATOM     19  C   UNL     1     104.175 106.183 233.743  1.00  0.00     0.000 C 
BRANCH  19  20
ATOM     20  C   UNL     1     102.815 105.460 233.734  1.00  0.00     0.000 C 
BRANCH  20  21
ATOM     21  C   UNL     1     101.645 106.375 234.135  1.00  0.00     0.000 C 
BRANCH  21  22
ATOM     22  C   UNL     1     100.839 106.877 232.923  1.00  0.00     0.000 C 
BRANCH  22  23
ATOM     23  C   UNL     1     100.450 105.792 231.901  1.00  0.00     0.000 C 
BRANCH  23  24
ATOM     24  C   UNL     1     101.213 105.847 230.563  1.00  0.00    -0.000 C 
BRANCH  24  25
ATOM     25  C   UNL     1     101.559 104.475 229.958  1.00  0.00    -0.000 C 
BRANCH  25  26
ATOM     26  C   UNL     1     102.947 103.971 230.380  1.00  0.00    -0.000 C 
BRANCH  26  27
ATOM     27  C   UNL     1     102.859 102.554 230.959  1.00  0.00    -0.000 C 
BRANCH  27  28
ATOM     28  C   UNL     1     104.232 101.868 230.954  1.00  0.00    -0.000 C 
BRANCH  28  29
ATOM     29  C   UNL     1     105.401 102.865 231.031  1.00  0.00    -0.000 C 
BRANCH  29  30
ATOM     30  C   UNL     1     106.535 102.412 231.974  1.00  0.00    -0.000 C 
BRANCH  30  31
ATOM     31  C   UNL     1     106.970 103.530 232.934  1.00  0.00    -0.003 C 
ATOM     32  C   UNL     1     107.819 104.572 232.212  1.00  0.00     0.004 C 
ENDBRANCH  30  31
ENDBRANCH  29  30
ENDBRANCH  28  29
ENDBRANCH  27  28
ENDBRANCH  26  27
ENDBRANCH  25  26
ENDBRANCH  24  25
ENDBRANCH  23  24
ENDBRANCH  22  23
ENDBRANCH  21  22
ENDBRANCH  20  21
ENDBRANCH  19  20
ENDBRANCH  18  19
ENDBRANCH   1  18
TORSDOF 28
ENDMDL
MODEL 3
REMARK VINA RESULT:    -6.245      1.724      3.701
REMARK INTER + INTRA:         -21.314
REMARK INTER:                 -16.213
REMARK INTRA:                  -5.101
REMARK UNBOUND:                -4.846
REMARK SMILES CCCCCCCCCCCCCCCCCCCCCCCCCCCCCC(=O)[O-]
REMARK SMILES IDX 16 1 17 2 18 3 19 4 20 5 21 6 22 7 23 8 24 9 25 10 26 11
REMARK SMILES IDX 27 12 28 13 29 14 30 15 31 16 32 17 15 18 14 19 13 20 12 21
REMARK SMILES IDX 11 22 10 23 9 24 8 25 7 26 6 27 5 28 4 29 3 30 2 31 1 32
REMARK H PARENT
REMARK Flexibility Score: inf
ROOT
ATOM      1  C   UNL     1     103.579 105.629 226.814  1.00  0.00     0.000 C 
ENDROOT
BRANCH   1   2
ATOM      2  C   UNL     1     104.845 104.756 226.834  1.00  0.00     0.000 C 
BRANCH   2   3
ATOM      3  C   UNL     1     105.602 104.827 228.171  1.00  0.00     0.000 C 
BRANCH   3   4
ATOM      4  C   UNL     1     105.722 103.500 228.945  1.00  0.00     0.000 C 
BRANCH   4   5
ATOM      5  C   UNL     1     104.458 103.102 229.734  1.00  0.00     0.000 C 
BRANCH   5   6
ATOM      6  C   UNL     1     104.770 102.537 231.132  1.00  0.00     0.000 C 
BRANCH   6   7
ATOM      7  C   UNL     1     106.003 101.617 231.142  1.00  0.00     0.000 C 
BRANCH   7   8
ATOM      8  C   UNL     1     107.197 102.184 231.942  1.00  0.00     0.000 C 
BRANCH   8   9
ATOM      9  C   UNL     1     106.926 103.567 232.561  1.00  0.00     0.000 C 
BRANCH   9  10
ATOM     10  C   UNL     1     107.745 104.683 231.885  1.00  0.00     0.000 C 
BRANCH  10  11
ATOM     11  C   UNL     1     108.754 104.134 230.859  1.00  0.00     0.000 C 
BRANCH  11  12
ATOM     12  C   UNL     1     110.195 104.646 231.039  1.00  0.00     0.000 C 
BRANCH  12  13
ATOM     13  C   UNL     1     111.250 103.609 230.611  1.00  0.00     0.006 C 
BRANCH  13  14
ATOM     14  C   UNL     1     111.793 103.882 229.203  1.00  0.00     0.053 C 
BRANCH  14  15
ATOM     15  C   UNL     1     111.110 103.038 228.168  1.00  0.00     0.041 C 
ATOM     16  O   UNL     1     110.048 103.438 227.625  1.00  0.00    -0.550 OA
ATOM     17  O   UNL     1     111.660 101.821 227.789  1.00  0.00    -0.550 OA
ENDBRANCH  14  15
ENDBRANCH  13  14
ENDBRANCH  12  13
ENDBRANCH  11  12
ENDBRANCH  10  11
ENDBRANCH   9  10
ENDBRANCH   8   9
ENDBRANCH   7   8
ENDBRANCH   6   7
ENDBRANCH   5   6
ENDBRANCH   4   5
ENDBRANCH   3   4
ENDBRANCH   2   3
ENDBRANCH   1   2
BRANCH   1  18
ATOM     18  C   UNL     1     102.713 105.461 228.076  1.00  0.00     0.000 C 
BRANCH  18  19
ATOM     19  C   UNL     1     101.274 104.958 227.828  1.00  0.00     0.000 C 
BRANCH  19  20
ATOM     20  C   UNL     1     100.922 103.610 228.482  1.00  0.00     0.000 C 
BRANCH  20  21
ATOM     21  C   UNL     1     100.987 103.652 230.019  1.00  0.00     0.000 C 
BRANCH  21  22
ATOM     22  C   UNL     1      99.613 103.908 230.665  1.00  0.00     0.000 C 
BRANCH  22  23
ATOM     23  C   UNL     1      99.419 105.319 231.254  1.00  0.00     0.000 C 
BRANCH  23  24
ATOM     24  C   UNL     1     100.703 105.994 231.776  1.00  0.00    -0.000 C 
BRANCH  24  25
ATOM     25  C   UNL     1     100.556 106.699 233.136  1.00  0.00    -0.000 C 
BRANCH  25  26
ATOM     26  C   UNL     1     101.733 106.419 234.082  1.00  0.00    -0.000 C 
BRANCH  26  27
ATOM     27  C   UNL     1     102.806 105.575 233.383  1.00  0.00    -0.000 C 
BRANCH  27  28
ATOM     28  C   UNL     1     104.216 106.026 233.789  1.00  0.00    -0.000 C 
BRANCH  28  29
ATOM     29  C   UNL     1     104.944 106.794 232.673  1.00  0.00    -0.000 C 
BRANCH  29  30
ATOM     30  C   UNL     1     104.406 106.485 231.260  1.00  0.00    -0.000 C 
BRANCH  30  31
ATOM     31  C   UNL     1     103.880 107.742 230.553  1.00  0.00    -0.003 C 
ATOM     32  C   UNL     1     104.875 108.242 229.511  1.00  0.00     0.004 C 
ENDBRANCH  30  31
ENDBRANCH  29  30
ENDBRANCH  28  29
ENDBRANCH  27  28
ENDBRANCH  26  27
ENDBRANCH  25  26
ENDBRANCH  24  25
ENDBRANCH  23  24
ENDBRANCH  22  23
ENDBRANCH  21  22
ENDBRANCH  20  21
ENDBRANCH  19  20
ENDBRANCH  18  19
ENDBRANCH   1  18
TORSDOF 28
ENDMDL
MODEL 4
REMARK VINA RESULT:    -6.231      2.500      7.237
REMARK INTER + INTRA:         -21.277
REMARK INTER:                 -16.113
REMARK INTRA:                  -5.164
REMARK UNBOUND:                -4.846
REMARK SMILES CCCCCCCCCCCCCCCCCCCCCCCCCCCCCC(=O)[O-]
REMARK SMILES IDX 16 1 17 2 18 3 19 4 20 5 21 6 22 7 23 8 24 9 25 10 26 11
REMARK SMILES IDX 27 12 28 13 29 14 30 15 31 16 32 17 15 18 14 19 13 20 12 21
REMARK SMILES IDX 11 22 10 23 9 24 8 25 7 26 6 27 5 28 4 29 3 30 2 31 1 32
REMARK H PARENT
REMARK Flexibility Score: inf
ROOT
ATOM      1  C   UNL     1     105.920 103.969 228.100  1.00  0.00     0.000 C 
ENDROOT
BRANCH   1   2
ATOM      2  C   UNL     1     104.690 104.817 228.467  1.00  0.00     0.000 C 
BRANCH   2   3
ATOM      3  C   UNL     1     103.894 105.283 227.236  1.00  0.00     0.000 C 
BRANCH   3   4
ATOM      4  C   UNL     1     102.365 105.113 227.324  1.00  0.00     0.000 C 
BRANCH   4   5
ATOM      5  C   UNL     1     101.824 104.910 228.754  1.00  0.00     0.000 C 
BRANCH   5   6
ATOM      6  C   UNL     1     100.749 105.941 229.146  1.00  0.00     0.000 C 
BRANCH   6   7
ATOM      7  C   UNL     1      99.978 105.545 230.417  1.00  0.00     0.000 C 
BRANCH   7   8
ATOM      8  C   UNL     1     100.873 105.401 231.669  1.00  0.00     0.000 C 
BRANCH   8   9
ATOM      9  C   UNL     1     100.525 106.391 232.795  1.00  0.00     0.000 C 
BRANCH   9  10
ATOM     10  C   UNL     1     101.641 106.491 233.853  1.00  0.00     0.000 C 
BRANCH  10  11
ATOM     11  C   UNL     1     102.809 105.528 233.570  1.00  0.00     0.000 C 
BRANCH  11  12
ATOM     12  C   UNL     1     104.180 106.017 234.069  1.00  0.00     0.000 C 
BRANCH  12  13
ATOM     13  C   UNL     1     105.010 106.689 232.958  1.00  0.00     0.006 C 
BRANCH  13  14
ATOM     14  C   UNL     1     104.417 106.446 231.565  1.00  0.00     0.053 C 
BRANCH  14  15
ATOM     15  C   UNL     1     104.155 107.731 230.838  1.00  0.00     0.041 C 
ATOM     16  O   UNL     1     102.974 108.125 230.654  1.00  0.00    -0.550 OA
ATOM     17  O   UNL     1     105.215 108.503 230.384  1.00  0.00    -0.550 OA
ENDBRANCH  14  15
ENDBRANCH  13  14
ENDBRANCH  12  13
ENDBRANCH  11  12
ENDBRANCH  10  11
ENDBRANCH   9  10
ENDBRANCH   8   9
ENDBRANCH   7   8
ENDBRANCH   6   7
ENDBRANCH   5   6
ENDBRANCH   4   5
ENDBRANCH   3   4
ENDBRANCH   2   3
ENDBRANCH   1   2
BRANCH   1  18
ATOM     18  C   UNL     1     106.246 104.003 226.595  1.00  0.00     0.000 C 
BRANCH  18  19
ATOM     19  C   UNL     1     107.745 103.893 226.241  1.00  0.00     0.000 C 
BRANCH  19  20
ATOM     20  C   UNL     1     108.691 103.673 227.436  1.00  0.00     0.000 C 
BRANCH  20  21
ATOM     21  C   UNL     1     110.145 103.405 227.009  1.00  0.00     0.000 C 
BRANCH  21  22
ATOM     22  C   UNL     1     111.049 103.009 228.192  1.00  0.00     0.000 C 
BRANCH  22  23
ATOM     23  C   UNL     1     110.321 102.823 229.538  1.00  0.00     0.000 C 
BRANCH  23  24
ATOM     24  C   UNL     1     110.766 103.780 230.661  1.00  0.00    -0.000 C 
BRANCH  24  25
ATOM     25  C   UNL     1     109.724 104.842 231.056  1.00  0.00    -0.000 C 
BRANCH  25  26
ATOM     26  C   UNL     1     108.284 104.310 231.009  1.00  0.00    -0.000 C 
BRANCH  26  27
ATOM     27  C   UNL     1     107.667 104.281 232.412  1.00  0.00    -0.000 C 
BRANCH  27  28
ATOM     28  C   UNL     1     106.517 103.268 232.491  1.00  0.00    -0.000 C 
BRANCH  28  29
ATOM     29  C   UNL     1     106.598 102.183 231.405  1.00  0.00    -0.000 C 
BRANCH  29  30
ATOM     30  C   UNL     1     105.219 101.651 230.961  1.00  0.00    -0.000 C 
BRANCH  30  31
ATOM     31  C   UNL     1     104.086 102.631 231.300  1.00  0.00    -0.003 C 
ATOM     32  C   UNL     1     102.734 102.083 230.850  1.00  0.00     0.004 C 
ENDBRANCH  30  31
ENDBRANCH  29  30
ENDBRANCH  28  29
ENDBRANCH  27  28
ENDBRANCH  26  27
ENDBRANCH  25  26
ENDBRANCH  24  25
ENDBRANCH  23  24
ENDBRANCH  22  23
ENDBRANCH  21  22
ENDBRANCH  20  21
ENDBRANCH  19  20
ENDBRANCH  18  19
ENDBRANCH   1  18
TORSDOF 28
ENDMDL
MODEL 5
REMARK VINA RESULT:    -6.229      1.073      4.095
REMARK INTER + INTRA:         -21.272
REMARK INTER:                 -16.284
REMARK INTRA:                  -4.988
REMARK UNBOUND:                -4.846
REMARK SMILES CCCCCCCCCCCCCCCCCCCCCCCCCCCCCC(=O)[O-]
REMARK SMILES IDX 16 1 17 2 18 3 19 4 20 5 21 6 22 7 23 8 24 9 25 10 26 11
REMARK SMILES IDX 27 12 28 13 29 14 30 15 31 16 32 17 15 18 14 19 13 20 12 21
REMARK SMILES IDX 11 22 10 23 9 24 8 25 7 26 6 27 5 28 4 29 3 30 2 31 1 32
REMARK H PARENT
REMARK Flexibility Score: inf
ROOT
ATOM      1  C   UNL     1     101.626 106.624 232.066  1.00  0.00     0.000 C 
ENDROOT
BRANCH   1   2
ATOM      2  C   UNL     1     102.266 105.485 232.877  1.00  0.00     0.000 C 
BRANCH   2   3
ATOM      3  C   UNL     1     102.917 105.970 234.182  1.00  0.00     0.000 C 
BRANCH   3   4
ATOM      4  C   UNL     1     104.439 106.211 234.124  1.00  0.00     0.000 C 
BRANCH   4   5
ATOM      5  C   UNL     1     105.182 105.359 233.075  1.00  0.00     0.000 C 
BRANCH   5   6
ATOM      6  C   UNL     1     106.676 105.174 233.394  1.00  0.00     0.000 C 
BRANCH   6   7
ATOM      7  C   UNL     1     107.143 103.716 233.244  1.00  0.00     0.000 C 
BRANCH   7   8
ATOM      8  C   UNL     1     106.368 102.922 232.169  1.00  0.00     0.000 C 
BRANCH   8   9
ATOM      9  C   UNL     1     107.275 102.112 231.224  1.00  0.00     0.000 C 
BRANCH   9  10
ATOM     10  C   UNL     1     108.034 103.010 230.228  1.00  0.00     0.000 C 
BRANCH  10  11
ATOM     11  C   UNL     1     109.269 102.313 229.628  1.00  0.00     0.000 C 
BRANCH  11  12
ATOM     12  C   UNL     1     110.103 103.190 228.677  1.00  0.00     0.000 C 
BRANCH  12  13
ATOM     13  C   UNL     1     111.612 103.123 228.980  1.00  0.00     0.006 C 
BRANCH  13  14
ATOM     14  C   UNL     1     112.124 104.400 229.659  1.00  0.00     0.053 C 
BRANCH  14  15
ATOM     15  C   UNL     1     111.919 104.362 231.144  1.00  0.00     0.041 C 
ATOM     16  O   UNL     1     112.817 103.899 231.895  1.00  0.00    -0.550 OA
ATOM     17  O   UNL     1     110.747 104.858 231.698  1.00  0.00    -0.550 OA
ENDBRANCH  14  15
ENDBRANCH  13  14
ENDBRANCH  12  13
ENDBRANCH  11  12
ENDBRANCH  10  11
ENDBRANCH   9  10
ENDBRANCH   8   9
ENDBRANCH   7   8
ENDBRANCH   6   7
ENDBRANCH   5   6
ENDBRANCH   4   5
ENDBRANCH   3   4
ENDBRANCH   2   3
ENDBRANCH   1   2
BRANCH   1  18
ATOM     18  C   UNL     1     102.349 106.894 230.733  1.00  0.00     0.000 C 
BRANCH  18  19
ATOM     19  C   UNL     1     103.126 108.227 230.661  1.00  0.00     0.000 C 
BRANCH  19  20
ATOM     20  C   UNL     1     104.640 108.124 230.918  1.00  0.00     0.000 C 
BRANCH  20  21
ATOM     21  C   UNL     1     105.422 107.598 229.702  1.00  0.00     0.000 C 
BRANCH  21  22
ATOM     22  C   UNL     1     106.018 106.198 229.938  1.00  0.00     0.000 C 
BRANCH  22  23
ATOM     23  C   UNL     1     105.268 105.043 229.247  1.00  0.00     0.000 C 
BRANCH  23  24
ATOM     24  C   UNL     1     105.516 104.915 227.731  1.00  0.00    -0.000 C 
BRANCH  24  25
ATOM     25  C   UNL     1     104.246 104.739 226.880  1.00  0.00    -0.000 C 
BRANCH  25  26
ATOM     26  C   UNL     1     103.211 105.849 227.119  1.00  0.00    -0.000 C 
BRANCH  26  27
ATOM     27  C   UNL     1     101.815 105.255 227.340  1.00  0.00    -0.000 C 
BRANCH  27  28
ATOM     28  C   UNL     1     101.862 104.088 228.335  1.00  0.00    -0.000 C 
BRANCH  28  29
ATOM     29  C   UNL     1     100.711 104.123 229.355  1.00  0.00    -0.000 C 
BRANCH  29  30
ATOM     30  C   UNL     1     100.745 102.954 230.362  1.00  0.00    -0.000 C 
BRANCH  30  31
ATOM     31  C   UNL     1     102.017 102.105 230.220  1.00  0.00    -0.003 C 
ATOM     32  C   UNL     1     103.030 102.450 231.308  1.00  0.00     0.004 C 
ENDBRANCH  30  31
ENDBRANCH  29  30
ENDBRANCH  28  29
ENDBRANCH  27  28
ENDBRANCH  26  27
ENDBRANCH  25  26
ENDBRANCH  24  25
ENDBRANCH  23  24
ENDBRANCH  22  23
ENDBRANCH  21  22
ENDBRANCH  20  21
ENDBRANCH  19  20
ENDBRANCH  18  19
ENDBRANCH   1  18
TORSDOF 28
ENDMDL
MODEL 6
REMARK VINA RESULT:    -6.219      3.445      7.503
REMARK INTER + INTRA:         -21.244
REMARK INTER:                 -16.053
REMARK INTRA:                  -5.191
REMARK UNBOUND:                -4.846
REMARK SMILES CCCCCCCCCCCCCCCCCCCCCCCCCCCCCC(=O)[O-]
REMARK SMILES IDX 16 1 17 2 18 3 19 4 20 5 21 6 22 7 23 8 24 9 25 10 26 11
REMARK SMILES IDX 27 12 28 13 29 14 30 15 31 16 32 17 15 18 14 19 13 20 12 21
REMARK SMILES IDX 11 22 10 23 9 24 8 25 7 26 6 27 5 28 4 29 3 30 2 31 1 32
REMARK H PARENT
REMARK Flexibility Score: inf
ROOT
ATOM      1  C   UNL     1     102.986 107.093 232.089  1.00  0.00     0.000 C 
ENDROOT
BRANCH   1   2
ATOM      2  C   UNL     1     103.805 105.826 232.390  1.00  0.00     0.000 C 
BRANCH   2   3
ATOM      3  C   UNL     1     104.785 106.010 233.560  1.00  0.00     0.000 C 
BRANCH   3   4
ATOM      4  C   UNL     1     106.146 105.302 233.412  1.00  0.00     0.000 C 
BRANCH   4   5
ATOM      5  C   UNL     1     106.419 104.728 232.006  1.00  0.00     0.000 C 
BRANCH   5   6
ATOM      6  C   UNL     1     106.246 103.200 231.933  1.00  0.00     0.000 C 
BRANCH   6   7
ATOM      7  C   UNL     1     105.370 102.755 230.749  1.00  0.00     0.000 C 
BRANCH   7   8
ATOM      8  C   UNL     1     104.278 101.731 231.132  1.00  0.00     0.000 C 
BRANCH   8   9
ATOM      9  C   UNL     1     102.846 102.215 230.842  1.00  0.00     0.000 C 
BRANCH   9  10
ATOM     10  C   UNL     1     102.786 103.180 229.642  1.00  0.00     0.000 C 
BRANCH  10  11
ATOM     11  C   UNL     1     101.344 103.573 229.273  1.00  0.00     0.000 C 
BRANCH  11  12
ATOM     12  C   UNL     1     101.177 105.027 228.794  1.00  0.00     0.000 C 
BRANCH  12  13
ATOM     13  C   UNL     1     100.386 105.893 229.793  1.00  0.00     0.006 C 
BRANCH  13  14
ATOM     14  C   UNL     1     100.057 105.134 231.085  1.00  0.00     0.053 C 
BRANCH  14  15
ATOM     15  C   UNL     1      99.136 105.917 231.972  1.00  0.00     0.041 C 
ATOM     16  O   UNL     1      97.897 105.920 231.754  1.00  0.00    -0.550 OA
ATOM     17  O   UNL     1      99.645 106.625 233.052  1.00  0.00    -0.550 OA
ENDBRANCH  14  15
ENDBRANCH  13  14
ENDBRANCH  12  13
ENDBRANCH  11  12
ENDBRANCH  10  11
ENDBRANCH   9  10
ENDBRANCH   8   9
ENDBRANCH   7   8
ENDBRANCH   6   7
ENDBRANCH   5   6
ENDBRANCH   4   5
ENDBRANCH   3   4
ENDBRANCH   2   3
ENDBRANCH   1   2
BRANCH   1  18
ATOM     18  C   UNL     1     103.382 107.761 230.758  1.00  0.00     0.000 C 
BRANCH  18  19
ATOM     19  C   UNL     1     104.871 108.149 230.631  1.00  0.00     0.000 C 
BRANCH  19  20
ATOM     20  C   UNL     1     105.664 107.380 229.558  1.00  0.00     0.000 C 
BRANCH  20  21
ATOM     21  C   UNL     1     104.942 106.112 229.070  1.00  0.00     0.000 C 
BRANCH  21  22
ATOM     22  C   UNL     1     104.265 106.304 227.701  1.00  0.00     0.000 C 
BRANCH  22  23
ATOM     23  C   UNL     1     104.352 105.092 226.753  1.00  0.00     0.000 C 
BRANCH  23  24
ATOM     24  C   UNL     1     105.383 104.019 227.153  1.00  0.00    -0.000 C 
BRANCH  24  25
ATOM     25  C   UNL     1     106.577 103.879 226.193  1.00  0.00    -0.000 C 
BRANCH  25  26
ATOM     26  C   UNL     1     107.928 103.843 226.923  1.00  0.00    -0.000 C 
BRANCH  26  27
ATOM     27  C   UNL     1     107.731 103.586 228.421  1.00  0.00    -0.000 C 
BRANCH  27  28
ATOM     28  C   UNL     1     109.007 103.017 229.057  1.00  0.00    -0.000 C 
BRANCH  28  29
ATOM     29  C   UNL     1     110.270 103.301 228.226  1.00  0.00    -0.000 C 
BRANCH  29  30
ATOM     30  C   UNL     1     111.543 103.474 229.081  1.00  0.00    -0.000 C 
BRANCH  30  31
ATOM     31  C   UNL     1     111.224 103.965 230.501  1.00  0.00    -0.003 C 
ATOM     32  C   UNL     1     112.476 103.967 231.374  1.00  0.00     0.004 C 
ENDBRANCH  30  31
ENDBRANCH  29  30
ENDBRANCH  28  29
ENDBRANCH  27  28
ENDBRANCH  26  27
ENDBRANCH  25  26
ENDBRANCH  24  25
ENDBRANCH  23  24
ENDBRANCH  22  23
ENDBRANCH  21  22
ENDBRANCH  20  21
ENDBRANCH  19  20
ENDBRANCH  18  19
ENDBRANCH   1  18
TORSDOF 28
ENDMDL
MODEL 7
REMARK VINA RESULT:    -6.186      1.110      4.243
REMARK INTER + INTRA:         -21.159
REMARK INTER:                 -15.530
REMARK INTRA:                  -5.629
REMARK UNBOUND:                -4.846
REMARK SMILES CCCCCCCCCCCCCCCCCCCCCCCCCCCCCC(=O)[O-]
REMARK SMILES IDX 16 1 17 2 18 3 19 4 20 5 21 6 22 7 23 8 24 9 25 10 26 11
REMARK SMILES IDX 27 12 28 13 29 14 30 15 31 16 32 17 15 18 14 19 13 20 12 21
REMARK SMILES IDX 11 22 10 23 9 24 8 25 7 26 6 27 5 28 4 29 3 30 2 31 1 32
REMARK H PARENT
REMARK Flexibility Score: inf
ROOT
ATOM      1  C   UNL     1     102.580 106.599 231.074  1.00  0.00     0.000 C 
ENDROOT
BRANCH   1   2
ATOM      2  C   UNL     1     101.362 106.649 232.013  1.00  0.00     0.000 C 
BRANCH   2   3
ATOM      3  C   UNL     1     101.719 106.333 233.475  1.00  0.00     0.000 C 
BRANCH   3   4
ATOM      4  C   UNL     1     102.959 105.441 233.684  1.00  0.00     0.000 C 
BRANCH   4   5
ATOM      5  C   UNL     1     104.155 106.153 234.348  1.00  0.00     0.000 C 
BRANCH   5   6
ATOM      6  C   UNL     1     105.461 106.022 233.541  1.00  0.00     0.000 C 
BRANCH   6   7
ATOM      7  C   UNL     1     105.522 104.727 232.712  1.00  0.00     0.000 C 
BRANCH   7   8
ATOM      8  C   UNL     1     106.853 103.954 232.862  1.00  0.00     0.000 C 
BRANCH   8   9
ATOM      9  C   UNL     1     108.058 104.669 232.224  1.00  0.00     0.000 C 
BRANCH   9  10
ATOM     10  C   UNL     1     108.236 104.304 230.738  1.00  0.00     0.000 C 
BRANCH  10  11
ATOM     11  C   UNL     1     108.312 102.784 230.509  1.00  0.00     0.000 C 
BRANCH  11  12
ATOM     12  C   UNL     1     109.632 102.293 229.888  1.00  0.00     0.000 C 
BRANCH  12  13
ATOM     13  C   UNL     1     110.266 103.332 228.945  1.00  0.00     0.006 C 
BRANCH  13  14
ATOM     14  C   UNL     1     111.745 103.581 229.266  1.00  0.00     0.053 C 
BRANCH  14  15
ATOM     15  C   UNL     1     111.922 104.260 230.591  1.00  0.00     0.041 C 
ATOM     16  O   UNL     1     111.524 105.443 230.755  1.00  0.00    -0.550 OA
ATOM     17  O   UNL     1     112.505 103.578 231.650  1.00  0.00    -0.550 OA
ENDBRANCH  14  15
ENDBRANCH  13  14
ENDBRANCH  12  13
ENDBRANCH  11  12
ENDBRANCH  10  11
ENDBRANCH   9  10
ENDBRANCH   8   9
ENDBRANCH   7   8
ENDBRANCH   6   7
ENDBRANCH   5   6
ENDBRANCH   4   5
ENDBRANCH   3   4
ENDBRANCH   2   3
ENDBRANCH   1   2
BRANCH   1  18
ATOM     18  C   UNL     1     103.163 107.992 230.771  1.00  0.00     0.000 C 
BRANCH  18  19
ATOM     19  C   UNL     1     104.681 108.138 231.013  1.00  0.00     0.000 C 
BRANCH  19  20
ATOM     20  C   UNL     1     105.586 107.533 229.924  1.00  0.00     0.000 C 
BRANCH  20  21
ATOM     21  C   UNL     1     104.947 107.568 228.525  1.00  0.00     0.000 C 
BRANCH  21  22
ATOM     22  C   UNL     1     104.645 106.163 227.973  1.00  0.00     0.000 C 
BRANCH  22  23
ATOM     23  C   UNL     1     105.357 105.006 228.701  1.00  0.00     0.000 C 
BRANCH  23  24
ATOM     24  C   UNL     1     104.448 104.131 229.587  1.00  0.00    -0.000 C 
BRANCH  24  25
ATOM     25  C   UNL     1     104.927 102.680 229.770  1.00  0.00    -0.000 C 
BRANCH  25  26
ATOM     26  C   UNL     1     103.946 101.829 230.590  1.00  0.00    -0.000 C 
BRANCH  26  27
ATOM     27  C   UNL     1     102.810 102.692 231.150  1.00  0.00    -0.000 C 
BRANCH  27  28
ATOM     28  C   UNL     1     101.472 102.349 230.481  1.00  0.00    -0.000 C 
BRANCH  28  29
ATOM     29  C   UNL     1     100.798 103.568 229.829  1.00  0.00    -0.000 C 
BRANCH  29  30
ATOM     30  C   UNL     1     101.076 103.688 228.316  1.00  0.00    -0.000 C 
BRANCH  30  31
ATOM     31  C   UNL     1     101.254 105.149 227.875  1.00  0.00    -0.003 C 
ATOM     32  C   UNL     1     100.228 106.054 228.550  1.00  0.00     0.004 C 
ENDBRANCH  30  31
ENDBRANCH  29  30
ENDBRANCH  28  29
ENDBRANCH  27  28
ENDBRANCH  26  27
ENDBRANCH  25  26
ENDBRANCH  24  25
ENDBRANCH  23  24
ENDBRANCH  22  23
ENDBRANCH  21  22
ENDBRANCH  20  21
ENDBRANCH  19  20
ENDBRANCH  18  19
ENDBRANCH   1  18
TORSDOF 28
ENDMDL
MODEL 8
REMARK VINA RESULT:    -6.167      1.052      5.291
REMARK INTER + INTRA:         -21.108
REMARK INTER:                 -15.670
REMARK INTRA:                  -5.437
REMARK UNBOUND:                -4.846
REMARK SMILES CCCCCCCCCCCCCCCCCCCCCCCCCCCCCC(=O)[O-]
REMARK SMILES IDX 16 1 17 2 18 3 19 4 20 5 21 6 22 7 23 8 24 9 25 10 26 11
REMARK SMILES IDX 27 12 28 13 29 14 30 15 31 16 32 17 15 18 14 19 13 20 12 21
REMARK SMILES IDX 11 22 10 23 9 24 8 25 7 26 6 27 5 28 4 29 3 30 2 31 1 32
REMARK H PARENT
REMARK Flexibility Score: inf
ROOT
ATOM      1  C   UNL     1     106.079 105.141 233.005  1.00  0.00     0.000 C 
ENDROOT
BRANCH   1   2
ATOM      2  C   UNL     1     105.694 105.790 231.665  1.00  0.00     0.000 C 
BRANCH   2   3
ATOM      3  C   UNL     1     105.032 107.168 231.833  1.00  0.00     0.000 C 
BRANCH   3   4
ATOM      4  C   UNL     1     105.035 108.070 230.583  1.00  0.00     0.000 C 
BRANCH   4   5
ATOM      5  C   UNL     1     105.674 107.431 229.334  1.00  0.00     0.000 C 
BRANCH   5   6
ATOM      6  C   UNL     1     104.646 107.069 228.246  1.00  0.00     0.000 C 
BRANCH   6   7
ATOM      7  C   UNL     1     104.540 105.553 228.006  1.00  0.00     0.000 C 
BRANCH   7   8
ATOM      8  C   UNL     1     105.897 104.815 228.078  1.00  0.00     0.000 C 
BRANCH   8   9
ATOM      9  C   UNL     1     106.172 103.906 226.866  1.00  0.00     0.000 C 
BRANCH   9  10
ATOM     10  C   UNL     1     107.669 103.845 226.507  1.00  0.00     0.000 C 
BRANCH  10  11
ATOM     11  C   UNL     1     108.561 103.609 227.739  1.00  0.00     0.000 C 
BRANCH  11  12
ATOM     12  C   UNL     1     110.055 103.413 227.423  1.00  0.00     0.000 C 
BRANCH  12  13
ATOM     13  C   UNL     1     110.790 102.606 228.509  1.00  0.00     0.006 C 
BRANCH  13  14
ATOM     14  C   UNL     1     110.502 103.135 229.920  1.00  0.00     0.053 C 
BRANCH  14  15
ATOM     15  C   UNL     1     111.580 104.060 230.399  1.00  0.00     0.041 C 
ATOM     16  O   UNL     1     111.475 104.629 231.517  1.00  0.00    -0.550 OA
ATOM     17  O   UNL     1     112.709 104.276 229.621  1.00  0.00    -0.550 OA
ENDBRANCH  14  15
ENDBRANCH  13  14
ENDBRANCH  12  13
ENDBRANCH  11  12
ENDBRANCH  10  11
ENDBRANCH   9  10
ENDBRANCH   8   9
ENDBRANCH   7   8
ENDBRANCH   6   7
ENDBRANCH   5   6
ENDBRANCH   4   5
ENDBRANCH   3   4
ENDBRANCH   2   3
ENDBRANCH   1   2
BRANCH   1  18
ATOM     18  C   UNL     1     106.743 103.762 232.836  1.00  0.00     0.000 C 
BRANCH  18  19
ATOM     19  C   UNL     1     107.169 103.406 231.394  1.00  0.00     0.000 C 
BRANCH  19  20
ATOM     20  C   UNL     1     107.170 101.904 231.057  1.00  0.00     0.000 C 
BRANCH  20  21
ATOM     21  C   UNL     1     105.770 101.270 231.131  1.00  0.00     0.000 C 
BRANCH  21  22
ATOM     22  C   UNL     1     104.810 101.821 230.060  1.00  0.00     0.000 C 
BRANCH  22  23
ATOM     23  C   UNL     1     103.712 102.765 230.588  1.00  0.00     0.000 C 
BRANCH  23  24
ATOM     24  C   UNL     1     102.424 102.069 231.067  1.00  0.00    -0.000 C 
BRANCH  24  25
ATOM     25  C   UNL     1     101.133 102.554 230.384  1.00  0.00    -0.000 C 
BRANCH  25  26
ATOM     26  C   UNL     1     101.399 103.570 229.263  1.00  0.00    -0.000 C 
BRANCH  26  27
ATOM     27  C   UNL     1     100.868 104.956 229.646  1.00  0.00    -0.000 C 
BRANCH  27  28
ATOM     28  C   UNL     1     101.976 105.822 230.263  1.00  0.00    -0.000 C 
BRANCH  28  29
ATOM     29  C   UNL     1     101.447 106.815 231.312  1.00  0.00    -0.000 C 
BRANCH  29  30
ATOM     30  C   UNL     1     101.055 106.148 232.648  1.00  0.00    -0.000 C 
BRANCH  30  31
ATOM     31  C   UNL     1     102.224 105.371 233.271  1.00  0.00    -0.003 C 
ATOM     32  C   UNL     1     102.776 106.098 234.493  1.00  0.00     0.004 C 
ENDBRANCH  30  31
ENDBRANCH  29  30
ENDBRANCH  28  29
ENDBRANCH  27  28
ENDBRANCH  26  27
ENDBRANCH  25  26
ENDBRANCH  24  25
ENDBRANCH  23  24
ENDBRANCH  22  23
ENDBRANCH  21  22
ENDBRANCH  20  21
ENDBRANCH  19  20
ENDBRANCH  18  19
ENDBRANCH   1  18
TORSDOF 28
ENDMDL
MODEL 9
REMARK VINA RESULT:    -6.157      3.215      6.654
REMARK INTER + INTRA:         -21.081
REMARK INTER:                 -16.201
REMARK INTRA:                  -4.880
REMARK UNBOUND:                -4.846
REMARK SMILES CCCCCCCCCCCCCCCCCCCCCCCCCCCCCC(=O)[O-]
REMARK SMILES IDX 16 1 17 2 18 3 19 4 20 5 21 6 22 7 23 8 24 9 25 10 26 11
REMARK SMILES IDX 27 12 28 13 29 14 30 15 31 16 32 17 15 18 14 19 13 20 12 21
REMARK SMILES IDX 11 22 10 23 9 24 8 25 7 26 6 27 5 28 4 29 3 30 2 31 1 32
REMARK H PARENT
REMARK Flexibility Score: inf
ROOT
ATOM      1  C   UNL     1     101.994 106.701 230.710  1.00  0.00     0.000 C 
ENDROOT
BRANCH   1   2
ATOM      2  C   UNL     1     101.128 106.446 231.955  1.00  0.00     0.000 C 
BRANCH   2   3
ATOM      3  C   UNL     1     101.862 105.642 233.041  1.00  0.00     0.000 C 
BRANCH   3   4
ATOM      4  C   UNL     1     103.367 105.412 232.802  1.00  0.00     0.000 C 
BRANCH   4   5
ATOM      5  C   UNL     1     104.291 106.112 233.820  1.00  0.00     0.000 C 
BRANCH   5   6
ATOM      6  C   UNL     1     105.776 106.078 233.412  1.00  0.00     0.000 C 
BRANCH   6   7
ATOM      7  C   UNL     1     106.033 105.214 232.166  1.00  0.00     0.000 C 
BRANCH   7   8
ATOM      8  C   UNL     1     107.223 104.239 232.320  1.00  0.00     0.000 C 
BRANCH   8   9
ATOM      9  C   UNL     1     106.802 102.801 232.676  1.00  0.00     0.000 C 
BRANCH   9  10
ATOM     10  C   UNL     1     106.749 101.883 231.439  1.00  0.00     0.000 C 
BRANCH  10  11
ATOM     11  C   UNL     1     105.631 102.281 230.458  1.00  0.00     0.000 C 
BRANCH  11  12
ATOM     12  C   UNL     1     104.218 101.840 230.881  1.00  0.00     0.000 C 
BRANCH  12  13
ATOM     13  C   UNL     1     103.114 102.483 230.020  1.00  0.00     0.006 C 
BRANCH  13  14
ATOM     14  C   UNL     1     101.738 102.412 230.694  1.00  0.00     0.053 C 
BRANCH  14  15
ATOM     15  C   UNL     1     100.705 103.190 229.935  1.00  0.00     0.041 C 
ATOM     16  O   UNL     1      99.633 103.535 230.497  1.00  0.00    -0.550 OA
ATOM     17  O   UNL     1     100.936 103.551 228.615  1.00  0.00    -0.550 OA
ENDBRANCH  14  15
ENDBRANCH  13  14
ENDBRANCH  12  13
ENDBRANCH  11  12
ENDBRANCH  10  11
ENDBRANCH   9  10
ENDBRANCH   8   9
ENDBRANCH   7   8
ENDBRANCH   6   7
ENDBRANCH   5   6
ENDBRANCH   4   5
ENDBRANCH   3   4
ENDBRANCH   2   3
ENDBRANCH   1   2
BRANCH   1  18
ATOM     18  C   UNL     1     102.714 108.062 230.747  1.00  0.00     0.000 C 
BRANCH  18  19
ATOM     19  C   UNL     1     104.248 108.003 230.576  1.00  0.00     0.000 C 
BRANCH  19  20
ATOM     20  C   UNL     1     104.774 108.404 229.186  1.00  0.00     0.000 C 
BRANCH  20  21
ATOM     21  C   UNL     1     105.515 107.260 228.472  1.00  0.00     0.000 C 
BRANCH  21  22
ATOM     22  C   UNL     1     104.878 105.883 228.733  1.00  0.00     0.000 C 
BRANCH  22  23
ATOM     23  C   UNL     1     104.187 105.240 227.515  1.00  0.00     0.000 C 
BRANCH  23  24
ATOM     24  C   UNL     1     105.105 104.392 226.613  1.00  0.00    -0.000 C 
BRANCH  24  25
ATOM     25  C   UNL     1     106.380 103.868 227.297  1.00  0.00    -0.000 C 
BRANCH  25  26
ATOM     26  C   UNL     1     107.632 104.017 226.421  1.00  0.00    -0.000 C 
BRANCH  26  27
ATOM     27  C   UNL     1     108.889 103.589 227.187  1.00  0.00    -0.000 C 
BRANCH  27  28
ATOM     28  C   UNL     1     108.564 103.281 228.654  1.00  0.00    -0.000 C 
BRANCH  28  29
ATOM     29  C   UNL     1     109.818 103.195 229.541  1.00  0.00    -0.000 C 
BRANCH  29  30
ATOM     30  C   UNL     1     111.138 103.347 228.756  1.00  0.00    -0.000 C 
BRANCH  30  31
ATOM     31  C   UNL     1     112.222 104.058 229.579  1.00  0.00    -0.003 C 
ATOM     32  C   UNL     1     111.625 104.712 230.822  1.00  0.00     0.004 C 
ENDBRANCH  30  31
ENDBRANCH  29  30
ENDBRANCH  28  29
ENDBRANCH  27  28
ENDBRANCH  26  27
ENDBRANCH  25  26
ENDBRANCH  24  25
ENDBRANCH  23  24
ENDBRANCH  22  23
ENDBRANCH  21  22
ENDBRANCH  20  21
ENDBRANCH  19  20
ENDBRANCH  18  19
ENDBRANCH   1  18
TORSDOF 28
ENDMDL
