MODEL 1
REMARK VINA RESULT:     2.954      0.000      0.000
REMARK INTER + INTRA:           3.234
REMARK INTER:                   3.386
REMARK INTRA:                  -0.151
REMARK UNBOUND:                -0.151
REMARK SMILES O=C([O-])C=Cc1ccc(O)cc1
REMARK SMILES IDX 6 1 7 2 12 3 8 4 11 5 9 6 5 7 4 8 2 9 1 10 3 11 10 12
REMARK H PARENT 10 13
REMARK Flexibility Score: inf
ROOT
ATOM      1  C   UNL     1       0.617  -1.754   0.082  1.00  0.00    -0.025 A 
ATOM      2  C   UNL     1      -0.590  -2.444   0.320  1.00  0.00     0.012 A 
ATOM      3  C   UNL     1       1.031  -1.552  -1.245  1.00  0.00     0.012 A 
ATOM      4  C   UNL     1      -1.371  -2.893  -0.750  1.00  0.00     0.047 A 
ATOM      5  C   UNL     1       0.247  -2.001  -2.312  1.00  0.00     0.047 A 
ATOM      6  C   UNL     1      -0.957  -2.672  -2.066  1.00  0.00     0.115 A 
ENDROOT
BRANCH   1   7
ATOM      7  C   UNL     1       1.488  -1.267   1.180  1.00  0.00     0.010 C 
ATOM      8  C   UNL     1       2.659  -0.645   0.984  1.00  0.00     0.025 C 
BRANCH   8   9
ATOM      9  C   UNL     1       3.495  -0.189   2.105  1.00  0.00     0.064 C 
ATOM     10  O   UNL     1       4.718  -0.485   2.128  1.00  0.00    -0.545 OA
ATOM     11  O   UNL     1       2.956   0.564   3.142  1.00  0.00    -0.545 OA
ENDBRANCH   8   9
ENDBRANCH   1   7
BRANCH   6  12
ATOM     12  O   UNL     1      -1.746  -3.125  -3.121  1.00  0.00    -0.508 OA
ATOM     13  H   UNL     1      -1.699  -4.083  -3.445  1.00  0.00     0.293 HD
ENDBRANCH   6  12
TORSDOF 3
ENDMDL
MODEL 2
REMARK VINA RESULT:     3.580      0.095      1.399
REMARK INTER + INTRA:           3.951
REMARK INTER:                   4.092
REMARK INTRA:                  -0.140
REMARK UNBOUND:                -0.151
REMARK SMILES O=C([O-])C=Cc1ccc(O)cc1
REMARK SMILES IDX 6 1 7 2 12 3 8 4 11 5 9 6 5 7 4 8 2 9 1 10 3 11 10 12
REMARK H PARENT 10 13
REMARK Flexibility Score: inf
ROOT
ATOM      1  C   UNL     1       0.726  -1.756  -0.007  1.00  0.00    -0.025 A 
ATOM      2  C   UNL     1       1.038  -1.474  -1.354  1.00  0.00     0.012 A 
ATOM      3  C   UNL     1      -0.442  -2.483   0.279  1.00  0.00     0.012 A 
ATOM      4  C   UNL     1       0.210  -1.935  -2.383  1.00  0.00     0.047 A 
ATOM      5  C   UNL     1      -1.266  -2.942  -0.752  1.00  0.00     0.047 A 
ATOM      6  C   UNL     1      -0.940  -2.670  -2.087  1.00  0.00     0.115 A 
ENDROOT
BRANCH   1   7
ATOM      7  C   UNL     1       1.563  -1.281   1.122  1.00  0.00     0.010 C 
ATOM      8  C   UNL     1       2.704  -0.596   0.968  1.00  0.00     0.025 C 
BRANCH   8   9
ATOM      9  C   UNL     1       3.509  -0.156   2.119  1.00  0.00     0.064 C 
ATOM     10  O   UNL     1       4.735  -0.431   2.160  1.00  0.00    -0.545 OA
ATOM     11  O   UNL     1       2.935   0.562   3.162  1.00  0.00    -0.545 OA
ENDBRANCH   8   9
ENDBRANCH   1   7
BRANCH   6  12
ATOM     12  O   UNL     1      -1.754  -3.122  -3.123  1.00  0.00    -0.508 OA
ATOM     13  H   UNL     1      -1.628  -4.039  -3.534  1.00  0.00     0.293 HD
ENDBRANCH   6  12
TORSDOF 3
ENDMDL
MODEL 3
REMARK VINA RESULT:     5.727      1.242      5.868
REMARK INTER + INTRA:           6.413
REMARK INTER:                   6.550
REMARK INTRA:                  -0.138
REMARK UNBOUND:                -0.151
REMARK SMILES O=C([O-])C=Cc1ccc(O)cc1
REMARK SMILES IDX 6 1 7 2 12 3 8 4 11 5 9 6 5 7 4 8 2 9 1 10 3 11 10 12
REMARK H PARENT 10 13
REMARK Flexibility Score: inf
ROOT
ATOM      1  C   UNL     1       1.669  -1.000   0.381  1.00  0.00    -0.025 A 
ATOM      2  C   UNL     1       2.858  -0.825  -0.360  1.00  0.00     0.012 A 
ATOM      3  C   UNL     1       1.729  -0.934   1.783  1.00  0.00     0.012 A 
ATOM      4  C   UNL     1       4.067  -0.566   0.295  1.00  0.00     0.047 A 
ATOM      5  C   UNL     1       2.939  -0.673   2.433  1.00  0.00     0.047 A 
ATOM      6  C   UNL     1       4.111  -0.487   1.689  1.00  0.00     0.115 A 
ENDROOT
BRANCH   1   7
ATOM      7  C   UNL     1       0.364  -1.288  -0.262  1.00  0.00     0.010 C 
ATOM      8  C   UNL     1       0.199  -2.181  -1.249  1.00  0.00     0.025 C 
BRANCH   8   9
ATOM      9  C   UNL     1      -1.114  -2.425  -1.865  1.00  0.00     0.064 C 
ATOM     10  O   UNL     1      -1.965  -3.124  -1.257  1.00  0.00    -0.545 OA
ATOM     11  O   UNL     1      -1.432  -1.895  -3.111  1.00  0.00    -0.545 OA
ENDBRANCH   8   9
ENDBRANCH   1   7
BRANCH   6  12
ATOM     12  O   UNL     1       5.322  -0.228   2.326  1.00  0.00    -0.508 OA
ATOM     13  H   UNL     1       5.761  -0.912   2.929  1.00  0.00     0.293 HD
ENDBRANCH   6  12
TORSDOF 3
ENDMDL
