MODEL 1
REMARK VINA RESULT:    -4.717      0.000      0.000
REMARK INTER + INTRA:          -9.962
REMARK INTER:                  -8.577
REMARK INTRA:                  -1.385
REMARK UNBOUND:                -1.385
REMARK SMILES CCCCCCCCCCCCCCCC(=O)[O-]
REMARK SMILES IDX 9 1 10 2 11 3 12 4 13 5 14 6 15 7 16 8 17 9 18 10 8 11 7 12
REMARK SMILES IDX 6 13 5 14 4 15 3 16 2 17 1 18
REMARK H PARENT
REMARK Flexibility Score: inf
ROOT
ATOM      1  C   UNL     1      21.419  22.329  18.811  1.00  0.00     0.000 C 
ENDROOT
BRANCH   1   2
ATOM      2  C   UNL     1      22.511  22.362  19.895  1.00  0.00     0.000 C 
BRANCH   2   3
ATOM      3  C   UNL     1      22.138  21.507  21.125  1.00  0.00     0.000 C 
BRANCH   3   4
ATOM      4  C   UNL     1      23.081  20.312  21.350  1.00  0.00     0.000 C 
BRANCH   4   5
ATOM      5  C   UNL     1      22.341  18.966  21.369  1.00  0.00     0.000 C 
BRANCH   5   6
ATOM      6  C   UNL     1      23.292  17.763  21.238  1.00  0.00     0.006 C 
BRANCH   6   7
ATOM      7  C   UNL     1      24.779  18.111  21.419  1.00  0.00     0.053 C 
BRANCH   7   8
ATOM      8  C   UNL     1      25.567  17.869  20.169  1.00  0.00     0.041 C 
ATOM      9  O   UNL     1      24.978  17.612  19.087  1.00  0.00    -0.550 OA
ATOM     10  O   UNL     1      26.953  17.959  20.192  1.00  0.00    -0.550 OA
ENDBRANCH   7   8
ENDBRANCH   6   7
ENDBRANCH   5   6
ENDBRANCH   4   5
ENDBRANCH   3   4
ENDBRANCH   2   3
ENDBRANCH   1   2
BRANCH   1  11
ATOM     11  C   UNL     1      21.374  23.614  17.965  1.00  0.00     0.000 C 
BRANCH  11  12
ATOM     12  C   UNL     1      20.889  24.871  18.711  1.00  0.00    -0.000 C 
BRANCH  12  13
ATOM     13  C   UNL     1      19.647  24.613  19.578  1.00  0.00    -0.000 C 
BRANCH  13  14
ATOM     14  C   UNL     1      19.942  24.683  21.087  1.00  0.00    -0.000 C 
BRANCH  14  15
ATOM     15  C   UNL     1      19.285  23.578  21.934  1.00  0.00    -0.000 C 
BRANCH  15  16
ATOM     16  C   UNL     1      18.509  22.555  21.087  1.00  0.00    -0.000 C 
BRANCH  16  17
ATOM     17  C   UNL     1      17.467  21.780  21.908  1.00  0.00    -0.003 C 
ATOM     18  C   UNL     1      17.348  22.292  23.343  1.00  0.00     0.004 C 
ENDBRANCH  16  17
ENDBRANCH  15  16
ENDBRANCH  14  15
ENDBRANCH  13  14
ENDBRANCH  12  13
ENDBRANCH  11  12
ENDBRANCH   1  11
TORSDOF 14
ENDMDL
MODEL 2
REMARK VINA RESULT:    -4.466      3.360      6.603
REMARK INTER + INTRA:          -9.507
REMARK INTER:                  -7.847
REMARK INTRA:                  -1.659
REMARK UNBOUND:                -1.385
REMARK SMILES CCCCCCCCCCCCCCCC(=O)[O-]
REMARK SMILES IDX 9 1 10 2 11 3 12 4 13 5 14 6 15 7 16 8 17 9 18 10 8 11 7 12
REMARK SMILES IDX 6 13 5 14 4 15 3 16 2 17 1 18
REMARK H PARENT
REMARK Flexibility Score: inf
ROOT
ATOM      1  C   UNL     1      20.875  24.426  19.137  1.00  0.00     0.000 C 
ENDROOT
BRANCH   1   2
ATOM      2  C   UNL     1      19.418  24.211  18.693  1.00  0.00     0.000 C 
BRANCH   2   3
ATOM      3  C   UNL     1      19.252  22.943  17.828  1.00  0.00     0.000 C 
BRANCH   3   4
ATOM      4  C   UNL     1      18.188  21.970  18.365  1.00  0.00     0.000 C 
BRANCH   4   5
ATOM      5  C   UNL     1      18.799  20.769  19.104  1.00  0.00     0.000 C 
BRANCH   5   6
ATOM      6  C   UNL     1      18.314  20.657  20.560  1.00  0.00     0.006 C 
BRANCH   6   7
ATOM      7  C   UNL     1      17.488  21.860  21.044  1.00  0.00     0.053 C 
BRANCH   7   8
ATOM      8  C   UNL     1      18.111  22.524  22.233  1.00  0.00     0.041 C 
ATOM      9  O   UNL     1      19.090  23.302  22.086  1.00  0.00    -0.550 OA
ATOM     10  O   UNL     1      17.589  22.311  23.503  1.00  0.00    -0.550 OA
ENDBRANCH   7   8
ENDBRANCH   6   7
ENDBRANCH   5   6
ENDBRANCH   4   5
ENDBRANCH   3   4
ENDBRANCH   2   3
ENDBRANCH   1   2
BRANCH   1  11
ATOM     11  C   UNL     1      21.682  23.116  19.204  1.00  0.00     0.000 C 
BRANCH  11  12
ATOM     12  C   UNL     1      22.176  22.723  20.609  1.00  0.00    -0.000 C 
BRANCH  12  13
ATOM     13  C   UNL     1      21.807  21.281  20.993  1.00  0.00    -0.000 C 
BRANCH  13  14
ATOM     14  C   UNL     1      23.017  20.329  20.989  1.00  0.00    -0.000 C 
BRANCH  14  15
ATOM     15  C   UNL     1      22.791  18.983  21.702  1.00  0.00    -0.000 C 
BRANCH  15  16
ATOM     16  C   UNL     1      23.773  17.890  21.247  1.00  0.00    -0.000 C 
BRANCH  16  17
ATOM     17  C   UNL     1      24.682  18.356  20.098  1.00  0.00    -0.003 C 
ATOM     18  C   UNL     1      26.164  18.126  20.390  1.00  0.00     0.004 C 
ENDBRANCH  16  17
ENDBRANCH  15  16
ENDBRANCH  14  15
ENDBRANCH  13  14
ENDBRANCH  12  13
ENDBRANCH  11  12
ENDBRANCH   1  11
TORSDOF 14
ENDMDL
MODEL 3
REMARK VINA RESULT:    -4.391      1.211      2.797
REMARK INTER + INTRA:          -9.369
REMARK INTER:                  -7.785
REMARK INTRA:                  -1.584
REMARK UNBOUND:                -1.385
REMARK SMILES CCCCCCCCCCCCCCCC(=O)[O-]
REMARK SMILES IDX 9 1 10 2 11 3 12 4 13 5 14 6 15 7 16 8 17 9 18 10 8 11 7 12
REMARK SMILES IDX 6 13 5 14 4 15 3 16 2 17 1 18
REMARK H PARENT
REMARK Flexibility Score: inf
ROOT
ATOM      1  C   UNL     1      20.214  21.798  21.000  1.00  0.00     0.000 C 
ENDROOT
BRANCH   1   2
ATOM      2  C   UNL     1      21.691  22.228  21.035  1.00  0.00     0.000 C 
BRANCH   2   3
ATOM      3  C   UNL     1      22.637  21.110  20.548  1.00  0.00     0.000 C 
BRANCH   3   4
ATOM      4  C   UNL     1      23.025  20.111  21.652  1.00  0.00     0.000 C 
BRANCH   4   5
ATOM      5  C   UNL     1      22.325  18.752  21.498  1.00  0.00     0.000 C 
BRANCH   5   6
ATOM      6  C   UNL     1      23.282  17.639  21.036  1.00  0.00     0.006 C 
BRANCH   6   7
ATOM      7  C   UNL     1      24.756  17.882  21.401  1.00  0.00     0.053 C 
BRANCH   7   8
ATOM      8  C   UNL     1      25.639  17.886  20.192  1.00  0.00     0.041 C 
ATOM      9  O   UNL     1      25.142  17.755  19.043  1.00  0.00    -0.550 OA
ATOM     10  O   UNL     1      27.009  18.069  20.331  1.00  0.00    -0.550 OA
ENDBRANCH   7   8
ENDBRANCH   6   7
ENDBRANCH   5   6
ENDBRANCH   4   5
ENDBRANCH   3   4
ENDBRANCH   2   3
ENDBRANCH   1   2
BRANCH   1  11
ATOM     11  C   UNL     1      19.242  22.991  20.940  1.00  0.00     0.000 C 
BRANCH  11  12
ATOM     12  C   UNL     1      19.824  24.333  21.421  1.00  0.00    -0.000 C 
BRANCH  12  13
ATOM     13  C   UNL     1      20.250  25.251  20.264  1.00  0.00    -0.000 C 
BRANCH  13  14
ATOM     14  C   UNL     1      19.807  24.726  18.886  1.00  0.00    -0.000 C 
BRANCH  14  15
ATOM     15  C   UNL     1      20.952  24.277  17.959  1.00  0.00    -0.000 C 
BRANCH  15  16
ATOM     16  C   UNL     1      20.738  22.868  17.381  1.00  0.00    -0.000 C 
BRANCH  16  17
ATOM     17  C   UNL     1      19.302  22.646  16.883  1.00  0.00    -0.003 C 
ATOM     18  C   UNL     1      18.604  21.489  17.596  1.00  0.00     0.004 C 
ENDBRANCH  16  17
ENDBRANCH  15  16
ENDBRANCH  14  15
ENDBRANCH  13  14
ENDBRANCH  12  13
ENDBRANCH  11  12
ENDBRANCH   1  11
TORSDOF 14
ENDMDL
MODEL 4
REMARK VINA RESULT:    -4.379      1.287      1.946
REMARK INTER + INTRA:          -9.347
REMARK INTER:                  -7.577
REMARK INTRA:                  -1.771
REMARK UNBOUND:                -1.385
REMARK SMILES CCCCCCCCCCCCCCCC(=O)[O-]
REMARK SMILES IDX 9 1 10 2 11 3 12 4 13 5 14 6 15 7 16 8 17 9 18 10 8 11 7 12
REMARK SMILES IDX 6 13 5 14 4 15 3 16 2 17 1 18
REMARK H PARENT
REMARK Flexibility Score: inf
ROOT
ATOM      1  C   UNL     1      22.492  22.865  20.107  1.00  0.00     0.000 C 
ENDROOT
BRANCH   1   2
ATOM      2  C   UNL     1      22.091  22.008  21.319  1.00  0.00     0.000 C 
BRANCH   2   3
ATOM      3  C   UNL     1      21.861  20.529  20.939  1.00  0.00     0.000 C 
BRANCH   3   4
ATOM      4  C   UNL     1      22.782  19.552  21.689  1.00  0.00     0.000 C 
BRANCH   4   5
ATOM      5  C   UNL     1      24.012  19.142  20.865  1.00  0.00     0.000 C 
BRANCH   5   6
ATOM      6  C   UNL     1      24.291  17.629  20.925  1.00  0.00     0.006 C 
BRANCH   6   7
ATOM      7  C   UNL     1      24.266  16.928  19.557  1.00  0.00     0.053 C 
BRANCH   7   8
ATOM      8  C   UNL     1      25.626  16.873  18.932  1.00  0.00     0.041 C 
ATOM      9  O   UNL     1      25.773  16.407  17.772  1.00  0.00    -0.550 OA
ATOM     10  O   UNL     1      26.728  17.369  19.618  1.00  0.00    -0.550 OA
ENDBRANCH   7   8
ENDBRANCH   6   7
ENDBRANCH   5   6
ENDBRANCH   4   5
ENDBRANCH   3   4
ENDBRANCH   2   3
ENDBRANCH   1   2
BRANCH   1  11
ATOM     11  C   UNL     1      21.799  22.425  18.804  1.00  0.00     0.000 C 
BRANCH  11  12
ATOM     12  C   UNL     1      21.406  23.570  17.852  1.00  0.00    -0.000 C 
BRANCH  12  13
ATOM     13  C   UNL     1      20.602  24.680  18.549  1.00  0.00    -0.000 C 
BRANCH  13  14
ATOM     14  C   UNL     1      19.184  24.233  18.949  1.00  0.00    -0.000 C 
BRANCH  14  15
ATOM     15  C   UNL     1      19.001  23.896  20.440  1.00  0.00    -0.000 C 
BRANCH  15  16
ATOM     16  C   UNL     1      18.392  22.502  20.670  1.00  0.00    -0.000 C 
BRANCH  16  17
ATOM     17  C   UNL     1      17.989  21.811  19.359  1.00  0.00    -0.003 C 
ATOM     18  C   UNL     1      18.721  20.487  19.142  1.00  0.00     0.004 C 
ENDBRANCH  16  17
ENDBRANCH  15  16
ENDBRANCH  14  15
ENDBRANCH  13  14
ENDBRANCH  12  13
ENDBRANCH  11  12
ENDBRANCH   1  11
TORSDOF 14
ENDMDL
MODEL 5
REMARK VINA RESULT:    -4.354      1.424      2.097
REMARK INTER + INTRA:          -9.303
REMARK INTER:                  -7.371
REMARK INTRA:                  -1.932
REMARK UNBOUND:                -1.385
REMARK SMILES CCCCCCCCCCCCCCCC(=O)[O-]
REMARK SMILES IDX 9 1 10 2 11 3 12 4 13 5 14 6 15 7 16 8 17 9 18 10 8 11 7 12
REMARK SMILES IDX 6 13 5 14 4 15 3 16 2 17 1 18
REMARK H PARENT
REMARK Flexibility Score: inf
ROOT
ATOM      1  C   UNL     1      21.384  23.428  20.047  1.00  0.00     0.000 C 
ENDROOT
BRANCH   1   2
ATOM      2  C   UNL     1      21.751  22.432  21.160  1.00  0.00     0.000 C 
BRANCH   2   3
ATOM      3  C   UNL     1      22.500  21.197  20.614  1.00  0.00     0.000 C 
BRANCH   3   4
ATOM      4  C   UNL     1      22.862  20.170  21.701  1.00  0.00     0.000 C 
BRANCH   4   5
ATOM      5  C   UNL     1      22.270  18.779  21.426  1.00  0.00     0.000 C 
BRANCH   5   6
ATOM      6  C   UNL     1      23.346  17.728  21.100  1.00  0.00     0.006 C 
BRANCH   6   7
ATOM      7  C   UNL     1      24.789  18.216  21.314  1.00  0.00     0.053 C 
BRANCH   7   8
ATOM      8  C   UNL     1      25.659  17.926  20.130  1.00  0.00     0.041 C 
ATOM      9  O   UNL     1      26.908  18.056  20.213  1.00  0.00    -0.550 OA
ATOM     10  O   UNL     1      25.092  17.479  18.943  1.00  0.00    -0.550 OA
ENDBRANCH   7   8
ENDBRANCH   6   7
ENDBRANCH   5   6
ENDBRANCH   4   5
ENDBRANCH   3   4
ENDBRANCH   2   3
ENDBRANCH   1   2
BRANCH   1  11
ATOM     11  C   UNL     1      21.749  22.919  18.640  1.00  0.00     0.000 C 
BRANCH  11  12
ATOM     12  C   UNL     1      20.805  23.376  17.513  1.00  0.00    -0.000 C 
BRANCH  12  13
ATOM     13  C   UNL     1      19.320  23.296  17.905  1.00  0.00    -0.000 C 
BRANCH  13  14
ATOM     14  C   UNL     1      18.654  21.979  17.466  1.00  0.00    -0.000 C 
BRANCH  14  15
ATOM     15  C   UNL     1      17.918  21.215  18.582  1.00  0.00    -0.000 C 
BRANCH  15  16
ATOM     16  C   UNL     1      18.873  20.617  19.630  1.00  0.00    -0.000 C 
BRANCH  16  17
ATOM     17  C   UNL     1      18.378  20.832  21.068  1.00  0.00    -0.003 C 
ATOM     18  C   UNL     1      18.031  22.291  21.360  1.00  0.00     0.004 C 
ENDBRANCH  16  17
ENDBRANCH  15  16
ENDBRANCH  14  15
ENDBRANCH  13  14
ENDBRANCH  12  13
ENDBRANCH  11  12
ENDBRANCH   1  11
TORSDOF 14
ENDMDL
MODEL 6
REMARK VINA RESULT:    -4.300      1.785      2.915
REMARK INTER + INTRA:          -9.204
REMARK INTER:                  -7.486
REMARK INTRA:                  -1.718
REMARK UNBOUND:                -1.385
REMARK SMILES CCCCCCCCCCCCCCCC(=O)[O-]
REMARK SMILES IDX 9 1 10 2 11 3 12 4 13 5 14 6 15 7 16 8 17 9 18 10 8 11 7 12
REMARK SMILES IDX 6 13 5 14 4 15 3 16 2 17 1 18
REMARK H PARENT
REMARK Flexibility Score: inf
ROOT
ATOM      1  C   UNL     1      20.077  24.401  21.205  1.00  0.00     0.000 C 
ENDROOT
BRANCH   1   2
ATOM      2  C   UNL     1      20.332  22.893  21.371  1.00  0.00     0.000 C 
BRANCH   2   3
ATOM      3  C   UNL     1      21.837  22.563  21.467  1.00  0.00     0.000 C 
BRANCH   3   4
ATOM      4  C   UNL     1      22.239  21.302  20.682  1.00  0.00     0.000 C 
BRANCH   4   5
ATOM      5  C   UNL     1      22.790  20.188  21.585  1.00  0.00     0.000 C 
BRANCH   5   6
ATOM      6  C   UNL     1      23.886  19.354  20.899  1.00  0.00     0.006 C 
BRANCH   6   7
ATOM      7  C   UNL     1      23.963  17.896  21.380  1.00  0.00     0.053 C 
BRANCH   7   8
ATOM      8  C   UNL     1      23.204  16.970  20.480  1.00  0.00     0.041 C 
ATOM      9  O   UNL     1      21.947  16.917  20.537  1.00  0.00    -0.550 OA
ATOM     10  O   UNL     1      23.882  16.189  19.553  1.00  0.00    -0.550 OA
ENDBRANCH   7   8
ENDBRANCH   6   7
ENDBRANCH   5   6
ENDBRANCH   4   5
ENDBRANCH   3   4
ENDBRANCH   2   3
ENDBRANCH   1   2
BRANCH   1  11
ATOM     11  C   UNL     1      19.768  24.802  19.751  1.00  0.00     0.000 C 
BRANCH  11  12
ATOM     12  C   UNL     1      20.982  24.815  18.804  1.00  0.00    -0.000 C 
BRANCH  12  13
ATOM     13  C   UNL     1      20.898  23.742  17.706  1.00  0.00    -0.000 C 
BRANCH  13  14
ATOM     14  C   UNL     1      19.540  23.728  16.982  1.00  0.00    -0.000 C 
BRANCH  14  15
ATOM     15  C   UNL     1      18.718  22.438  17.161  1.00  0.00    -0.000 C 
BRANCH  15  16
ATOM     16  C   UNL     1      19.301  21.498  18.230  1.00  0.00    -0.000 C 
BRANCH  16  17
ATOM     17  C   UNL     1      18.220  20.905  19.147  1.00  0.00    -0.003 C 
ATOM     18  C   UNL     1      18.743  19.756  20.007  1.00  0.00     0.004 C 
ENDBRANCH  16  17
ENDBRANCH  15  16
ENDBRANCH  14  15
ENDBRANCH  13  14
ENDBRANCH  12  13
ENDBRANCH  11  12
ENDBRANCH   1  11
TORSDOF 14
ENDMDL
MODEL 7
REMARK VINA RESULT:    -4.259      3.010      6.190
REMARK INTER + INTRA:          -9.130
REMARK INTER:                  -7.542
REMARK INTRA:                  -1.588
REMARK UNBOUND:                -1.385
REMARK SMILES CCCCCCCCCCCCCCCC(=O)[O-]
REMARK SMILES IDX 9 1 10 2 11 3 12 4 13 5 14 6 15 7 16 8 17 9 18 10 8 11 7 12
REMARK SMILES IDX 6 13 5 14 4 15 3 16 2 17 1 18
REMARK H PARENT
REMARK Flexibility Score: inf
ROOT
ATOM      1  C   UNL     1      21.121  24.221  18.531  1.00  0.00     0.000 C 
ENDROOT
BRANCH   1   2
ATOM      2  C   UNL     1      20.329  24.948  19.632  1.00  0.00     0.000 C 
BRANCH   2   3
ATOM      3  C   UNL     1      19.131  24.116  20.137  1.00  0.00     0.000 C 
BRANCH   3   4
ATOM      4  C   UNL     1      19.212  23.771  21.635  1.00  0.00     0.000 C 
BRANCH   4   5
ATOM      5  C   UNL     1      18.446  22.489  21.993  1.00  0.00     0.000 C 
BRANCH   5   6
ATOM      6  C   UNL     1      18.009  21.691  20.751  1.00  0.00     0.006 C 
BRANCH   6   7
ATOM      7  C   UNL     1      18.655  20.300  20.636  1.00  0.00     0.053 C 
BRANCH   7   8
ATOM      8  C   UNL     1      17.726  19.213  21.079  1.00  0.00     0.041 C 
ATOM      9  O   UNL     1      16.919  18.695  20.263  1.00  0.00    -0.550 OA
ATOM     10  O   UNL     1      17.775  18.746  22.387  1.00  0.00    -0.550 OA
ENDBRANCH   7   8
ENDBRANCH   6   7
ENDBRANCH   5   6
ENDBRANCH   4   5
ENDBRANCH   3   4
ENDBRANCH   2   3
ENDBRANCH   1   2
BRANCH   1  11
ATOM     11  C   UNL     1      21.442  22.758  18.890  1.00  0.00     0.000 C 
BRANCH  11  12
ATOM     12  C   UNL     1      22.485  22.572  20.006  1.00  0.00    -0.000 C 
BRANCH  12  13
ATOM     13  C   UNL     1      22.054  21.542  21.064  1.00  0.00    -0.000 C 
BRANCH  13  14
ATOM     14  C   UNL     1      23.009  20.338  21.155  1.00  0.00    -0.000 C 
BRANCH  14  15
ATOM     15  C   UNL     1      22.346  19.007  21.552  1.00  0.00    -0.000 C 
BRANCH  15  16
ATOM     16  C   UNL     1      23.187  17.778  21.166  1.00  0.00    -0.000 C 
BRANCH  16  17
ATOM     17  C   UNL     1      24.682  17.969  21.466  1.00  0.00    -0.003 C 
ATOM     18  C   UNL     1      25.547  17.912  20.208  1.00  0.00     0.004 C 
ENDBRANCH  16  17
ENDBRANCH  15  16
ENDBRANCH  14  15
ENDBRANCH  13  14
ENDBRANCH  12  13
ENDBRANCH  11  12
ENDBRANCH   1  11
TORSDOF 14
ENDMDL
MODEL 8
REMARK VINA RESULT:    -4.204      2.772      5.772
REMARK INTER + INTRA:          -9.030
REMARK INTER:                  -7.107
REMARK INTRA:                  -1.922
REMARK UNBOUND:                -1.385
REMARK SMILES CCCCCCCCCCCCCCCC(=O)[O-]
REMARK SMILES IDX 9 1 10 2 11 3 12 4 13 5 14 6 15 7 16 8 17 9 18 10 8 11 7 12
REMARK SMILES IDX 6 13 5 14 4 15 3 16 2 17 1 18
REMARK H PARENT
REMARK Flexibility Score: inf
ROOT
ATOM      1  C   UNL     1      20.951  24.808  19.224  1.00  0.00     0.000 C 
ENDROOT
BRANCH   1   2
ATOM      2  C   UNL     1      20.273  24.553  17.866  1.00  0.00     0.000 C 
BRANCH   2   3
ATOM      3  C   UNL     1      20.462  23.098  17.383  1.00  0.00     0.000 C 
BRANCH   3   4
ATOM      4  C   UNL     1      19.143  22.403  17.002  1.00  0.00     0.000 C 
BRANCH   4   5
ATOM      5  C   UNL     1      18.276  22.061  18.223  1.00  0.00     0.000 C 
BRANCH   5   6
ATOM      6  C   UNL     1      18.739  20.781  18.942  1.00  0.00     0.006 C 
BRANCH   6   7
ATOM      7  C   UNL     1      18.295  20.687  20.411  1.00  0.00     0.053 C 
BRANCH   7   8
ATOM      8  C   UNL     1      18.541  19.325  20.984  1.00  0.00     0.041 C 
ATOM      9  O   UNL     1      17.969  18.971  22.047  1.00  0.00    -0.550 OA
ATOM     10  O   UNL     1      19.377  18.434  20.323  1.00  0.00    -0.550 OA
ENDBRANCH   7   8
ENDBRANCH   6   7
ENDBRANCH   5   6
ENDBRANCH   4   5
ENDBRANCH   3   4
ENDBRANCH   2   3
ENDBRANCH   1   2
BRANCH   1  11
ATOM     11  C   UNL     1      20.054  24.443  20.421  1.00  0.00     0.000 C 
BRANCH  11  12
ATOM     12  C   UNL     1      20.594  23.320  21.325  1.00  0.00    -0.000 C 
BRANCH  12  13
ATOM     13  C   UNL     1      21.956  22.778  20.860  1.00  0.00    -0.000 C 
BRANCH  13  14
ATOM     14  C   UNL     1      21.954  21.254  20.644  1.00  0.00    -0.000 C 
BRANCH  14  15
ATOM     15  C   UNL     1      22.852  20.457  21.607  1.00  0.00    -0.000 C 
BRANCH  15  16
ATOM     16  C   UNL     1      22.623  18.938  21.523  1.00  0.00    -0.000 C 
BRANCH  16  17
ATOM     17  C   UNL     1      23.934  18.152  21.369  1.00  0.00    -0.003 C 
ATOM     18  C   UNL     1      24.766  18.623  20.176  1.00  0.00     0.004 C 
ENDBRANCH  16  17
ENDBRANCH  15  16
ENDBRANCH  14  15
ENDBRANCH  13  14
ENDBRANCH  12  13
ENDBRANCH  11  12
ENDBRANCH   1  11
TORSDOF 14
ENDMDL
MODEL 9
REMARK VINA RESULT:    -4.179      1.647      2.459
REMARK INTER + INTRA:          -8.985
REMARK INTER:                  -7.174
REMARK INTRA:                  -1.811
REMARK UNBOUND:                -1.385
REMARK SMILES CCCCCCCCCCCCCCCC(=O)[O-]
REMARK SMILES IDX 9 1 10 2 11 3 12 4 13 5 14 6 15 7 16 8 17 9 18 10 8 11 7 12
REMARK SMILES IDX 6 13 5 14 4 15 3 16 2 17 1 18
REMARK H PARENT
REMARK Flexibility Score: inf
ROOT
ATOM      1  C   UNL     1      21.038  24.624  18.129  1.00  0.00     0.000 C 
ENDROOT
BRANCH   1   2
ATOM      2  C   UNL     1      20.959  23.975  19.522  1.00  0.00     0.000 C 
BRANCH   2   3
ATOM      3  C   UNL     1      21.932  22.785  19.668  1.00  0.00     0.000 C 
BRANCH   3   4
ATOM      4  C   UNL     1      22.107  22.312  21.121  1.00  0.00     0.000 C 
BRANCH   4   5
ATOM      5  C   UNL     1      22.001  20.786  21.267  1.00  0.00     0.000 C 
BRANCH   5   6
ATOM      6  C   UNL     1      23.354  20.075  21.078  1.00  0.00     0.006 C 
BRANCH   6   7
ATOM      7  C   UNL     1      23.299  18.552  21.277  1.00  0.00     0.053 C 
BRANCH   7   8
ATOM      8  C   UNL     1      24.361  17.846  20.491  1.00  0.00     0.041 C 
ATOM      9  O   UNL     1      24.170  16.673  20.078  1.00  0.00    -0.550 OA
ATOM     10  O   UNL     1      25.548  18.498  20.184  1.00  0.00    -0.550 OA
ENDBRANCH   7   8
ENDBRANCH   6   7
ENDBRANCH   5   6
ENDBRANCH   4   5
ENDBRANCH   3   4
ENDBRANCH   2   3
ENDBRANCH   1   2
BRANCH   1  11
ATOM     11  C   UNL     1      19.997  24.061  17.144  1.00  0.00     0.000 C 
BRANCH  11  12
ATOM     12  C   UNL     1      18.773  23.394  17.797  1.00  0.00    -0.000 C 
BRANCH  12  13
ATOM     13  C   UNL     1      18.709  21.879  17.544  1.00  0.00    -0.000 C 
BRANCH  13  14
ATOM     14  C   UNL     1      17.915  21.122  18.625  1.00  0.00    -0.000 C 
BRANCH  14  15
ATOM     15  C   UNL     1      18.759  20.225  19.548  1.00  0.00    -0.000 C 
BRANCH  15  16
ATOM     16  C   UNL     1      18.376  20.361  21.031  1.00  0.00    -0.000 C 
BRANCH  16  17
ATOM     17  C   UNL     1      17.597  21.652  21.323  1.00  0.00    -0.003 C 
ATOM     18  C   UNL     1      18.469  22.737  21.955  1.00  0.00     0.004 C 
ENDBRANCH  16  17
ENDBRANCH  15  16
ENDBRANCH  14  15
ENDBRANCH  13  14
ENDBRANCH  12  13
ENDBRANCH  11  12
ENDBRANCH   1  11
TORSDOF 14
ENDMDL
