MODEL 1
REMARK VINA RESULT:     0.208      0.000      0.000
REMARK INTER + INTRA:           0.798
REMARK INTER:                   0.245
REMARK INTRA:                   0.553
REMARK UNBOUND:                 0.553
REMARK SMILES O=c1c(O)c(-c2ccc(O)cc2)oc2cc(O)cc(O)c12
REMARK SMILES IDX 5 1 3 2 2 3 1 4 21 5 19 6 18 7 16 8 15 9 14 10 13 11 6 12
REMARK SMILES IDX 7 13 8 14 9 15 12 16 11 17 10 18 4 20 20 22 17 24
REMARK H PARENT 10 19 4 21 20 23 17 25
REMARK Flexibility Score: inf
ROOT
ATOM      1  C   UNL     1      30.620  37.949  47.005  1.00  0.00     0.180 A 
ATOM      2  C   UNL     1      29.667  36.915  46.956  1.00  0.00     0.208 A 
ATOM      3  C   UNL     1      30.111  35.583  46.930  1.00  0.00     0.238 A 
ATOM      4  O   UNL     1      29.265  34.648  46.896  1.00  0.00    -0.285 OA
ATOM      5  C   UNL     1      31.494  35.310  46.931  1.00  0.00     0.111 A 
ATOM      6  C   UNL     1      32.024  33.998  46.900  1.00  0.00     0.134 A 
ATOM      7  C   UNL     1      33.414  33.808  46.894  1.00  0.00     0.093 A 
ATOM      8  C   UNL     1      34.282  34.906  46.918  1.00  0.00     0.123 A 
ATOM      9  C   UNL     1      33.764  36.201  46.949  1.00  0.00     0.094 A 
ATOM     10  C   UNL     1      32.382  36.411  46.956  1.00  0.00     0.146 A 
ATOM     11  O   UNL     1      31.916  37.654  46.991  1.00  0.00    -0.452 OA
ENDROOT
BRANCH   1  12
ATOM     12  C   UNL     1      30.231  39.378  47.056  1.00  0.00     0.021 A 
ATOM     13  C   UNL     1      28.879  39.719  47.231  1.00  0.00     0.016 A 
ATOM     14  C   UNL     1      28.486  41.061  47.260  1.00  0.00     0.047 A 
ATOM     15  C   UNL     1      29.434  42.075  47.100  1.00  0.00     0.115 A 
ATOM     16  C   UNL     1      31.177  40.403  46.876  1.00  0.00     0.016 A 
ATOM     17  C   UNL     1      30.780  41.743  46.905  1.00  0.00     0.047 A 
BRANCH  15  18
ATOM     18  O   UNL     1      29.028  43.407  47.132  1.00  0.00    -0.508 OA
ATOM     19  H   UNL     1      28.120  43.693  46.781  1.00  0.00     0.293 HD
ENDBRANCH  15  18
ENDBRANCH   1  12
BRANCH   2  20
ATOM     20  O   UNL     1      28.302  37.213  46.906  1.00  0.00    -0.502 OA
ATOM     21  H   UNL     1      27.927  37.938  46.307  1.00  0.00     0.293 HD
ENDBRANCH   2  20
BRANCH   6  22
ATOM     22  O   UNL     1      31.183  32.884  46.875  1.00  0.00    -0.507 OA
ATOM     23  H   UNL     1      30.253  32.908  47.279  1.00  0.00     0.293 HD
ENDBRANCH   6  22
BRANCH   8  24
ATOM     24  O   UNL     1      35.662  34.718  46.912  1.00  0.00    -0.508 OA
ATOM     25  H   UNL     1      36.224  34.886  47.738  1.00  0.00     0.293 HD
ENDBRANCH   8  24
TORSDOF 5
ENDMDL
MODEL 2
REMARK VINA RESULT:     2.557      1.270      6.508
REMARK INTER + INTRA:           3.559
REMARK INTER:                   2.986
REMARK INTRA:                   0.573
REMARK UNBOUND:                 0.553
REMARK SMILES O=c1c(O)c(-c2ccc(O)cc2)oc2cc(O)cc(O)c12
REMARK SMILES IDX 5 1 3 2 2 3 1 4 21 5 19 6 18 7 16 8 15 9 14 10 13 11 6 12
REMARK SMILES IDX 7 13 8 14 9 15 12 16 11 17 10 18 4 20 20 22 17 24
REMARK H PARENT 10 19 4 21 20 23 17 25
REMARK Flexibility Score: inf
ROOT
ATOM      1  C   UNL     1      32.400  35.757  47.094  1.00  0.00     0.180 A 
ATOM      2  C   UNL     1      31.163  35.089  47.173  1.00  0.00     0.208 A 
ATOM      3  C   UNL     1      29.984  35.848  47.225  1.00  0.00     0.238 A 
ATOM      4  O   UNL     1      28.870  35.260  47.286  1.00  0.00    -0.285 OA
ATOM      5  C   UNL     1      30.061  37.256  47.220  1.00  0.00     0.111 A 
ATOM      6  C   UNL     1      28.921  38.094  47.276  1.00  0.00     0.134 A 
ATOM      7  C   UNL     1      29.081  39.488  47.276  1.00  0.00     0.093 A 
ATOM      8  C   UNL     1      30.358  40.057  47.222  1.00  0.00     0.123 A 
ATOM      9  C   UNL     1      31.485  39.236  47.166  1.00  0.00     0.094 A 
ATOM     10  C   UNL     1      31.346  37.844  47.164  1.00  0.00     0.146 A 
ATOM     11  O   UNL     1      32.435  37.086  47.105  1.00  0.00    -0.452 OA
ENDROOT
BRANCH   1  12
ATOM     12  C   UNL     1      33.686  35.026  47.014  1.00  0.00     0.021 A 
ATOM     13  C   UNL     1      33.688  33.623  47.077  1.00  0.00     0.016 A 
ATOM     14  C   UNL     1      34.893  32.914  47.026  1.00  0.00     0.047 A 
ATOM     15  C   UNL     1      36.108  33.597  46.927  1.00  0.00     0.115 A 
ATOM     16  C   UNL     1      34.914  35.709  46.935  1.00  0.00     0.016 A 
ATOM     17  C   UNL     1      36.116  34.997  46.884  1.00  0.00     0.047 A 
BRANCH  15  18
ATOM     18  O   UNL     1      37.299  32.877  46.876  1.00  0.00    -0.508 OA
ATOM     19  H   UNL     1      37.386  31.966  47.311  1.00  0.00     0.293 HD
ENDBRANCH  15  18
ENDBRANCH   1  12
BRANCH   2  20
ATOM     20  O   UNL     1      31.116  33.693  47.226  1.00  0.00    -0.502 OA
ATOM     21  H   UNL     1      30.431  33.194  47.780  1.00  0.00     0.293 HD
ENDBRANCH   2  20
BRANCH   6  22
ATOM     22  O   UNL     1      27.635  37.554  47.331  1.00  0.00    -0.507 OA
ATOM     23  H   UNL     1      27.186  37.159  46.513  1.00  0.00     0.293 HD
ENDBRANCH   6  22
BRANCH   8  24
ATOM     24  O   UNL     1      30.518  41.442  47.222  1.00  0.00    -0.508 OA
ATOM     25  H   UNL     1      30.130  42.020  47.958  1.00  0.00     0.293 HD
ENDBRANCH   8  24
TORSDOF 5
ENDMDL
