MODEL 1
REMARK VINA RESULT:    -3.752      0.000      0.000
REMARK INTER + INTRA:          -5.628
REMARK INTER:                  -5.069
REMARK INTRA:                  -0.560
REMARK UNBOUND:                -0.560
REMARK SMILES C=C[C@@](C)(CCC=C(C)C)OC(C)=O
REMARK SMILES IDX 3 1 4 2 5 3 6 4 7 5 9 6 8 7 10 8 2 9 1 10 11 11 12 12 14 13
REMARK SMILES IDX 13 14
REMARK H PARENT
REMARK Flexibility Score: inf
ROOT
ATOM      1  C   UNL     1      21.352  52.438  55.152  1.00  0.00     0.127 C 
ATOM      2  C   UNL     1      21.738  53.634  56.046  1.00  0.00     0.061 C 
ENDROOT
BRANCH   1   3
ATOM      3  C   UNL     1      22.141  52.506  53.815  1.00  0.00     0.057 C 
BRANCH   3   4
ATOM      4  C   UNL     1      21.378  51.879  52.634  1.00  0.00     0.032 C 
BRANCH   4   5
ATOM      5  C   UNL     1      22.326  51.160  51.708  1.00  0.00    -0.028 C 
ATOM      6  C   UNL     1      21.226  52.043  49.639  1.00  0.00     0.039 C 
ATOM      7  C   UNL     1      22.255  51.204  50.359  1.00  0.00    -0.080 C 
ATOM      8  C   UNL     1      23.250  50.402  49.561  1.00  0.00     0.039 C 
ENDBRANCH   4   5
ENDBRANCH   3   4
ENDBRANCH   1   3
BRANCH   1   9
ATOM      9  C   UNL     1      21.715  51.161  55.891  1.00  0.00     0.013 C 
ATOM     10  C   UNL     1      22.892  50.548  55.719  1.00  0.00     0.008 C 
ENDBRANCH   1   9
BRANCH   1  11
ATOM     11  O   UNL     1      19.935  52.428  54.914  1.00  0.00    -0.455 OA
BRANCH  11  12
ATOM     12  C   UNL     1      19.090  53.548  54.897  1.00  0.00     0.303 C 
ATOM     13  O   UNL     1      19.192  54.436  54.009  1.00  0.00    -0.253 OA
ATOM     14  C   UNL     1      18.075  53.708  55.978  1.00  0.00     0.139 C 
ENDBRANCH  11  12
ENDBRANCH   1  11
TORSDOF 6
ENDMDL
MODEL 2
REMARK VINA RESULT:    -3.726      2.243      5.581
REMARK INTER + INTRA:          -5.593
REMARK INTER:                  -5.043
REMARK INTRA:                  -0.549
REMARK UNBOUND:                -0.560
REMARK SMILES C=C[C@@](C)(CCC=C(C)C)OC(C)=O
REMARK SMILES IDX 3 1 4 2 5 3 6 4 7 5 9 6 8 7 10 8 2 9 1 10 11 11 12 12 14 13
REMARK SMILES IDX 13 14
REMARK H PARENT
REMARK Flexibility Score: inf
ROOT
ATOM      1  C   UNL     1      22.176  51.938  50.924  1.00  0.00     0.127 C 
ATOM      2  C   UNL     1      21.181  52.029  49.749  1.00  0.00     0.061 C 
ENDROOT
BRANCH   1   3
ATOM      3  C   UNL     1      21.410  51.605  52.235  1.00  0.00     0.057 C 
BRANCH   3   4
ATOM      4  C   UNL     1      21.718  52.589  53.378  1.00  0.00     0.032 C 
BRANCH   4   5
ATOM      5  C   UNL     1      20.450  53.212  53.902  1.00  0.00    -0.028 C 
ATOM      6  C   UNL     1      20.319  51.671  55.873  1.00  0.00     0.039 C 
ATOM      7  C   UNL     1      19.796  52.795  55.009  1.00  0.00    -0.080 C 
ATOM      8  C   UNL     1      18.515  53.492  55.393  1.00  0.00     0.039 C 
ENDBRANCH   4   5
ENDBRANCH   3   4
ENDBRANCH   1   3
BRANCH   1   9
ATOM      9  C   UNL     1      23.165  50.825  50.618  1.00  0.00     0.013 C 
ATOM     10  C   UNL     1      23.465  50.464  49.366  1.00  0.00     0.008 C 
ENDBRANCH   1   9
BRANCH   1  11
ATOM     11  O   UNL     1      22.911  53.165  51.055  1.00  0.00    -0.455 OA
BRANCH  11  12
ATOM     12  C   UNL     1      22.627  54.374  50.402  1.00  0.00     0.303 C 
ATOM     13  O   UNL     1      21.768  55.179  50.852  1.00  0.00    -0.253 OA
ATOM     14  C   UNL     1      23.331  54.694  49.127  1.00  0.00     0.139 C 
ENDBRANCH  11  12
ENDBRANCH   1  11
TORSDOF 6
ENDMDL
MODEL 3
REMARK VINA RESULT:    -3.679      1.584      2.318
REMARK INTER + INTRA:          -5.530
REMARK INTER:                  -4.542
REMARK INTRA:                  -0.988
REMARK UNBOUND:                -0.560
REMARK SMILES C=C[C@@](C)(CCC=C(C)C)OC(C)=O
REMARK SMILES IDX 3 1 4 2 5 3 6 4 7 5 9 6 8 7 10 8 2 9 1 10 11 11 12 12 14 13
REMARK SMILES IDX 13 14
REMARK H PARENT
REMARK Flexibility Score: inf
ROOT
ATOM      1  C   UNL     1      21.752  53.127  53.227  1.00  0.00     0.127 C 
ATOM      2  C   UNL     1      21.227  54.336  52.427  1.00  0.00     0.061 C 
ENDROOT
BRANCH   1   3
ATOM      3  C   UNL     1      21.284  51.808  52.555  1.00  0.00     0.057 C 
BRANCH   3   4
ATOM      4  C   UNL     1      21.149  51.926  51.026  1.00  0.00     0.032 C 
BRANCH   4   5
ATOM      5  C   UNL     1      22.020  50.910  50.333  1.00  0.00    -0.028 C 
ATOM      6  C   UNL     1      23.761  52.598  49.704  1.00  0.00     0.039 C 
ATOM      7  C   UNL     1      23.186  51.201  49.713  1.00  0.00    -0.080 C 
ATOM      8  C   UNL     1      23.934  50.085  49.029  1.00  0.00     0.039 C 
ENDBRANCH   4   5
ENDBRANCH   3   4
ENDBRANCH   1   3
BRANCH   1   9
ATOM      9  C   UNL     1      23.271  53.186  53.225  1.00  0.00     0.013 C 
ATOM     10  C   UNL     1      24.025  52.144  53.593  1.00  0.00     0.008 C 
ENDBRANCH   1   9
BRANCH   1  11
ATOM     11  O   UNL     1      21.306  53.198  54.591  1.00  0.00    -0.455 OA
BRANCH  11  12
ATOM     12  C   UNL     1      20.131  52.631  55.109  1.00  0.00     0.303 C 
ATOM     13  O   UNL     1      20.145  51.523  55.708  1.00  0.00    -0.253 OA
ATOM     14  C   UNL     1      18.835  53.340  54.910  1.00  0.00     0.139 C 
ENDBRANCH  11  12
ENDBRANCH   1  11
TORSDOF 6
ENDMDL
MODEL 4
REMARK VINA RESULT:    -3.656      1.576      2.216
REMARK INTER + INTRA:          -5.498
REMARK INTER:                  -4.629
REMARK INTRA:                  -0.870
REMARK UNBOUND:                -0.560
REMARK SMILES C=C[C@@](C)(CCC=C(C)C)OC(C)=O
REMARK SMILES IDX 3 1 4 2 5 3 6 4 7 5 9 6 8 7 10 8 2 9 1 10 11 11 12 12 14 13
REMARK SMILES IDX 13 14
REMARK H PARENT
REMARK Flexibility Score: inf
ROOT
ATOM      1  C   UNL     1      21.628  52.568  54.111  1.00  0.00     0.127 C 
ATOM      2  C   UNL     1      22.211  52.603  55.539  1.00  0.00     0.061 C 
ENDROOT
BRANCH   1   3
ATOM      3  C   UNL     1      22.177  53.767  53.290  1.00  0.00     0.057 C 
BRANCH   3   4
ATOM      4  C   UNL     1      21.217  54.223  52.176  1.00  0.00     0.032 C 
BRANCH   4   5
ATOM      5  C   UNL     1      21.962  54.435  50.883  1.00  0.00    -0.028 C 
ATOM      6  C   UNL     1      21.238  52.237  49.923  1.00  0.00     0.039 C 
ATOM      7  C   UNL     1      22.000  53.540  49.870  1.00  0.00    -0.080 C 
ATOM      8  C   UNL     1      22.818  53.873  48.648  1.00  0.00     0.039 C 
ENDBRANCH   4   5
ENDBRANCH   3   4
ENDBRANCH   1   3
BRANCH   1   9
ATOM      9  C   UNL     1      22.061  51.266  53.458  1.00  0.00     0.013 C 
ATOM     10  C   UNL     1      23.237  51.139  52.832  1.00  0.00     0.008 C 
ENDBRANCH   1   9
BRANCH   1  11
ATOM     11  O   UNL     1      20.192  52.588  54.156  1.00  0.00    -0.455 OA
BRANCH  11  12
ATOM     12  C   UNL     1      19.403  52.869  55.282  1.00  0.00     0.303 C 
ATOM     13  O   UNL     1      19.101  51.973  56.114  1.00  0.00    -0.253 OA
ATOM     14  C   UNL     1      18.878  54.251  55.473  1.00  0.00     0.139 C 
ENDBRANCH  11  12
ENDBRANCH   1  11
TORSDOF 6
ENDMDL
MODEL 5
REMARK VINA RESULT:    -3.574     12.785     14.577
REMARK INTER + INTRA:          -5.387
REMARK INTER:                  -4.576
REMARK INTRA:                  -0.811
REMARK UNBOUND:                -0.560
REMARK SMILES C=C[C@@](C)(CCC=C(C)C)OC(C)=O
REMARK SMILES IDX 3 1 4 2 5 3 6 4 7 5 9 6 8 7 10 8 2 9 1 10 11 11 12 12 14 13
REMARK SMILES IDX 13 14
REMARK H PARENT
REMARK Flexibility Score: inf
ROOT
ATOM      1  C   UNL     1      19.656  54.040  40.355  1.00  0.00     0.127 C 
ATOM      2  C   UNL     1      19.990  52.777  41.175  1.00  0.00     0.061 C 
ENDROOT
BRANCH   1   3
ATOM      3  C   UNL     1      18.969  53.635  39.022  1.00  0.00     0.057 C 
BRANCH   3   4
ATOM      4  C   UNL     1      19.882  53.812  37.796  1.00  0.00     0.032 C 
BRANCH   4   5
ATOM      5  C   UNL     1      19.986  52.525  37.018  1.00  0.00    -0.028 C 
ATOM      6  C   UNL     1      22.058  51.784  38.215  1.00  0.00     0.039 C 
ATOM      7  C   UNL     1      20.972  51.615  37.178  1.00  0.00    -0.080 C 
ATOM      8  C   UNL     1      20.968  50.389  36.301  1.00  0.00     0.039 C 
ENDBRANCH   4   5
ENDBRANCH   3   4
ENDBRANCH   1   3
BRANCH   1   9
ATOM      9  C   UNL     1      18.705  54.896  41.176  1.00  0.00     0.013 C 
ATOM     10  C   UNL     1      18.007  55.902  40.638  1.00  0.00     0.008 C 
ENDBRANCH   1   9
BRANCH   1  11
ATOM     11  O   UNL     1      20.846  54.807  40.110  1.00  0.00    -0.455 OA
BRANCH  11  12
ATOM     12  C   UNL     1      21.906  55.003  41.009  1.00  0.00     0.303 C 
ATOM     13  O   UNL     1      21.834  55.857  41.933  1.00  0.00    -0.253 OA
ATOM     14  C   UNL     1      23.156  54.209  40.841  1.00  0.00     0.139 C 
ENDBRANCH  11  12
ENDBRANCH   1  11
TORSDOF 6
ENDMDL
MODEL 6
REMARK VINA RESULT:    -3.518      2.747      5.571
REMARK INTER + INTRA:          -5.312
REMARK INTER:                  -4.398
REMARK INTRA:                  -0.914
REMARK UNBOUND:                -0.560
REMARK SMILES C=C[C@@](C)(CCC=C(C)C)OC(C)=O
REMARK SMILES IDX 3 1 4 2 5 3 6 4 7 5 9 6 8 7 10 8 2 9 1 10 11 11 12 12 14 13
REMARK SMILES IDX 13 14
REMARK H PARENT
REMARK Flexibility Score: inf
ROOT
ATOM      1  C   UNL     1      22.576  52.970  51.669  1.00  0.00     0.127 C 
ATOM      2  C   UNL     1      23.680  53.490  52.613  1.00  0.00     0.061 C 
ENDROOT
BRANCH   1   3
ATOM      3  C   UNL     1      22.044  51.605  52.185  1.00  0.00     0.057 C 
BRANCH   3   4
ATOM      4  C   UNL     1      22.366  51.356  53.670  1.00  0.00     0.032 C 
BRANCH   4   5
ATOM      5  C   UNL     1      21.101  51.287  54.486  1.00  0.00    -0.028 C 
ATOM      6  C   UNL     1      21.432  53.561  55.484  1.00  0.00     0.039 C 
ATOM      7  C   UNL     1      20.680  52.260  55.325  1.00  0.00    -0.080 C 
ATOM      8  C   UNL     1      19.411  52.036  56.107  1.00  0.00     0.039 C 
ENDBRANCH   4   5
ENDBRANCH   3   4
ENDBRANCH   1   3
BRANCH   1   9
ATOM      9  C   UNL     1      21.446  53.985  51.661  1.00  0.00     0.013 C 
ATOM     10  C   UNL     1      21.651  55.282  51.917  1.00  0.00     0.008 C 
ENDBRANCH   1   9
BRANCH   1  11
ATOM     11  O   UNL     1      23.079  52.853  50.328  1.00  0.00    -0.455 OA
BRANCH  11  12
ATOM     12  C   UNL     1      22.626  51.956  49.348  1.00  0.00     0.303 C 
ATOM     13  O   UNL     1      21.564  52.168  48.704  1.00  0.00    -0.253 OA
ATOM     14  C   UNL     1      23.399  50.707  49.094  1.00  0.00     0.139 C 
ENDBRANCH  11  12
ENDBRANCH   1  11
TORSDOF 6
ENDMDL
MODEL 7
REMARK VINA RESULT:    -3.486      2.641      5.407
REMARK INTER + INTRA:          -5.268
REMARK INTER:                  -4.380
REMARK INTRA:                  -0.888
REMARK UNBOUND:                -0.560
REMARK SMILES C=C[C@@](C)(CCC=C(C)C)OC(C)=O
REMARK SMILES IDX 3 1 4 2 5 3 6 4 7 5 9 6 8 7 10 8 2 9 1 10 11 11 12 12 14 13
REMARK SMILES IDX 13 14
REMARK H PARENT
REMARK Flexibility Score: inf
ROOT
ATOM      1  C   UNL     1      22.590  52.119  52.417  1.00  0.00     0.127 C 
ATOM      2  C   UNL     1      21.229  51.593  51.918  1.00  0.00     0.061 C 
ENDROOT
BRANCH   1   3
ATOM      3  C   UNL     1      22.490  53.643  52.705  1.00  0.00     0.057 C 
BRANCH   3   4
ATOM      4  C   UNL     1      21.119  54.236  52.337  1.00  0.00     0.032 C 
BRANCH   4   5
ATOM      5  C   UNL     1      20.628  55.160  53.423  1.00  0.00    -0.028 C 
ATOM      6  C   UNL     1      19.191  53.404  54.485  1.00  0.00     0.039 C 
ATOM      7  C   UNL     1      19.743  54.807  54.381  1.00  0.00    -0.080 C 
ATOM      8  C   UNL     1      19.314  55.849  55.382  1.00  0.00     0.039 C 
ENDBRANCH   4   5
ENDBRANCH   3   4
ENDBRANCH   1   3
BRANCH   1   9
ATOM      9  C   UNL     1      22.937  51.382  53.700  1.00  0.00     0.013 C 
ATOM     10  C   UNL     1      21.998  50.878  54.509  1.00  0.00     0.008 C 
ENDBRANCH   1   9
BRANCH   1  11
ATOM     11  O   UNL     1      23.618  51.843  51.452  1.00  0.00    -0.455 OA
BRANCH  11  12
ATOM     12  C   UNL     1      23.445  51.743  50.063  1.00  0.00     0.303 C 
ATOM     13  O   UNL     1      23.163  52.751  49.361  1.00  0.00    -0.253 OA
ATOM     14  C   UNL     1      23.560  50.407  49.411  1.00  0.00     0.139 C 
ENDBRANCH  11  12
ENDBRANCH   1  11
TORSDOF 6
ENDMDL
MODEL 8
REMARK VINA RESULT:    -3.416      1.696      2.645
REMARK INTER + INTRA:          -5.174
REMARK INTER:                  -4.559
REMARK INTRA:                  -0.615
REMARK UNBOUND:                -0.560
REMARK SMILES C=C[C@@](C)(CCC=C(C)C)OC(C)=O
REMARK SMILES IDX 3 1 4 2 5 3 6 4 7 5 9 6 8 7 10 8 2 9 1 10 11 11 12 12 14 13
REMARK SMILES IDX 13 14
REMARK H PARENT
REMARK Flexibility Score: inf
ROOT
ATOM      1  C   UNL     1      21.237  52.114  54.949  1.00  0.00     0.127 C 
ATOM      2  C   UNL     1      22.082  50.824  54.938  1.00  0.00     0.061 C 
ENDROOT
BRANCH   1   3
ATOM      3  C   UNL     1      20.733  52.424  53.512  1.00  0.00     0.057 C 
BRANCH   3   4
ATOM      4  C   UNL     1      21.458  51.604  52.430  1.00  0.00     0.032 C 
BRANCH   4   5
ATOM      5  C   UNL     1      21.285  52.240  51.074  1.00  0.00    -0.028 C 
ATOM      6  C   UNL     1      22.810  50.607  49.940  1.00  0.00     0.039 C 
ATOM      7  C   UNL     1      21.905  51.817  49.949  1.00  0.00    -0.080 C 
ATOM      8  C   UNL     1      21.664  52.575  48.668  1.00  0.00     0.039 C 
ENDBRANCH   4   5
ENDBRANCH   3   4
ENDBRANCH   1   3
BRANCH   1   9
ATOM      9  C   UNL     1      20.047  51.889  55.867  1.00  0.00     0.013 C 
ATOM     10  C   UNL     1      18.957  52.665  55.824  1.00  0.00     0.008 C 
ENDBRANCH   1   9
BRANCH   1  11
ATOM     11  O   UNL     1      22.004  53.210  55.474  1.00  0.00    -0.455 OA
BRANCH  11  12
ATOM     12  C   UNL     1      22.239  54.438  54.836  1.00  0.00     0.303 C 
ATOM     13  O   UNL     1      23.224  54.603  54.068  1.00  0.00    -0.253 OA
ATOM     14  C   UNL     1      21.321  55.582  55.104  1.00  0.00     0.139 C 
ENDBRANCH  11  12
ENDBRANCH   1  11
TORSDOF 6
ENDMDL
MODEL 9
REMARK VINA RESULT:    -3.366     12.302     14.626
REMARK INTER + INTRA:          -5.107
REMARK INTER:                  -4.118
REMARK INTRA:                  -0.989
REMARK UNBOUND:                -0.560
REMARK SMILES C=C[C@@](C)(CCC=C(C)C)OC(C)=O
REMARK SMILES IDX 3 1 4 2 5 3 6 4 7 5 9 6 8 7 10 8 2 9 1 10 11 11 12 12 14 13
REMARK SMILES IDX 13 14
REMARK H PARENT
REMARK Flexibility Score: inf
ROOT
ATOM      1  C   UNL     1      21.876  54.352  40.112  1.00  0.00     0.127 C 
ATOM      2  C   UNL     1      23.069  54.881  39.289  1.00  0.00     0.061 C 
ENDROOT
BRANCH   1   3
ATOM      3  C   UNL     1      21.880  52.799  40.103  1.00  0.00     0.057 C 
BRANCH   3   4
ATOM      4  C   UNL     1      22.857  52.205  39.073  1.00  0.00     0.032 C 
BRANCH   4   5
ATOM      5  C   UNL     1      22.145  51.247  38.152  1.00  0.00    -0.028 C 
ATOM      6  C   UNL     1      21.872  52.949  36.335  1.00  0.00     0.039 C 
ATOM      7  C   UNL     1      21.675  51.573  36.928  1.00  0.00    -0.080 C 
ATOM      8  C   UNL     1      20.949  50.519  36.132  1.00  0.00     0.039 C 
ENDBRANCH   4   5
ENDBRANCH   3   4
ENDBRANCH   1   3
BRANCH   1   9
ATOM      9  C   UNL     1      22.031  54.852  41.538  1.00  0.00     0.013 C 
ATOM     10  C   UNL     1      23.148  54.651  42.247  1.00  0.00     0.008 C 
ENDBRANCH   1   9
BRANCH   1  11
ATOM     11  O   UNL     1      20.640  54.868  39.590  1.00  0.00    -0.455 OA
BRANCH  11  12
ATOM     12  C   UNL     1      19.388  54.238  39.652  1.00  0.00     0.303 C 
ATOM     13  O   UNL     1      18.715  54.215  40.717  1.00  0.00    -0.253 OA
ATOM     14  C   UNL     1      18.862  53.548  38.440  1.00  0.00     0.139 C 
ENDBRANCH  11  12
ENDBRANCH   1  11
TORSDOF 6
ENDMDL
