MODEL 1
REMARK VINA RESULT:    -2.815      0.000      0.000
REMARK INTER + INTRA:          -2.815
REMARK INTER:                  -2.815
REMARK INTRA:                   0.000
REMARK UNBOUND:                 0.000
REMARK SMILES CC1(C)O[C@]2(C)CC[C@H]1CC2
REMARK SMILES IDX 1 1 2 2 9 3 8 4 7 5 5 6 4 7 11 8 10 9 6 10 3 11
REMARK H PARENT
REMARK Flexibility Score: inf
ROOT
ATOM      1  C   UNL     1     111.923 113.301 109.732  1.00  0.00     0.042 C 
ATOM      2  C   UNL     1     110.529 113.503 109.098  1.00  0.00     0.066 C 
ATOM      3  C   UNL     1     110.586 113.261 107.540  1.00  0.00     0.021 C 
ATOM      4  C   UNL     1     111.520 114.324 106.913  1.00  0.00     0.009 C 
ATOM      5  C   UNL     1     111.080 115.731 107.387  1.00  0.00     0.035 C 
ATOM      6  C   UNL     1     109.796 115.615 108.258  1.00  0.00     0.066 C 
ATOM      7  O   UNL     1     110.083 114.830 109.415  1.00  0.00    -0.369 OA
ATOM      8  C   UNL     1     108.683 114.914 107.427  1.00  0.00     0.035 C 
ATOM      9  C   UNL     1     109.179 113.526 106.952  1.00  0.00     0.009 C 
ATOM     10  C   UNL     1     109.330 117.004 108.706  1.00  0.00     0.042 C 
ATOM     11  C   UNL     1     109.569 112.499 109.771  1.00  0.00     0.042 C 
ENDROOT
TORSDOF 0
ENDMDL
MODEL 2
REMARK VINA RESULT:    -2.812      7.202      8.811
REMARK INTER + INTRA:          -2.812
REMARK INTER:                  -2.812
REMARK INTRA:                   0.000
REMARK UNBOUND:                 0.000
REMARK SMILES CC1(C)O[C@]2(C)CC[C@H]1CC2
REMARK SMILES IDX 1 1 2 2 9 3 8 4 7 5 5 6 4 7 11 8 10 9 6 10 3 11
REMARK H PARENT
REMARK Flexibility Score: inf
ROOT
ATOM      1  C   UNL     1     118.751 111.901 109.719  1.00  0.00     0.042 C 
ATOM      2  C   UNL     1     118.532 110.520 109.063  1.00  0.00     0.066 C 
ATOM      3  C   UNL     1     118.773 110.599 107.506  1.00  0.00     0.021 C 
ATOM      4  C   UNL     1     117.721 111.556 106.895  1.00  0.00     0.009 C 
ATOM      5  C   UNL     1     116.309 111.125 107.364  1.00  0.00     0.035 C 
ATOM      6  C   UNL     1     116.410 109.826 108.215  1.00  0.00     0.066 C 
ATOM      7  O   UNL     1     117.201 110.084 109.375  1.00  0.00    -0.369 OA
ATOM      8  C   UNL     1     117.097 108.717 107.365  1.00  0.00     0.035 C 
ATOM      9  C   UNL     1     118.491 109.205 106.896  1.00  0.00     0.009 C 
ATOM     10  C   UNL     1     115.017 109.369 108.657  1.00  0.00     0.042 C 
ATOM     11  C   UNL     1     119.526 109.538 109.720  1.00  0.00     0.042 C 
ENDROOT
TORSDOF 0
ENDMDL
MODEL 3
REMARK VINA RESULT:    -2.811      7.179      8.773
REMARK INTER + INTRA:          -2.811
REMARK INTER:                  -2.811
REMARK INTRA:                   0.000
REMARK UNBOUND:                 0.000
REMARK SMILES CC1(C)O[C@]2(C)CC[C@H]1CC2
REMARK SMILES IDX 1 1 2 2 9 3 8 4 7 5 5 6 4 7 11 8 10 9 6 10 3 11
REMARK H PARENT
REMARK Flexibility Score: inf
ROOT
ATOM      1  C   UNL     1     113.303 120.102 109.766  1.00  0.00     0.042 C 
ATOM      2  C   UNL     1     113.503 121.469 109.075  1.00  0.00     0.066 C 
ATOM      3  C   UNL     1     113.276 121.345 107.519  1.00  0.00     0.021 C 
ATOM      4  C   UNL     1     114.349 120.392 106.942  1.00  0.00     0.009 C 
ATOM      5  C   UNL     1     115.749 120.859 107.409  1.00  0.00     0.035 C 
ATOM      6  C   UNL     1     115.619 122.178 108.224  1.00  0.00     0.066 C 
ATOM      7  O   UNL     1     114.824 121.936 109.385  1.00  0.00    -0.369 OA
ATOM      8  C   UNL     1     114.919 123.252 107.341  1.00  0.00     0.035 C 
ATOM      9  C   UNL     1     113.538 122.728 106.875  1.00  0.00     0.009 C 
ATOM     10  C   UNL     1     117.000 122.671 108.665  1.00  0.00     0.042 C 
ATOM     11  C   UNL     1     112.487 122.451 109.699  1.00  0.00     0.042 C 
ENDROOT
TORSDOF 0
ENDMDL
MODEL 4
REMARK VINA RESULT:    -2.798     11.006     12.426
REMARK INTER + INTRA:          -2.798
REMARK INTER:                  -2.798
REMARK INTRA:                   0.000
REMARK UNBOUND:                 0.000
REMARK SMILES CC1(C)O[C@]2(C)CC[C@H]1CC2
REMARK SMILES IDX 1 1 2 2 9 3 8 4 7 5 5 6 4 7 11 8 10 9 6 10 3 11
REMARK H PARENT
REMARK Flexibility Score: inf
ROOT
ATOM      1  C   UNL     1     120.100 118.678 109.764  1.00  0.00     0.042 C 
ATOM      2  C   UNL     1     121.481 118.468 109.103  1.00  0.00     0.066 C 
ATOM      3  C   UNL     1     121.386 118.664 107.540  1.00  0.00     0.021 C 
ATOM      4  C   UNL     1     120.445 117.578 106.966  1.00  0.00     0.009 C 
ATOM      5  C   UNL     1     120.907 116.188 107.470  1.00  0.00     0.035 C 
ATOM      6  C   UNL     1     122.210 116.338 108.307  1.00  0.00     0.066 C 
ATOM      7  O   UNL     1     121.944 117.154 109.447  1.00  0.00    -0.369 OA
ATOM      8  C   UNL     1     123.298 117.022 107.430  1.00  0.00     0.035 C 
ATOM      9  C   UNL     1     122.780 118.393 106.927  1.00  0.00     0.009 C 
ATOM     10  C   UNL     1     122.697 114.966 108.783  1.00  0.00     0.042 C 
ATOM     11  C   UNL     1     122.449 119.498 109.725  1.00  0.00     0.042 C 
ENDROOT
TORSDOF 0
ENDMDL
MODEL 5
REMARK VINA RESULT:    -2.578     11.081     12.263
REMARK INTER + INTRA:          -2.578
REMARK INTER:                  -2.578
REMARK INTRA:                   0.000
REMARK UNBOUND:                 0.000
REMARK SMILES CC1(C)O[C@]2(C)CC[C@H]1CC2
REMARK SMILES IDX 1 1 2 2 9 3 8 4 7 5 5 6 4 7 11 8 10 9 6 10 3 11
REMARK H PARENT
REMARK Flexibility Score: inf
ROOT
ATOM      1  C   UNL     1     123.952 118.170 107.972  1.00  0.00     0.042 C 
ATOM      2  C   UNL     1     122.648 118.801 108.511  1.00  0.00     0.066 C 
ATOM      3  C   UNL     1     121.766 117.716 109.242  1.00  0.00     0.021 C 
ATOM      4  C   UNL     1     121.349 116.644 108.206  1.00  0.00     0.009 C 
ATOM      5  C   UNL     1     120.721 117.344 106.976  1.00  0.00     0.035 C 
ATOM      6  C   UNL     1     120.635 118.877 107.229  1.00  0.00     0.066 C 
ATOM      7  O   UNL     1     121.952 119.398 107.407  1.00  0.00    -0.369 OA
ATOM      8  C   UNL     1     119.805 119.131 108.521  1.00  0.00     0.035 C 
ATOM      9  C   UNL     1     120.455 118.389 109.715  1.00  0.00     0.009 C 
ATOM     10  C   UNL     1     119.984 119.578 106.033  1.00  0.00     0.042 C 
ATOM     11  C   UNL     1     123.053 119.925 109.489  1.00  0.00     0.042 C 
ENDROOT
TORSDOF 0
ENDMDL
MODEL 6
REMARK VINA RESULT:    -2.569      7.966      9.543
REMARK INTER + INTRA:          -2.569
REMARK INTER:                  -2.569
REMARK INTRA:                   0.000
REMARK UNBOUND:                 0.000
REMARK SMILES CC1(C)O[C@]2(C)CC[C@H]1CC2
REMARK SMILES IDX 1 1 2 2 9 3 8 4 7 5 5 6 4 7 11 8 10 9 6 10 3 11
REMARK H PARENT
REMARK Flexibility Score: inf
ROOT
ATOM      1  C   UNL     1     118.123 108.087 108.002  1.00  0.00     0.042 C 
ATOM      2  C   UNL     1     118.761 109.387 108.540  1.00  0.00     0.066 C 
ATOM      3  C   UNL     1     117.671 110.300 109.223  1.00  0.00     0.021 C 
ATOM      4  C   UNL     1     116.640 110.720 108.148  1.00  0.00     0.009 C 
ATOM      5  C   UNL     1     117.389 111.316 106.931  1.00  0.00     0.035 C 
ATOM      6  C   UNL     1     118.914 111.378 107.229  1.00  0.00     0.066 C 
ATOM      7  O   UNL     1     119.404 110.054 107.444  1.00  0.00    -0.369 OA
ATOM      8  C   UNL     1     119.144 112.223 108.516  1.00  0.00     0.035 C 
ATOM      9  C   UNL     1     118.354 111.606 109.696  1.00  0.00     0.009 C 
ATOM     10  C   UNL     1     119.664 111.997 106.046  1.00  0.00     0.042 C 
ATOM     11  C   UNL     1     119.847 108.978 109.558  1.00  0.00     0.042 C 
ENDROOT
TORSDOF 0
ENDMDL
MODEL 7
REMARK VINA RESULT:    -2.565      1.428      3.259
REMARK INTER + INTRA:          -2.565
REMARK INTER:                  -2.565
REMARK INTRA:                   0.000
REMARK UNBOUND:                 0.000
REMARK SMILES CC1(C)O[C@]2(C)CC[C@H]1CC2
REMARK SMILES IDX 1 1 2 2 9 3 8 4 7 5 5 6 4 7 11 8 10 9 6 10 3 11
REMARK H PARENT
REMARK Flexibility Score: inf
ROOT
ATOM      1  C   UNL     1     108.118 113.870 107.900  1.00  0.00     0.042 C 
ATOM      2  C   UNL     1     109.387 113.223 108.498  1.00  0.00     0.066 C 
ATOM      3  C   UNL     1     110.277 114.307 109.221  1.00  0.00     0.021 C 
ATOM      4  C   UNL     1     110.753 115.333 108.164  1.00  0.00     0.009 C 
ATOM      5  C   UNL     1     111.398 114.577 106.977  1.00  0.00     0.035 C 
ATOM      6  C   UNL     1     111.435 113.052 107.281  1.00  0.00     0.066 C 
ATOM      7  O   UNL     1     110.099 112.572 107.436  1.00  0.00    -0.369 OA
ATOM      8  C   UNL     1     112.218 112.818 108.605  1.00  0.00     0.035 C 
ATOM      9  C   UNL     1     111.554 113.615 109.755  1.00  0.00     0.009 C 
ATOM     10  C   UNL     1     112.102 112.294 106.128  1.00  0.00     0.042 C 
ATOM     11  C   UNL     1     108.923 112.143 109.499  1.00  0.00     0.042 C 
ENDROOT
TORSDOF 0
ENDMDL
MODEL 8
REMARK VINA RESULT:    -2.563      6.400      8.250
REMARK INTER + INTRA:          -2.563
REMARK INTER:                  -2.563
REMARK INTRA:                   0.000
REMARK UNBOUND:                 0.000
REMARK SMILES CC1(C)O[C@]2(C)CC[C@H]1CC2
REMARK SMILES IDX 1 1 2 2 9 3 8 4 7 5 5 6 4 7 11 8 10 9 6 10 3 11
REMARK H PARENT
REMARK Flexibility Score: inf
ROOT
ATOM      1  C   UNL     1     113.847 123.869 107.940  1.00  0.00     0.042 C 
ATOM      2  C   UNL     1     113.221 122.582 108.523  1.00  0.00     0.066 C 
ATOM      3  C   UNL     1     114.328 121.673 109.183  1.00  0.00     0.021 C 
ATOM      4  C   UNL     1     115.319 121.229 108.080  1.00  0.00     0.009 C 
ATOM      5  C   UNL     1     114.524 120.617 106.900  1.00  0.00     0.035 C 
ATOM      6  C   UNL     1     113.009 120.570 107.253  1.00  0.00     0.066 C 
ATOM      7  O   UNL     1     112.535 121.900 107.462  1.00  0.00    -0.369 OA
ATOM      8  C   UNL     1     112.820 119.749 108.562  1.00  0.00     0.035 C 
ATOM      9  C   UNL     1     113.655 120.380 109.703  1.00  0.00     0.009 C 
ATOM     10  C   UNL     1     112.215 119.936 106.108  1.00  0.00     0.042 C 
ATOM     11  C   UNL     1     112.174 123.016 109.572  1.00  0.00     0.042 C 
ENDROOT
TORSDOF 0
ENDMDL
MODEL 9
REMARK VINA RESULT:    -2.488      1.460      3.409
REMARK INTER + INTRA:          -2.488
REMARK INTER:                  -2.488
REMARK INTRA:                   0.000
REMARK UNBOUND:                 0.000
REMARK SMILES CC1(C)O[C@]2(C)CC[C@H]1CC2
REMARK SMILES IDX 1 1 2 2 9 3 8 4 7 5 5 6 4 7 11 8 10 9 6 10 3 11
REMARK H PARENT
REMARK Flexibility Score: inf
ROOT
ATOM      1  C   UNL     1     109.185 115.297 106.269  1.00  0.00     0.042 C 
ATOM      2  C   UNL     1     109.452 114.710 107.673  1.00  0.00     0.066 C 
ATOM      3  C   UNL     1     110.599 113.628 107.615  1.00  0.00     0.021 C 
ATOM      4  C   UNL     1     110.122 112.456 106.724  1.00  0.00     0.009 C 
ATOM      5  C   UNL     1     108.734 111.978 107.214  1.00  0.00     0.035 C 
ATOM      6  C   UNL     1     108.323 112.770 108.489  1.00  0.00     0.066 C 
ATOM      7  O   UNL     1     108.224 114.157 108.167  1.00  0.00    -0.369 OA
ATOM      8  C   UNL     1     109.416 112.576 109.579  1.00  0.00     0.035 C 
ATOM      9  C   UNL     1     110.790 113.040 109.033  1.00  0.00     0.009 C 
ATOM     10  C   UNL     1     106.966 112.283 109.004  1.00  0.00     0.042 C 
ATOM     11  C   UNL     1     109.855 115.884 108.591  1.00  0.00     0.042 C 
ENDROOT
TORSDOF 0
ENDMDL
