MODEL 1
REMARK VINA RESULT:    -7.084      0.000      0.000
REMARK INTER + INTRA:         -12.176
REMARK INTER:                 -10.397
REMARK INTRA:                  -1.779
REMARK UNBOUND:                -1.779
REMARK SMILES O=c1c(O[C@H]2O[C@H](CO)[C@H](O)[C@@H](O)[C@@H]2O)c(-c2ccc(O)c(O)c2)oc2cc(O)cc(O)c12
REMARK SMILES IDX 4 1 3 2 16 3 25 4 2 5 26 6 1 7 33 8 27 9 31 10 28 11 30 12
REMARK SMILES IDX 17 13 18 14 19 15 20 16 24 17 22 18 21 19 23 21 32 23 29 25
REMARK SMILES IDX 5 27 14 28 6 29 12 30 7 31 10 32 15 33 13 35 8 37 9 38 11 40
REMARK H PARENT 21 20 23 22 32 24 29 26 15 34 13 36 9 39 11 41
REMARK Flexibility Score: inf
ROOT
ATOM      1  O   UNL     1      -0.492 -21.067  26.342  1.00  0.00    -0.454 OA
ENDROOT
BRANCH   1   2
ATOM      2  C   UNL     1      -0.709 -19.699  26.557  1.00  0.00     0.214 A 
ATOM      3  C   UNL     1      -0.591 -19.164  27.855  1.00  0.00     0.180 A 
ATOM      4  O   UNL     1      -0.606 -17.843  28.023  1.00  0.00    -0.452 OA
ATOM      5  C   UNL     1      -0.966 -18.826  25.484  1.00  0.00     0.239 A 
ATOM      6  C   UNL     1      -0.770 -16.979  27.028  1.00  0.00     0.146 A 
ATOM      7  O   UNL     1      -1.088 -19.307  24.327  1.00  0.00    -0.285 OA
ATOM      8  C   UNL     1      -1.029 -17.432  25.711  1.00  0.00     0.111 A 
ATOM      9  C   UNL     1      -0.682 -15.610  27.300  1.00  0.00     0.094 A 
ATOM     10  C   UNL     1      -1.254 -16.467  24.686  1.00  0.00     0.134 A 
ATOM     11  C   UNL     1      -0.819 -14.672  26.275  1.00  0.00     0.123 A 
ATOM     12  C   UNL     1      -1.085 -15.105  24.970  1.00  0.00     0.093 A 
BRANCH   3  13
ATOM     13  C   UNL     1      -0.371 -20.016  29.054  1.00  0.00     0.025 A 
ATOM     14  C   UNL     1       0.942 -20.320  29.458  1.00  0.00     0.016 A 
ATOM     15  C   UNL     1       1.178 -21.098  30.598  1.00  0.00     0.051 A 
ATOM     16  C   UNL     1       0.107 -21.592  31.350  1.00  0.00     0.157 A 
ATOM     17  C   UNL     1      -1.442 -20.499  29.826  1.00  0.00     0.062 A 
ATOM     18  C   UNL     1      -1.210 -21.291  30.956  1.00  0.00     0.158 A 
BRANCH  16  19
ATOM     19  O   UNL     1       0.338 -22.357  32.495  1.00  0.00    -0.504 OA
ATOM     20  H   UNL     1       1.276 -22.624  32.776  1.00  0.00     0.293 HD
ENDBRANCH  16  19
BRANCH  18  21
ATOM     21  O   UNL     1      -2.309 -21.747  31.690  1.00  0.00    -0.504 OA
ATOM     22  H   UNL     1      -2.462 -21.476  32.655  1.00  0.00     0.293 HD
ENDBRANCH  18  21
ENDBRANCH   3  13
BRANCH  10  23
ATOM     23  O   UNL     1      -1.638 -16.806  23.385  1.00  0.00    -0.507 OA
ATOM     24  H   UNL     1      -1.846 -16.119  22.671  1.00  0.00     0.293 HD
ENDBRANCH  10  23
BRANCH  11  25
ATOM     25  O   UNL     1      -0.713 -13.315  26.570  1.00  0.00    -0.508 OA
ATOM     26  H   UNL     1      -0.119 -12.981  27.316  1.00  0.00     0.293 HD
ENDBRANCH  11  25
ENDBRANCH   1   2
BRANCH   1  27
ATOM     27  C   UNL     1       0.700 -21.595  25.749  1.00  0.00     0.339 C 
ATOM     28  C   UNL     1       0.322 -22.507  24.548  1.00  0.00     0.214 C 
ATOM     29  O   UNL     1       1.484 -22.253  26.741  1.00  0.00    -0.332 OA
ATOM     30  C   UNL     1       1.293 -23.699  24.448  1.00  0.00     0.180 C 
ATOM     31  C   UNL     1       0.992 -23.558  26.979  1.00  0.00     0.179 C 
ATOM     32  C   UNL     1       1.368 -24.481  25.789  1.00  0.00     0.177 C 
BRANCH  28  33
ATOM     33  O   UNL     1       0.335 -21.776  23.348  1.00  0.00    -0.384 OA
ATOM     34  H   UNL     1       1.293 -21.629  23.123  1.00  0.00     0.211 HD
ENDBRANCH  28  33
BRANCH  30  35
ATOM     35  O   UNL     1       0.878 -24.549  23.410  1.00  0.00    -0.387 OA
ATOM     36  H   UNL     1      -0.066 -24.320  23.207  1.00  0.00     0.211 HD
ENDBRANCH  30  35
BRANCH  31  37
ATOM     37  C   UNL     1       1.501 -24.072  28.337  1.00  0.00     0.191 C 
BRANCH  37  38
ATOM     38  O   UNL     1       2.803 -23.610  28.596  1.00  0.00    -0.394 OA
ATOM     39  H   UNL     1       3.428 -24.312  28.285  1.00  0.00     0.210 HD
ENDBRANCH  37  38
ENDBRANCH  31  37
BRANCH  32  40
ATOM     40  O   UNL     1       2.672 -24.987  25.945  1.00  0.00    -0.387 OA
ATOM     41  H   UNL     1       2.965 -24.782  26.876  1.00  0.00     0.211 HD
ENDBRANCH  32  40
ENDBRANCH   1  27
TORSDOF 12
ENDMDL
MODEL 2
REMARK VINA RESULT:    -6.957      3.858      8.935
REMARK INTER + INTRA:         -11.990
REMARK INTER:                 -10.282
REMARK INTRA:                  -1.708
REMARK UNBOUND:                -1.779
REMARK SMILES O=c1c(O[C@H]2O[C@H](CO)[C@H](O)[C@@H](O)[C@@H]2O)c(-c2ccc(O)c(O)c2)oc2cc(O)cc(O)c12
REMARK SMILES IDX 4 1 3 2 16 3 25 4 2 5 26 6 1 7 33 8 27 9 31 10 28 11 30 12
REMARK SMILES IDX 17 13 18 14 19 15 20 16 24 17 22 18 21 19 23 21 32 23 29 25
REMARK SMILES IDX 5 27 14 28 6 29 12 30 7 31 10 32 15 33 13 35 8 37 9 38 11 40
REMARK H PARENT 21 20 23 22 32 24 29 26 15 34 13 36 9 39 11 41
REMARK Flexibility Score: inf
ROOT
ATOM      1  O   UNL     1      -0.521 -14.097  27.213  1.00  0.00    -0.454 OA
ENDROOT
BRANCH   1   2
ATOM      2  C   UNL     1      -0.757 -15.473  27.080  1.00  0.00     0.214 A 
ATOM      3  C   UNL     1      -1.957 -16.031  27.565  1.00  0.00     0.180 A 
ATOM      4  O   UNL     1      -2.260 -17.292  27.266  1.00  0.00    -0.452 OA
ATOM      5  C   UNL     1       0.149 -16.303  26.396  1.00  0.00     0.239 A 
ATOM      6  C   UNL     1      -1.468 -18.090  26.558  1.00  0.00     0.146 A 
ATOM      7  O   UNL     1       1.229 -15.808  25.978  1.00  0.00    -0.285 OA
ATOM      8  C   UNL     1      -0.185 -17.654  26.144  1.00  0.00     0.111 A 
ATOM      9  C   UNL     1      -1.920 -19.370  26.225  1.00  0.00     0.094 A 
ATOM     10  C   UNL     1       0.652 -18.563  25.435  1.00  0.00     0.134 A 
ATOM     11  C   UNL     1      -1.128 -20.225  25.456  1.00  0.00     0.123 A 
ATOM     12  C   UNL     1       0.146 -19.811  25.048  1.00  0.00     0.093 A 
BRANCH   3  13
ATOM     13  C   UNL     1      -2.948 -15.242  28.343  1.00  0.00     0.025 A 
ATOM     14  C   UNL     1      -2.804 -15.131  29.739  1.00  0.00     0.016 A 
ATOM     15  C   UNL     1      -3.708 -14.372  30.493  1.00  0.00     0.051 A 
ATOM     16  C   UNL     1      -4.773 -13.717  29.868  1.00  0.00     0.157 A 
ATOM     17  C   UNL     1      -4.011 -14.565  27.720  1.00  0.00     0.062 A 
ATOM     18  C   UNL     1      -4.924 -13.819  28.473  1.00  0.00     0.158 A 
BRANCH  16  19
ATOM     19  O   UNL     1      -5.669 -12.948  30.615  1.00  0.00    -0.504 OA
ATOM     20  H   UNL     1      -6.111 -13.311  31.453  1.00  0.00     0.293 HD
ENDBRANCH  16  19
BRANCH  18  21
ATOM     21  O   UNL     1      -5.963 -13.165  27.805  1.00  0.00    -0.504 OA
ATOM     22  H   UNL     1      -6.049 -12.154  27.801  1.00  0.00     0.293 HD
ENDBRANCH  18  21
ENDBRANCH   3  13
BRANCH  10  23
ATOM     23  O   UNL     1       1.977 -18.276  25.090  1.00  0.00    -0.507 OA
ATOM     24  H   UNL     1       2.466 -17.449  25.407  1.00  0.00     0.293 HD
ENDBRANCH  10  23
BRANCH  11  25
ATOM     25  O   UNL     1      -1.609 -21.491  25.126  1.00  0.00    -0.508 OA
ATOM     26  H   UNL     1      -2.512 -21.617  24.692  1.00  0.00     0.293 HD
ENDBRANCH  11  25
ENDBRANCH   1   2
BRANCH   1  27
ATOM     27  C   UNL     1      -0.967 -13.124  26.263  1.00  0.00     0.339 C 
ATOM     28  C   UNL     1       0.265 -12.439  25.605  1.00  0.00     0.214 C 
ATOM     29  O   UNL     1      -1.860 -12.208  26.890  1.00  0.00    -0.332 OA
ATOM     30  C   UNL     1      -0.029 -10.954  25.323  1.00  0.00     0.180 C 
ATOM     31  C   UNL     1      -1.142 -11.221  27.604  1.00  0.00     0.179 C 
ATOM     32  C   UNL     1      -0.503 -10.218  26.607  1.00  0.00     0.177 C 
BRANCH  28  33
ATOM     33  O   UNL     1       0.616 -13.094  24.412  1.00  0.00    -0.384 OA
ATOM     34  H   UNL     1      -0.055 -13.818  24.284  1.00  0.00     0.211 HD
ENDBRANCH  28  33
BRANCH  30  35
ATOM     35  O   UNL     1       1.127 -10.343  24.809  1.00  0.00    -0.387 OA
ATOM     36  H   UNL     1       1.674 -10.057  25.586  1.00  0.00     0.211 HD
ENDBRANCH  30  35
BRANCH  31  37
ATOM     37  C   UNL     1      -2.058 -10.551  28.643  1.00  0.00     0.191 C 
BRANCH  37  38
ATOM     38  O   UNL     1      -3.383 -10.481  28.176  1.00  0.00    -0.394 OA
ATOM     39  H   UNL     1      -3.363 -10.699  27.211  1.00  0.00     0.210 HD
ENDBRANCH  37  38
ENDBRANCH  31  37
BRANCH  32  40
ATOM     40  O   UNL     1      -1.428  -9.223  26.242  1.00  0.00    -0.387 OA
ATOM     41  H   UNL     1      -1.414  -9.148  25.247  1.00  0.00     0.211 HD
ENDBRANCH  32  40
ENDBRANCH   1  27
TORSDOF 12
ENDMDL
MODEL 3
REMARK VINA RESULT:    -6.945      5.292      9.709
REMARK INTER + INTRA:         -11.973
REMARK INTER:                 -10.636
REMARK INTRA:                  -1.336
REMARK UNBOUND:                -1.779
REMARK SMILES O=c1c(O[C@H]2O[C@H](CO)[C@H](O)[C@@H](O)[C@@H]2O)c(-c2ccc(O)c(O)c2)oc2cc(O)cc(O)c12
REMARK SMILES IDX 4 1 3 2 16 3 25 4 2 5 26 6 1 7 33 8 27 9 31 10 28 11 30 12
REMARK SMILES IDX 17 13 18 14 19 15 20 16 24 17 22 18 21 19 23 21 32 23 29 25
REMARK SMILES IDX 5 27 14 28 6 29 12 30 7 31 10 32 15 33 13 35 8 37 9 38 11 40
REMARK H PARENT 21 20 23 22 32 24 29 26 15 34 13 36 9 39 11 41
REMARK Flexibility Score: inf
ROOT
ATOM      1  O   UNL     1      -3.233 -13.634  29.539  1.00  0.00    -0.454 OA
ENDROOT
BRANCH   1   2
ATOM      2  C   UNL     1      -2.003 -14.033  30.083  1.00  0.00     0.214 A 
ATOM      3  C   UNL     1      -1.033 -14.636  29.259  1.00  0.00     0.180 A 
ATOM      4  O   UNL     1       0.196 -14.834  29.731  1.00  0.00    -0.452 OA
ATOM      5  C   UNL     1      -1.683 -13.769  31.427  1.00  0.00     0.239 A 
ATOM      6  C   UNL     1       0.563 -14.530  30.971  1.00  0.00     0.146 A 
ATOM      7  O   UNL     1      -2.557 -13.245  32.168  1.00  0.00    -0.285 OA
ATOM      8  C   UNL     1      -0.382 -14.044  31.907  1.00  0.00     0.111 A 
ATOM      9  C   UNL     1       1.901 -14.697  31.340  1.00  0.00     0.094 A 
ATOM     10  C   UNL     1       0.046 -13.784  33.242  1.00  0.00     0.134 A 
ATOM     11  C   UNL     1       2.331 -14.360  32.625  1.00  0.00     0.123 A 
ATOM     12  C   UNL     1       1.406 -13.887  33.564  1.00  0.00     0.093 A 
BRANCH   3  13
ATOM     13  C   UNL     1      -1.301 -14.998  27.841  1.00  0.00     0.025 A 
ATOM     14  C   UNL     1      -1.503 -13.979  26.892  1.00  0.00     0.016 A 
ATOM     15  C   UNL     1      -1.731 -14.290  25.546  1.00  0.00     0.051 A 
ATOM     16  C   UNL     1      -1.768 -15.623  25.126  1.00  0.00     0.157 A 
ATOM     17  C   UNL     1      -1.320 -16.335  27.408  1.00  0.00     0.062 A 
ATOM     18  C   UNL     1      -1.564 -16.650  26.067  1.00  0.00     0.158 A 
BRANCH  16  19
ATOM     19  O   UNL     1      -1.982 -15.938  23.783  1.00  0.00    -0.504 OA
ATOM     20  H   UNL     1      -2.688 -15.461  23.230  1.00  0.00     0.293 HD
ENDBRANCH  16  19
BRANCH  18  21
ATOM     21  O   UNL     1      -1.574 -17.995  25.687  1.00  0.00    -0.504 OA
ATOM     22  H   UNL     1      -2.352 -18.407  25.185  1.00  0.00     0.293 HD
ENDBRANCH  18  21
ENDBRANCH   3  13
BRANCH  10  23
ATOM     23  O   UNL     1      -0.828 -13.421  34.271  1.00  0.00    -0.507 OA
ATOM     24  H   UNL     1      -0.866 -12.489  34.665  1.00  0.00     0.293 HD
ENDBRANCH  10  23
BRANCH  11  25
ATOM     25  O   UNL     1       3.673 -14.522  32.962  1.00  0.00    -0.508 OA
ATOM     26  H   UNL     1       4.196 -13.788  33.418  1.00  0.00     0.293 HD
ENDBRANCH  11  25
ENDBRANCH   1   2
BRANCH   1  27
ATOM     27  C   UNL     1      -4.384 -14.483  29.481  1.00  0.00     0.339 C 
ATOM     28  C   UNL     1      -5.344 -13.980  28.366  1.00  0.00     0.214 C 
ATOM     29  O   UNL     1      -4.995 -14.561  30.766  1.00  0.00    -0.332 OA
ATOM     30  C   UNL     1      -6.812 -14.192  28.780  1.00  0.00     0.180 C 
ATOM     31  C   UNL     1      -5.809 -13.428  31.000  1.00  0.00     0.179 C 
ATOM     32  C   UNL     1      -7.109 -13.540  30.159  1.00  0.00     0.177 C 
BRANCH  28  33
ATOM     33  O   UNL     1      -5.087 -14.647  27.155  1.00  0.00    -0.384 OA
ATOM     34  H   UNL     1      -5.006 -15.612  27.381  1.00  0.00     0.211 HD
ENDBRANCH  28  33
BRANCH  30  35
ATOM     35  O   UNL     1      -7.654 -13.652  27.793  1.00  0.00    -0.387 OA
ATOM     36  H   UNL     1      -8.277 -14.373  27.518  1.00  0.00     0.211 HD
ENDBRANCH  30  35
BRANCH  31  37
ATOM     37  C   UNL     1      -6.068 -13.268  32.507  1.00  0.00     0.191 C 
BRANCH  37  38
ATOM     38  O   UNL     1      -6.133 -14.520  33.145  1.00  0.00    -0.394 OA
ATOM     39  H   UNL     1      -6.856 -14.466  33.818  1.00  0.00     0.210 HD
ENDBRANCH  37  38
ENDBRANCH  31  37
BRANCH  32  40
ATOM     40  O   UNL     1      -8.070 -14.318  30.830  1.00  0.00    -0.387 OA
ATOM     41  H   UNL     1      -8.916 -14.272  30.303  1.00  0.00     0.211 HD
ENDBRANCH  32  40
ENDBRANCH   1  27
TORSDOF 12
ENDMDL
MODEL 4
REMARK VINA RESULT:    -6.916      2.573      5.724
REMARK INTER + INTRA:         -11.930
REMARK INTER:                 -10.516
REMARK INTRA:                  -1.414
REMARK UNBOUND:                -1.779
REMARK SMILES O=c1c(O[C@H]2O[C@H](CO)[C@H](O)[C@@H](O)[C@@H]2O)c(-c2ccc(O)c(O)c2)oc2cc(O)cc(O)c12
REMARK SMILES IDX 4 1 3 2 16 3 25 4 2 5 26 6 1 7 33 8 27 9 31 10 28 11 30 12
REMARK SMILES IDX 17 13 18 14 19 15 20 16 24 17 22 18 21 19 23 21 32 23 29 25
REMARK SMILES IDX 5 27 14 28 6 29 12 30 7 31 10 32 15 33 13 35 8 37 9 38 11 40
REMARK H PARENT 21 20 23 22 32 24 29 26 15 34 13 36 9 39 11 41
REMARK Flexibility Score: inf
ROOT
ATOM      1  O   UNL     1      -0.247 -18.226  28.810  1.00  0.00    -0.454 OA
ENDROOT
BRANCH   1   2
ATOM      2  C   UNL     1      -1.080 -17.126  28.561  1.00  0.00     0.214 A 
ATOM      3  C   UNL     1      -1.684 -16.972  27.297  1.00  0.00     0.180 A 
ATOM      4  O   UNL     1      -2.619 -16.041  27.127  1.00  0.00    -0.452 OA
ATOM      5  C   UNL     1      -1.394 -16.206  29.579  1.00  0.00     0.239 A 
ATOM      6  C   UNL     1      -3.000 -15.200  28.082  1.00  0.00     0.146 A 
ATOM      7  O   UNL     1      -0.841 -16.334  30.704  1.00  0.00    -0.285 OA
ATOM      8  C   UNL     1      -2.353 -15.196  29.343  1.00  0.00     0.111 A 
ATOM      9  C   UNL     1      -4.053 -14.317  27.826  1.00  0.00     0.094 A 
ATOM     10  C   UNL     1      -2.759 -14.239  30.318  1.00  0.00     0.134 A 
ATOM     11  C   UNL     1      -4.503 -13.440  28.815  1.00  0.00     0.123 A 
ATOM     12  C   UNL     1      -3.866 -13.418  30.063  1.00  0.00     0.093 A 
BRANCH   3  13
ATOM     13  C   UNL     1      -1.372 -17.865  26.149  1.00  0.00     0.025 A 
ATOM     14  C   UNL     1      -0.732 -17.336  25.013  1.00  0.00     0.016 A 
ATOM     15  C   UNL     1      -0.403 -18.160  23.929  1.00  0.00     0.051 A 
ATOM     16  C   UNL     1      -0.714 -19.522  23.958  1.00  0.00     0.157 A 
ATOM     17  C   UNL     1      -1.663 -19.240  26.179  1.00  0.00     0.062 A 
ATOM     18  C   UNL     1      -1.350 -20.062  25.091  1.00  0.00     0.158 A 
BRANCH  16  19
ATOM     19  O   UNL     1      -0.375 -20.349  22.885  1.00  0.00    -0.504 OA
ATOM     20  H   UNL     1      -0.424 -20.022  21.925  1.00  0.00     0.293 HD
ENDBRANCH  16  19
BRANCH  18  21
ATOM     21  O   UNL     1      -1.661 -21.422  25.170  1.00  0.00    -0.504 OA
ATOM     22  H   UNL     1      -1.068 -22.082  25.661  1.00  0.00     0.293 HD
ENDBRANCH  18  21
ENDBRANCH   3  13
BRANCH  10  23
ATOM     23  O   UNL     1      -2.107 -14.068  31.543  1.00  0.00    -0.507 OA
ATOM     24  H   UNL     1      -1.240 -13.554  31.644  1.00  0.00     0.293 HD
ENDBRANCH  10  23
BRANCH  11  25
ATOM     25  O   UNL     1      -5.563 -12.581  28.538  1.00  0.00    -0.508 OA
ATOM     26  H   UNL     1      -5.507 -11.592  28.733  1.00  0.00     0.293 HD
ENDBRANCH  11  25
ENDBRANCH   1   2
BRANCH   1  27
ATOM     27  C   UNL     1      -0.700 -19.435  29.431  1.00  0.00     0.339 C 
ATOM     28  C   UNL     1      -0.009 -19.597  30.814  1.00  0.00     0.214 C 
ATOM     29  O   UNL     1      -0.486 -20.538  28.555  1.00  0.00    -0.332 OA
ATOM     30  C   UNL     1       0.278 -21.082  31.105  1.00  0.00     0.180 C 
ATOM     31  C   UNL     1       0.858 -20.975  28.621  1.00  0.00     0.179 C 
ATOM     32  C   UNL     1       1.092 -21.736  29.953  1.00  0.00     0.177 C 
BRANCH  28  33
ATOM     33  O   UNL     1      -0.812 -19.056  31.834  1.00  0.00    -0.384 OA
ATOM     34  H   UNL     1      -1.541 -18.555  31.378  1.00  0.00     0.211 HD
ENDBRANCH  28  33
BRANCH  30  35
ATOM     35  O   UNL     1       0.976 -21.191  32.319  1.00  0.00    -0.387 OA
ATOM     36  H   UNL     1       0.308 -21.098  33.047  1.00  0.00     0.211 HD
ENDBRANCH  30  35
BRANCH  31  37
ATOM     37  C   UNL     1       1.204 -21.805  27.373  1.00  0.00     0.191 C 
BRANCH  37  38
ATOM     38  O   UNL     1       0.153 -22.677  27.040  1.00  0.00    -0.394 OA
ATOM     39  H   UNL     1       0.191 -22.817  26.060  1.00  0.00     0.210 HD
ENDBRANCH  37  38
ENDBRANCH  31  37
BRANCH  32  40
ATOM     40  O   UNL     1       0.704 -23.082  29.832  1.00  0.00    -0.387 OA
ATOM     41  H   UNL     1       0.016 -23.133  29.111  1.00  0.00     0.211 HD
ENDBRANCH  32  40
ENDBRANCH   1  27
TORSDOF 12
ENDMDL
MODEL 5
REMARK VINA RESULT:    -6.893      1.866      5.111
REMARK INTER + INTRA:         -11.896
REMARK INTER:                 -10.159
REMARK INTRA:                  -1.737
REMARK UNBOUND:                -1.779
REMARK SMILES O=c1c(O[C@H]2O[C@H](CO)[C@H](O)[C@@H](O)[C@@H]2O)c(-c2ccc(O)c(O)c2)oc2cc(O)cc(O)c12
REMARK SMILES IDX 4 1 3 2 16 3 25 4 2 5 26 6 1 7 33 8 27 9 31 10 28 11 30 12
REMARK SMILES IDX 17 13 18 14 19 15 20 16 24 17 22 18 21 19 23 21 32 23 29 25
REMARK SMILES IDX 5 27 14 28 6 29 12 30 7 31 10 32 15 33 13 35 8 37 9 38 11 40
REMARK H PARENT 21 20 23 22 32 24 29 26 15 34 13 36 9 39 11 41
REMARK Flexibility Score: inf
ROOT
ATOM      1  O   UNL     1      -0.183 -21.169  29.215  1.00  0.00    -0.454 OA
ENDROOT
BRANCH   1   2
ATOM      2  C   UNL     1      -0.029 -20.395  28.056  1.00  0.00     0.214 A 
ATOM      3  C   UNL     1       0.603 -20.944  26.922  1.00  0.00     0.180 A 
ATOM      4  O   UNL     1       0.573 -20.278  25.770  1.00  0.00    -0.452 OA
ATOM      5  C   UNL     1      -0.568 -19.098  27.971  1.00  0.00     0.239 A 
ATOM      6  C   UNL     1       0.010 -19.084  25.627  1.00  0.00     0.146 A 
ATOM      7  O   UNL     1      -1.117 -18.601  28.990  1.00  0.00    -0.285 OA
ATOM      8  C   UNL     1      -0.531 -18.400  26.743  1.00  0.00     0.111 A 
ATOM      9  C   UNL     1      -0.044 -18.510  24.353  1.00  0.00     0.094 A 
ATOM     10  C   UNL     1      -1.076 -17.097  26.551  1.00  0.00     0.134 A 
ATOM     11  C   UNL     1      -0.655 -17.270  24.157  1.00  0.00     0.123 A 
ATOM     12  C   UNL     1      -1.186 -16.578  25.253  1.00  0.00     0.093 A 
BRANCH   3  13
ATOM     13  C   UNL     1       1.245 -22.285  26.936  1.00  0.00     0.025 A 
ATOM     14  C   UNL     1       0.857 -23.249  25.987  1.00  0.00     0.016 A 
ATOM     15  C   UNL     1       1.464 -24.511  25.960  1.00  0.00     0.051 A 
ATOM     16  C   UNL     1       2.462 -24.834  26.884  1.00  0.00     0.157 A 
ATOM     17  C   UNL     1       2.262 -22.611  27.850  1.00  0.00     0.062 A 
ATOM     18  C   UNL     1       2.859 -23.876  27.836  1.00  0.00     0.158 A 
BRANCH  16  19
ATOM     19  O   UNL     1       3.078 -26.086  26.852  1.00  0.00    -0.504 OA
ATOM     20  H   UNL     1       2.784 -26.808  26.202  1.00  0.00     0.293 HD
ENDBRANCH  16  19
BRANCH  18  21
ATOM     21  O   UNL     1       3.866 -24.150  28.765  1.00  0.00    -0.504 OA
ATOM     22  H   UNL     1       4.598 -23.482  28.978  1.00  0.00     0.293 HD
ENDBRANCH  18  21
ENDBRANCH   3  13
BRANCH  10  23
ATOM     23  O   UNL     1      -1.521 -16.289  27.602  1.00  0.00    -0.507 OA
ATOM     24  H   UNL     1      -1.888 -16.659  28.470  1.00  0.00     0.293 HD
ENDBRANCH  10  23
BRANCH  11  25
ATOM     25  O   UNL     1      -0.708 -16.727  22.876  1.00  0.00    -0.508 OA
ATOM     26  H   UNL     1      -1.577 -16.656  22.367  1.00  0.00     0.293 HD
ENDBRANCH  11  25
ENDBRANCH   1   2
BRANCH   1  27
ATOM     27  C   UNL     1      -1.355 -21.940  29.501  1.00  0.00     0.339 C 
ATOM     28  C   UNL     1      -1.873 -21.589  30.924  1.00  0.00     0.214 C 
ATOM     29  O   UNL     1      -1.079 -23.327  29.321  1.00  0.00    -0.332 OA
ATOM     30  C   UNL     1      -2.459 -22.838  31.610  1.00  0.00     0.180 C 
ATOM     31  C   UNL     1      -0.422 -23.855  30.457  1.00  0.00     0.179 C 
ATOM     32  C   UNL     1      -1.437 -24.008  31.621  1.00  0.00     0.177 C 
BRANCH  28  33
ATOM     33  O   UNL     1      -2.846 -20.576  30.861  1.00  0.00    -0.384 OA
ATOM     34  H   UNL     1      -3.261 -20.533  31.764  1.00  0.00     0.211 HD
ENDBRANCH  28  33
BRANCH  30  35
ATOM     35  O   UNL     1      -2.840 -22.510  32.921  1.00  0.00    -0.387 OA
ATOM     36  H   UNL     1      -3.603 -21.880  32.853  1.00  0.00     0.211 HD
ENDBRANCH  30  35
BRANCH  31  37
ATOM     37  C   UNL     1       0.290 -25.168  30.089  1.00  0.00     0.191 C 
BRANCH  37  38
ATOM     38  O   UNL     1      -0.429 -25.876  29.109  1.00  0.00    -0.394 OA
ATOM     39  H   UNL     1      -0.655 -26.759  29.496  1.00  0.00     0.210 HD
ENDBRANCH  37  38
ENDBRANCH  31  37
BRANCH  32  40
ATOM     40  O   UNL     1      -2.138 -25.223  31.512  1.00  0.00    -0.387 OA
ATOM     41  H   UNL     1      -1.507 -25.904  31.148  1.00  0.00     0.211 HD
ENDBRANCH  32  40
ENDBRANCH   1  27
TORSDOF 12
ENDMDL
MODEL 6
REMARK VINA RESULT:    -6.891      2.314      7.466
REMARK INTER + INTRA:         -11.894
REMARK INTER:                 -10.728
REMARK INTRA:                  -1.165
REMARK UNBOUND:                -1.779
REMARK SMILES O=c1c(O[C@H]2O[C@H](CO)[C@H](O)[C@@H](O)[C@@H]2O)c(-c2ccc(O)c(O)c2)oc2cc(O)cc(O)c12
REMARK SMILES IDX 4 1 3 2 16 3 25 4 2 5 26 6 1 7 33 8 27 9 31 10 28 11 30 12
REMARK SMILES IDX 17 13 18 14 19 15 20 16 24 17 22 18 21 19 23 21 32 23 29 25
REMARK SMILES IDX 5 27 14 28 6 29 12 30 7 31 10 32 15 33 13 35 8 37 9 38 11 40
REMARK H PARENT 21 20 23 22 32 24 29 26 15 34 13 36 9 39 11 41
REMARK Flexibility Score: inf
ROOT
ATOM      1  O   UNL     1       0.386 -20.210  28.306  1.00  0.00    -0.454 OA
ENDROOT
BRANCH   1   2
ATOM      2  C   UNL     1      -0.131 -21.462  28.669  1.00  0.00     0.214 A 
ATOM      3  C   UNL     1       0.175 -22.600  27.896  1.00  0.00     0.180 A 
ATOM      4  O   UNL     1      -0.154 -23.808  28.349  1.00  0.00    -0.452 OA
ATOM      5  C   UNL     1      -0.888 -21.624  29.843  1.00  0.00     0.239 A 
ATOM      6  C   UNL     1      -0.803 -24.011  29.490  1.00  0.00     0.146 A 
ATOM      7  O   UNL     1      -1.176 -20.604  30.524  1.00  0.00    -0.285 OA
ATOM      8  C   UNL     1      -1.267 -22.919  30.264  1.00  0.00     0.111 A 
ATOM      9  C   UNL     1      -1.023 -25.324  29.918  1.00  0.00     0.094 A 
ATOM     10  C   UNL     1      -2.007 -23.186  31.452  1.00  0.00     0.134 A 
ATOM     11  C   UNL     1      -1.675 -25.578  31.126  1.00  0.00     0.123 A 
ATOM     12  C   UNL     1      -2.147 -24.508  31.897  1.00  0.00     0.093 A 
BRANCH   3  13
ATOM     13  C   UNL     1       0.926 -22.518  26.614  1.00  0.00     0.025 A 
ATOM     14  C   UNL     1       2.330 -22.625  26.625  1.00  0.00     0.016 A 
ATOM     15  C   UNL     1       3.059 -22.577  25.431  1.00  0.00     0.051 A 
ATOM     16  C   UNL     1       2.402 -22.415  24.208  1.00  0.00     0.157 A 
ATOM     17  C   UNL     1       0.271 -22.375  25.379  1.00  0.00     0.062 A 
ATOM     18  C   UNL     1       0.999 -22.310  24.186  1.00  0.00     0.158 A 
BRANCH  16  19
ATOM     19  O   UNL     1       3.125 -22.381  23.014  1.00  0.00    -0.504 OA
ATOM     20  H   UNL     1       2.737 -22.735  22.145  1.00  0.00     0.293 HD
ENDBRANCH  16  19
BRANCH  18  21
ATOM     21  O   UNL     1       0.300 -22.167  22.984  1.00  0.00    -0.504 OA
ATOM     22  H   UNL     1      -0.703 -22.301  22.925  1.00  0.00     0.293 HD
ENDBRANCH  18  21
ENDBRANCH   3  13
BRANCH  10  23
ATOM     23  O   UNL     1      -2.613 -22.186  32.219  1.00  0.00    -0.507 OA
ATOM     24  H   UNL     1      -3.486 -21.743  31.963  1.00  0.00     0.293 HD
ENDBRANCH  10  23
BRANCH  11  25
ATOM     25  O   UNL     1      -1.868 -26.895  31.537  1.00  0.00    -0.508 OA
ATOM     26  H   UNL     1      -2.428 -27.119  32.347  1.00  0.00     0.293 HD
ENDBRANCH  11  25
ENDBRANCH   1   2
BRANCH   1  27
ATOM     27  C   UNL     1      -0.426 -19.122  27.853  1.00  0.00     0.339 C 
ATOM     28  C   UNL     1      -0.975 -19.439  26.433  1.00  0.00     0.214 C 
ATOM     29  O   UNL     1       0.313 -17.905  27.919  1.00  0.00    -0.332 OA
ATOM     30  C   UNL     1      -1.053 -18.156  25.584  1.00  0.00     0.180 C 
ATOM     31  C   UNL     1       1.161 -17.776  26.794  1.00  0.00     0.179 C 
ATOM     32  C   UNL     1       0.315 -17.421  25.543  1.00  0.00     0.177 C 
BRANCH  28  33
ATOM     33  O   UNL     1      -2.244 -20.038  26.515  1.00  0.00    -0.384 OA
ATOM     34  H   UNL     1      -2.507 -20.001  27.474  1.00  0.00     0.211 HD
ENDBRANCH  28  33
BRANCH  30  35
ATOM     35  O   UNL     1      -1.470 -18.486  24.284  1.00  0.00    -0.387 OA
ATOM     36  H   UNL     1      -1.103 -19.385  24.081  1.00  0.00     0.211 HD
ENDBRANCH  30  35
BRANCH  31  37
ATOM     37  C   UNL     1       2.274 -16.756  27.090  1.00  0.00     0.191 C 
BRANCH  37  38
ATOM     38  O   UNL     1       2.896 -16.328  25.903  1.00  0.00    -0.394 OA
ATOM     39  H   UNL     1       2.999 -15.346  25.967  1.00  0.00     0.210 HD
ENDBRANCH  37  38
ENDBRANCH  31  37
BRANCH  32  40
ATOM     40  O   UNL     1       0.083 -16.036  25.476  1.00  0.00    -0.387 OA
ATOM     41  H   UNL     1      -0.835 -15.902  25.108  1.00  0.00     0.211 HD
ENDBRANCH  32  40
ENDBRANCH   1  27
TORSDOF 12
ENDMDL
MODEL 7
REMARK VINA RESULT:    -6.808      1.745      5.042
REMARK INTER + INTRA:         -11.771
REMARK INTER:                 -10.318
REMARK INTRA:                  -1.452
REMARK UNBOUND:                -1.779
REMARK SMILES O=c1c(O[C@H]2O[C@H](CO)[C@H](O)[C@@H](O)[C@@H]2O)c(-c2ccc(O)c(O)c2)oc2cc(O)cc(O)c12
REMARK SMILES IDX 4 1 3 2 16 3 25 4 2 5 26 6 1 7 33 8 27 9 31 10 28 11 30 12
REMARK SMILES IDX 17 13 18 14 19 15 20 16 24 17 22 18 21 19 23 21 32 23 29 25
REMARK SMILES IDX 5 27 14 28 6 29 12 30 7 31 10 32 15 33 13 35 8 37 9 38 11 40
REMARK H PARENT 21 20 23 22 32 24 29 26 15 34 13 36 9 39 11 41
REMARK Flexibility Score: inf
ROOT
ATOM      1  O   UNL     1      -0.163 -20.726  29.062  1.00  0.00    -0.454 OA
ENDROOT
BRANCH   1   2
ATOM      2  C   UNL     1      -0.254 -19.664  28.152  1.00  0.00     0.214 A 
ATOM      3  C   UNL     1       0.018 -19.882  26.786  1.00  0.00     0.180 A 
ATOM      4  O   UNL     1      -0.256 -18.924  25.903  1.00  0.00    -0.452 OA
ATOM      5  C   UNL     1      -0.694 -18.391  28.561  1.00  0.00     0.239 A 
ATOM      6  C   UNL     1      -0.742 -17.735  26.237  1.00  0.00     0.146 A 
ATOM      7  O   UNL     1      -0.921 -18.192  29.784  1.00  0.00    -0.285 OA
ATOM      8  C   UNL     1      -0.921 -17.382  27.598  1.00  0.00     0.111 A 
ATOM      9  C   UNL     1      -1.078 -16.832  25.224  1.00  0.00     0.094 A 
ATOM     10  C   UNL     1      -1.394 -16.074  27.910  1.00  0.00     0.134 A 
ATOM     11  C   UNL     1      -1.621 -15.584  25.535  1.00  0.00     0.123 A 
ATOM     12  C   UNL     1      -1.794 -15.218  26.875  1.00  0.00     0.093 A 
BRANCH   3  13
ATOM     13  C   UNL     1       0.535 -21.178  26.272  1.00  0.00     0.025 A 
ATOM     14  C   UNL     1       1.637 -21.785  26.904  1.00  0.00     0.016 A 
ATOM     15  C   UNL     1       2.127 -23.018  26.457  1.00  0.00     0.051 A 
ATOM     16  C   UNL     1       1.531 -23.662  25.369  1.00  0.00     0.157 A 
ATOM     17  C   UNL     1      -0.070 -21.841  25.191  1.00  0.00     0.062 A 
ATOM     18  C   UNL     1       0.428 -23.065  24.732  1.00  0.00     0.158 A 
BRANCH  16  19
ATOM     19  O   UNL     1       2.009 -24.898  24.928  1.00  0.00    -0.504 OA
ATOM     20  H   UNL     1       1.538 -25.422  24.197  1.00  0.00     0.293 HD
ENDBRANCH  16  19
BRANCH  18  21
ATOM     21  O   UNL     1      -0.210 -23.684  23.653  1.00  0.00    -0.504 OA
ATOM     22  H   UNL     1      -0.923 -24.393  23.783  1.00  0.00     0.293 HD
ENDBRANCH  18  21
ENDBRANCH   3  13
BRANCH  10  23
ATOM     23  O   UNL     1      -1.488 -15.585  29.217  1.00  0.00    -0.507 OA
ATOM     24  H   UNL     1      -1.676 -16.174  30.018  1.00  0.00     0.293 HD
ENDBRANCH  10  23
BRANCH  11  25
ATOM     25  O   UNL     1      -1.960 -14.709  24.505  1.00  0.00    -0.508 OA
ATOM     26  H   UNL     1      -2.920 -14.455  24.322  1.00  0.00     0.293 HD
ENDBRANCH  11  25
ENDBRANCH   1   2
BRANCH   1  27
ATOM     27  C   UNL     1      -1.239 -21.633  29.327  1.00  0.00     0.339 C 
ATOM     28  C   UNL     1      -1.817 -21.353  30.743  1.00  0.00     0.214 C 
ATOM     29  O   UNL     1      -0.795 -22.976  29.150  1.00  0.00    -0.332 OA
ATOM     30  C   UNL     1      -2.259 -22.665  31.417  1.00  0.00     0.180 C 
ATOM     31  C   UNL     1      -0.097 -23.426  30.295  1.00  0.00     0.179 C 
ATOM     32  C   UNL     1      -1.104 -23.704  31.442  1.00  0.00     0.177 C 
BRANCH  28  33
ATOM     33  O   UNL     1      -2.903 -20.464  30.666  1.00  0.00    -0.384 OA
ATOM     34  H   UNL     1      -3.591 -20.810  31.296  1.00  0.00     0.211 HD
ENDBRANCH  28  33
BRANCH  30  35
ATOM     35  O   UNL     1      -2.697 -22.390  32.723  1.00  0.00    -0.387 OA
ATOM     36  H   UNL     1      -3.000 -21.446  32.735  1.00  0.00     0.211 HD
ENDBRANCH  30  35
BRANCH  31  37
ATOM     37  C   UNL     1       0.773 -24.643  29.936  1.00  0.00     0.191 C 
BRANCH  37  38
ATOM     38  O   UNL     1       0.129 -25.464  28.994  1.00  0.00    -0.394 OA
ATOM     39  H   UNL     1      -0.717 -25.771  29.406  1.00  0.00     0.210 HD
ENDBRANCH  37  38
ENDBRANCH  31  37
BRANCH  32  40
ATOM     40  O   UNL     1      -1.653 -24.994  31.320  1.00  0.00    -0.387 OA
ATOM     41  H   UNL     1      -1.048 -25.524  30.730  1.00  0.00     0.211 HD
ENDBRANCH  32  40
ENDBRANCH   1  27
TORSDOF 12
ENDMDL
MODEL 8
REMARK VINA RESULT:    -6.681      6.003     10.226
REMARK INTER + INTRA:         -11.584
REMARK INTER:                 -10.184
REMARK INTRA:                  -1.400
REMARK UNBOUND:                -1.779
REMARK SMILES O=c1c(O[C@H]2O[C@H](CO)[C@H](O)[C@@H](O)[C@@H]2O)c(-c2ccc(O)c(O)c2)oc2cc(O)cc(O)c12
REMARK SMILES IDX 4 1 3 2 16 3 25 4 2 5 26 6 1 7 33 8 27 9 31 10 28 11 30 12
REMARK SMILES IDX 17 13 18 14 19 15 20 16 24 17 22 18 21 19 23 21 32 23 29 25
REMARK SMILES IDX 5 27 14 28 6 29 12 30 7 31 10 32 15 33 13 35 8 37 9 38 11 40
REMARK H PARENT 21 20 23 22 32 24 29 26 15 34 13 36 9 39 11 41
REMARK Flexibility Score: inf
ROOT
ATOM      1  O   UNL     1      -4.115 -12.417  29.229  1.00  0.00    -0.454 OA
ENDROOT
BRANCH   1   2
ATOM      2  C   UNL     1      -2.848 -12.166  29.776  1.00  0.00     0.214 A 
ATOM      3  C   UNL     1      -1.692 -12.618  29.110  1.00  0.00     0.180 A 
ATOM      4  O   UNL     1      -0.495 -12.213  29.528  1.00  0.00    -0.452 OA
ATOM      5  C   UNL     1      -2.701 -11.394  30.943  1.00  0.00     0.239 A 
ATOM      6  C   UNL     1      -0.313 -11.423  30.580  1.00  0.00     0.146 A 
ATOM      7  O   UNL     1      -3.735 -11.004  31.548  1.00  0.00    -0.285 OA
ATOM      8  C   UNL     1      -1.409 -11.029  31.387  1.00  0.00     0.111 A 
ATOM      9  C   UNL     1       0.979 -10.984  30.882  1.00  0.00     0.094 A 
ATOM     10  C   UNL     1      -1.159 -10.227  32.538  1.00  0.00     0.134 A 
ATOM     11  C   UNL     1       1.205 -10.129  31.962  1.00  0.00     0.123 A 
ATOM     12  C   UNL     1       0.133  -9.739  32.773  1.00  0.00     0.093 A 
BRANCH   3  13
ATOM     13  C   UNL     1      -1.753 -13.481  27.900  1.00  0.00     0.025 A 
ATOM     14  C   UNL     1      -1.792 -12.885  26.625  1.00  0.00     0.016 A 
ATOM     15  C   UNL     1      -1.822 -13.674  25.468  1.00  0.00     0.051 A 
ATOM     16  C   UNL     1      -1.821 -15.068  25.564  1.00  0.00     0.157 A 
ATOM     17  C   UNL     1      -1.732 -14.884  27.987  1.00  0.00     0.062 A 
ATOM     18  C   UNL     1      -1.779 -15.674  26.834  1.00  0.00     0.158 A 
BRANCH  16  19
ATOM     19  O   UNL     1      -1.838 -15.858  24.412  1.00  0.00    -0.504 OA
ATOM     20  H   UNL     1      -1.022 -16.381  24.114  1.00  0.00     0.293 HD
ENDBRANCH  16  19
BRANCH  18  21
ATOM     21  O   UNL     1      -1.757 -17.064  26.975  1.00  0.00    -0.504 OA
ATOM     22  H   UNL     1      -0.992 -17.546  27.434  1.00  0.00     0.293 HD
ENDBRANCH  18  21
ENDBRANCH   3  13
BRANCH  10  23
ATOM     23  O   UNL     1      -2.149  -9.887  33.466  1.00  0.00    -0.507 OA
ATOM     24  H   UNL     1      -3.021 -10.394  33.558  1.00  0.00     0.293 HD
ENDBRANCH  10  23
BRANCH  11  25
ATOM     25  O   UNL     1       2.501  -9.695  32.232  1.00  0.00    -0.508 OA
ATOM     26  H   UNL     1       2.684  -8.955  32.894  1.00  0.00     0.293 HD
ENDBRANCH  11  25
ENDBRANCH   1   2
BRANCH   1  27
ATOM     27  C   UNL     1      -4.766 -13.691  29.297  1.00  0.00     0.339 C 
ATOM     28  C   UNL     1      -5.983 -13.703  28.329  1.00  0.00     0.214 C 
ATOM     29  O   UNL     1      -5.109 -13.989  30.647  1.00  0.00    -0.332 OA
ATOM     30  C   UNL     1      -7.139 -14.530  28.924  1.00  0.00     0.180 C 
ATOM     31  C   UNL     1      -6.304 -13.327  31.015  1.00  0.00     0.179 C 
ATOM     32  C   UNL     1      -7.515 -14.032  30.347  1.00  0.00     0.177 C 
BRANCH  28  33
ATOM     33  O   UNL     1      -5.614 -14.226  27.077  1.00  0.00    -0.384 OA
ATOM     34  H   UNL     1      -6.448 -14.265  26.536  1.00  0.00     0.211 HD
ENDBRANCH  28  33
BRANCH  30  35
ATOM     35  O   UNL     1      -8.251 -14.453  28.069  1.00  0.00    -0.387 OA
ATOM     36  H   UNL     1      -8.303 -15.316  27.583  1.00  0.00     0.211 HD
ENDBRANCH  30  35
BRANCH  31  37
ATOM     37  C   UNL     1      -6.412 -13.249  32.547  1.00  0.00     0.191 C 
BRANCH  37  38
ATOM     38  O   UNL     1      -6.052 -14.471  33.143  1.00  0.00    -0.394 OA
ATOM     39  H   UNL     1      -6.380 -14.447  34.076  1.00  0.00     0.210 HD
ENDBRANCH  37  38
ENDBRANCH  31  37
BRANCH  32  40
ATOM     40  O   UNL     1      -7.936 -15.133  31.114  1.00  0.00    -0.387 OA
ATOM     41  H   UNL     1      -7.218 -15.328  31.779  1.00  0.00     0.211 HD
ENDBRANCH  32  40
ENDBRANCH   1  27
TORSDOF 12
ENDMDL
