MODEL 1
REMARK VINA RESULT:    -3.518      0.000      0.000
REMARK INTER + INTRA:          -8.564
REMARK INTER:                  -6.603
REMARK INTRA:                  -1.961
REMARK UNBOUND:                -1.961
REMARK SMILES CCCCCCCCC=CCCCCCCCC(=O)[O-]
REMARK SMILES IDX 10 1 9 2 11 3 12 4 13 5 14 6 15 7 16 8 17 9 18 10 19 11
REMARK SMILES IDX 20 12 8 13 7 14 6 15 5 16 4 17 3 18 2 19 1 20
REMARK H PARENT
REMARK Flexibility Score: inf
ROOT
ATOM      1  C   UNL     1       2.746  64.010  13.868  1.00  0.00    -0.031 C 
ATOM      2  C   UNL     1       3.095  63.029  14.723  1.00  0.00    -0.031 C 
ENDROOT
BRANCH   1   3
ATOM      3  C   UNL     1       1.729  65.090  14.147  1.00  0.00     0.027 C 
BRANCH   3   4
ATOM      4  C   UNL     1       1.478  65.962  12.911  1.00  0.00     0.004 C 
BRANCH   4   5
ATOM      5  C   UNL     1       2.308  65.476  11.717  1.00  0.00     0.000 C 
BRANCH   5   6
ATOM      6  C   UNL     1       1.561  65.715  10.397  1.00  0.00     0.000 C 
BRANCH   6   7
ATOM      7  C   UNL     1       2.487  66.174   9.258  1.00  0.00     0.000 C 
BRANCH   7   8
ATOM      8  C   UNL     1       2.500  65.265   8.013  1.00  0.00     0.006 C 
BRANCH   8   9
ATOM      9  C   UNL     1       3.235  63.928   8.220  1.00  0.00     0.053 C 
BRANCH   9  10
ATOM     10  C   UNL     1       2.290  62.776   8.388  1.00  0.00     0.041 C 
ATOM     11  O   UNL     1       1.181  62.773   7.792  1.00  0.00    -0.550 OA
ATOM     12  O   UNL     1       2.650  61.685   9.170  1.00  0.00    -0.550 OA
ENDBRANCH   9  10
ENDBRANCH   8   9
ENDBRANCH   7   8
ENDBRANCH   6   7
ENDBRANCH   5   6
ENDBRANCH   4   5
ENDBRANCH   3   4
ENDBRANCH   1   3
BRANCH   2  13
ATOM     13  C   UNL     1       2.512  62.820  16.103  1.00  0.00     0.027 C 
BRANCH  13  14
ATOM     14  C   UNL     1       3.601  62.514  17.147  1.00  0.00     0.004 C 
BRANCH  14  15
ATOM     15  C   UNL     1       5.037  62.506  16.591  1.00  0.00     0.000 C 
BRANCH  15  16
ATOM     16  C   UNL     1       5.849  63.741  17.015  1.00  0.00     0.000 C 
BRANCH  16  17
ATOM     17  C   UNL     1       4.942  64.938  17.374  1.00  0.00    -0.000 C 
BRANCH  17  18
ATOM     18  C   UNL     1       5.128  66.153  16.448  1.00  0.00    -0.000 C 
BRANCH  18  19
ATOM     19  C   UNL     1       5.810  65.797  15.121  1.00  0.00    -0.003 C 
ATOM     20  C   UNL     1       5.238  66.618  13.969  1.00  0.00     0.004 C 
ENDBRANCH  18  19
ENDBRANCH  17  18
ENDBRANCH  16  17
ENDBRANCH  15  16
ENDBRANCH  14  15
ENDBRANCH  13  14
ENDBRANCH   2  13
TORSDOF 15
ENDMDL
MODEL 2
REMARK VINA RESULT:    -3.422      6.066      8.891
REMARK INTER + INTRA:          -8.384
REMARK INTER:                  -5.267
REMARK INTRA:                  -3.116
REMARK UNBOUND:                -1.961
REMARK SMILES CCCCCCCCC=CCCCCCCCC(=O)[O-]
REMARK SMILES IDX 10 1 9 2 11 3 12 4 13 5 14 6 15 7 16 8 17 9 18 10 19 11
REMARK SMILES IDX 20 12 8 13 7 14 6 15 5 16 4 17 3 18 2 19 1 20
REMARK H PARENT
REMARK Flexibility Score: inf
ROOT
ATOM      1  C   UNL     1       5.113  68.931  11.699  1.00  0.00    -0.031 C 
ATOM      2  C   UNL     1       4.347  69.257  10.640  1.00  0.00    -0.031 C 
ENDROOT
BRANCH   1   3
ATOM      3  C   UNL     1       4.839  67.798  12.657  1.00  0.00     0.027 C 
BRANCH   3   4
ATOM      4  C   UNL     1       4.922  68.261  14.117  1.00  0.00     0.004 C 
BRANCH   4   5
ATOM      5  C   UNL     1       3.800  67.637  14.956  1.00  0.00     0.000 C 
BRANCH   5   6
ATOM      6  C   UNL     1       3.631  68.386  16.287  1.00  0.00     0.000 C 
BRANCH   6   7
ATOM      7  C   UNL     1       2.186  68.355  16.812  1.00  0.00     0.000 C 
BRANCH   7   8
ATOM      8  C   UNL     1       1.505  69.731  16.945  1.00  0.00     0.006 C 
BRANCH   8   9
ATOM      9  C   UNL     1       2.489  70.910  17.071  1.00  0.00     0.053 C 
BRANCH   9  10
ATOM     10  C   UNL     1       2.456  71.540  18.431  1.00  0.00     0.041 C 
ATOM     11  O   UNL     1       1.358  71.722  19.019  1.00  0.00    -0.550 OA
ATOM     12  O   UNL     1       3.641  71.889  19.068  1.00  0.00    -0.550 OA
ENDBRANCH   9  10
ENDBRANCH   8   9
ENDBRANCH   7   8
ENDBRANCH   6   7
ENDBRANCH   5   6
ENDBRANCH   4   5
ENDBRANCH   3   4
ENDBRANCH   1   3
BRANCH   2  13
ATOM     13  C   UNL     1       3.064  68.564  10.238  1.00  0.00     0.027 C 
BRANCH  13  14
ATOM     14  C   UNL     1       1.823  69.290  10.788  1.00  0.00     0.004 C 
BRANCH  14  15
ATOM     15  C   UNL     1       1.155  68.595  11.989  1.00  0.00     0.000 C 
BRANCH  15  16
ATOM     16  C   UNL     1       1.215  69.436  13.276  1.00  0.00     0.000 C 
BRANCH  16  17
ATOM     17  C   UNL     1       1.547  70.916  12.987  1.00  0.00    -0.000 C 
BRANCH  17  18
ATOM     18  C   UNL     1       2.913  71.361  13.540  1.00  0.00    -0.000 C 
BRANCH  18  19
ATOM     19  C   UNL     1       3.662  72.310  12.596  1.00  0.00    -0.003 C 
ATOM     20  C   UNL     1       2.710  72.961  11.598  1.00  0.00     0.004 C 
ENDBRANCH  18  19
ENDBRANCH  17  18
ENDBRANCH  16  17
ENDBRANCH  15  16
ENDBRANCH  14  15
ENDBRANCH  13  14
ENDBRANCH   2  13
TORSDOF 15
ENDMDL
MODEL 3
REMARK VINA RESULT:    -3.405      1.440      2.537
REMARK INTER + INTRA:          -8.351
REMARK INTER:                  -6.119
REMARK INTRA:                  -2.233
REMARK UNBOUND:                -1.961
REMARK SMILES CCCCCCCCC=CCCCCCCCC(=O)[O-]
REMARK SMILES IDX 10 1 9 2 11 3 12 4 13 5 14 6 15 7 16 8 17 9 18 10 19 11
REMARK SMILES IDX 20 12 8 13 7 14 6 15 5 16 4 17 3 18 2 19 1 20
REMARK H PARENT
REMARK Flexibility Score: inf
ROOT
ATOM      1  C   UNL     1       3.403  62.183  15.311  1.00  0.00    -0.031 C 
ATOM      2  C   UNL     1       4.355  62.282  16.260  1.00  0.00    -0.031 C 
ENDROOT
BRANCH   1   3
ATOM      3  C   UNL     1       2.514  63.310  14.847  1.00  0.00     0.027 C 
BRANCH   3   4
ATOM      4  C   UNL     1       3.053  63.965  13.569  1.00  0.00     0.004 C 
BRANCH   4   5
ATOM      5  C   UNL     1       2.301  65.264  13.258  1.00  0.00     0.000 C 
BRANCH   5   6
ATOM      6  C   UNL     1       3.037  66.080  12.184  1.00  0.00     0.000 C 
BRANCH   6   7
ATOM      7  C   UNL     1       2.361  66.003  10.805  1.00  0.00     0.000 C 
BRANCH   7   8
ATOM      8  C   UNL     1       2.522  64.661  10.066  1.00  0.00     0.006 C 
BRANCH   8   9
ATOM      9  C   UNL     1       2.396  64.767   8.535  1.00  0.00     0.053 C 
BRANCH   9  10
ATOM     10  C   UNL     1       1.111  64.187   8.026  1.00  0.00     0.041 C 
ATOM     11  O   UNL     1       0.074  64.898   7.965  1.00  0.00    -0.550 OA
ATOM     12  O   UNL     1       1.066  62.871   7.580  1.00  0.00    -0.550 OA
ENDBRANCH   9  10
ENDBRANCH   8   9
ENDBRANCH   7   8
ENDBRANCH   6   7
ENDBRANCH   5   6
ENDBRANCH   4   5
ENDBRANCH   3   4
ENDBRANCH   1   3
BRANCH   2  13
ATOM     13  C   UNL     1       4.683  63.532  17.046  1.00  0.00     0.027 C 
BRANCH  13  14
ATOM     14  C   UNL     1       6.183  63.873  16.985  1.00  0.00     0.004 C 
BRANCH  14  15
ATOM     15  C   UNL     1       6.499  65.271  16.423  1.00  0.00     0.000 C 
BRANCH  15  16
ATOM     16  C   UNL     1       5.635  65.635  15.203  1.00  0.00     0.000 C 
BRANCH  16  17
ATOM     17  C   UNL     1       5.062  67.066  15.303  1.00  0.00    -0.000 C 
BRANCH  17  18
ATOM     18  C   UNL     1       4.226  67.308  16.572  1.00  0.00    -0.000 C 
BRANCH  18  19
ATOM     19  C   UNL     1       2.716  67.327  16.301  1.00  0.00    -0.003 C 
ATOM     20  C   UNL     1       2.028  66.117  16.927  1.00  0.00     0.004 C 
ENDBRANCH  18  19
ENDBRANCH  17  18
ENDBRANCH  16  17
ENDBRANCH  15  16
ENDBRANCH  14  15
ENDBRANCH  13  14
ENDBRANCH   2  13
TORSDOF 15
ENDMDL
MODEL 4
REMARK VINA RESULT:    -3.377      2.255      4.031
REMARK INTER + INTRA:          -8.299
REMARK INTER:                  -5.553
REMARK INTRA:                  -2.747
REMARK UNBOUND:                -1.961
REMARK SMILES CCCCCCCCC=CCCCCCCCC(=O)[O-]
REMARK SMILES IDX 10 1 9 2 11 3 12 4 13 5 14 6 15 7 16 8 17 9 18 10 19 11
REMARK SMILES IDX 20 12 8 13 7 14 6 15 5 16 4 17 3 18 2 19 1 20
REMARK H PARENT
REMARK Flexibility Score: inf
ROOT
ATOM      1  C   UNL     1       2.231  65.440  15.414  1.00  0.00    -0.031 C 
ATOM      2  C   UNL     1       0.923  65.589  15.696  1.00  0.00    -0.031 C 
ENDROOT
BRANCH   1   3
ATOM      3  C   UNL     1       2.792  64.972  14.093  1.00  0.00     0.027 C 
BRANCH   3   4
ATOM      4  C   UNL     1       3.672  66.046  13.441  1.00  0.00     0.004 C 
BRANCH   4   5
ATOM      5  C   UNL     1       3.139  66.427  12.055  1.00  0.00     0.000 C 
BRANCH   5   6
ATOM      6  C   UNL     1       1.963  65.524  11.654  1.00  0.00     0.000 C 
BRANCH   6   7
ATOM      7  C   UNL     1       1.523  65.726  10.194  1.00  0.00     0.000 C 
BRANCH   7   8
ATOM      8  C   UNL     1       2.620  65.489   9.138  1.00  0.00     0.006 C 
BRANCH   8   9
ATOM      9  C   UNL     1       2.129  64.752   7.877  1.00  0.00     0.053 C 
BRANCH   9  10
ATOM     10  C   UNL     1       1.872  63.297   8.130  1.00  0.00     0.041 C 
ATOM     11  O   UNL     1       0.893  62.722   7.587  1.00  0.00    -0.550 OA
ATOM     12  O   UNL     1       2.738  62.564   8.933  1.00  0.00    -0.550 OA
ENDBRANCH   9  10
ENDBRANCH   8   9
ENDBRANCH   7   8
ENDBRANCH   6   7
ENDBRANCH   5   6
ENDBRANCH   4   5
ENDBRANCH   3   4
ENDBRANCH   1   3
BRANCH   2  13
ATOM     13  C   UNL     1      -0.218  65.290  14.749  1.00  0.00     0.027 C 
BRANCH  13  14
ATOM     14  C   UNL     1      -0.618  66.525  13.921  1.00  0.00     0.004 C 
BRANCH  14  15
ATOM     15  C   UNL     1      -0.191  67.872  14.534  1.00  0.00     0.000 C 
BRANCH  15  16
ATOM     16  C   UNL     1       0.281  68.886  13.478  1.00  0.00     0.000 C 
BRANCH  16  17
ATOM     17  C   UNL     1       1.735  69.345  13.722  1.00  0.00    -0.000 C 
BRANCH  17  18
ATOM     18  C   UNL     1       2.039  69.673  15.195  1.00  0.00    -0.000 C 
BRANCH  18  19
ATOM     19  C   UNL     1       3.329  69.015  15.702  1.00  0.00    -0.003 C 
ATOM     20  C   UNL     1       3.184  68.563  17.152  1.00  0.00     0.004 C 
ENDBRANCH  18  19
ENDBRANCH  17  18
ENDBRANCH  16  17
ENDBRANCH  15  16
ENDBRANCH  14  15
ENDBRANCH  13  14
ENDBRANCH   2  13
TORSDOF 15
ENDMDL
MODEL 5
REMARK VINA RESULT:    -3.346      4.141      6.059
REMARK INTER + INTRA:          -8.240
REMARK INTER:                  -5.575
REMARK INTRA:                  -2.666
REMARK UNBOUND:                -1.961
REMARK SMILES CCCCCCCCC=CCCCCCCCC(=O)[O-]
REMARK SMILES IDX 10 1 9 2 11 3 12 4 13 5 14 6 15 7 16 8 17 9 18 10 19 11
REMARK SMILES IDX 20 12 8 13 7 14 6 15 5 16 4 17 3 18 2 19 1 20
REMARK H PARENT
REMARK Flexibility Score: inf
ROOT
ATOM      1  C   UNL     1       4.018  62.054  15.926  1.00  0.00    -0.031 C 
ATOM      2  C   UNL     1       4.380  62.465  17.156  1.00  0.00    -0.031 C 
ENDROOT
BRANCH   1   3
ATOM      3  C   UNL     1       2.893  62.637  15.106  1.00  0.00     0.027 C 
BRANCH   3   4
ATOM      4  C   UNL     1       3.405  63.686  14.111  1.00  0.00     0.004 C 
BRANCH   4   5
ATOM      5  C   UNL     1       2.488  64.914  14.087  1.00  0.00     0.000 C 
BRANCH   5   6
ATOM      6  C   UNL     1       1.254  64.694  14.975  1.00  0.00     0.000 C 
BRANCH   6   7
ATOM      7  C   UNL     1       1.162  65.703  16.133  1.00  0.00     0.000 C 
BRANCH   7   8
ATOM      8  C   UNL     1      -0.036  65.506  17.082  1.00  0.00     0.006 C 
BRANCH   8   9
ATOM      9  C   UNL     1       0.291  64.686  18.344  1.00  0.00     0.053 C 
BRANCH   9  10
ATOM     10  C   UNL     1      -0.108  63.247  18.209  1.00  0.00     0.041 C 
ATOM     11  O   UNL     1       0.232  62.409  19.085  1.00  0.00    -0.550 OA
ATOM     12  O   UNL     1      -0.891  62.837  17.137  1.00  0.00    -0.550 OA
ENDBRANCH   9  10
ENDBRANCH   8   9
ENDBRANCH   7   8
ENDBRANCH   6   7
ENDBRANCH   5   6
ENDBRANCH   4   5
ENDBRANCH   3   4
ENDBRANCH   1   3
BRANCH   2  13
ATOM     13  C   UNL     1       3.708  63.567  17.946  1.00  0.00     0.027 C 
BRANCH  13  14
ATOM     14  C   UNL     1       4.635  64.779  18.146  1.00  0.00     0.004 C 
BRANCH  14  15
ATOM     15  C   UNL     1       4.805  65.668  16.900  1.00  0.00     0.000 C 
BRANCH  15  16
ATOM     16  C   UNL     1       6.184  65.511  16.237  1.00  0.00     0.000 C 
BRANCH  16  17
ATOM     17  C   UNL     1       7.329  65.493  17.273  1.00  0.00    -0.000 C 
BRANCH  17  18
ATOM     18  C   UNL     1       8.460  64.509  16.926  1.00  0.00    -0.000 C 
BRANCH  18  19
ATOM     19  C   UNL     1       8.095  63.048  17.219  1.00  0.00    -0.003 C 
ATOM     20  C   UNL     1       9.346  62.190  17.386  1.00  0.00     0.004 C 
ENDBRANCH  18  19
ENDBRANCH  17  18
ENDBRANCH  16  17
ENDBRANCH  15  16
ENDBRANCH  14  15
ENDBRANCH  13  14
ENDBRANCH   2  13
TORSDOF 15
ENDMDL
MODEL 6
REMARK VINA RESULT:    -3.344      4.777      6.484
REMARK INTER + INTRA:          -8.236
REMARK INTER:                  -5.298
REMARK INTRA:                  -2.938
REMARK UNBOUND:                -1.961
REMARK SMILES CCCCCCCCC=CCCCCCCCC(=O)[O-]
REMARK SMILES IDX 10 1 9 2 11 3 12 4 13 5 14 6 15 7 16 8 17 9 18 10 19 11
REMARK SMILES IDX 20 12 8 13 7 14 6 15 5 16 4 17 3 18 2 19 1 20
REMARK H PARENT
REMARK Flexibility Score: inf
ROOT
ATOM      1  C   UNL     1       3.750  67.359  11.739  1.00  0.00    -0.031 C 
ATOM      2  C   UNL     1       4.693  67.749  12.619  1.00  0.00    -0.031 C 
ENDROOT
BRANCH   1   3
ATOM      3  C   UNL     1       2.735  66.267  11.975  1.00  0.00     0.027 C 
BRANCH   3   4
ATOM      4  C   UNL     1       1.328  66.839  12.186  1.00  0.00     0.004 C 
BRANCH   4   5
ATOM      5  C   UNL     1       1.317  68.359  11.988  1.00  0.00     0.000 C 
BRANCH   5   6
ATOM      6  C   UNL     1       0.851  69.075  13.265  1.00  0.00     0.000 C 
BRANCH   6   7
ATOM      7  C   UNL     1       1.661  70.346  13.569  1.00  0.00     0.000 C 
BRANCH   7   8
ATOM      8  C   UNL     1       2.576  70.832  12.429  1.00  0.00     0.006 C 
BRANCH   8   9
ATOM      9  C   UNL     1       3.405  72.082  12.778  1.00  0.00     0.053 C 
BRANCH   9  10
ATOM     10  C   UNL     1       3.206  73.194  11.792  1.00  0.00     0.041 C 
ATOM     11  O   UNL     1       2.106  73.322  11.194  1.00  0.00    -0.550 OA
ATOM     12  O   UNL     1       4.223  74.113  11.561  1.00  0.00    -0.550 OA
ENDBRANCH   9  10
ENDBRANCH   8   9
ENDBRANCH   7   8
ENDBRANCH   6   7
ENDBRANCH   5   6
ENDBRANCH   4   5
ENDBRANCH   3   4
ENDBRANCH   1   3
BRANCH   2  13
ATOM     13  C   UNL     1       4.920  67.145  13.986  1.00  0.00     0.027 C 
BRANCH  13  14
ATOM     14  C   UNL     1       4.295  68.000  15.103  1.00  0.00     0.004 C 
BRANCH  14  15
ATOM     15  C   UNL     1       2.983  67.437  15.683  1.00  0.00     0.000 C 
BRANCH  15  16
ATOM     16  C   UNL     1       3.023  65.911  15.878  1.00  0.00     0.000 C 
BRANCH  16  17
ATOM     17  C   UNL     1       1.692  65.239  15.474  1.00  0.00    -0.000 C 
BRANCH  17  18
ATOM     18  C   UNL     1       1.877  63.924  14.696  1.00  0.00    -0.000 C 
BRANCH  18  19
ATOM     19  C   UNL     1       3.347  63.507  14.562  1.00  0.00    -0.003 C 
ATOM     20  C   UNL     1       3.645  62.259  15.387  1.00  0.00     0.004 C 
ENDBRANCH  18  19
ENDBRANCH  17  18
ENDBRANCH  16  17
ENDBRANCH  15  16
ENDBRANCH  14  15
ENDBRANCH  13  14
ENDBRANCH   2  13
TORSDOF 15
ENDMDL
MODEL 7
REMARK VINA RESULT:    -3.333      5.375      7.291
REMARK INTER + INTRA:          -8.216
REMARK INTER:                  -5.610
REMARK INTRA:                  -2.606
REMARK UNBOUND:                -1.961
REMARK SMILES CCCCCCCCC=CCCCCCCCC(=O)[O-]
REMARK SMILES IDX 10 1 9 2 11 3 12 4 13 5 14 6 15 7 16 8 17 9 18 10 19 11
REMARK SMILES IDX 20 12 8 13 7 14 6 15 5 16 4 17 3 18 2 19 1 20
REMARK H PARENT
REMARK Flexibility Score: inf
ROOT
ATOM      1  C   UNL     1       1.942  71.173   8.933  1.00  0.00    -0.031 C 
ATOM      2  C   UNL     1       1.662  72.442   9.290  1.00  0.00    -0.031 C 
ENDROOT
BRANCH   1   3
ATOM      3  C   UNL     1       3.248  70.462   9.189  1.00  0.00     0.027 C 
BRANCH   3   4
ATOM      4  C   UNL     1       3.095  68.941   9.071  1.00  0.00     0.004 C 
BRANCH   4   5
ATOM      5  C   UNL     1       2.033  68.573   8.028  1.00  0.00     0.000 C 
BRANCH   5   6
ATOM      6  C   UNL     1       0.843  67.860   8.686  1.00  0.00     0.000 C 
BRANCH   6   7
ATOM      7  C   UNL     1       1.273  66.739   9.647  1.00  0.00     0.000 C 
BRANCH   7   8
ATOM      8  C   UNL     1       0.961  65.307   9.169  1.00  0.00     0.006 C 
BRANCH   8   9
ATOM      9  C   UNL     1       2.104  64.647   8.375  1.00  0.00     0.053 C 
BRANCH   9  10
ATOM     10  C   UNL     1       1.914  63.167   8.224  1.00  0.00     0.041 C 
ATOM     11  O   UNL     1       2.654  62.365   8.851  1.00  0.00    -0.550 OA
ATOM     12  O   UNL     1       0.892  62.673   7.422  1.00  0.00    -0.550 OA
ENDBRANCH   9  10
ENDBRANCH   8   9
ENDBRANCH   7   8
ENDBRANCH   6   7
ENDBRANCH   5   6
ENDBRANCH   4   5
ENDBRANCH   3   4
ENDBRANCH   1   3
BRANCH   2  13
ATOM     13  C   UNL     1       2.616  73.387   9.987  1.00  0.00     0.027 C 
BRANCH  13  14
ATOM     14  C   UNL     1       2.485  73.310  11.519  1.00  0.00     0.004 C 
BRANCH  14  15
ATOM     15  C   UNL     1       3.653  72.598  12.226  1.00  0.00     0.000 C 
BRANCH  15  16
ATOM     16  C   UNL     1       3.264  71.215  12.779  1.00  0.00     0.000 C 
BRANCH  16  17
ATOM     17  C   UNL     1       1.736  71.062  12.938  1.00  0.00    -0.000 C 
BRANCH  17  18
ATOM     18  C   UNL     1       1.209  69.675  12.528  1.00  0.00    -0.000 C 
BRANCH  18  19
ATOM     19  C   UNL     1      -0.030  69.747  11.627  1.00  0.00    -0.003 C 
ATOM     20  C   UNL     1      -0.804  71.042  11.855  1.00  0.00     0.004 C 
ENDBRANCH  18  19
ENDBRANCH  17  18
ENDBRANCH  16  17
ENDBRANCH  15  16
ENDBRANCH  14  15
ENDBRANCH  13  14
ENDBRANCH   2  13
TORSDOF 15
ENDMDL
MODEL 8
REMARK VINA RESULT:    -3.332      5.124      7.965
REMARK INTER + INTRA:          -8.215
REMARK INTER:                  -5.752
REMARK INTRA:                  -2.463
REMARK UNBOUND:                -1.961
REMARK SMILES CCCCCCCCC=CCCCCCCCC(=O)[O-]
REMARK SMILES IDX 10 1 9 2 11 3 12 4 13 5 14 6 15 7 16 8 17 9 18 10 19 11
REMARK SMILES IDX 20 12 8 13 7 14 6 15 5 16 4 17 3 18 2 19 1 20
REMARK H PARENT
REMARK Flexibility Score: inf
ROOT
ATOM      1  C   UNL     1       5.303  64.471  17.407  1.00  0.00    -0.031 C 
ATOM      2  C   UNL     1       5.486  63.204  16.987  1.00  0.00    -0.031 C 
ENDROOT
BRANCH   1   3
ATOM      3  C   UNL     1       3.994  65.051  17.884  1.00  0.00     0.027 C 
BRANCH   3   4
ATOM      4  C   UNL     1       4.038  66.584  17.927  1.00  0.00     0.004 C 
BRANCH   4   5
ATOM      5  C   UNL     1       2.641  67.180  17.718  1.00  0.00     0.000 C 
BRANCH   5   6
ATOM      6  C   UNL     1       1.861  67.223  19.041  1.00  0.00     0.000 C 
BRANCH   6   7
ATOM      7  C   UNL     1       2.608  67.980  20.153  1.00  0.00     0.000 C 
BRANCH   7   8
ATOM      8  C   UNL     1       2.330  69.494  20.220  1.00  0.00     0.006 C 
BRANCH   8   9
ATOM      9  C   UNL     1       3.476  70.368  19.678  1.00  0.00     0.053 C 
BRANCH   9  10
ATOM     10  C   UNL     1       3.016  71.312  18.607  1.00  0.00     0.041 C 
ATOM     11  O   UNL     1       3.537  72.453  18.501  1.00  0.00    -0.550 OA
ATOM     12  O   UNL     1       2.040  70.917  17.700  1.00  0.00    -0.550 OA
ENDBRANCH   9  10
ENDBRANCH   8   9
ENDBRANCH   7   8
ENDBRANCH   6   7
ENDBRANCH   5   6
ENDBRANCH   4   5
ENDBRANCH   3   4
ENDBRANCH   1   3
BRANCH   2  13
ATOM     13  C   UNL     1       4.409  62.147  16.893  1.00  0.00     0.027 C 
BRANCH  13  14
ATOM     14  C   UNL     1       3.740  62.129  15.507  1.00  0.00     0.004 C 
BRANCH  14  15
ATOM     15  C   UNL     1       2.289  62.643  15.490  1.00  0.00     0.000 C 
BRANCH  15  16
ATOM     16  C   UNL     1       2.107  63.891  14.608  1.00  0.00     0.000 C 
BRANCH  16  17
ATOM     17  C   UNL     1       3.433  64.341  13.957  1.00  0.00    -0.000 C 
BRANCH  17  18
ATOM     18  C   UNL     1       3.785  65.815  14.227  1.00  0.00    -0.000 C 
BRANCH  18  19
ATOM     19  C   UNL     1       5.295  66.083  14.218  1.00  0.00    -0.003 C 
ATOM     20  C   UNL     1       5.592  67.570  14.381  1.00  0.00     0.004 C 
ENDBRANCH  18  19
ENDBRANCH  17  18
ENDBRANCH  16  17
ENDBRANCH  15  16
ENDBRANCH  14  15
ENDBRANCH  13  14
ENDBRANCH   2  13
TORSDOF 15
ENDMDL
MODEL 9
REMARK VINA RESULT:    -3.298      3.653      6.152
REMARK INTER + INTRA:          -8.150
REMARK INTER:                  -5.274
REMARK INTRA:                  -2.876
REMARK UNBOUND:                -1.961
REMARK SMILES CCCCCCCCC=CCCCCCCCC(=O)[O-]
REMARK SMILES IDX 10 1 9 2 11 3 12 4 13 5 14 6 15 7 16 8 17 9 18 10 19 11
REMARK SMILES IDX 20 12 8 13 7 14 6 15 5 16 4 17 3 18 2 19 1 20
REMARK H PARENT
REMARK Flexibility Score: inf
ROOT
ATOM      1  C   UNL     1       3.943  69.069  13.614  1.00  0.00    -0.031 C 
ATOM      2  C   UNL     1       2.766  69.724  13.623  1.00  0.00    -0.031 C 
ENDROOT
BRANCH   1   3
ATOM      3  C   UNL     1       4.209  67.762  12.909  1.00  0.00     0.027 C 
BRANCH   3   4
ATOM      4  C   UNL     1       3.661  66.570  13.704  1.00  0.00     0.004 C 
BRANCH   4   5
ATOM      5  C   UNL     1       2.999  65.547  12.774  1.00  0.00     0.000 C 
BRANCH   5   6
ATOM      6  C   UNL     1       2.867  66.106  11.349  1.00  0.00     0.000 C 
BRANCH   6   7
ATOM      7  C   UNL     1       1.436  66.005  10.796  1.00  0.00     0.000 C 
BRANCH   7   8
ATOM      8  C   UNL     1       1.325  65.984   9.259  1.00  0.00     0.006 C 
BRANCH   8   9
ATOM      9  C   UNL     1       1.472  64.582   8.637  1.00  0.00     0.053 C 
BRANCH   9  10
ATOM     10  C   UNL     1       2.881  64.288   8.219  1.00  0.00     0.041 C 
ATOM     11  O   UNL     1       3.481  63.280   8.677  1.00  0.00    -0.550 OA
ATOM     12  O   UNL     1       3.520  65.104   7.292  1.00  0.00    -0.550 OA
ENDBRANCH   9  10
ENDBRANCH   8   9
ENDBRANCH   7   8
ENDBRANCH   6   7
ENDBRANCH   5   6
ENDBRANCH   4   5
ENDBRANCH   3   4
ENDBRANCH   1   3
BRANCH   2  13
ATOM     13  C   UNL     1       1.495  69.253  12.952  1.00  0.00     0.027 C 
BRANCH  13  14
ATOM     14  C   UNL     1       1.053  70.204  11.825  1.00  0.00     0.004 C 
BRANCH  14  15
ATOM     15  C   UNL     1       1.304  69.671  10.402  1.00  0.00     0.000 C 
BRANCH  15  16
ATOM     16  C   UNL     1       2.793  69.682  10.013  1.00  0.00     0.000 C 
BRANCH  16  17
ATOM     17  C   UNL     1       3.327  71.115   9.801  1.00  0.00    -0.000 C 
BRANCH  17  18
ATOM     18  C   UNL     1       4.450  71.506  10.778  1.00  0.00    -0.000 C 
BRANCH  18  19
ATOM     19  C   UNL     1       4.053  72.648  11.722  1.00  0.00    -0.003 C 
ATOM     20  C   UNL     1       2.779  73.340  11.246  1.00  0.00     0.004 C 
ENDBRANCH  18  19
ENDBRANCH  17  18
ENDBRANCH  16  17
ENDBRANCH  15  16
ENDBRANCH  14  15
ENDBRANCH  13  14
ENDBRANCH   2  13
TORSDOF 15
ENDMDL
