MODEL 1
REMARK VINA RESULT:    -6.333      0.000      0.000
REMARK INTER + INTRA:          -7.570
REMARK INTER:                  -7.444
REMARK INTRA:                  -0.126
REMARK UNBOUND:                -0.126
REMARK SMILES O=C([O-])C=Cc1ccc(O)c(O)c1
REMARK SMILES IDX 6 1 13 2 7 3 11 4 8 5 9 6 5 7 4 8 2 9 1 10 3 11 12 12 10 14
REMARK H PARENT 12 13 10 15
REMARK Flexibility Score: inf
ROOT
ATOM      1  C   UNL     1     -14.345 -34.047 -14.365  1.00  0.00    -0.022 A 
ATOM      2  C   UNL     1     -15.646 -34.521 -14.605  1.00  0.00     0.058 A 
ATOM      3  C   UNL     1     -13.269 -34.636 -15.060  1.00  0.00     0.012 A 
ATOM      4  C   UNL     1     -15.878 -35.542 -15.539  1.00  0.00     0.157 A 
ATOM      5  C   UNL     1     -13.499 -35.654 -15.988  1.00  0.00     0.051 A 
ATOM      6  C   UNL     1     -14.798 -36.108 -16.234  1.00  0.00     0.157 A 
ENDROOT
BRANCH   1   7
ATOM      7  C   UNL     1     -14.154 -32.972 -13.360  1.00  0.00     0.010 C 
ATOM      8  C   UNL     1     -14.513 -33.083 -12.074  1.00  0.00     0.025 C 
BRANCH   8   9
ATOM      9  C   UNL     1     -14.294 -31.995 -11.109  1.00  0.00     0.064 C 
ATOM     10  O   UNL     1     -13.334 -32.068 -10.297  1.00  0.00    -0.545 OA
ATOM     11  O   UNL     1     -15.130 -30.884 -11.077  1.00  0.00    -0.545 OA
ENDBRANCH   8   9
ENDBRANCH   1   7
BRANCH   4  12
ATOM     12  O   UNL     1     -17.175 -35.995 -15.774  1.00  0.00    -0.504 OA
ATOM     13  H   UNL     1     -17.864 -35.414 -16.237  1.00  0.00     0.293 HD
ENDBRANCH   4  12
BRANCH   6  14
ATOM     14  O   UNL     1     -14.994 -37.125 -17.169  1.00  0.00    -0.504 OA
ATOM     15  H   UNL     1     -15.563 -37.938 -16.968  1.00  0.00     0.293 HD
ENDBRANCH   6  14
TORSDOF 4
ENDMDL
MODEL 2
REMARK VINA RESULT:    -6.034      2.887      4.879
REMARK INTER + INTRA:          -7.218
REMARK INTER:                  -7.085
REMARK INTRA:                  -0.134
REMARK UNBOUND:                -0.126
REMARK SMILES O=C([O-])C=Cc1ccc(O)c(O)c1
REMARK SMILES IDX 6 1 13 2 7 3 11 4 8 5 9 6 5 7 4 8 2 9 1 10 3 11 12 12 10 14
REMARK H PARENT 12 13 10 15
REMARK Flexibility Score: inf
ROOT
ATOM      1  C   UNL     1     -16.428 -36.098 -14.991  1.00  0.00    -0.022 A 
ATOM      2  C   UNL     1     -15.874 -34.900 -14.510  1.00  0.00     0.058 A 
ATOM      3  C   UNL     1     -15.631 -36.941 -15.790  1.00  0.00     0.012 A 
ATOM      4  C   UNL     1     -14.544 -34.557 -14.794  1.00  0.00     0.157 A 
ATOM      5  C   UNL     1     -14.306 -36.600 -16.076  1.00  0.00     0.051 A 
ATOM      6  C   UNL     1     -13.757 -35.414 -15.580  1.00  0.00     0.157 A 
ENDROOT
BRANCH   1   7
ATOM      7  C   UNL     1     -17.843 -36.408 -14.669  1.00  0.00     0.010 C 
ATOM      8  C   UNL     1     -18.611 -35.645 -13.879  1.00  0.00     0.025 C 
BRANCH   8   9
ATOM      9  C   UNL     1     -20.014 -35.984 -13.596  1.00  0.00     0.064 C 
ATOM     10  O   UNL     1     -20.296 -37.117 -13.126  1.00  0.00    -0.545 OA
ATOM     11  O   UNL     1     -21.036 -35.073 -13.840  1.00  0.00    -0.545 OA
ENDBRANCH   8   9
ENDBRANCH   1   7
BRANCH   4  12
ATOM     12  O   UNL     1     -14.006 -33.370 -14.301  1.00  0.00    -0.504 OA
ATOM     13  H   UNL     1     -13.214 -33.368 -13.669  1.00  0.00     0.293 HD
ENDBRANCH   4  12
BRANCH   6  14
ATOM     14  O   UNL     1     -12.431 -35.103 -15.881  1.00  0.00    -0.504 OA
ATOM     15  H   UNL     1     -11.674 -35.294 -15.236  1.00  0.00     0.293 HD
ENDBRANCH   6  14
TORSDOF 4
ENDMDL
MODEL 3
REMARK VINA RESULT:    -6.031      1.017      1.448
REMARK INTER + INTRA:          -7.215
REMARK INTER:                  -7.085
REMARK INTRA:                  -0.129
REMARK UNBOUND:                -0.126
REMARK SMILES O=C([O-])C=Cc1ccc(O)c(O)c1
REMARK SMILES IDX 6 1 13 2 7 3 11 4 8 5 9 6 5 7 4 8 2 9 1 10 3 11 12 12 10 14
REMARK H PARENT 12 13 10 15
REMARK Flexibility Score: inf
ROOT
ATOM      1  C   UNL     1     -14.117 -33.384 -13.590  1.00  0.00    -0.022 A 
ATOM      2  C   UNL     1     -15.175 -34.308 -13.619  1.00  0.00     0.058 A 
ATOM      3  C   UNL     1     -13.085 -33.504 -14.542  1.00  0.00     0.012 A 
ATOM      4  C   UNL     1     -15.222 -35.316 -14.593  1.00  0.00     0.157 A 
ATOM      5  C   UNL     1     -13.130 -34.509 -15.511  1.00  0.00     0.051 A 
ATOM      6  C   UNL     1     -14.194 -35.414 -15.544  1.00  0.00     0.157 A 
ENDROOT
BRANCH   1   7
ATOM      7  C   UNL     1     -14.111 -32.343 -12.533  1.00  0.00     0.010 C 
ATOM      8  C   UNL     1     -14.560 -32.544 -11.287  1.00  0.00     0.025 C 
BRANCH   8   9
ATOM      9  C   UNL     1     -14.525 -31.485 -10.266  1.00  0.00     0.064 C 
ATOM     10  O   UNL     1     -15.555 -30.795 -10.051  1.00  0.00    -0.545 OA
ATOM     11  O   UNL     1     -13.370 -31.233  -9.534  1.00  0.00    -0.545 OA
ENDBRANCH   8   9
ENDBRANCH   1   7
BRANCH   4  12
ATOM     12  O   UNL     1     -16.284 -36.219 -14.615  1.00  0.00    -0.504 OA
ATOM     13  H   UNL     1     -16.594 -36.694 -13.776  1.00  0.00     0.293 HD
ENDBRANCH   4  12
BRANCH   6  14
ATOM     14  O   UNL     1     -14.211 -36.405 -16.525  1.00  0.00    -0.504 OA
ATOM     15  H   UNL     1     -14.409 -37.374 -16.308  1.00  0.00     0.293 HD
ENDBRANCH   6  14
TORSDOF 4
ENDMDL
MODEL 4
REMARK VINA RESULT:    -5.523      3.348      5.001
REMARK INTER + INTRA:          -6.618
REMARK INTER:                  -6.484
REMARK INTRA:                  -0.133
REMARK UNBOUND:                -0.126
REMARK SMILES O=C([O-])C=Cc1ccc(O)c(O)c1
REMARK SMILES IDX 6 1 13 2 7 3 11 4 8 5 9 6 5 7 4 8 2 9 1 10 3 11 12 12 10 14
REMARK H PARENT 12 13 10 15
REMARK Flexibility Score: inf
ROOT
ATOM      1  C   UNL     1     -16.795 -35.995 -14.758  1.00  0.00    -0.022 A 
ATOM      2  C   UNL     1     -16.305 -36.661 -15.894  1.00  0.00     0.058 A 
ATOM      3  C   UNL     1     -15.981 -35.029 -14.134  1.00  0.00     0.012 A 
ATOM      4  C   UNL     1     -15.041 -36.354 -16.417  1.00  0.00     0.157 A 
ATOM      5  C   UNL     1     -14.721 -34.723 -14.654  1.00  0.00     0.051 A 
ATOM      6  C   UNL     1     -14.247 -35.378 -15.794  1.00  0.00     0.157 A 
ENDROOT
BRANCH   1   7
ATOM      7  C   UNL     1     -18.135 -36.365 -14.239  1.00  0.00     0.010 C 
ATOM      8  C   UNL     1     -19.087 -35.474 -13.933  1.00  0.00     0.025 C 
BRANCH   8   9
ATOM      9  C   UNL     1     -20.408 -35.888 -13.432  1.00  0.00     0.064 C 
ATOM     10  O   UNL     1     -21.395 -35.119 -13.575  1.00  0.00    -0.545 OA
ATOM     11  O   UNL     1     -20.585 -37.115 -12.803  1.00  0.00    -0.545 OA
ENDBRANCH   8   9
ENDBRANCH   1   7
BRANCH   4  12
ATOM     12  O   UNL     1     -14.572 -37.016 -17.551  1.00  0.00    -0.504 OA
ATOM     13  H   UNL     1     -15.194 -37.545 -18.152  1.00  0.00     0.293 HD
ENDBRANCH   4  12
BRANCH   6  14
ATOM     14  O   UNL     1     -12.986 -35.049 -16.290  1.00  0.00    -0.504 OA
ATOM     15  H   UNL     1     -12.510 -35.624 -16.974  1.00  0.00     0.293 HD
ENDBRANCH   6  14
TORSDOF 4
ENDMDL
MODEL 5
REMARK VINA RESULT:    -5.436      2.043      6.830
REMARK INTER + INTRA:          -6.516
REMARK INTER:                  -6.382
REMARK INTRA:                  -0.134
REMARK UNBOUND:                -0.126
REMARK SMILES O=C([O-])C=Cc1ccc(O)c(O)c1
REMARK SMILES IDX 6 1 13 2 7 3 11 4 8 5 9 6 5 7 4 8 2 9 1 10 3 11 12 12 10 14
REMARK H PARENT 12 13 10 15
REMARK Flexibility Score: inf
ROOT
ATOM      1  C   UNL     1     -14.528 -32.094 -11.453  1.00  0.00    -0.022 A 
ATOM      2  C   UNL     1     -13.565 -31.932 -10.442  1.00  0.00     0.058 A 
ATOM      3  C   UNL     1     -15.557 -31.139 -11.569  1.00  0.00     0.012 A 
ATOM      4  C   UNL     1     -13.609 -30.827  -9.579  1.00  0.00     0.157 A 
ATOM      5  C   UNL     1     -15.602 -30.039 -10.709  1.00  0.00     0.051 A 
ATOM      6  C   UNL     1     -14.632 -29.876  -9.716  1.00  0.00     0.157 A 
ENDROOT
BRANCH   1   7
ATOM      7  C   UNL     1     -14.441 -33.286 -12.333  1.00  0.00     0.010 C 
ATOM      8  C   UNL     1     -14.391 -33.222 -13.670  1.00  0.00     0.025 C 
BRANCH   8   9
ATOM      9  C   UNL     1     -14.294 -34.431 -14.503  1.00  0.00     0.064 C 
ATOM     10  O   UNL     1     -15.241 -35.260 -14.508  1.00  0.00    -0.545 OA
ATOM     11  O   UNL     1     -13.171 -34.675 -15.286  1.00  0.00    -0.545 OA
ENDBRANCH   8   9
ENDBRANCH   1   7
BRANCH   4  12
ATOM     12  O   UNL     1     -12.641 -30.675  -8.587  1.00  0.00    -0.504 OA
ATOM     13  H   UNL     1     -12.356 -31.450  -8.000  1.00  0.00     0.293 HD
ENDBRANCH   4  12
BRANCH   6  14
ATOM     14  O   UNL     1     -14.703 -28.766  -8.874  1.00  0.00    -0.504 OA
ATOM     15  H   UNL     1     -14.880 -27.834  -9.227  1.00  0.00     0.293 HD
ENDBRANCH   6  14
TORSDOF 4
ENDMDL
MODEL 6
REMARK VINA RESULT:    -5.225      2.208      6.726
REMARK INTER + INTRA:          -6.268
REMARK INTER:                  -6.138
REMARK INTRA:                  -0.130
REMARK UNBOUND:                -0.126
REMARK SMILES O=C([O-])C=Cc1ccc(O)c(O)c1
REMARK SMILES IDX 6 1 13 2 7 3 11 4 8 5 9 6 5 7 4 8 2 9 1 10 3 11 12 12 10 14
REMARK H PARENT 12 13 10 15
REMARK Flexibility Score: inf
ROOT
ATOM      1  C   UNL     1     -14.345 -31.918 -11.256  1.00  0.00    -0.022 A 
ATOM      2  C   UNL     1     -15.067 -30.775 -11.641  1.00  0.00     0.058 A 
ATOM      3  C   UNL     1     -13.594 -31.876 -10.065  1.00  0.00     0.012 A 
ATOM      4  C   UNL     1     -15.065 -29.621 -10.843  1.00  0.00     0.157 A 
ATOM      5  C   UNL     1     -13.590 -30.727  -9.270  1.00  0.00     0.051 A 
ATOM      6  C   UNL     1     -14.324 -29.600  -9.651  1.00  0.00     0.157 A 
ENDROOT
BRANCH   1   7
ATOM      7  C   UNL     1     -14.374 -33.108 -12.142  1.00  0.00     0.010 C 
ATOM      8  C   UNL     1     -14.319 -33.043 -13.479  1.00  0.00     0.025 C 
BRANCH   8   9
ATOM      9  C   UNL     1     -14.338 -34.251 -14.318  1.00  0.00     0.064 C 
ATOM     10  O   UNL     1     -15.376 -34.963 -14.359  1.00  0.00    -0.545 OA
ATOM     11  O   UNL     1     -13.228 -34.622 -15.068  1.00  0.00    -0.545 OA
ENDBRANCH   8   9
ENDBRANCH   1   7
BRANCH   4  12
ATOM     12  O   UNL     1     -15.794 -28.499 -11.233  1.00  0.00    -0.504 OA
ATOM     13  H   UNL     1     -16.705 -28.583 -11.670  1.00  0.00     0.293 HD
ENDBRANCH   4  12
BRANCH   6  14
ATOM     14  O   UNL     1     -14.301 -28.469  -8.836  1.00  0.00    -0.504 OA
ATOM     15  H   UNL     1     -13.496 -28.230  -8.270  1.00  0.00     0.293 HD
ENDBRANCH   6  14
TORSDOF 4
ENDMDL
MODEL 7
REMARK VINA RESULT:    -5.125      1.325      2.314
REMARK INTER + INTRA:          -6.150
REMARK INTER:                  -6.023
REMARK INTRA:                  -0.127
REMARK UNBOUND:                -0.126
REMARK SMILES O=C([O-])C=Cc1ccc(O)c(O)c1
REMARK SMILES IDX 6 1 13 2 7 3 11 4 8 5 9 6 5 7 4 8 2 9 1 10 3 11 12 12 10 14
REMARK H PARENT 12 13 10 15
REMARK Flexibility Score: inf
ROOT
ATOM      1  C   UNL     1     -14.483 -33.599 -13.723  1.00  0.00    -0.022 A 
ATOM      2  C   UNL     1     -13.253 -33.918 -14.324  1.00  0.00     0.058 A 
ATOM      3  C   UNL     1     -15.641 -34.278 -14.149  1.00  0.00     0.012 A 
ATOM      4  C   UNL     1     -13.171 -34.912 -15.310  1.00  0.00     0.157 A 
ATOM      5  C   UNL     1     -15.561 -35.267 -15.133  1.00  0.00     0.051 A 
ATOM      6  C   UNL     1     -14.332 -35.590 -15.713  1.00  0.00     0.157 A 
ENDROOT
BRANCH   1   7
ATOM      7  C   UNL     1     -14.515 -32.533 -12.692  1.00  0.00     0.010 C 
ATOM      8  C   UNL     1     -14.569 -32.772 -11.375  1.00  0.00     0.025 C 
BRANCH   8   9
ATOM      9  C   UNL     1     -14.587 -31.682 -10.387  1.00  0.00     0.064 C 
ATOM     10  O   UNL     1     -15.658 -31.055 -10.174  1.00  0.00    -0.545 OA
ATOM     11  O   UNL     1     -13.441 -31.332  -9.683  1.00  0.00    -0.545 OA
ENDBRANCH   8   9
ENDBRANCH   1   7
BRANCH   4  12
ATOM     12  O   UNL     1     -11.942 -35.224 -15.889  1.00  0.00    -0.504 OA
ATOM     13  H   UNL     1     -11.170 -35.579 -15.337  1.00  0.00     0.293 HD
ENDBRANCH   4  12
BRANCH   6  14
ATOM     14  O   UNL     1     -14.284 -36.583 -16.691  1.00  0.00    -0.504 OA
ATOM     15  H   UNL     1     -13.678 -36.514 -17.499  1.00  0.00     0.293 HD
ENDBRANCH   6  14
TORSDOF 4
ENDMDL
MODEL 8
REMARK VINA RESULT:    -5.033      1.148      5.763
REMARK INTER + INTRA:          -6.042
REMARK INTER:                  -5.916
REMARK INTRA:                  -0.126
REMARK UNBOUND:                -0.126
REMARK SMILES O=C([O-])C=Cc1ccc(O)c(O)c1
REMARK SMILES IDX 6 1 13 2 7 3 11 4 8 5 9 6 5 7 4 8 2 9 1 10 3 11 12 12 10 14
REMARK H PARENT 12 13 10 15
REMARK Flexibility Score: inf
ROOT
ATOM      1  C   UNL     1     -14.445 -33.640 -13.639  1.00  0.00    -0.022 A 
ATOM      2  C   UNL     1     -15.211 -33.515 -12.467  1.00  0.00     0.058 A 
ATOM      3  C   UNL     1     -13.205 -32.974 -13.712  1.00  0.00     0.012 A 
ATOM      4  C   UNL     1     -14.743 -32.765 -11.379  1.00  0.00     0.157 A 
ATOM      5  C   UNL     1     -12.739 -32.225 -12.629  1.00  0.00     0.051 A 
ATOM      6  C   UNL     1     -13.499 -32.119 -11.461  1.00  0.00     0.157 A 
ENDROOT
BRANCH   1   7
ATOM      7  C   UNL     1     -14.991 -34.437 -14.764  1.00  0.00     0.010 C 
ATOM      8  C   UNL     1     -14.491 -35.618 -15.152  1.00  0.00     0.025 C 
BRANCH   8   9
ATOM      9  C   UNL     1     -15.073 -36.381 -16.267  1.00  0.00     0.064 C 
ATOM     10  O   UNL     1     -14.511 -36.360 -17.394  1.00  0.00    -0.545 OA
ATOM     11  O   UNL     1     -16.236 -37.125 -16.099  1.00  0.00    -0.545 OA
ENDBRANCH   8   9
ENDBRANCH   1   7
BRANCH   4  12
ATOM     12  O   UNL     1     -15.511 -32.658 -10.220  1.00  0.00    -0.504 OA
ATOM     13  H   UNL     1     -15.182 -33.017  -9.331  1.00  0.00     0.293 HD
ENDBRANCH   4  12
BRANCH   6  14
ATOM     14  O   UNL     1     -13.005 -31.365 -10.397  1.00  0.00    -0.504 OA
ATOM     15  H   UNL     1     -13.001 -30.353 -10.410  1.00  0.00     0.293 HD
ENDBRANCH   6  14
TORSDOF 4
ENDMDL
MODEL 9
REMARK VINA RESULT:    -4.435     13.852     15.547
REMARK INTER + INTRA:          -5.339
REMARK INTER:                  -5.206
REMARK INTRA:                  -0.133
REMARK UNBOUND:                -0.126
REMARK SMILES O=C([O-])C=Cc1ccc(O)c(O)c1
REMARK SMILES IDX 6 1 13 2 7 3 11 4 8 5 9 6 5 7 4 8 2 9 1 10 3 11 12 12 10 14
REMARK H PARENT 12 13 10 15
REMARK Flexibility Score: inf
ROOT
ATOM      1  C   UNL     1      -9.890 -21.011 -15.667  1.00  0.00    -0.022 A 
ATOM      2  C   UNL     1     -10.276 -19.901 -14.897  1.00  0.00     0.058 A 
ATOM      3  C   UNL     1      -9.174 -22.053 -15.045  1.00  0.00     0.012 A 
ATOM      4  C   UNL     1      -9.980 -19.839 -13.527  1.00  0.00     0.157 A 
ATOM      5  C   UNL     1      -8.877 -21.991 -13.682  1.00  0.00     0.051 A 
ATOM      6  C   UNL     1      -9.278 -20.891 -12.918  1.00  0.00     0.157 A 
ENDROOT
BRANCH   1   7
ATOM      7  C   UNL     1     -10.220 -21.022 -17.114  1.00  0.00     0.010 C 
ATOM      8  C   UNL     1     -10.600 -19.935 -17.799  1.00  0.00     0.025 C 
BRANCH   8   9
ATOM      9  C   UNL     1     -10.906 -19.989 -19.237  1.00  0.00     0.064 C 
ATOM     10  O   UNL     1     -11.867 -20.695 -19.641  1.00  0.00    -0.545 OA
ATOM     11  O   UNL     1     -10.151 -19.273 -20.159  1.00  0.00    -0.545 OA
ENDBRANCH   8   9
ENDBRANCH   1   7
BRANCH   4  12
ATOM     12  O   UNL     1     -10.378 -18.736 -12.774  1.00  0.00    -0.504 OA
ATOM     13  H   UNL     1     -11.298 -18.324 -12.881  1.00  0.00     0.293 HD
ENDBRANCH   4  12
BRANCH   6  14
ATOM     14  O   UNL     1      -8.969 -20.860 -11.558  1.00  0.00    -0.504 OA
ATOM     15  H   UNL     1      -8.121 -21.275 -11.190  1.00  0.00     0.293 HD
ENDBRANCH   6  14
TORSDOF 4
ENDMDL
