MODEL 1
REMARK VINA RESULT:    -4.980      0.000      0.000
REMARK INTER + INTRA:         -10.360
REMARK INTER:                  -9.639
REMARK INTRA:                  -0.721
REMARK UNBOUND:                -0.721
REMARK SMILES CCCCCCCCCCCCCCCCCC(=O)[O-]
REMARK SMILES IDX 10 1 11 2 12 3 13 4 14 5 15 6 16 7 17 8 18 9 19 10 20 11
REMARK SMILES IDX 9 12 8 13 7 14 6 15 5 16 4 17 3 18 2 19 1 20
REMARK H PARENT
REMARK Flexibility Score: inf
ROOT
ATOM      1  C   UNL     1      -8.640 -13.270   6.225  1.00  0.00     0.000 C 
ENDROOT
BRANCH   1   2
ATOM      2  C   UNL     1      -7.861 -13.815   5.015  1.00  0.00     0.000 C 
BRANCH   2   3
ATOM      3  C   UNL     1      -6.660 -14.688   5.437  1.00  0.00     0.000 C 
BRANCH   3   4
ATOM      4  C   UNL     1      -6.897 -16.196   5.242  1.00  0.00     0.000 C 
BRANCH   4   5
ATOM      5  C   UNL     1      -5.655 -17.044   5.557  1.00  0.00     0.000 C 
BRANCH   5   6
ATOM      6  C   UNL     1      -4.352 -16.349   5.108  1.00  0.00     0.000 C 
BRANCH   6   7
ATOM      7  C   UNL     1      -3.848 -16.804   3.725  1.00  0.00     0.006 C 
BRANCH   7   8
ATOM      8  C   UNL     1      -2.314 -16.857   3.601  1.00  0.00     0.053 C 
BRANCH   8   9
ATOM      9  C   UNL     1      -1.782 -18.255   3.495  1.00  0.00     0.041 C 
ATOM     10  O   UNL     1      -1.625 -18.958   4.529  1.00  0.00    -0.550 OA
ATOM     11  O   UNL     1      -1.395 -18.761   2.260  1.00  0.00    -0.550 OA
ENDBRANCH   8   9
ENDBRANCH   7   8
ENDBRANCH   6   7
ENDBRANCH   5   6
ENDBRANCH   4   5
ENDBRANCH   3   4
ENDBRANCH   2   3
ENDBRANCH   1   2
BRANCH   1  12
ATOM     12  C   UNL     1     -10.087 -12.892   5.874  1.00  0.00     0.000 C 
BRANCH  12  13
ATOM     13  C   UNL     1     -10.581 -11.659   6.652  1.00  0.00    -0.000 C 
BRANCH  13  14
ATOM     14  C   UNL     1     -11.497 -10.759   5.808  1.00  0.00    -0.000 C 
BRANCH  14  15
ATOM     15  C   UNL     1     -12.635 -10.135   6.638  1.00  0.00    -0.000 C 
BRANCH  15  16
ATOM     16  C   UNL     1     -12.112  -9.216   7.753  1.00  0.00    -0.000 C 
BRANCH  16  17
ATOM     17  C   UNL     1     -12.437  -9.750   9.159  1.00  0.00    -0.000 C 
BRANCH  17  18
ATOM     18  C   UNL     1     -13.701  -9.111   9.762  1.00  0.00    -0.000 C 
BRANCH  18  19
ATOM     19  C   UNL     1     -14.955 -10.001   9.721  1.00  0.00    -0.003 C 
ATOM     20  C   UNL     1     -16.128  -9.348   8.990  1.00  0.00     0.004 C 
ENDBRANCH  18  19
ENDBRANCH  17  18
ENDBRANCH  16  17
ENDBRANCH  15  16
ENDBRANCH  14  15
ENDBRANCH  13  14
ENDBRANCH  12  13
ENDBRANCH   1  12
TORSDOF 16
ENDMDL
MODEL 2
REMARK VINA RESULT:    -4.848      5.058     10.773
REMARK INTER + INTRA:         -10.103
REMARK INTER:                  -8.543
REMARK INTRA:                  -1.560
REMARK UNBOUND:                -0.721
REMARK SMILES CCCCCCCCCCCCCCCCCC(=O)[O-]
REMARK SMILES IDX 10 1 11 2 12 3 13 4 14 5 15 6 16 7 17 8 18 9 19 10 20 11
REMARK SMILES IDX 9 12 8 13 7 14 6 15 5 16 4 17 3 18 2 19 1 20
REMARK H PARENT
REMARK Flexibility Score: inf
ROOT
ATOM      1  C   UNL     1      -6.663 -15.365   5.914  1.00  0.00     0.000 C 
ENDROOT
BRANCH   1   2
ATOM      2  C   UNL     1      -6.986 -14.111   5.083  1.00  0.00     0.000 C 
BRANCH   2   3
ATOM      3  C   UNL     1      -7.991 -13.180   5.795  1.00  0.00     0.000 C 
BRANCH   3   4
ATOM      4  C   UNL     1      -9.448 -13.392   5.348  1.00  0.00     0.000 C 
BRANCH   4   5
ATOM      5  C   UNL     1     -10.450 -12.543   6.146  1.00  0.00     0.000 C 
BRANCH   5   6
ATOM      6  C   UNL     1      -9.841 -11.195   6.587  1.00  0.00     0.000 C 
BRANCH   6   7
ATOM      7  C   UNL     1     -10.786  -9.994   6.404  1.00  0.00     0.006 C 
BRANCH   7   8
ATOM      8  C   UNL     1     -12.214 -10.376   5.972  1.00  0.00     0.053 C 
BRANCH   8   9
ATOM      9  C   UNL     1     -13.205 -10.312   7.096  1.00  0.00     0.041 C 
ATOM     10  O   UNL     1     -14.442 -10.340   6.859  1.00  0.00    -0.550 OA
ATOM     11  O   UNL     1     -12.764 -10.152   8.403  1.00  0.00    -0.550 OA
ENDBRANCH   8   9
ENDBRANCH   7   8
ENDBRANCH   6   7
ENDBRANCH   5   6
ENDBRANCH   4   5
ENDBRANCH   3   4
ENDBRANCH   2   3
ENDBRANCH   1   2
BRANCH   1  12
ATOM     12  C   UNL     1      -6.145 -16.527   5.053  1.00  0.00     0.000 C 
BRANCH  12  13
ATOM     13  C   UNL     1      -5.237 -17.488   5.840  1.00  0.00    -0.000 C 
BRANCH  13  14
ATOM     14  C   UNL     1      -4.045 -17.986   5.007  1.00  0.00    -0.000 C 
BRANCH  14  15
ATOM     15  C   UNL     1      -3.740 -17.068   3.810  1.00  0.00    -0.000 C 
BRANCH  15  16
ATOM     16  C   UNL     1      -2.496 -16.195   4.041  1.00  0.00    -0.000 C 
BRANCH  16  17
ATOM     17  C   UNL     1      -1.676 -16.648   5.263  1.00  0.00    -0.000 C 
BRANCH  17  18
ATOM     18  C   UNL     1      -1.532 -15.546   6.327  1.00  0.00    -0.000 C 
BRANCH  18  19
ATOM     19  C   UNL     1      -2.507 -15.662   7.512  1.00  0.00    -0.003 C 
ATOM     20  C   UNL     1      -3.445 -14.461   7.634  1.00  0.00     0.004 C 
ENDBRANCH  18  19
ENDBRANCH  17  18
ENDBRANCH  16  17
ENDBRANCH  15  16
ENDBRANCH  14  15
ENDBRANCH  13  14
ENDBRANCH  12  13
ENDBRANCH   1  12
TORSDOF 16
ENDMDL
MODEL 3
REMARK VINA RESULT:    -4.808      4.674      8.262
REMARK INTER + INTRA:         -10.026
REMARK INTER:                  -8.100
REMARK INTRA:                  -1.926
REMARK UNBOUND:                -0.721
REMARK SMILES CCCCCCCCCCCCCCCCCC(=O)[O-]
REMARK SMILES IDX 10 1 11 2 12 3 13 4 14 5 15 6 16 7 17 8 18 9 19 10 20 11
REMARK SMILES IDX 9 12 8 13 7 14 6 15 5 16 4 17 3 18 2 19 1 20
REMARK H PARENT
REMARK Flexibility Score: inf
ROOT
ATOM      1  C   UNL     1      -2.261 -19.305   3.989  1.00  0.00     0.000 C 
ENDROOT
BRANCH   1   2
ATOM      2  C   UNL     1      -1.903 -19.607   5.455  1.00  0.00     0.000 C 
BRANCH   2   3
ATOM      3  C   UNL     1      -3.081 -20.241   6.226  1.00  0.00     0.000 C 
BRANCH   3   4
ATOM      4  C   UNL     1      -4.455 -19.953   5.595  1.00  0.00     0.000 C 
BRANCH   4   5
ATOM      5  C   UNL     1      -5.467 -19.380   6.599  1.00  0.00     0.000 C 
BRANCH   5   6
ATOM      6  C   UNL     1      -6.913 -19.801   6.264  1.00  0.00     0.000 C 
BRANCH   6   7
ATOM      7  C   UNL     1      -7.529 -19.031   5.081  1.00  0.00     0.006 C 
BRANCH   7   8
ATOM      8  C   UNL     1      -8.471 -19.875   4.202  1.00  0.00     0.053 C 
BRANCH   8   9
ATOM      9  C   UNL     1      -9.405 -19.043   3.375  1.00  0.00     0.041 C 
ATOM     10  O   UNL     1      -9.967 -19.533   2.359  1.00  0.00    -0.550 OA
ATOM     11  O   UNL     1      -9.603 -17.703   3.685  1.00  0.00    -0.550 OA
ENDBRANCH   8   9
ENDBRANCH   7   8
ENDBRANCH   6   7
ENDBRANCH   5   6
ENDBRANCH   4   5
ENDBRANCH   3   4
ENDBRANCH   2   3
ENDBRANCH   1   2
BRANCH   1  12
ATOM     12  C   UNL     1      -1.706 -17.954   3.511  1.00  0.00     0.000 C 
BRANCH  12  13
ATOM     13  C   UNL     1      -2.769 -16.842   3.521  1.00  0.00    -0.000 C 
BRANCH  13  14
ATOM     14  C   UNL     1      -2.760 -16.030   4.825  1.00  0.00    -0.000 C 
BRANCH  14  15
ATOM     15  C   UNL     1      -4.062 -16.196   5.630  1.00  0.00    -0.000 C 
BRANCH  15  16
ATOM     16  C   UNL     1      -5.314 -16.133   4.742  1.00  0.00    -0.000 C 
BRANCH  16  17
ATOM     17  C   UNL     1      -6.513 -15.483   5.456  1.00  0.00    -0.000 C 
BRANCH  17  18
ATOM     18  C   UNL     1      -6.965 -14.172   4.789  1.00  0.00    -0.000 C 
BRANCH  18  19
ATOM     19  C   UNL     1      -8.443 -13.811   5.013  1.00  0.00    -0.003 C 
ATOM     20  C   UNL     1      -8.675 -13.005   6.290  1.00  0.00     0.004 C 
ENDBRANCH  18  19
ENDBRANCH  17  18
ENDBRANCH  16  17
ENDBRANCH  15  16
ENDBRANCH  14  15
ENDBRANCH  13  14
ENDBRANCH  12  13
ENDBRANCH   1  12
TORSDOF 16
ENDMDL
MODEL 4
REMARK VINA RESULT:    -4.788      5.351     11.151
REMARK INTER + INTRA:          -9.987
REMARK INTER:                  -8.688
REMARK INTRA:                  -1.299
REMARK UNBOUND:                -0.721
REMARK SMILES CCCCCCCCCCCCCCCCCC(=O)[O-]
REMARK SMILES IDX 10 1 11 2 12 3 13 4 14 5 15 6 16 7 17 8 18 9 19 10 20 11
REMARK SMILES IDX 9 12 8 13 7 14 6 15 5 16 4 17 3 18 2 19 1 20
REMARK H PARENT
REMARK Flexibility Score: inf
ROOT
ATOM      1  C   UNL     1      -7.345 -13.796   5.475  1.00  0.00     0.000 C 
ENDROOT
BRANCH   1   2
ATOM      2  C   UNL     1      -8.772 -13.846   4.901  1.00  0.00     0.000 C 
BRANCH   2   3
ATOM      3  C   UNL     1      -9.747 -12.937   5.680  1.00  0.00     0.000 C 
BRANCH   3   4
ATOM      4  C   UNL     1      -9.165 -12.395   6.997  1.00  0.00     0.000 C 
BRANCH   4   5
ATOM      5  C   UNL     1      -9.892 -11.139   7.502  1.00  0.00     0.000 C 
BRANCH   5   6
ATOM      6  C   UNL     1     -10.380 -10.248   6.341  1.00  0.00     0.000 C 
BRANCH   6   7
ATOM      7  C   UNL     1     -11.795  -9.676   6.546  1.00  0.00     0.006 C 
BRANCH   7   8
ATOM      8  C   UNL     1     -12.896 -10.746   6.662  1.00  0.00     0.053 C 
BRANCH   8   9
ATOM      9  C   UNL     1     -14.077 -10.288   7.465  1.00  0.00     0.041 C 
ATOM     10  O   UNL     1     -15.227 -10.258   6.950  1.00  0.00    -0.550 OA
ATOM     11  O   UNL     1     -13.899  -9.830   8.764  1.00  0.00    -0.550 OA
ENDBRANCH   8   9
ENDBRANCH   7   8
ENDBRANCH   6   7
ENDBRANCH   5   6
ENDBRANCH   4   5
ENDBRANCH   3   4
ENDBRANCH   2   3
ENDBRANCH   1   2
BRANCH   1  12
ATOM     12  C   UNL     1      -6.460 -14.941   4.958  1.00  0.00     0.000 C 
BRANCH  12  13
ATOM     13  C   UNL     1      -6.256 -16.050   6.006  1.00  0.00    -0.000 C 
BRANCH  13  14
ATOM     14  C   UNL     1      -5.215 -15.669   7.070  1.00  0.00    -0.000 C 
BRANCH  14  15
ATOM     15  C   UNL     1      -4.338 -16.864   7.488  1.00  0.00    -0.000 C 
BRANCH  15  16
ATOM     16  C   UNL     1      -2.842 -16.607   7.245  1.00  0.00    -0.000 C 
BRANCH  16  17
ATOM     17  C   UNL     1      -2.594 -15.528   6.175  1.00  0.00    -0.000 C 
BRANCH  17  18
ATOM     18  C   UNL     1      -1.969 -16.097   4.889  1.00  0.00    -0.000 C 
BRANCH  18  19
ATOM     19  C   UNL     1      -2.866 -17.077   4.114  1.00  0.00    -0.003 C 
ATOM     20  C   UNL     1      -2.076 -18.034   3.222  1.00  0.00     0.004 C 
ENDBRANCH  18  19
ENDBRANCH  17  18
ENDBRANCH  16  17
ENDBRANCH  15  16
ENDBRANCH  14  15
ENDBRANCH  13  14
ENDBRANCH  12  13
ENDBRANCH   1  12
TORSDOF 16
ENDMDL
MODEL 5
REMARK VINA RESULT:    -4.722     12.358     13.583
REMARK INTER + INTRA:          -9.860
REMARK INTER:                  -7.894
REMARK INTRA:                  -1.966
REMARK UNBOUND:                -0.721
REMARK SMILES CCCCCCCCCCCCCCCCCC(=O)[O-]
REMARK SMILES IDX 10 1 11 2 12 3 13 4 14 5 15 6 16 7 17 8 18 9 19 10 20 11
REMARK SMILES IDX 9 12 8 13 7 14 6 15 5 16 4 17 3 18 2 19 1 20
REMARK H PARENT
REMARK Flexibility Score: inf
ROOT
ATOM      1  C   UNL     1     -11.829 -20.127  17.470  1.00  0.00     0.000 C 
ENDROOT
BRANCH   1   2
ATOM      2  C   UNL     1     -11.004 -21.145  16.664  1.00  0.00     0.000 C 
BRANCH   2   3
ATOM      3  C   UNL     1     -10.580 -20.593  15.286  1.00  0.00     0.000 C 
BRANCH   3   4
ATOM      4  C   UNL     1      -9.094 -20.825  14.961  1.00  0.00     0.000 C 
BRANCH   4   5
ATOM      5  C   UNL     1      -8.347 -21.578  16.072  1.00  0.00     0.000 C 
BRANCH   5   6
ATOM      6  C   UNL     1      -6.826 -21.325  16.019  1.00  0.00     0.000 C 
BRANCH   6   7
ATOM      7  C   UNL     1      -5.976 -22.577  16.301  1.00  0.00     0.006 C 
BRANCH   7   8
ATOM      8  C   UNL     1      -6.480 -23.852  15.599  1.00  0.00     0.053 C 
BRANCH   8   9
ATOM      9  C   UNL     1      -5.369 -24.719  15.087  1.00  0.00     0.041 C 
ATOM     10  O   UNL     1      -5.596 -25.909  14.741  1.00  0.00    -0.550 OA
ATOM     11  O   UNL     1      -4.067 -24.236  15.056  1.00  0.00    -0.550 OA
ENDBRANCH   8   9
ENDBRANCH   7   8
ENDBRANCH   6   7
ENDBRANCH   5   6
ENDBRANCH   4   5
ENDBRANCH   3   4
ENDBRANCH   2   3
ENDBRANCH   1   2
BRANCH   1  12
ATOM     12  C   UNL     1     -11.575 -20.228  18.983  1.00  0.00     0.000 C 
BRANCH  12  13
ATOM     13  C   UNL     1     -12.819 -19.871  19.816  1.00  0.00    -0.000 C 
BRANCH  13  14
ATOM     14  C   UNL     1     -13.443 -18.530  19.398  1.00  0.00    -0.000 C 
BRANCH  14  15
ATOM     15  C   UNL     1     -12.799 -17.332  20.120  1.00  0.00    -0.000 C 
BRANCH  15  16
ATOM     16  C   UNL     1     -11.942 -16.470  19.179  1.00  0.00    -0.000 C 
BRANCH  16  17
ATOM     17  C   UNL     1     -10.437 -16.763  19.319  1.00  0.00    -0.000 C 
BRANCH  17  18
ATOM     18  C   UNL     1      -9.680 -16.645  17.984  1.00  0.00    -0.000 C 
BRANCH  18  19
ATOM     19  C   UNL     1      -8.902 -17.906  17.570  1.00  0.00    -0.003 C 
ATOM     20  C   UNL     1      -8.015 -17.686  16.346  1.00  0.00     0.004 C 
ENDBRANCH  18  19
ENDBRANCH  17  18
ENDBRANCH  16  17
ENDBRANCH  15  16
ENDBRANCH  14  15
ENDBRANCH  13  14
ENDBRANCH  12  13
ENDBRANCH   1  12
TORSDOF 16
ENDMDL
MODEL 6
REMARK VINA RESULT:    -4.695      4.857     10.330
REMARK INTER + INTRA:          -9.808
REMARK INTER:                  -7.930
REMARK INTRA:                  -1.877
REMARK UNBOUND:                -0.721
REMARK SMILES CCCCCCCCCCCCCCCCCC(=O)[O-]
REMARK SMILES IDX 10 1 11 2 12 3 13 4 14 5 15 6 16 7 17 8 18 9 19 10 20 11
REMARK SMILES IDX 9 12 8 13 7 14 6 15 5 16 4 17 3 18 2 19 1 20
REMARK H PARENT
REMARK Flexibility Score: inf
ROOT
ATOM      1  C   UNL     1      -6.326 -17.880   4.758  1.00  0.00     0.000 C 
ENDROOT
BRANCH   1   2
ATOM      2  C   UNL     1      -6.600 -16.724   5.736  1.00  0.00     0.000 C 
BRANCH   2   3
ATOM      3  C   UNL     1      -6.369 -15.342   5.088  1.00  0.00     0.000 C 
BRANCH   3   4
ATOM      4  C   UNL     1      -7.064 -14.189   5.832  1.00  0.00     0.000 C 
BRANCH   4   5
ATOM      5  C   UNL     1      -8.214 -13.563   5.028  1.00  0.00     0.000 C 
BRANCH   5   6
ATOM      6  C   UNL     1      -9.401 -13.167   5.931  1.00  0.00     0.000 C 
BRANCH   6   7
ATOM      7  C   UNL     1      -9.265 -11.768   6.561  1.00  0.00     0.006 C 
BRANCH   7   8
ATOM      8  C   UNL     1     -10.581 -11.200   7.123  1.00  0.00     0.053 C 
BRANCH   8   9
ATOM      9  C   UNL     1     -11.250 -10.235   6.190  1.00  0.00     0.041 C 
ATOM     10  O   UNL     1     -10.612  -9.253   5.724  1.00  0.00    -0.550 OA
ATOM     11  O   UNL     1     -12.598 -10.380   5.888  1.00  0.00    -0.550 OA
ENDBRANCH   8   9
ENDBRANCH   7   8
ENDBRANCH   6   7
ENDBRANCH   5   6
ENDBRANCH   4   5
ENDBRANCH   3   4
ENDBRANCH   2   3
ENDBRANCH   1   2
BRANCH   1  12
ATOM     12  C   UNL     1      -5.440 -18.975   5.372  1.00  0.00     0.000 C 
BRANCH  12  13
ATOM     13  C   UNL     1      -3.941 -18.735   5.117  1.00  0.00    -0.000 C 
BRANCH  13  14
ATOM     14  C   UNL     1      -3.657 -18.261   3.683  1.00  0.00    -0.000 C 
BRANCH  14  15
ATOM     15  C   UNL     1      -2.971 -16.883   3.644  1.00  0.00    -0.000 C 
BRANCH  15  16
ATOM     16  C   UNL     1      -1.802 -16.780   4.636  1.00  0.00    -0.000 C 
BRANCH  16  17
ATOM     17  C   UNL     1      -1.884 -15.518   5.515  1.00  0.00    -0.000 C 
BRANCH  17  18
ATOM     18  C   UNL     1      -2.082 -15.842   7.006  1.00  0.00    -0.000 C 
BRANCH  18  19
ATOM     19  C   UNL     1      -3.503 -15.587   7.537  1.00  0.00    -0.003 C 
ATOM     20  C   UNL     1      -4.074 -16.775   8.311  1.00  0.00     0.004 C 
ENDBRANCH  18  19
ENDBRANCH  17  18
ENDBRANCH  16  17
ENDBRANCH  15  16
ENDBRANCH  14  15
ENDBRANCH  13  14
ENDBRANCH  12  13
ENDBRANCH   1  12
TORSDOF 16
ENDMDL
MODEL 7
REMARK VINA RESULT:    -4.691      3.864      6.632
REMARK INTER + INTRA:          -9.800
REMARK INTER:                  -8.178
REMARK INTRA:                  -1.622
REMARK UNBOUND:                -0.721
REMARK SMILES CCCCCCCCCCCCCCCCCC(=O)[O-]
REMARK SMILES IDX 10 1 11 2 12 3 13 4 14 5 15 6 16 7 17 8 18 9 19 10 20 11
REMARK SMILES IDX 9 12 8 13 7 14 6 15 5 16 4 17 3 18 2 19 1 20
REMARK H PARENT
REMARK Flexibility Score: inf
ROOT
ATOM      1  C   UNL     1      -2.516 -15.980   4.892  1.00  0.00     0.000 C 
ENDROOT
BRANCH   1   2
ATOM      2  C   UNL     1      -1.501 -17.136   4.876  1.00  0.00     0.000 C 
BRANCH   2   3
ATOM      3  C   UNL     1      -1.851 -18.208   3.822  1.00  0.00     0.000 C 
BRANCH   3   4
ATOM      4  C   UNL     1      -3.352 -18.539   3.756  1.00  0.00     0.000 C 
BRANCH   4   5
ATOM      5  C   UNL     1      -3.801 -19.510   4.859  1.00  0.00     0.000 C 
BRANCH   5   6
ATOM      6  C   UNL     1      -5.208 -19.168   5.392  1.00  0.00     0.000 C 
BRANCH   6   7
ATOM      7  C   UNL     1      -6.336 -19.405   4.372  1.00  0.00     0.006 C 
BRANCH   7   8
ATOM      8  C   UNL     1      -7.726 -18.945   4.851  1.00  0.00     0.053 C 
BRANCH   8   9
ATOM      9  C   UNL     1      -8.781 -19.063   3.792  1.00  0.00     0.041 C 
ATOM     10  O   UNL     1      -9.570 -18.106   3.567  1.00  0.00    -0.550 OA
ATOM     11  O   UNL     1      -8.940 -20.256   3.097  1.00  0.00    -0.550 OA
ENDBRANCH   8   9
ENDBRANCH   7   8
ENDBRANCH   6   7
ENDBRANCH   5   6
ENDBRANCH   4   5
ENDBRANCH   3   4
ENDBRANCH   2   3
ENDBRANCH   1   2
BRANCH   1  12
ATOM     12  C   UNL     1      -2.940 -15.587   6.315  1.00  0.00     0.000 C 
BRANCH  12  13
ATOM     13  C   UNL     1      -4.410 -15.934   6.612  1.00  0.00    -0.000 C 
BRANCH  13  14
ATOM     14  C   UNL     1      -5.331 -15.667   5.411  1.00  0.00    -0.000 C 
BRANCH  14  15
ATOM     15  C   UNL     1      -6.703 -15.110   5.834  1.00  0.00    -0.000 C 
BRANCH  15  16
ATOM     16  C   UNL     1      -7.210 -14.013   4.885  1.00  0.00    -0.000 C 
BRANCH  16  17
ATOM     17  C   UNL     1      -8.653 -13.578   5.202  1.00  0.00    -0.000 C 
BRANCH  17  18
ATOM     18  C   UNL     1      -8.818 -13.064   6.642  1.00  0.00    -0.000 C 
BRANCH  18  19
ATOM     19  C   UNL     1      -9.794 -11.885   6.799  1.00  0.00    -0.003 C 
ATOM     20  C   UNL     1      -9.111 -10.523   6.672  1.00  0.00     0.004 C 
ENDBRANCH  18  19
ENDBRANCH  17  18
ENDBRANCH  16  17
ENDBRANCH  15  16
ENDBRANCH  14  15
ENDBRANCH  13  14
ENDBRANCH  12  13
ENDBRANCH   1  12
TORSDOF 16
ENDMDL
MODEL 8
REMARK VINA RESULT:    -4.680      5.551     10.657
REMARK INTER + INTRA:          -9.778
REMARK INTER:                  -8.666
REMARK INTRA:                  -1.112
REMARK UNBOUND:                -0.721
REMARK SMILES CCCCCCCCCCCCCCCCCC(=O)[O-]
REMARK SMILES IDX 10 1 11 2 12 3 13 4 14 5 15 6 16 7 17 8 18 9 19 10 20 11
REMARK SMILES IDX 9 12 8 13 7 14 6 15 5 16 4 17 3 18 2 19 1 20
REMARK H PARENT
REMARK Flexibility Score: inf
ROOT
ATOM      1  C   UNL     1      -6.885 -15.050   5.985  1.00  0.00     0.000 C 
ENDROOT
BRANCH   1   2
ATOM      2  C   UNL     1      -7.327 -13.737   5.316  1.00  0.00     0.000 C 
BRANCH   2   3
ATOM      3  C   UNL     1      -8.796 -13.788   4.842  1.00  0.00     0.000 C 
BRANCH   3   4
ATOM      4  C   UNL     1      -9.778 -13.101   5.807  1.00  0.00     0.000 C 
BRANCH   4   5
ATOM      5  C   UNL     1      -9.141 -11.938   6.583  1.00  0.00     0.000 C 
BRANCH   5   6
ATOM      6  C   UNL     1      -9.947 -10.631   6.427  1.00  0.00     0.000 C 
BRANCH   6   7
ATOM      7  C   UNL     1     -11.458 -10.850   6.225  1.00  0.00     0.006 C 
BRANCH   7   8
ATOM      8  C   UNL     1     -12.334  -9.680   6.710  1.00  0.00     0.053 C 
BRANCH   8   9
ATOM      9  C   UNL     1     -13.547 -10.129   7.467  1.00  0.00     0.041 C 
ATOM     10  O   UNL     1     -14.649 -10.284   6.874  1.00  0.00    -0.550 OA
ATOM     11  O   UNL     1     -13.481 -10.314   8.842  1.00  0.00    -0.550 OA
ENDBRANCH   8   9
ENDBRANCH   7   8
ENDBRANCH   6   7
ENDBRANCH   5   6
ENDBRANCH   4   5
ENDBRANCH   3   4
ENDBRANCH   2   3
ENDBRANCH   1   2
BRANCH   1  12
ATOM     12  C   UNL     1      -5.603 -15.626   5.365  1.00  0.00     0.000 C 
BRANCH  12  13
ATOM     13  C   UNL     1      -5.242 -17.010   5.932  1.00  0.00    -0.000 C 
BRANCH  13  14
ATOM     14  C   UNL     1      -6.457 -17.947   6.019  1.00  0.00    -0.000 C 
BRANCH  14  15
ATOM     15  C   UNL     1      -6.794 -18.600   4.665  1.00  0.00    -0.000 C 
BRANCH  15  16
ATOM     16  C   UNL     1      -8.275 -18.441   4.289  1.00  0.00    -0.000 C 
BRANCH  16  17
ATOM     17  C   UNL     1      -8.786 -19.593   3.404  1.00  0.00    -0.000 C 
BRANCH  17  18
ATOM     18  C   UNL     1      -9.526 -20.678   4.206  1.00  0.00    -0.000 C 
BRANCH  18  19
ATOM     19  C   UNL     1      -8.658 -21.878   4.620  1.00  0.00    -0.003 C 
ATOM     20  C   UNL     1      -8.094 -21.748   6.035  1.00  0.00     0.004 C 
ENDBRANCH  18  19
ENDBRANCH  17  18
ENDBRANCH  16  17
ENDBRANCH  15  16
ENDBRANCH  14  15
ENDBRANCH  13  14
ENDBRANCH  12  13
ENDBRANCH   1  12
TORSDOF 16
ENDMDL
MODEL 9
REMARK VINA RESULT:    -4.612      5.269     10.614
REMARK INTER + INTRA:          -9.648
REMARK INTER:                  -8.346
REMARK INTRA:                  -1.302
REMARK UNBOUND:                -0.721
REMARK SMILES CCCCCCCCCCCCCCCCCC(=O)[O-]
REMARK SMILES IDX 10 1 11 2 12 3 13 4 14 5 15 6 16 7 17 8 18 9 19 10 20 11
REMARK SMILES IDX 9 12 8 13 7 14 6 15 5 16 4 17 3 18 2 19 1 20
REMARK H PARENT
REMARK Flexibility Score: inf
ROOT
ATOM      1  C   UNL     1      -6.031 -15.354   6.716  1.00  0.00     0.000 C 
ENDROOT
BRANCH   1   2
ATOM      2  C   UNL     1      -6.763 -15.219   5.370  1.00  0.00     0.000 C 
BRANCH   2   3
ATOM      3  C   UNL     1      -7.290 -13.787   5.131  1.00  0.00     0.000 C 
BRANCH   3   4
ATOM      4  C   UNL     1      -8.825 -13.697   5.077  1.00  0.00     0.000 C 
BRANCH   4   5
ATOM      5  C   UNL     1      -9.421 -12.908   6.252  1.00  0.00     0.000 C 
BRANCH   5   6
ATOM      6  C   UNL     1     -10.578 -11.991   5.804  1.00  0.00     0.000 C 
BRANCH   6   7
ATOM      7  C   UNL     1     -10.964 -10.921   6.842  1.00  0.00     0.006 C 
BRANCH   7   8
ATOM      8  C   UNL     1     -12.131 -10.015   6.408  1.00  0.00     0.053 C 
BRANCH   8   9
ATOM      9  C   UNL     1     -13.307 -10.086   7.337  1.00  0.00     0.041 C 
ATOM     10  O   UNL     1     -13.204  -9.685   8.528  1.00  0.00    -0.550 OA
ATOM     11  O   UNL     1     -14.497 -10.660   6.910  1.00  0.00    -0.550 OA
ENDBRANCH   8   9
ENDBRANCH   7   8
ENDBRANCH   6   7
ENDBRANCH   5   6
ENDBRANCH   4   5
ENDBRANCH   3   4
ENDBRANCH   2   3
ENDBRANCH   1   2
BRANCH   1  12
ATOM     12  C   UNL     1      -4.536 -15.665   6.546  1.00  0.00     0.000 C 
BRANCH  12  13
ATOM     13  C   UNL     1      -4.166 -16.015   5.094  1.00  0.00    -0.000 C 
BRANCH  13  14
ATOM     14  C   UNL     1      -3.265 -17.256   4.999  1.00  0.00    -0.000 C 
BRANCH  14  15
ATOM     15  C   UNL     1      -3.962 -18.530   5.512  1.00  0.00    -0.000 C 
BRANCH  15  16
ATOM     16  C   UNL     1      -5.178 -18.919   4.656  1.00  0.00    -0.000 C 
BRANCH  16  17
ATOM     17  C   UNL     1      -6.489 -18.932   5.464  1.00  0.00    -0.000 C 
BRANCH  17  18
ATOM     18  C   UNL     1      -7.737 -18.779   4.577  1.00  0.00    -0.000 C 
BRANCH  18  19
ATOM     19  C   UNL     1      -7.998 -19.958   3.624  1.00  0.00    -0.003 C 
ATOM     20  C   UNL     1      -9.429 -20.489   3.708  1.00  0.00     0.004 C 
ENDBRANCH  18  19
ENDBRANCH  17  18
ENDBRANCH  16  17
ENDBRANCH  15  16
ENDBRANCH  14  15
ENDBRANCH  13  14
ENDBRANCH  12  13
ENDBRANCH   1  12
TORSDOF 16
ENDMDL
