MODEL 1
REMARK VINA RESULT:    -3.850      0.000      0.000
REMARK INTER + INTRA:          -4.172
REMARK INTER:                  -4.188
REMARK INTRA:                   0.016
REMARK UNBOUND:                 0.016
REMARK SMILES COc1cc2ccc(=O)oc2cc1O
REMARK SMILES IDX 3 1 13 2 12 3 11 4 5 5 4 6 6 7 7 8 8 9 9 10 10 11 2 12 1 13
REMARK SMILES IDX 14 14
REMARK H PARENT 14 15
REMARK Flexibility Score: inf
ROOT
ATOM      1  C   UNL     1       3.361   0.385 -18.847  1.00  0.00     0.161 A 
ATOM      2  C   UNL     1       3.360   1.740 -19.217  1.00  0.00     0.161 A 
ATOM      3  C   UNL     1       3.835   2.716 -18.330  1.00  0.00     0.098 A 
ATOM      4  C   UNL     1       4.317   2.350 -17.071  1.00  0.00     0.142 A 
ATOM      5  C   UNL     1       4.321   0.992 -16.691  1.00  0.00     0.022 A 
ATOM      6  C   UNL     1       3.845   0.014 -17.577  1.00  0.00     0.062 A 
ATOM      7  C   UNL     1       4.809   0.656 -15.424  1.00  0.00     0.019 A 
ATOM      8  C   UNL     1       5.271   1.664 -14.579  1.00  0.00     0.094 A 
ATOM      9  C   UNL     1       5.235   2.990 -15.023  1.00  0.00     0.336 A 
ATOM     10  O   UNL     1       5.648   3.915 -14.275  1.00  0.00    -0.246 OA
ATOM     11  O   UNL     1       4.767   3.282 -16.234  1.00  0.00    -0.423 OA
ENDROOT
BRANCH   1  12
ATOM     12  O   UNL     1       2.875  -0.558 -19.766  1.00  0.00    -0.493 OA
ATOM     13  C   UNL     1       3.631  -1.092 -20.848  1.00  0.00     0.278 C 
ENDBRANCH   1  12
BRANCH   2  14
ATOM     14  O   UNL     1       2.881   2.109 -20.474  1.00  0.00    -0.504 OA
ATOM     15  H   UNL     1       3.117   3.001 -20.890  1.00  0.00     0.293 HD
ENDBRANCH   2  14
TORSDOF 2
ENDMDL
MODEL 2
REMARK VINA RESULT:    -3.699      1.254      5.404
REMARK INTER + INTRA:          -4.008
REMARK INTER:                  -3.963
REMARK INTRA:                  -0.045
REMARK UNBOUND:                 0.016
REMARK SMILES COc1cc2ccc(=O)oc2cc1O
REMARK SMILES IDX 3 1 13 2 12 3 11 4 5 5 4 6 6 7 7 8 8 9 9 10 10 11 2 12 1 13
REMARK SMILES IDX 14 14
REMARK H PARENT 14 15
REMARK Flexibility Score: inf
ROOT
ATOM      1  C   UNL     1       4.700   2.567 -15.338  1.00  0.00     0.161 A 
ATOM      2  C   UNL     1       4.915   1.200 -15.101  1.00  0.00     0.161 A 
ATOM      3  C   UNL     1       4.572   0.251 -16.074  1.00  0.00     0.098 A 
ATOM      4  C   UNL     1       4.016   0.657 -17.289  1.00  0.00     0.142 A 
ATOM      5  C   UNL     1       3.797   2.028 -17.535  1.00  0.00     0.022 A 
ATOM      6  C   UNL     1       4.139   2.978 -16.563  1.00  0.00     0.062 A 
ATOM      7  C   UNL     1       3.239   2.404 -18.762  1.00  0.00     0.019 A 
ATOM      8  C   UNL     1       2.915   1.421 -19.696  1.00  0.00     0.094 A 
ATOM      9  C   UNL     1       3.160   0.080 -19.382  1.00  0.00     0.336 A 
ATOM     10  O   UNL     1       2.875  -0.822 -20.213  1.00  0.00    -0.246 OA
ATOM     11  O   UNL     1       3.693  -0.250 -18.209  1.00  0.00    -0.423 OA
ENDROOT
BRANCH   1  12
ATOM     12  O   UNL     1       5.058   3.483 -14.335  1.00  0.00    -0.493 OA
ATOM     13  C   UNL     1       6.327   4.123 -14.244  1.00  0.00     0.278 C 
ENDBRANCH   1  12
BRANCH   2  14
ATOM     14  O   UNL     1       5.470   0.792 -13.888  1.00  0.00    -0.504 OA
ATOM     15  H   UNL     1       6.132   1.371 -13.386  1.00  0.00     0.293 HD
ENDBRANCH   2  14
TORSDOF 2
ENDMDL
MODEL 3
REMARK VINA RESULT:    -3.521      1.936      2.190
REMARK INTER + INTRA:          -3.814
REMARK INTER:                  -3.772
REMARK INTRA:                  -0.043
REMARK UNBOUND:                 0.016
REMARK SMILES COc1cc2ccc(=O)oc2cc1O
REMARK SMILES IDX 3 1 13 2 12 3 11 4 5 5 4 6 6 7 7 8 8 9 9 10 10 11 2 12 1 13
REMARK SMILES IDX 14 14
REMARK H PARENT 14 15
REMARK Flexibility Score: inf
ROOT
ATOM      1  C   UNL     1       2.880  -0.153 -20.359  1.00  0.00     0.161 A 
ATOM      2  C   UNL     1       2.881   1.142 -20.902  1.00  0.00     0.161 A 
ATOM      3  C   UNL     1       2.884   2.263 -20.060  1.00  0.00     0.098 A 
ATOM      4  C   UNL     1       2.890   2.102 -18.672  1.00  0.00     0.142 A 
ATOM      5  C   UNL     1       2.889   0.805 -18.118  1.00  0.00     0.022 A 
ATOM      6  C   UNL     1       2.885  -0.317 -18.959  1.00  0.00     0.062 A 
ATOM      7  C   UNL     1       2.895   0.675 -16.725  1.00  0.00     0.019 A 
ATOM      8  C   UNL     1       2.899   1.821 -15.931  1.00  0.00     0.094 A 
ATOM      9  C   UNL     1       2.899   3.075 -16.551  1.00  0.00     0.336 A 
ATOM     10  O   UNL     1       2.903   4.122 -15.852  1.00  0.00    -0.246 OA
ATOM     11  O   UNL     1       2.894   3.170 -17.878  1.00  0.00    -0.423 OA
ENDROOT
BRANCH   1  12
ATOM     12  O   UNL     1       2.875  -1.246 -21.239  1.00  0.00    -0.493 OA
ATOM     13  C   UNL     1       4.046  -1.889 -21.732  1.00  0.00     0.278 C 
ENDBRANCH   1  12
BRANCH   2  14
ATOM     14  O   UNL     1       2.875   1.306 -22.287  1.00  0.00    -0.504 OA
ATOM     15  H   UNL     1       3.554   0.843 -22.879  1.00  0.00     0.293 HD
ENDBRANCH   2  14
TORSDOF 2
ENDMDL
MODEL 4
REMARK VINA RESULT:    -3.508      2.221      3.357
REMARK INTER + INTRA:          -3.801
REMARK INTER:                  -3.756
REMARK INTRA:                  -0.045
REMARK UNBOUND:                 0.016
REMARK SMILES COc1cc2ccc(=O)oc2cc1O
REMARK SMILES IDX 3 1 13 2 12 3 11 4 5 5 4 6 6 7 7 8 8 9 9 10 10 11 2 12 1 13
REMARK SMILES IDX 14 14
REMARK H PARENT 14 15
REMARK Flexibility Score: inf
ROOT
ATOM      1  C   UNL     1       2.890   0.444 -21.133  1.00  0.00     0.161 A 
ATOM      2  C   UNL     1       2.890  -0.505 -20.099  1.00  0.00     0.161 A 
ATOM      3  C   UNL     1       2.904  -0.092 -18.759  1.00  0.00     0.098 A 
ATOM      4  C   UNL     1       2.917   1.268 -18.441  1.00  0.00     0.142 A 
ATOM      5  C   UNL     1       2.917   2.228 -19.474  1.00  0.00     0.022 A 
ATOM      6  C   UNL     1       2.903   1.817 -20.815  1.00  0.00     0.062 A 
ATOM      7  C   UNL     1       2.929   3.583 -19.125  1.00  0.00     0.019 A 
ATOM      8  C   UNL     1       2.943   3.942 -17.778  1.00  0.00     0.094 A 
ATOM      9  C   UNL     1       2.943   2.934 -16.807  1.00  0.00     0.336 A 
ATOM     10  O   UNL     1       2.955   3.238 -15.586  1.00  0.00    -0.246 OA
ATOM     11  O   UNL     1       2.930   1.654 -17.167  1.00  0.00    -0.423 OA
ENDROOT
BRANCH   1  12
ATOM     12  O   UNL     1       2.876  -0.015 -22.460  1.00  0.00    -0.493 OA
ATOM     13  C   UNL     1       2.960   0.827 -23.605  1.00  0.00     0.278 C 
ENDBRANCH   1  12
BRANCH   2  14
ATOM     14  O   UNL     1       2.877  -1.864 -20.413  1.00  0.00    -0.504 OA
ATOM     15  H   UNL     1       2.259  -2.512 -19.940  1.00  0.00     0.293 HD
ENDBRANCH   2  14
TORSDOF 2
ENDMDL
MODEL 5
REMARK VINA RESULT:    -3.412      1.965      5.490
REMARK INTER + INTRA:          -3.696
REMARK INTER:                  -3.669
REMARK INTRA:                  -0.027
REMARK UNBOUND:                 0.016
REMARK SMILES COc1cc2ccc(=O)oc2cc1O
REMARK SMILES IDX 3 1 13 2 12 3 11 4 5 5 4 6 6 7 7 8 8 9 9 10 10 11 2 12 1 13
REMARK SMILES IDX 14 14
REMARK H PARENT 14 15
REMARK Flexibility Score: inf
ROOT
ATOM      1  C   UNL     1       2.888   1.243 -17.760  1.00  0.00     0.161 A 
ATOM      2  C   UNL     1       2.888   2.488 -18.409  1.00  0.00     0.161 A 
ATOM      3  C   UNL     1       2.886   2.556 -19.810  1.00  0.00     0.098 A 
ATOM      4  C   UNL     1       2.882   1.385 -20.572  1.00  0.00     0.142 A 
ATOM      5  C   UNL     1       2.882   0.131 -19.927  1.00  0.00     0.022 A 
ATOM      6  C   UNL     1       2.885   0.061 -18.527  1.00  0.00     0.062 A 
ATOM      7  C   UNL     1       2.878  -1.024 -20.718  1.00  0.00     0.019 A 
ATOM      8  C   UNL     1       2.876  -0.903 -22.106  1.00  0.00     0.094 A 
ATOM      9  C   UNL     1       2.877   0.375 -22.676  1.00  0.00     0.336 A 
ATOM     10  O   UNL     1       2.875   0.505 -23.928  1.00  0.00    -0.246 OA
ATOM     11  O   UNL     1       2.880   1.456 -21.901  1.00  0.00    -0.423 OA
ENDROOT
BRANCH   1  12
ATOM     12  O   UNL     1       2.890   1.223 -16.357  1.00  0.00    -0.493 OA
ATOM     13  C   UNL     1       4.065   1.249 -15.552  1.00  0.00     0.278 C 
ENDBRANCH   1  12
BRANCH   2  14
ATOM     14  O   UNL     1       2.892   3.659 -17.651  1.00  0.00    -0.504 OA
ATOM     15  H   UNL     1       3.751   4.054 -17.291  1.00  0.00     0.293 HD
ENDBRANCH   2  14
TORSDOF 2
ENDMDL
