MODEL 1
REMARK VINA RESULT:    -5.636      0.000      0.000
REMARK INTER + INTRA:         -19.184
REMARK INTER:                 -14.861
REMARK INTRA:                  -4.324
REMARK UNBOUND:                -4.324
REMARK SMILES CCCCCCCCCCCCCCCCCCCCCCCCCCCCCC(=O)[O-]
REMARK SMILES IDX 16 1 17 2 18 3 19 4 20 5 21 6 22 7 23 8 24 9 25 10 26 11
REMARK SMILES IDX 27 12 28 13 29 14 30 15 31 16 32 17 15 18 14 19 13 20 12 21
REMARK SMILES IDX 11 22 10 23 9 24 8 25 7 26 6 27 5 28 4 29 3 30 2 31 1 32
REMARK H PARENT
REMARK Flexibility Score: inf
ROOT
ATOM      1  C   UNL     1      -1.525 -29.322 -52.772  1.00  0.00     0.000 C 
ENDROOT
BRANCH   1   2
ATOM      2  C   UNL     1      -0.897 -29.512 -51.382  1.00  0.00     0.000 C 
BRANCH   2   3
ATOM      3  C   UNL     1       0.209 -30.577 -51.371  1.00  0.00     0.000 C 
BRANCH   3   4
ATOM      4  C   UNL     1       0.308 -31.283 -52.732  1.00  0.00     0.000 C 
BRANCH   4   5
ATOM      5  C   UNL     1       0.080 -32.801 -52.635  1.00  0.00     0.000 C 
BRANCH   5   6
ATOM      6  C   UNL     1      -1.003 -33.360 -53.579  1.00  0.00     0.000 C 
BRANCH   6   7
ATOM      7  C   UNL     1      -2.422 -32.816 -53.337  1.00  0.00     0.000 C 
BRANCH   7   8
ATOM      8  C   UNL     1      -2.970 -33.179 -51.950  1.00  0.00     0.000 C 
BRANCH   8   9
ATOM      9  C   UNL     1      -3.585 -31.955 -51.262  1.00  0.00     0.000 C 
BRANCH   9  10
ATOM     10  C   UNL     1      -4.910 -32.318 -50.577  1.00  0.00     0.000 C 
BRANCH  10  11
ATOM     11  C   UNL     1      -6.032 -31.304 -50.862  1.00  0.00     0.000 C 
BRANCH  11  12
ATOM     12  C   UNL     1      -7.201 -31.318 -49.860  1.00  0.00     0.000 C 
BRANCH  12  13
ATOM     13  C   UNL     1      -7.485 -29.977 -49.156  1.00  0.00     0.006 C 
BRANCH  13  14
ATOM     14  C   UNL     1      -6.235 -29.102 -48.950  1.00  0.00     0.053 C 
BRANCH  14  15
ATOM     15  C   UNL     1      -6.293 -27.826 -49.736  1.00  0.00     0.041 C 
ATOM     16  O   UNL     1      -5.965 -27.814 -50.951  1.00  0.00    -0.550 OA
ATOM     17  O   UNL     1      -6.743 -26.657 -49.133  1.00  0.00    -0.550 OA
ENDBRANCH  14  15
ENDBRANCH  13  14
ENDBRANCH  12  13
ENDBRANCH  11  12
ENDBRANCH  10  11
ENDBRANCH   9  10
ENDBRANCH   8   9
ENDBRANCH   7   8
ENDBRANCH   6   7
ENDBRANCH   5   6
ENDBRANCH   4   5
ENDBRANCH   3   4
ENDBRANCH   2   3
ENDBRANCH   1   2
BRANCH   1  18
ATOM     18  C   UNL     1      -1.588 -27.848 -53.198  1.00  0.00     0.000 C 
BRANCH  18  19
ATOM     19  C   UNL     1      -0.353 -27.456 -54.017  1.00  0.00     0.000 C 
BRANCH  19  20
ATOM     20  C   UNL     1       0.522 -26.458 -53.248  1.00  0.00     0.000 C 
BRANCH  20  21
ATOM     21  C   UNL     1      -0.247 -25.838 -52.074  1.00  0.00     0.000 C 
BRANCH  21  22
ATOM     22  C   UNL     1       0.296 -24.441 -51.741  1.00  0.00     0.000 C 
BRANCH  22  23
ATOM     23  C   UNL     1      -0.683 -23.319 -52.125  1.00  0.00     0.000 C 
BRANCH  23  24
ATOM     24  C   UNL     1      -0.994 -23.298 -53.629  1.00  0.00    -0.000 C 
BRANCH  24  25
ATOM     25  C   UNL     1      -2.507 -23.222 -53.874  1.00  0.00    -0.000 C 
BRANCH  25  26
ATOM     26  C   UNL     1      -2.971 -24.113 -55.040  1.00  0.00    -0.000 C 
BRANCH  26  27
ATOM     27  C   UNL     1      -3.715 -25.398 -54.625  1.00  0.00    -0.000 C 
BRANCH  27  28
ATOM     28  C   UNL     1      -5.218 -25.220 -54.342  1.00  0.00    -0.000 C 
BRANCH  28  29
ATOM     29  C   UNL     1      -6.030 -26.497 -54.601  1.00  0.00    -0.000 C 
BRANCH  29  30
ATOM     30  C   UNL     1      -5.131 -27.741 -54.547  1.00  0.00    -0.000 C 
BRANCH  30  31
ATOM     31  C   UNL     1      -5.930 -29.036 -54.334  1.00  0.00    -0.003 C 
ATOM     32  C   UNL     1      -5.046 -30.282 -54.331  1.00  0.00     0.004 C 
ENDBRANCH  30  31
ENDBRANCH  29  30
ENDBRANCH  28  29
ENDBRANCH  27  28
ENDBRANCH  26  27
ENDBRANCH  25  26
ENDBRANCH  24  25
ENDBRANCH  23  24
ENDBRANCH  22  23
ENDBRANCH  21  22
ENDBRANCH  20  21
ENDBRANCH  19  20
ENDBRANCH  18  19
ENDBRANCH   1  18
TORSDOF 28
ENDMDL
MODEL 2
REMARK VINA RESULT:    -5.623      2.703      6.711
REMARK INTER + INTRA:         -19.151
REMARK INTER:                 -15.050
REMARK INTRA:                  -4.101
REMARK UNBOUND:                -4.324
REMARK SMILES CCCCCCCCCCCCCCCCCCCCCCCCCCCCCC(=O)[O-]
REMARK SMILES IDX 16 1 17 2 18 3 19 4 20 5 21 6 22 7 23 8 24 9 25 10 26 11
REMARK SMILES IDX 27 12 28 13 29 14 30 15 31 16 32 17 15 18 14 19 13 20 12 21
REMARK SMILES IDX 11 22 10 23 9 24 8 25 7 26 6 27 5 28 4 29 3 30 2 31 1 32
REMARK H PARENT
REMARK Flexibility Score: inf
ROOT
ATOM      1  C   UNL     1      -3.433 -32.973 -50.892  1.00  0.00     0.000 C 
ENDROOT
BRANCH   1   2
ATOM      2  C   UNL     1      -2.128 -33.620 -51.385  1.00  0.00     0.000 C 
BRANCH   2   3
ATOM      3  C   UNL     1      -1.861 -33.357 -52.874  1.00  0.00     0.000 C 
BRANCH   3   4
ATOM      4  C   UNL     1      -0.355 -33.212 -53.146  1.00  0.00     0.000 C 
BRANCH   4   5
ATOM      5  C   UNL     1       0.143 -31.765 -52.987  1.00  0.00     0.000 C 
BRANCH   5   6
ATOM      6  C   UNL     1       0.233 -31.263 -51.531  1.00  0.00     0.000 C 
BRANCH   6   7
ATOM      7  C   UNL     1      -0.286 -29.832 -51.303  1.00  0.00     0.000 C 
BRANCH   7   8
ATOM      8  C   UNL     1      -1.607 -29.554 -52.036  1.00  0.00     0.000 C 
BRANCH   8   9
ATOM      9  C   UNL     1      -1.390 -28.612 -53.225  1.00  0.00     0.000 C 
BRANCH   9  10
ATOM     10  C   UNL     1      -1.774 -27.171 -52.860  1.00  0.00     0.000 C 
BRANCH  10  11
ATOM     11  C   UNL     1      -1.845 -26.239 -54.085  1.00  0.00     0.000 C 
BRANCH  11  12
ATOM     12  C   UNL     1      -1.066 -24.918 -53.951  1.00  0.00     0.000 C 
BRANCH  12  13
ATOM     13  C   UNL     1       0.375 -25.050 -53.422  1.00  0.00     0.006 C 
BRANCH  13  14
ATOM     14  C   UNL     1       0.592 -24.417 -52.035  1.00  0.00     0.053 C 
BRANCH  14  15
ATOM     15  C   UNL     1       1.909 -23.708 -51.929  1.00  0.00     0.041 C 
ATOM     16  O   UNL     1       2.957 -24.249 -52.368  1.00  0.00    -0.550 OA
ATOM     17  O   UNL     1       1.972 -22.435 -51.375  1.00  0.00    -0.550 OA
ENDBRANCH  14  15
ENDBRANCH  13  14
ENDBRANCH  12  13
ENDBRANCH  11  12
ENDBRANCH  10  11
ENDBRANCH   9  10
ENDBRANCH   8   9
ENDBRANCH   7   8
ENDBRANCH   6   7
ENDBRANCH   5   6
ENDBRANCH   4   5
ENDBRANCH   3   4
ENDBRANCH   2   3
ENDBRANCH   1   2
BRANCH   1  18
ATOM     18  C   UNL     1      -4.242 -32.331 -52.030  1.00  0.00     0.000 C 
BRANCH  18  19
ATOM     19  C   UNL     1      -5.702 -32.117 -51.616  1.00  0.00     0.000 C 
BRANCH  19  20
ATOM     20  C   UNL     1      -5.793 -31.574 -50.185  1.00  0.00     0.000 C 
BRANCH  20  21
ATOM     21  C   UNL     1      -7.253 -31.453 -49.731  1.00  0.00     0.000 C 
BRANCH  21  22
ATOM     22  C   UNL     1      -7.554 -30.033 -49.227  1.00  0.00     0.000 C 
BRANCH  22  23
ATOM     23  C   UNL     1      -6.287 -29.284 -48.783  1.00  0.00     0.000 C 
BRANCH  23  24
ATOM     24  C   UNL     1      -6.207 -27.865 -49.365  1.00  0.00    -0.000 C 
BRANCH  24  25
ATOM     25  C   UNL     1      -6.403 -27.886 -50.888  1.00  0.00    -0.000 C 
BRANCH  25  26
ATOM     26  C   UNL     1      -5.096 -28.156 -51.656  1.00  0.00    -0.000 C 
BRANCH  26  27
ATOM     27  C   UNL     1      -5.260 -28.962 -52.960  1.00  0.00    -0.000 C 
BRANCH  27  28
ATOM     28  C   UNL     1      -5.095 -28.148 -54.256  1.00  0.00    -0.000 C 
BRANCH  28  29
ATOM     29  C   UNL     1      -6.165 -27.060 -54.419  1.00  0.00    -0.000 C 
BRANCH  29  30
ATOM     30  C   UNL     1      -5.547 -25.659 -54.303  1.00  0.00    -0.000 C 
BRANCH  30  31
ATOM     31  C   UNL     1      -5.312 -25.004 -55.673  1.00  0.00    -0.003 C 
ATOM     32  C   UNL     1      -5.972 -23.631 -55.793  1.00  0.00     0.004 C 
ENDBRANCH  30  31
ENDBRANCH  29  30
ENDBRANCH  28  29
ENDBRANCH  27  28
ENDBRANCH  26  27
ENDBRANCH  25  26
ENDBRANCH  24  25
ENDBRANCH  23  24
ENDBRANCH  22  23
ENDBRANCH  21  22
ENDBRANCH  20  21
ENDBRANCH  19  20
ENDBRANCH  18  19
ENDBRANCH   1  18
TORSDOF 28
ENDMDL
MODEL 3
REMARK VINA RESULT:    -5.577      1.542      4.165
REMARK INTER + INTRA:         -19.030
REMARK INTER:                 -15.404
REMARK INTRA:                  -3.626
REMARK UNBOUND:                -4.324
REMARK SMILES CCCCCCCCCCCCCCCCCCCCCCCCCCCCCC(=O)[O-]
REMARK SMILES IDX 16 1 17 2 18 3 19 4 20 5 21 6 22 7 23 8 24 9 25 10 26 11
REMARK SMILES IDX 27 12 28 13 29 14 30 15 31 16 32 17 15 18 14 19 13 20 12 21
REMARK SMILES IDX 11 22 10 23 9 24 8 25 7 26 6 27 5 28 4 29 3 30 2 31 1 32
REMARK H PARENT
REMARK Flexibility Score: inf
ROOT
ATOM      1  C   UNL     1      -0.925 -29.894 -51.620  1.00  0.00     0.000 C 
ENDROOT
BRANCH   1   2
ATOM      2  C   UNL     1       0.247 -30.885 -51.534  1.00  0.00     0.000 C 
BRANCH   2   3
ATOM      3  C   UNL     1       0.526 -31.591 -52.869  1.00  0.00     0.000 C 
BRANCH   3   4
ATOM      4  C   UNL     1       0.004 -33.036 -52.848  1.00  0.00     0.000 C 
BRANCH   4   5
ATOM      5  C   UNL     1      -1.523 -33.120 -53.017  1.00  0.00     0.000 C 
BRANCH   5   6
ATOM      6  C   UNL     1      -2.289 -33.627 -51.778  1.00  0.00     0.000 C 
BRANCH   6   7
ATOM      7  C   UNL     1      -3.414 -32.700 -51.284  1.00  0.00     0.000 C 
BRANCH   7   8
ATOM      8  C   UNL     1      -4.244 -32.107 -52.431  1.00  0.00     0.000 C 
BRANCH   8   9
ATOM      9  C   UNL     1      -5.633 -31.679 -51.944  1.00  0.00     0.000 C 
BRANCH   9  10
ATOM     10  C   UNL     1      -5.694 -31.663 -50.410  1.00  0.00     0.000 C 
BRANCH  10  11
ATOM     11  C   UNL     1      -6.900 -30.875 -49.864  1.00  0.00     0.000 C 
BRANCH  11  12
ATOM     12  C   UNL     1      -6.699 -29.352 -49.764  1.00  0.00     0.000 C 
BRANCH  12  13
ATOM     13  C   UNL     1      -6.476 -28.807 -48.340  1.00  0.00     0.006 C 
BRANCH  13  14
ATOM     14  C   UNL     1      -6.385 -27.272 -48.266  1.00  0.00     0.053 C 
BRANCH  14  15
ATOM     15  C   UNL     1      -6.890 -26.731 -46.961  1.00  0.00     0.041 C 
ATOM     16  O   UNL     1      -7.984 -27.135 -46.488  1.00  0.00    -0.550 OA
ATOM     17  O   UNL     1      -6.134 -25.804 -46.252  1.00  0.00    -0.550 OA
ENDBRANCH  14  15
ENDBRANCH  13  14
ENDBRANCH  12  13
ENDBRANCH  11  12
ENDBRANCH  10  11
ENDBRANCH   9  10
ENDBRANCH   8   9
ENDBRANCH   7   8
ENDBRANCH   6   7
ENDBRANCH   5   6
ENDBRANCH   4   5
ENDBRANCH   3   4
ENDBRANCH   2   3
ENDBRANCH   1   2
BRANCH   1  18
ATOM     18  C   UNL     1      -0.754 -28.871 -52.753  1.00  0.00     0.000 C 
BRANCH  18  19
ATOM     19  C   UNL     1      -1.942 -27.905 -52.809  1.00  0.00     0.000 C 
BRANCH  19  20
ATOM     20  C   UNL     1      -3.251 -28.660 -53.071  1.00  0.00     0.000 C 
BRANCH  20  21
ATOM     21  C   UNL     1      -4.369 -28.165 -52.145  1.00  0.00     0.000 C 
BRANCH  21  22
ATOM     22  C   UNL     1      -5.632 -27.819 -52.948  1.00  0.00     0.000 C 
BRANCH  22  23
ATOM     23  C   UNL     1      -5.604 -26.384 -53.502  1.00  0.00     0.000 C 
BRANCH  23  24
ATOM     24  C   UNL     1      -5.284 -26.338 -55.003  1.00  0.00    -0.000 C 
BRANCH  24  25
ATOM     25  C   UNL     1      -4.555 -25.037 -55.366  1.00  0.00    -0.000 C 
BRANCH  25  26
ATOM     26  C   UNL     1      -3.282 -24.809 -54.530  1.00  0.00    -0.000 C 
BRANCH  26  27
ATOM     27  C   UNL     1      -2.983 -23.337 -54.184  1.00  0.00    -0.000 C 
BRANCH  27  28
ATOM     28  C   UNL     1      -1.768 -23.116 -53.265  1.00  0.00    -0.000 C 
BRANCH  28  29
ATOM     29  C   UNL     1      -0.924 -24.384 -53.073  1.00  0.00    -0.000 C 
BRANCH  29  30
ATOM     30  C   UNL     1       0.057 -24.221 -51.904  1.00  0.00    -0.000 C 
BRANCH  30  31
ATOM     31  C   UNL     1       1.523 -24.371 -52.339  1.00  0.00    -0.003 C 
ATOM     32  C   UNL     1       2.440 -23.334 -51.693  1.00  0.00     0.004 C 
ENDBRANCH  30  31
ENDBRANCH  29  30
ENDBRANCH  28  29
ENDBRANCH  27  28
ENDBRANCH  26  27
ENDBRANCH  25  26
ENDBRANCH  24  25
ENDBRANCH  23  24
ENDBRANCH  22  23
ENDBRANCH  21  22
ENDBRANCH  20  21
ENDBRANCH  19  20
ENDBRANCH  18  19
ENDBRANCH   1  18
TORSDOF 28
ENDMDL
MODEL 4
REMARK VINA RESULT:    -5.537      2.408      5.805
REMARK INTER + INTRA:         -18.923
REMARK INTER:                 -14.956
REMARK INTRA:                  -3.966
REMARK UNBOUND:                -4.324
REMARK SMILES CCCCCCCCCCCCCCCCCCCCCCCCCCCCCC(=O)[O-]
REMARK SMILES IDX 16 1 17 2 18 3 19 4 20 5 21 6 22 7 23 8 24 9 25 10 26 11
REMARK SMILES IDX 27 12 28 13 29 14 30 15 31 16 32 17 15 18 14 19 13 20 12 21
REMARK SMILES IDX 11 22 10 23 9 24 8 25 7 26 6 27 5 28 4 29 3 30 2 31 1 32
REMARK H PARENT
REMARK Flexibility Score: inf
ROOT
ATOM      1  C   UNL     1      -7.146 -31.258 -49.732  1.00  0.00     0.000 C 
ENDROOT
BRANCH   1   2
ATOM      2  C   UNL     1      -5.748 -31.592 -50.277  1.00  0.00     0.000 C 
BRANCH   2   3
ATOM      3  C   UNL     1      -5.769 -31.992 -51.760  1.00  0.00     0.000 C 
BRANCH   3   4
ATOM      4  C   UNL     1      -4.348 -32.259 -52.279  1.00  0.00     0.000 C 
BRANCH   4   5
ATOM      5  C   UNL     1      -3.459 -32.972 -51.245  1.00  0.00     0.000 C 
BRANCH   5   6
ATOM      6  C   UNL     1      -2.198 -33.645 -51.823  1.00  0.00     0.000 C 
BRANCH   6   7
ATOM      7  C   UNL     1      -1.898 -33.312 -53.295  1.00  0.00     0.000 C 
BRANCH   7   8
ATOM      8  C   UNL     1      -0.706 -32.359 -53.459  1.00  0.00     0.000 C 
BRANCH   8   9
ATOM      9  C   UNL     1       0.187 -32.373 -52.212  1.00  0.00     0.000 C 
BRANCH   9  10
ATOM     10  C   UNL     1       0.336 -30.962 -51.628  1.00  0.00     0.000 C 
BRANCH  10  11
ATOM     11  C   UNL     1      -0.991 -30.179 -51.600  1.00  0.00     0.000 C 
BRANCH  11  12
ATOM     12  C   UNL     1      -0.850 -28.646 -51.591  1.00  0.00     0.000 C 
BRANCH  12  13
ATOM     13  C   UNL     1      -0.429 -28.013 -52.932  1.00  0.00     0.006 C 
BRANCH  13  14
ATOM     14  C   UNL     1      -1.136 -26.681 -53.243  1.00  0.00     0.053 C 
BRANCH  14  15
ATOM     15  C   UNL     1      -0.372 -25.495 -52.735  1.00  0.00     0.041 C 
ATOM     16  O   UNL     1      -0.004 -25.445 -51.532  1.00  0.00    -0.550 OA
ATOM     17  O   UNL     1      -0.037 -24.460 -53.600  1.00  0.00    -0.550 OA
ENDBRANCH  14  15
ENDBRANCH  13  14
ENDBRANCH  12  13
ENDBRANCH  11  12
ENDBRANCH  10  11
ENDBRANCH   9  10
ENDBRANCH   8   9
ENDBRANCH   7   8
ENDBRANCH   6   7
ENDBRANCH   5   6
ENDBRANCH   4   5
ENDBRANCH   3   4
ENDBRANCH   2   3
ENDBRANCH   1   2
BRANCH   1  18
ATOM     18  C   UNL     1      -7.240 -29.829 -49.178  1.00  0.00     0.000 C 
BRANCH  18  19
ATOM     19  C   UNL     1      -6.035 -28.988 -49.613  1.00  0.00     0.000 C 
BRANCH  19  20
ATOM     20  C   UNL     1      -6.484 -27.632 -50.173  1.00  0.00     0.000 C 
BRANCH  20  21
ATOM     21  C   UNL     1      -5.915 -27.398 -51.577  1.00  0.00     0.000 C 
BRANCH  21  22
ATOM     22  C   UNL     1      -4.943 -28.521 -51.969  1.00  0.00     0.000 C 
BRANCH  22  23
ATOM     23  C   UNL     1      -4.363 -28.334 -53.381  1.00  0.00     0.000 C 
BRANCH  23  24
ATOM     24  C   UNL     1      -5.450 -28.294 -54.464  1.00  0.00    -0.000 C 
BRANCH  24  25
ATOM     25  C   UNL     1      -5.599 -26.877 -55.037  1.00  0.00    -0.000 C 
BRANCH  25  26
ATOM     26  C   UNL     1      -4.414 -25.960 -54.682  1.00  0.00    -0.000 C 
BRANCH  26  27
ATOM     27  C   UNL     1      -4.801 -24.536 -54.235  1.00  0.00    -0.000 C 
BRANCH  27  28
ATOM     28  C   UNL     1      -5.857 -23.840 -55.111  1.00  0.00    -0.000 C 
BRANCH  28  29
ATOM     29  C   UNL     1      -5.329 -22.567 -55.787  1.00  0.00    -0.000 C 
BRANCH  29  30
ATOM     30  C   UNL     1      -5.678 -22.552 -57.282  1.00  0.00    -0.000 C 
BRANCH  30  31
ATOM     31  C   UNL     1      -5.661 -23.956 -57.905  1.00  0.00    -0.003 C 
ATOM     32  C   UNL     1      -6.979 -24.317 -58.587  1.00  0.00     0.004 C 
ENDBRANCH  30  31
ENDBRANCH  29  30
ENDBRANCH  28  29
ENDBRANCH  27  28
ENDBRANCH  26  27
ENDBRANCH  25  26
ENDBRANCH  24  25
ENDBRANCH  23  24
ENDBRANCH  22  23
ENDBRANCH  21  22
ENDBRANCH  20  21
ENDBRANCH  19  20
ENDBRANCH  18  19
ENDBRANCH   1  18
TORSDOF 28
ENDMDL
MODEL 5
REMARK VINA RESULT:    -5.437      1.197      4.010
REMARK INTER + INTRA:         -18.660
REMARK INTER:                 -13.821
REMARK INTRA:                  -4.840
REMARK UNBOUND:                -4.324
REMARK SMILES CCCCCCCCCCCCCCCCCCCCCCCCCCCCCC(=O)[O-]
REMARK SMILES IDX 16 1 17 2 18 3 19 4 20 5 21 6 22 7 23 8 24 9 25 10 26 11
REMARK SMILES IDX 27 12 28 13 29 14 30 15 31 16 32 17 15 18 14 19 13 20 12 21
REMARK SMILES IDX 11 22 10 23 9 24 8 25 7 26 6 27 5 28 4 29 3 30 2 31 1 32
REMARK H PARENT
REMARK Flexibility Score: inf
ROOT
ATOM      1  C   UNL     1      -2.378 -29.427 -53.000  1.00  0.00     0.000 C 
ENDROOT
BRANCH   1   2
ATOM      2  C   UNL     1      -1.808 -29.817 -51.627  1.00  0.00     0.000 C 
BRANCH   2   3
ATOM      3  C   UNL     1      -0.280 -29.683 -51.559  1.00  0.00     0.000 C 
BRANCH   3   4
ATOM      4  C   UNL     1       0.374 -30.161 -52.865  1.00  0.00     0.000 C 
BRANCH   4   5
ATOM      5  C   UNL     1       1.129 -31.493 -52.701  1.00  0.00     0.000 C 
BRANCH   5   6
ATOM      6  C   UNL     1       0.231 -32.740 -52.581  1.00  0.00     0.000 C 
BRANCH   6   7
ATOM      7  C   UNL     1      -0.775 -32.932 -53.729  1.00  0.00     0.000 C 
BRANCH   7   8
ATOM      8  C   UNL     1      -2.204 -33.192 -53.231  1.00  0.00     0.000 C 
BRANCH   8   9
ATOM      9  C   UNL     1      -2.211 -33.563 -51.744  1.00  0.00     0.000 C 
BRANCH   9  10
ATOM     10  C   UNL     1      -3.435 -32.967 -51.036  1.00  0.00     0.000 C 
BRANCH  10  11
ATOM     11  C   UNL     1      -4.498 -32.436 -52.016  1.00  0.00     0.000 C 
BRANCH  11  12
ATOM     12  C   UNL     1      -5.853 -32.072 -51.383  1.00  0.00     0.000 C 
BRANCH  12  13
ATOM     13  C   UNL     1      -5.776 -31.293 -50.055  1.00  0.00     0.006 C 
BRANCH  13  14
ATOM     14  C   UNL     1      -6.440 -29.905 -50.105  1.00  0.00     0.053 C 
BRANCH  14  15
ATOM     15  C   UNL     1      -7.049 -29.515 -48.791  1.00  0.00     0.041 C 
ATOM     16  O   UNL     1      -8.211 -29.894 -48.493  1.00  0.00    -0.550 OA
ATOM     17  O   UNL     1      -6.317 -28.759 -47.881  1.00  0.00    -0.550 OA
ENDBRANCH  14  15
ENDBRANCH  13  14
ENDBRANCH  12  13
ENDBRANCH  11  12
ENDBRANCH  10  11
ENDBRANCH   9  10
ENDBRANCH   8   9
ENDBRANCH   7   8
ENDBRANCH   6   7
ENDBRANCH   5   6
ENDBRANCH   4   5
ENDBRANCH   3   4
ENDBRANCH   2   3
ENDBRANCH   1   2
BRANCH   1  18
ATOM     18  C   UNL     1      -2.945 -27.999 -53.022  1.00  0.00     0.000 C 
BRANCH  18  19
ATOM     19  C   UNL     1      -4.407 -27.979 -52.565  1.00  0.00     0.000 C 
BRANCH  19  20
ATOM     20  C   UNL     1      -5.243 -28.996 -53.351  1.00  0.00     0.000 C 
BRANCH  20  21
ATOM     21  C   UNL     1      -5.671 -28.428 -54.710  1.00  0.00     0.000 C 
BRANCH  21  22
ATOM     22  C   UNL     1      -6.184 -26.987 -54.564  1.00  0.00     0.000 C 
BRANCH  22  23
ATOM     23  C   UNL     1      -5.411 -25.993 -55.446  1.00  0.00     0.000 C 
BRANCH  23  24
ATOM     24  C   UNL     1      -4.809 -24.833 -54.640  1.00  0.00    -0.000 C 
BRANCH  24  25
ATOM     25  C   UNL     1      -3.280 -24.805 -54.781  1.00  0.00    -0.000 C 
BRANCH  25  26
ATOM     26  C   UNL     1      -2.734 -23.400 -55.093  1.00  0.00    -0.000 C 
BRANCH  26  27
ATOM     27  C   UNL     1      -1.492 -22.985 -54.279  1.00  0.00    -0.000 C 
BRANCH  27  28
ATOM     28  C   UNL     1      -1.440 -23.535 -52.841  1.00  0.00    -0.000 C 
BRANCH  28  29
ATOM     29  C   UNL     1      -0.096 -23.271 -52.149  1.00  0.00    -0.000 C 
BRANCH  29  30
ATOM     30  C   UNL     1       0.794 -24.522 -52.179  1.00  0.00    -0.000 C 
BRANCH  30  31
ATOM     31  C   UNL     1      -0.014 -25.814 -52.376  1.00  0.00    -0.003 C 
ATOM     32  C   UNL     1       0.446 -26.619 -53.590  1.00  0.00     0.004 C 
ENDBRANCH  30  31
ENDBRANCH  29  30
ENDBRANCH  28  29
ENDBRANCH  27  28
ENDBRANCH  26  27
ENDBRANCH  25  26
ENDBRANCH  24  25
ENDBRANCH  23  24
ENDBRANCH  22  23
ENDBRANCH  21  22
ENDBRANCH  20  21
ENDBRANCH  19  20
ENDBRANCH  18  19
ENDBRANCH   1  18
TORSDOF 28
ENDMDL
MODEL 6
REMARK VINA RESULT:    -5.427      1.921      7.094
REMARK INTER + INTRA:         -18.634
REMARK INTER:                 -13.977
REMARK INTRA:                  -4.657
REMARK UNBOUND:                -4.324
REMARK SMILES CCCCCCCCCCCCCCCCCCCCCCCCCCCCCC(=O)[O-]
REMARK SMILES IDX 16 1 17 2 18 3 19 4 20 5 21 6 22 7 23 8 24 9 25 10 26 11
REMARK SMILES IDX 27 12 28 13 29 14 30 15 31 16 32 17 15 18 14 19 13 20 12 21
REMARK SMILES IDX 11 22 10 23 9 24 8 25 7 26 6 27 5 28 4 29 3 30 2 31 1 32
REMARK H PARENT
REMARK Flexibility Score: inf
ROOT
ATOM      1  C   UNL     1      -1.434 -29.232 -52.041  1.00  0.00     0.000 C 
ENDROOT
BRANCH   1   2
ATOM      2  C   UNL     1      -0.904 -27.854 -52.468  1.00  0.00     0.000 C 
BRANCH   2   3
ATOM      3  C   UNL     1       0.309 -27.948 -53.405  1.00  0.00     0.000 C 
BRANCH   3   4
ATOM      4  C   UNL     1       0.113 -27.068 -54.649  1.00  0.00     0.000 C 
BRANCH   4   5
ATOM      5  C   UNL     1       1.400 -26.339 -55.073  1.00  0.00     0.000 C 
BRANCH   5   6
ATOM      6  C   UNL     1       1.574 -24.926 -54.482  1.00  0.00     0.000 C 
BRANCH   6   7
ATOM      7  C   UNL     1       2.445 -24.852 -53.215  1.00  0.00     0.000 C 
BRANCH   7   8
ATOM      8  C   UNL     1       1.776 -24.068 -52.077  1.00  0.00     0.000 C 
BRANCH   8   9
ATOM      9  C   UNL     1       0.256 -24.273 -52.086  1.00  0.00     0.000 C 
BRANCH   9  10
ATOM     10  C   UNL     1      -0.478 -22.927 -52.163  1.00  0.00     0.000 C 
BRANCH  10  11
ATOM     11  C   UNL     1      -1.684 -22.954 -53.121  1.00  0.00     0.000 C 
BRANCH  11  12
ATOM     12  C   UNL     1      -2.033 -24.337 -53.700  1.00  0.00     0.000 C 
BRANCH  12  13
ATOM     13  C   UNL     1      -3.076 -24.336 -54.834  1.00  0.00     0.006 C 
BRANCH  13  14
ATOM     14  C   UNL     1      -4.534 -24.391 -54.342  1.00  0.00     0.053 C 
BRANCH  14  15
ATOM     15  C   UNL     1      -5.492 -24.772 -55.431  1.00  0.00     0.041 C 
ATOM     16  O   UNL     1      -6.404 -23.978 -55.780  1.00  0.00    -0.550 OA
ATOM     17  O   UNL     1      -5.355 -25.992 -56.084  1.00  0.00    -0.550 OA
ENDBRANCH  14  15
ENDBRANCH  13  14
ENDBRANCH  12  13
ENDBRANCH  11  12
ENDBRANCH  10  11
ENDBRANCH   9  10
ENDBRANCH   8   9
ENDBRANCH   7   8
ENDBRANCH   6   7
ENDBRANCH   5   6
ENDBRANCH   4   5
ENDBRANCH   3   4
ENDBRANCH   2   3
ENDBRANCH   1   2
BRANCH   1  18
ATOM     18  C   UNL     1      -0.372 -30.080 -51.326  1.00  0.00     0.000 C 
BRANCH  18  19
ATOM     19  C   UNL     1      -0.536 -31.567 -51.659  1.00  0.00     0.000 C 
BRANCH  19  20
ATOM     20  C   UNL     1      -1.254 -31.753 -53.002  1.00  0.00     0.000 C 
BRANCH  20  21
ATOM     21  C   UNL     1      -2.120 -33.020 -52.995  1.00  0.00     0.000 C 
BRANCH  21  22
ATOM     22  C   UNL     1      -2.962 -33.100 -51.712  1.00  0.00     0.000 C 
BRANCH  22  23
ATOM     23  C   UNL     1      -3.976 -31.950 -51.599  1.00  0.00     0.000 C 
BRANCH  23  24
ATOM     24  C   UNL     1      -5.289 -32.246 -52.338  1.00  0.00    -0.000 C 
BRANCH  24  25
ATOM     25  C   UNL     1      -5.414 -31.380 -53.600  1.00  0.00    -0.000 C 
BRANCH  25  26
ATOM     26  C   UNL     1      -4.508 -30.136 -53.564  1.00  0.00    -0.000 C 
BRANCH  26  27
ATOM     27  C   UNL     1      -5.201 -28.812 -53.943  1.00  0.00    -0.000 C 
BRANCH  27  28
ATOM     28  C   UNL     1      -5.216 -27.742 -52.836  1.00  0.00    -0.000 C 
BRANCH  28  29
ATOM     29  C   UNL     1      -5.106 -28.340 -51.426  1.00  0.00    -0.000 C 
BRANCH  29  30
ATOM     30  C   UNL     1      -6.319 -27.951 -50.568  1.00  0.00    -0.000 C 
BRANCH  30  31
ATOM     31  C   UNL     1      -6.355 -28.697 -49.225  1.00  0.00    -0.003 C 
ATOM     32  C   UNL     1      -6.635 -30.190 -49.386  1.00  0.00     0.004 C 
ENDBRANCH  30  31
ENDBRANCH  29  30
ENDBRANCH  28  29
ENDBRANCH  27  28
ENDBRANCH  26  27
ENDBRANCH  25  26
ENDBRANCH  24  25
ENDBRANCH  23  24
ENDBRANCH  22  23
ENDBRANCH  21  22
ENDBRANCH  20  21
ENDBRANCH  19  20
ENDBRANCH  18  19
ENDBRANCH   1  18
TORSDOF 28
ENDMDL
MODEL 7
REMARK VINA RESULT:    -5.402      1.833      6.466
REMARK INTER + INTRA:         -18.569
REMARK INTER:                 -14.488
REMARK INTRA:                  -4.081
REMARK UNBOUND:                -4.324
REMARK SMILES CCCCCCCCCCCCCCCCCCCCCCCCCCCCCC(=O)[O-]
REMARK SMILES IDX 16 1 17 2 18 3 19 4 20 5 21 6 22 7 23 8 24 9 25 10 26 11
REMARK SMILES IDX 27 12 28 13 29 14 30 15 31 16 32 17 15 18 14 19 13 20 12 21
REMARK SMILES IDX 11 22 10 23 9 24 8 25 7 26 6 27 5 28 4 29 3 30 2 31 1 32
REMARK H PARENT
REMARK Flexibility Score: inf
ROOT
ATOM      1  C   UNL     1      -2.822 -33.495 -51.108  1.00  0.00     0.000 C 
ENDROOT
BRANCH   1   2
ATOM      2  C   UNL     1      -2.225 -33.558 -52.523  1.00  0.00     0.000 C 
BRANCH   2   3
ATOM      3  C   UNL     1      -0.706 -33.328 -52.537  1.00  0.00     0.000 C 
BRANCH   3   4
ATOM      4  C   UNL     1      -0.325 -32.228 -53.539  1.00  0.00     0.000 C 
BRANCH   4   5
ATOM      5  C   UNL     1      -0.781 -30.828 -53.091  1.00  0.00     0.000 C 
BRANCH   5   6
ATOM      6  C   UNL     1      -0.618 -30.540 -51.585  1.00  0.00     0.000 C 
BRANCH   6   7
ATOM      7  C   UNL     1      -0.321 -29.072 -51.232  1.00  0.00     0.000 C 
BRANCH   7   8
ATOM      8  C   UNL     1      -0.132 -28.187 -52.473  1.00  0.00     0.000 C 
BRANCH   8   9
ATOM      9  C   UNL     1      -0.810 -26.825 -52.288  1.00  0.00     0.000 C 
BRANCH   9  10
ATOM     10  C   UNL     1       0.131 -25.684 -52.699  1.00  0.00     0.000 C 
BRANCH  10  11
ATOM     11  C   UNL     1      -0.024 -24.430 -51.819  1.00  0.00     0.000 C 
BRANCH  11  12
ATOM     12  C   UNL     1      -0.231 -23.110 -52.585  1.00  0.00     0.000 C 
BRANCH  12  13
ATOM     13  C   UNL     1      -0.783 -23.256 -54.016  1.00  0.00     0.006 C 
BRANCH  13  14
ATOM     14  C   UNL     1      -2.191 -22.663 -54.207  1.00  0.00     0.053 C 
BRANCH  14  15
ATOM     15  C   UNL     1      -3.267 -23.705 -54.130  1.00  0.00     0.041 C 
ATOM     16  O   UNL     1      -2.978 -24.924 -54.245  1.00  0.00    -0.550 OA
ATOM     17  O   UNL     1      -4.585 -23.330 -53.899  1.00  0.00    -0.550 OA
ENDBRANCH  14  15
ENDBRANCH  13  14
ENDBRANCH  12  13
ENDBRANCH  11  12
ENDBRANCH  10  11
ENDBRANCH   9  10
ENDBRANCH   8   9
ENDBRANCH   7   8
ENDBRANCH   6   7
ENDBRANCH   5   6
ENDBRANCH   4   5
ENDBRANCH   3   4
ENDBRANCH   2   3
ENDBRANCH   1   2
BRANCH   1  18
ATOM     18  C   UNL     1      -4.065 -32.597 -51.028  1.00  0.00     0.000 C 
BRANCH  18  19
ATOM     19  C   UNL     1      -4.629 -32.310 -52.424  1.00  0.00     0.000 C 
BRANCH  19  20
ATOM     20  C   UNL     1      -5.122 -30.862 -52.530  1.00  0.00     0.000 C 
BRANCH  20  21
ATOM     21  C   UNL     1      -3.957 -29.871 -52.417  1.00  0.00     0.000 C 
BRANCH  21  22
ATOM     22  C   UNL     1      -4.010 -28.833 -53.548  1.00  0.00     0.000 C 
BRANCH  22  23
ATOM     23  C   UNL     1      -5.371 -28.806 -54.262  1.00  0.00     0.000 C 
BRANCH  23  24
ATOM     24  C   UNL     1      -6.127 -27.488 -54.042  1.00  0.00    -0.000 C 
BRANCH  24  25
ATOM     25  C   UNL     1      -5.549 -26.719 -52.845  1.00  0.00    -0.000 C 
BRANCH  25  26
ATOM     26  C   UNL     1      -6.435 -26.815 -51.590  1.00  0.00    -0.000 C 
BRANCH  26  27
ATOM     27  C   UNL     1      -6.089 -27.972 -50.632  1.00  0.00    -0.000 C 
BRANCH  27  28
ATOM     28  C   UNL     1      -6.336 -27.683 -49.141  1.00  0.00    -0.000 C 
BRANCH  28  29
ATOM     29  C   UNL     1      -6.526 -28.959 -48.308  1.00  0.00    -0.000 C 
BRANCH  29  30
ATOM     30  C   UNL     1      -6.332 -30.214 -49.172  1.00  0.00    -0.000 C 
BRANCH  30  31
ATOM     31  C   UNL     1      -7.552 -31.146 -49.138  1.00  0.00    -0.003 C 
ATOM     32  C   UNL     1      -8.698 -30.589 -48.295  1.00  0.00     0.004 C 
ENDBRANCH  30  31
ENDBRANCH  29  30
ENDBRANCH  28  29
ENDBRANCH  27  28
ENDBRANCH  26  27
ENDBRANCH  25  26
ENDBRANCH  24  25
ENDBRANCH  23  24
ENDBRANCH  22  23
ENDBRANCH  21  22
ENDBRANCH  20  21
ENDBRANCH  19  20
ENDBRANCH  18  19
ENDBRANCH   1  18
TORSDOF 28
ENDMDL
MODEL 8
REMARK VINA RESULT:    -5.389      2.206      5.671
REMARK INTER + INTRA:         -18.534
REMARK INTER:                 -13.969
REMARK INTRA:                  -4.565
REMARK UNBOUND:                -4.324
REMARK SMILES CCCCCCCCCCCCCCCCCCCCCCCCCCCCCC(=O)[O-]
REMARK SMILES IDX 16 1 17 2 18 3 19 4 20 5 21 6 22 7 23 8 24 9 25 10 26 11
REMARK SMILES IDX 27 12 28 13 29 14 30 15 31 16 32 17 15 18 14 19 13 20 12 21
REMARK SMILES IDX 11 22 10 23 9 24 8 25 7 26 6 27 5 28 4 29 3 30 2 31 1 32
REMARK H PARENT
REMARK Flexibility Score: inf
ROOT
ATOM      1  C   UNL     1      -4.264 -28.519 -52.758  1.00  0.00     0.000 C 
ENDROOT
BRANCH   1   2
ATOM      2  C   UNL     1      -4.796 -28.640 -51.321  1.00  0.00     0.000 C 
BRANCH   2   3
ATOM      3  C   UNL     1      -6.055 -27.794 -51.080  1.00  0.00     0.000 C 
BRANCH   3   4
ATOM      4  C   UNL     1      -6.360 -27.676 -49.579  1.00  0.00     0.000 C 
BRANCH   4   5
ATOM      5  C   UNL     1      -6.320 -29.032 -48.854  1.00  0.00     0.000 C 
BRANCH   5   6
ATOM      6  C   UNL     1      -7.590 -29.893 -49.008  1.00  0.00     0.000 C 
BRANCH   6   7
ATOM      7  C   UNL     1      -7.390 -31.220 -49.761  1.00  0.00     0.000 C 
BRANCH   7   8
ATOM      8  C   UNL     1      -5.913 -31.623 -49.874  1.00  0.00     0.000 C 
BRANCH   8   9
ATOM      9  C   UNL     1      -5.583 -32.118 -51.287  1.00  0.00     0.000 C 
BRANCH   9  10
ATOM     10  C   UNL     1      -4.082 -32.409 -51.429  1.00  0.00     0.000 C 
BRANCH  10  11
ATOM     11  C   UNL     1      -3.577 -32.268 -52.877  1.00  0.00     0.000 C 
BRANCH  11  12
ATOM     12  C   UNL     1      -2.256 -32.996 -53.187  1.00  0.00     0.000 C 
BRANCH  12  13
ATOM     13  C   UNL     1      -1.058 -32.083 -53.511  1.00  0.00     0.006 C 
BRANCH  13  14
ATOM     14  C   UNL     1      -1.148 -30.683 -52.878  1.00  0.00     0.053 C 
BRANCH  14  15
ATOM     15  C   UNL     1      -0.565 -30.640 -51.497  1.00  0.00     0.041 C 
ATOM     16  O   UNL     1      -0.229 -31.706 -50.917  1.00  0.00    -0.550 OA
ATOM     17  O   UNL     1      -0.360 -29.420 -50.864  1.00  0.00    -0.550 OA
ENDBRANCH  14  15
ENDBRANCH  13  14
ENDBRANCH  12  13
ENDBRANCH  11  12
ENDBRANCH  10  11
ENDBRANCH   9  10
ENDBRANCH   8   9
ENDBRANCH   7   8
ENDBRANCH   6   7
ENDBRANCH   5   6
ENDBRANCH   4   5
ENDBRANCH   3   4
ENDBRANCH   2   3
ENDBRANCH   1   2
BRANCH   1  18
ATOM     18  C   UNL     1      -5.102 -29.316 -53.769  1.00  0.00     0.000 C 
BRANCH  18  19
ATOM     19  C   UNL     1      -5.996 -28.388 -54.599  1.00  0.00     0.000 C 
BRANCH  19  20
ATOM     20  C   UNL     1      -5.233 -27.127 -55.025  1.00  0.00     0.000 C 
BRANCH  20  21
ATOM     21  C   UNL     1      -6.028 -25.860 -54.688  1.00  0.00     0.000 C 
BRANCH  21  22
ATOM     22  C   UNL     1      -5.122 -24.801 -54.042  1.00  0.00     0.000 C 
BRANCH  22  23
ATOM     23  C   UNL     1      -5.377 -23.389 -54.594  1.00  0.00     0.000 C 
BRANCH  23  24
ATOM     24  C   UNL     1      -6.132 -23.406 -55.931  1.00  0.00    -0.000 C 
BRANCH  24  25
ATOM     25  C   UNL     1      -5.196 -23.042 -57.092  1.00  0.00    -0.000 C 
BRANCH  25  26
ATOM     26  C   UNL     1      -4.459 -24.262 -57.672  1.00  0.00    -0.000 C 
BRANCH  26  27
ATOM     27  C   UNL     1      -2.923 -24.138 -57.714  1.00  0.00    -0.000 C 
BRANCH  27  28
ATOM     28  C   UNL     1      -2.269 -23.663 -56.404  1.00  0.00    -0.000 C 
BRANCH  28  29
ATOM     29  C   UNL     1      -1.302 -24.697 -55.809  1.00  0.00    -0.000 C 
BRANCH  29  30
ATOM     30  C   UNL     1      -1.465 -24.789 -54.285  1.00  0.00    -0.000 C 
BRANCH  30  31
ATOM     31  C   UNL     1      -1.698 -26.229 -53.803  1.00  0.00    -0.003 C 
ATOM     32  C   UNL     1      -0.455 -26.848 -53.166  1.00  0.00     0.004 C 
ENDBRANCH  30  31
ENDBRANCH  29  30
ENDBRANCH  28  29
ENDBRANCH  27  28
ENDBRANCH  26  27
ENDBRANCH  25  26
ENDBRANCH  24  25
ENDBRANCH  23  24
ENDBRANCH  22  23
ENDBRANCH  21  22
ENDBRANCH  20  21
ENDBRANCH  19  20
ENDBRANCH  18  19
ENDBRANCH   1  18
TORSDOF 28
ENDMDL
MODEL 9
REMARK VINA RESULT:    -5.377      2.341      6.646
REMARK INTER + INTRA:         -18.503
REMARK INTER:                 -14.489
REMARK INTRA:                  -4.014
REMARK UNBOUND:                -4.324
REMARK SMILES CCCCCCCCCCCCCCCCCCCCCCCCCCCCCC(=O)[O-]
REMARK SMILES IDX 16 1 17 2 18 3 19 4 20 5 21 6 22 7 23 8 24 9 25 10 26 11
REMARK SMILES IDX 27 12 28 13 29 14 30 15 31 16 32 17 15 18 14 19 13 20 12 21
REMARK SMILES IDX 11 22 10 23 9 24 8 25 7 26 6 27 5 28 4 29 3 30 2 31 1 32
REMARK H PARENT
REMARK Flexibility Score: inf
ROOT
ATOM      1  C   UNL     1      -3.157 -32.654 -52.159  1.00  0.00     0.000 C 
ENDROOT
BRANCH   1   2
ATOM      2  C   UNL     1      -2.237 -33.123 -53.298  1.00  0.00     0.000 C 
BRANCH   2   3
ATOM      3  C   UNL     1      -0.798 -32.608 -53.150  1.00  0.00     0.000 C 
BRANCH   3   4
ATOM      4  C   UNL     1      -0.523 -32.152 -51.708  1.00  0.00     0.000 C 
BRANCH   4   5
ATOM      5  C   UNL     1       0.359 -30.893 -51.639  1.00  0.00     0.000 C 
BRANCH   5   6
ATOM      6  C   UNL     1      -0.381 -29.600 -51.240  1.00  0.00     0.000 C 
BRANCH   6   7
ATOM      7  C   UNL     1      -1.613 -29.263 -52.098  1.00  0.00     0.000 C 
BRANCH   7   8
ATOM      8  C   UNL     1      -1.501 -27.896 -52.789  1.00  0.00     0.000 C 
BRANCH   8   9
ATOM      9  C   UNL     1      -0.214 -27.800 -53.616  1.00  0.00     0.000 C 
BRANCH   9  10
ATOM     10  C   UNL     1       0.502 -26.466 -53.363  1.00  0.00     0.000 C 
BRANCH  10  11
ATOM     11  C   UNL     1      -0.101 -25.673 -52.188  1.00  0.00     0.000 C 
BRANCH  11  12
ATOM     12  C   UNL     1       0.647 -24.380 -51.815  1.00  0.00     0.000 C 
BRANCH  12  13
ATOM     13  C   UNL     1      -0.167 -23.080 -51.959  1.00  0.00     0.006 C 
BRANCH  13  14
ATOM     14  C   UNL     1      -1.367 -23.197 -52.917  1.00  0.00     0.053 C 
BRANCH  14  15
ATOM     15  C   UNL     1      -0.972 -23.026 -54.353  1.00  0.00     0.041 C 
ATOM     16  O   UNL     1      -1.266 -23.910 -55.200  1.00  0.00    -0.550 OA
ATOM     17  O   UNL     1      -0.309 -21.875 -54.762  1.00  0.00    -0.550 OA
ENDBRANCH  14  15
ENDBRANCH  13  14
ENDBRANCH  12  13
ENDBRANCH  11  12
ENDBRANCH  10  11
ENDBRANCH   9  10
ENDBRANCH   8   9
ENDBRANCH   7   8
ENDBRANCH   6   7
ENDBRANCH   5   6
ENDBRANCH   4   5
ENDBRANCH   3   4
ENDBRANCH   2   3
ENDBRANCH   1   2
BRANCH   1  18
ATOM     18  C   UNL     1      -4.421 -31.947 -52.671  1.00  0.00     0.000 C 
BRANCH  18  19
ATOM     19  C   UNL     1      -5.630 -32.270 -51.787  1.00  0.00     0.000 C 
BRANCH  19  20
ATOM     20  C   UNL     1      -5.615 -31.426 -50.506  1.00  0.00     0.000 C 
BRANCH  20  21
ATOM     21  C   UNL     1      -7.032 -31.244 -49.947  1.00  0.00     0.000 C 
BRANCH  21  22
ATOM     22  C   UNL     1      -7.215 -29.832 -49.371  1.00  0.00     0.000 C 
BRANCH  22  23
ATOM     23  C   UNL     1      -6.006 -28.922 -49.643  1.00  0.00     0.000 C 
BRANCH  23  24
ATOM     24  C   UNL     1      -6.418 -27.513 -50.094  1.00  0.00    -0.000 C 
BRANCH  24  25
ATOM     25  C   UNL     1      -6.179 -27.328 -51.599  1.00  0.00    -0.000 C 
BRANCH  25  26
ATOM     26  C   UNL     1      -5.110 -28.286 -52.157  1.00  0.00    -0.000 C 
BRANCH  26  27
ATOM     27  C   UNL     1      -5.148 -28.487 -53.685  1.00  0.00    -0.000 C 
BRANCH  27  28
ATOM     28  C   UNL     1      -5.440 -27.217 -54.504  1.00  0.00    -0.000 C 
BRANCH  28  29
ATOM     29  C   UNL     1      -4.279 -26.212 -54.485  1.00  0.00    -0.000 C 
BRANCH  29  30
ATOM     30  C   UNL     1      -4.713 -24.858 -55.065  1.00  0.00    -0.000 C 
BRANCH  30  31
ATOM     31  C   UNL     1      -5.227 -24.974 -56.508  1.00  0.00    -0.003 C 
ATOM     32  C   UNL     1      -6.675 -24.508 -56.659  1.00  0.00     0.004 C 
ENDBRANCH  30  31
ENDBRANCH  29  30
ENDBRANCH  28  29
ENDBRANCH  27  28
ENDBRANCH  26  27
ENDBRANCH  25  26
ENDBRANCH  24  25
ENDBRANCH  23  24
ENDBRANCH  22  23
ENDBRANCH  21  22
ENDBRANCH  20  21
ENDBRANCH  19  20
ENDBRANCH  18  19
ENDBRANCH   1  18
TORSDOF 28
ENDMDL
