MODEL 1
REMARK VINA RESULT:    -2.519      0.000      0.000
REMARK INTER + INTRA:          -6.765
REMARK INTER:                  -5.759
REMARK INTRA:                  -1.006
REMARK UNBOUND:                -1.006
REMARK SMILES CCCCCCCCCCCCCCCCCCCCCCCC(=O)[O-]
REMARK SMILES IDX 13 1 14 2 15 3 16 4 17 5 18 6 19 7 20 8 21 9 22 10 23 11
REMARK SMILES IDX 24 12 25 13 26 14 12 15 11 16 10 17 9 18 8 19 7 20 6 21 5 22
REMARK SMILES IDX 4 23 3 24 2 25 1 26
REMARK H PARENT
REMARK Flexibility Score: inf
ROOT
ATOM      1  C   UNL     1       2.481 -22.730 -16.000  1.00  0.00     0.000 C 
ENDROOT
BRANCH   1   2
ATOM      2  C   UNL     1       1.073 -22.101 -15.996  1.00  0.00     0.000 C 
BRANCH   2   3
ATOM      3  C   UNL     1       0.009 -22.938 -15.259  1.00  0.00     0.000 C 
BRANCH   3   4
ATOM      4  C   UNL     1      -1.441 -22.425 -15.380  1.00  0.00     0.000 C 
BRANCH   4   5
ATOM      5  C   UNL     1      -2.335 -22.686 -14.152  1.00  0.00     0.000 C 
BRANCH   5   6
ATOM      6  C   UNL     1      -3.803 -22.970 -14.525  1.00  0.00     0.000 C 
BRANCH   6   7
ATOM      7  C   UNL     1      -4.059 -22.847 -16.042  1.00  0.00     0.000 C 
BRANCH   7   8
ATOM      8  C   UNL     1      -4.876 -21.603 -16.434  1.00  0.00     0.000 C 
BRANCH   8   9
ATOM      9  C   UNL     1      -6.123 -21.948 -17.264  1.00  0.00     0.000 C 
BRANCH   9  10
ATOM     10  C   UNL     1      -7.357 -21.122 -16.853  1.00  0.00     0.006 C 
BRANCH  10  11
ATOM     11  C   UNL     1      -8.466 -21.946 -16.177  1.00  0.00     0.053 C 
BRANCH  11  12
ATOM     12  C   UNL     1      -8.639 -21.579 -14.736  1.00  0.00     0.041 C 
ATOM     13  O   UNL     1      -8.755 -20.370 -14.401  1.00  0.00    -0.550 OA
ATOM     14  O   UNL     1      -8.686 -22.573 -13.763  1.00  0.00    -0.550 OA
ENDBRANCH  11  12
ENDBRANCH  10  11
ENDBRANCH   9  10
ENDBRANCH   8   9
ENDBRANCH   7   8
ENDBRANCH   6   7
ENDBRANCH   5   6
ENDBRANCH   4   5
ENDBRANCH   3   4
ENDBRANCH   2   3
ENDBRANCH   1   2
BRANCH   1  15
ATOM     15  C   UNL     1       3.581 -21.741 -15.575  1.00  0.00     0.000 C 
BRANCH  15  16
ATOM     16  C   UNL     1       4.935 -22.041 -16.251  1.00  0.00     0.000 C 
BRANCH  16  17
ATOM     17  C   UNL     1       6.029 -20.997 -15.956  1.00  0.00     0.000 C 
BRANCH  17  18
ATOM     18  C   UNL     1       7.407 -21.629 -15.704  1.00  0.00    -0.000 C 
BRANCH  18  19
ATOM     19  C   UNL     1       7.604 -22.968 -16.441  1.00  0.00    -0.000 C 
BRANCH  19  20
ATOM     20  C   UNL     1       8.333 -22.879 -17.800  1.00  0.00    -0.000 C 
BRANCH  20  21
ATOM     21  C   UNL     1       9.671 -22.111 -17.784  1.00  0.00    -0.000 C 
BRANCH  21  22
ATOM     22  C   UNL     1      10.653 -22.500 -18.905  1.00  0.00    -0.000 C 
BRANCH  22  23
ATOM     23  C   UNL     1      10.064 -22.277 -20.309  1.00  0.00    -0.000 C 
BRANCH  23  24
ATOM     24  C   UNL     1       9.728 -20.800 -20.594  1.00  0.00    -0.000 C 
BRANCH  24  25
ATOM     25  C   UNL     1       9.343 -20.488 -22.051  1.00  0.00    -0.003 C 
ATOM     26  C   UNL     1       8.280 -21.435 -22.606  1.00  0.00     0.004 C 
ENDBRANCH  24  25
ENDBRANCH  23  24
ENDBRANCH  22  23
ENDBRANCH  21  22
ENDBRANCH  20  21
ENDBRANCH  19  20
ENDBRANCH  18  19
ENDBRANCH  17  18
ENDBRANCH  16  17
ENDBRANCH  15  16
ENDBRANCH   1  15
TORSDOF 22
ENDMDL
MODEL 2
REMARK VINA RESULT:    -2.339      5.645     14.719
REMARK INTER + INTRA:          -6.353
REMARK INTER:                  -5.386
REMARK INTRA:                  -0.967
REMARK UNBOUND:                -1.006
REMARK SMILES CCCCCCCCCCCCCCCCCCCCCCCC(=O)[O-]
REMARK SMILES IDX 13 1 14 2 15 3 16 4 17 5 18 6 19 7 20 8 21 9 22 10 23 11
REMARK SMILES IDX 24 12 25 13 26 14 12 15 11 16 10 17 9 18 8 19 7 20 6 21 5 22
REMARK SMILES IDX 4 23 3 24 2 25 1 26
REMARK H PARENT
REMARK Flexibility Score: inf
ROOT
ATOM      1  C   UNL     1      -0.350 -22.946 -15.588  1.00  0.00     0.000 C 
ENDROOT
BRANCH   1   2
ATOM      2  C   UNL     1       0.859 -22.078 -15.993  1.00  0.00     0.000 C 
BRANCH   2   3
ATOM      3  C   UNL     1       2.227 -22.739 -15.732  1.00  0.00     0.000 C 
BRANCH   3   4
ATOM      4  C   UNL     1       3.435 -21.780 -15.714  1.00  0.00     0.000 C 
BRANCH   4   5
ATOM      5  C   UNL     1       4.773 -22.400 -16.163  1.00  0.00     0.000 C 
BRANCH   5   6
ATOM      6  C   UNL     1       5.912 -21.367 -16.268  1.00  0.00     0.000 C 
BRANCH   6   7
ATOM      7  C   UNL     1       7.286 -22.029 -16.507  1.00  0.00     0.000 C 
BRANCH   7   8
ATOM      8  C   UNL     1       8.037 -21.473 -17.729  1.00  0.00     0.000 C 
BRANCH   8   9
ATOM      9  C   UNL     1       9.386 -22.172 -17.966  1.00  0.00     0.000 C 
BRANCH   9  10
ATOM     10  C   UNL     1       9.932 -21.944 -19.388  1.00  0.00     0.006 C 
BRANCH  10  11
ATOM     11  C   UNL     1       8.858 -21.992 -20.488  1.00  0.00     0.053 C 
BRANCH  11  12
ATOM     12  C   UNL     1       9.240 -21.176 -21.684  1.00  0.00     0.041 C 
ATOM     13  O   UNL     1       9.781 -20.048 -21.532  1.00  0.00    -0.550 OA
ATOM     14  O   UNL     1       9.013 -21.666 -22.965  1.00  0.00    -0.550 OA
ENDBRANCH  11  12
ENDBRANCH  10  11
ENDBRANCH   9  10
ENDBRANCH   8   9
ENDBRANCH   7   8
ENDBRANCH   6   7
ENDBRANCH   5   6
ENDBRANCH   4   5
ENDBRANCH   3   4
ENDBRANCH   2   3
ENDBRANCH   1   2
BRANCH   1  15
ATOM     15  C   UNL     1      -1.644 -22.129 -15.417  1.00  0.00     0.000 C 
BRANCH  15  16
ATOM     16  C   UNL     1      -2.714 -22.886 -14.604  1.00  0.00     0.000 C 
BRANCH  16  17
ATOM     17  C   UNL     1      -4.094 -22.947 -15.286  1.00  0.00     0.000 C 
BRANCH  17  18
ATOM     18  C   UNL     1      -4.268 -21.884 -16.383  1.00  0.00    -0.000 C 
BRANCH  18  19
ATOM     19  C   UNL     1      -5.742 -21.634 -16.755  1.00  0.00    -0.000 C 
BRANCH  19  20
ATOM     20  C   UNL     1      -6.765 -21.877 -15.623  1.00  0.00    -0.000 C 
BRANCH  20  21
ATOM     21  C   UNL     1      -8.117 -21.151 -15.786  1.00  0.00    -0.000 C 
BRANCH  21  22
ATOM     22  C   UNL     1      -9.098 -21.342 -14.614  1.00  0.00    -0.000 C 
BRANCH  22  23
ATOM     23  C   UNL     1      -8.972 -22.727 -13.957  1.00  0.00    -0.000 C 
BRANCH  23  24
ATOM     24  C   UNL     1      -8.490 -22.659 -12.495  1.00  0.00    -0.000 C 
BRANCH  24  25
ATOM     25  C   UNL     1      -8.002 -21.274 -12.033  1.00  0.00    -0.003 C 
ATOM     26  C   UNL     1      -8.958 -20.598 -11.051  1.00  0.00     0.004 C 
ENDBRANCH  24  25
ENDBRANCH  23  24
ENDBRANCH  22  23
ENDBRANCH  21  22
ENDBRANCH  20  21
ENDBRANCH  19  20
ENDBRANCH  18  19
ENDBRANCH  17  18
ENDBRANCH  16  17
ENDBRANCH  15  16
ENDBRANCH   1  15
TORSDOF 22
ENDMDL
MODEL 3
REMARK VINA RESULT:    -2.056      5.727     14.079
REMARK INTER + INTRA:          -5.707
REMARK INTER:                  -4.564
REMARK INTRA:                  -1.144
REMARK UNBOUND:                -1.006
REMARK SMILES CCCCCCCCCCCCCCCCCCCCCCCC(=O)[O-]
REMARK SMILES IDX 13 1 14 2 15 3 16 4 17 5 18 6 19 7 20 8 21 9 22 10 23 11
REMARK SMILES IDX 24 12 25 13 26 14 12 15 11 16 10 17 9 18 8 19 7 20 6 21 5 22
REMARK SMILES IDX 4 23 3 24 2 25 1 26
REMARK H PARENT
REMARK Flexibility Score: inf
ROOT
ATOM      1  C   UNL     1       2.748 -23.072 -16.012  1.00  0.00     0.000 C 
ENDROOT
BRANCH   1   2
ATOM      2  C   UNL     1       3.948 -22.604 -16.861  1.00  0.00     0.000 C 
BRANCH   2   3
ATOM      3  C   UNL     1       5.260 -22.449 -16.069  1.00  0.00     0.000 C 
BRANCH   3   4
ATOM      4  C   UNL     1       6.401 -21.722 -16.809  1.00  0.00     0.000 C 
BRANCH   4   5
ATOM      5  C   UNL     1       7.521 -21.166 -15.908  1.00  0.00     0.000 C 
BRANCH   5   6
ATOM      6  C   UNL     1       8.934 -21.510 -16.419  1.00  0.00     0.000 C 
BRANCH   6   7
ATOM      7  C   UNL     1       8.907 -22.520 -17.587  1.00  0.00     0.000 C 
BRANCH   7   8
ATOM      8  C   UNL     1       9.500 -21.970 -18.896  1.00  0.00     0.000 C 
BRANCH   8   9
ATOM      9  C   UNL     1       9.232 -22.886 -20.100  1.00  0.00     0.000 C 
BRANCH   9  10
ATOM     10  C   UNL     1       7.980 -22.471 -20.896  1.00  0.00     0.006 C 
BRANCH  10  11
ATOM     11  C   UNL     1       8.273 -22.023 -22.338  1.00  0.00     0.053 C 
BRANCH  11  12
ATOM     12  C   UNL     1       9.405 -21.045 -22.404  1.00  0.00     0.041 C 
ATOM     13  O   UNL     1      10.429 -21.309 -23.088  1.00  0.00    -0.550 OA
ATOM     14  O   UNL     1       9.324 -19.836 -21.720  1.00  0.00    -0.550 OA
ENDBRANCH  11  12
ENDBRANCH  10  11
ENDBRANCH   9  10
ENDBRANCH   8   9
ENDBRANCH   7   8
ENDBRANCH   6   7
ENDBRANCH   5   6
ENDBRANCH   4   5
ENDBRANCH   3   4
ENDBRANCH   2   3
ENDBRANCH   1   2
BRANCH   1  15
ATOM     15  C   UNL     1       1.844 -21.910 -15.561  1.00  0.00     0.000 C 
BRANCH  15  16
ATOM     16  C   UNL     1       0.466 -21.933 -16.255  1.00  0.00     0.000 C 
BRANCH  16  17
ATOM     17  C   UNL     1      -0.595 -22.768 -15.514  1.00  0.00     0.000 C 
BRANCH  17  18
ATOM     18  C   UNL     1      -1.981 -22.103 -15.505  1.00  0.00    -0.000 C 
BRANCH  18  19
ATOM     19  C   UNL     1      -3.140 -23.118 -15.468  1.00  0.00    -0.000 C 
BRANCH  19  20
ATOM     20  C   UNL     1      -4.159 -22.925 -14.323  1.00  0.00    -0.000 C 
BRANCH  20  21
ATOM     21  C   UNL     1      -5.582 -22.524 -14.764  1.00  0.00    -0.000 C 
BRANCH  21  22
ATOM     22  C   UNL     1      -5.642 -21.619 -16.008  1.00  0.00    -0.000 C 
BRANCH  22  23
ATOM     23  C   UNL     1      -7.070 -21.469 -16.561  1.00  0.00    -0.000 C 
BRANCH  23  24
ATOM     24  C   UNL     1      -8.157 -21.711 -15.495  1.00  0.00    -0.000 C 
BRANCH  24  25
ATOM     25  C   UNL     1      -8.566 -20.467 -14.685  1.00  0.00    -0.003 C 
ATOM     26  C   UNL     1      -8.383 -20.646 -13.178  1.00  0.00     0.004 C 
ENDBRANCH  24  25
ENDBRANCH  23  24
ENDBRANCH  22  23
ENDBRANCH  21  22
ENDBRANCH  20  21
ENDBRANCH  19  20
ENDBRANCH  18  19
ENDBRANCH  17  18
ENDBRANCH  16  17
ENDBRANCH  15  16
ENDBRANCH   1  15
TORSDOF 22
ENDMDL
MODEL 4
REMARK VINA RESULT:    -1.971      1.393      2.861
REMARK INTER + INTRA:          -5.513
REMARK INTER:                  -4.571
REMARK INTRA:                  -0.942
REMARK UNBOUND:                -1.006
REMARK SMILES CCCCCCCCCCCCCCCCCCCCCCCC(=O)[O-]
REMARK SMILES IDX 13 1 14 2 15 3 16 4 17 5 18 6 19 7 20 8 21 9 22 10 23 11
REMARK SMILES IDX 24 12 25 13 26 14 12 15 11 16 10 17 9 18 8 19 7 20 6 21 5 22
REMARK SMILES IDX 4 23 3 24 2 25 1 26
REMARK H PARENT
REMARK Flexibility Score: inf
ROOT
ATOM      1  C   UNL     1      -0.266 -22.290 -15.600  1.00  0.00     0.000 C 
ENDROOT
BRANCH   1   2
ATOM      2  C   UNL     1      -1.358 -23.125 -14.901  1.00  0.00     0.000 C 
BRANCH   2   3
ATOM      3  C   UNL     1      -2.718 -22.409 -14.778  1.00  0.00     0.000 C 
BRANCH   3   4
ATOM      4  C   UNL     1      -3.758 -22.767 -15.859  1.00  0.00     0.000 C 
BRANCH   4   5
ATOM      5  C   UNL     1      -5.074 -21.969 -15.796  1.00  0.00     0.000 C 
BRANCH   5   6
ATOM      6  C   UNL     1      -5.706 -21.734 -17.182  1.00  0.00     0.000 C 
BRANCH   6   7
ATOM      7  C   UNL     1      -7.187 -21.311 -17.089  1.00  0.00     0.000 C 
BRANCH   7   8
ATOM      8  C   UNL     1      -7.917 -21.871 -15.856  1.00  0.00     0.000 C 
BRANCH   8   9
ATOM      9  C   UNL     1      -8.489 -20.768 -14.952  1.00  0.00     0.000 C 
BRANCH   9  10
ATOM     10  C   UNL     1      -8.779 -21.262 -13.521  1.00  0.00     0.006 C 
BRANCH  10  11
ATOM     11  C   UNL     1      -7.672 -20.927 -12.506  1.00  0.00     0.053 C 
BRANCH  11  12
ATOM     12  C   UNL     1      -6.937 -22.150 -12.052  1.00  0.00     0.041 C 
ATOM     13  O   UNL     1      -7.280 -22.735 -10.989  1.00  0.00    -0.550 OA
ATOM     14  O   UNL     1      -5.883 -22.653 -12.807  1.00  0.00    -0.550 OA
ENDBRANCH  11  12
ENDBRANCH  10  11
ENDBRANCH   9  10
ENDBRANCH   8   9
ENDBRANCH   7   8
ENDBRANCH   6   7
ENDBRANCH   5   6
ENDBRANCH   4   5
ENDBRANCH   3   4
ENDBRANCH   2   3
ENDBRANCH   1   2
BRANCH   1  15
ATOM     15  C   UNL     1       1.070 -23.043 -15.734  1.00  0.00     0.000 C 
BRANCH  15  16
ATOM     16  C   UNL     1       2.179 -22.168 -16.355  1.00  0.00     0.000 C 
BRANCH  16  17
ATOM     17  C   UNL     1       3.419 -21.995 -15.457  1.00  0.00     0.000 C 
BRANCH  17  18
ATOM     18  C   UNL     1       4.672 -22.676 -16.030  1.00  0.00    -0.000 C 
BRANCH  18  19
ATOM     19  C   UNL     1       5.609 -21.699 -16.767  1.00  0.00    -0.000 C 
BRANCH  19  20
ATOM     20  C   UNL     1       7.085 -21.721 -16.314  1.00  0.00    -0.000 C 
BRANCH  20  21
ATOM     21  C   UNL     1       8.127 -21.563 -17.441  1.00  0.00    -0.000 C 
BRANCH  21  22
ATOM     22  C   UNL     1       9.043 -22.783 -17.650  1.00  0.00    -0.000 C 
BRANCH  22  23
ATOM     23  C   UNL     1       9.542 -22.906 -19.100  1.00  0.00    -0.000 C 
BRANCH  23  24
ATOM     24  C   UNL     1       8.745 -22.030 -20.087  1.00  0.00    -0.000 C 
BRANCH  24  25
ATOM     25  C   UNL     1       9.577 -20.984 -20.850  1.00  0.00    -0.003 C 
ATOM     26  C   UNL     1       9.013 -20.663 -22.234  1.00  0.00     0.004 C 
ENDBRANCH  24  25
ENDBRANCH  23  24
ENDBRANCH  22  23
ENDBRANCH  21  22
ENDBRANCH  20  21
ENDBRANCH  19  20
ENDBRANCH  18  19
ENDBRANCH  17  18
ENDBRANCH  16  17
ENDBRANCH  15  16
ENDBRANCH   1  15
TORSDOF 22
ENDMDL
MODEL 5
REMARK VINA RESULT:    -1.850      5.571     14.101
REMARK INTER + INTRA:          -5.234
REMARK INTER:                  -3.977
REMARK INTRA:                  -1.257
REMARK UNBOUND:                -1.006
REMARK SMILES CCCCCCCCCCCCCCCCCCCCCCCC(=O)[O-]
REMARK SMILES IDX 13 1 14 2 15 3 16 4 17 5 18 6 19 7 20 8 21 9 22 10 23 11
REMARK SMILES IDX 24 12 25 13 26 14 12 15 11 16 10 17 9 18 8 19 7 20 6 21 5 22
REMARK SMILES IDX 4 23 3 24 2 25 1 26
REMARK H PARENT
REMARK Flexibility Score: inf
ROOT
ATOM      1  C   UNL     1      -1.223 -21.802 -16.327  1.00  0.00     0.000 C 
ENDROOT
BRANCH   1   2
ATOM      2  C   UNL     1       0.296 -21.695 -16.078  1.00  0.00     0.000 C 
BRANCH   2   3
ATOM      3  C   UNL     1       1.002 -23.053 -15.892  1.00  0.00     0.000 C 
BRANCH   3   4
ATOM      4  C   UNL     1       2.508 -22.978 -15.565  1.00  0.00     0.000 C 
BRANCH   4   5
ATOM      5  C   UNL     1       3.388 -22.343 -16.659  1.00  0.00     0.000 C 
BRANCH   5   6
ATOM      6  C   UNL     1       4.894 -22.416 -16.340  1.00  0.00     0.000 C 
BRANCH   6   7
ATOM      7  C   UNL     1       5.389 -21.181 -15.556  1.00  0.00     0.000 C 
BRANCH   7   8
ATOM      8  C   UNL     1       6.606 -20.489 -16.194  1.00  0.00     0.000 C 
BRANCH   8   9
ATOM      9  C   UNL     1       7.937 -21.155 -15.809  1.00  0.00     0.000 C 
BRANCH   9  10
ATOM     10  C   UNL     1       8.291 -22.348 -16.718  1.00  0.00     0.006 C 
BRANCH  10  11
ATOM     11  C   UNL     1       8.095 -22.072 -18.219  1.00  0.00     0.053 C 
BRANCH  11  12
ATOM     12  C   UNL     1       9.389 -21.770 -18.909  1.00  0.00     0.041 C 
ATOM     13  O   UNL     1       9.404 -21.520 -20.143  1.00  0.00    -0.550 OA
ATOM     14  O   UNL     1      10.578 -21.753 -18.187  1.00  0.00    -0.550 OA
ENDBRANCH  11  12
ENDBRANCH  10  11
ENDBRANCH   9  10
ENDBRANCH   8   9
ENDBRANCH   7   8
ENDBRANCH   6   7
ENDBRANCH   5   6
ENDBRANCH   4   5
ENDBRANCH   3   4
ENDBRANCH   2   3
ENDBRANCH   1   2
BRANCH   1  15
ATOM     15  C   UNL     1      -1.907 -22.843 -15.422  1.00  0.00     0.000 C 
BRANCH  15  16
ATOM     16  C   UNL     1      -2.420 -22.229 -14.104  1.00  0.00     0.000 C 
BRANCH  16  17
ATOM     17  C   UNL     1      -3.425 -23.118 -13.347  1.00  0.00     0.000 C 
BRANCH  17  18
ATOM     18  C   UNL     1      -4.879 -22.892 -13.792  1.00  0.00    -0.000 C 
BRANCH  18  19
ATOM     19  C   UNL     1      -5.757 -22.262 -12.693  1.00  0.00    -0.000 C 
BRANCH  19  20
ATOM     20  C   UNL     1      -6.954 -23.118 -12.224  1.00  0.00    -0.000 C 
BRANCH  20  21
ATOM     21  C   UNL     1      -8.294 -22.365 -12.088  1.00  0.00    -0.000 C 
BRANCH  21  22
ATOM     22  C   UNL     1      -8.195 -20.836 -12.241  1.00  0.00    -0.000 C 
BRANCH  22  23
ATOM     23  C   UNL     1      -8.803 -20.334 -13.562  1.00  0.00    -0.000 C 
BRANCH  23  24
ATOM     24  C   UNL     1      -7.943 -20.683 -14.792  1.00  0.00    -0.000 C 
BRANCH  24  25
ATOM     25  C   UNL     1      -8.550 -21.738 -15.736  1.00  0.00    -0.003 C 
ATOM     26  C   UNL     1      -7.991 -21.664 -17.156  1.00  0.00     0.004 C 
ENDBRANCH  24  25
ENDBRANCH  23  24
ENDBRANCH  22  23
ENDBRANCH  21  22
ENDBRANCH  20  21
ENDBRANCH  19  20
ENDBRANCH  18  19
ENDBRANCH  17  18
ENDBRANCH  16  17
ENDBRANCH  15  16
ENDBRANCH   1  15
TORSDOF 22
ENDMDL
MODEL 6
REMARK VINA RESULT:    -1.849      1.668      2.168
REMARK INTER + INTRA:          -5.232
REMARK INTER:                  -4.351
REMARK INTRA:                  -0.881
REMARK UNBOUND:                -1.006
REMARK SMILES CCCCCCCCCCCCCCCCCCCCCCCC(=O)[O-]
REMARK SMILES IDX 13 1 14 2 15 3 16 4 17 5 18 6 19 7 20 8 21 9 22 10 23 11
REMARK SMILES IDX 24 12 25 13 26 14 12 15 11 16 10 17 9 18 8 19 7 20 6 21 5 22
REMARK SMILES IDX 4 23 3 24 2 25 1 26
REMARK H PARENT
REMARK Flexibility Score: inf
ROOT
ATOM      1  C   UNL     1       3.433 -22.347 -15.849  1.00  0.00     0.000 C 
ENDROOT
BRANCH   1   2
ATOM      2  C   UNL     1       2.022 -22.963 -15.761  1.00  0.00     0.000 C 
BRANCH   2   3
ATOM      3  C   UNL     1       0.919 -21.963 -15.362  1.00  0.00     0.000 C 
BRANCH   3   4
ATOM      4  C   UNL     1      -0.471 -22.227 -15.976  1.00  0.00     0.000 C 
BRANCH   4   5
ATOM      5  C   UNL     1      -1.543 -22.725 -14.988  1.00  0.00     0.000 C 
BRANCH   5   6
ATOM      6  C   UNL     1      -2.861 -23.125 -15.678  1.00  0.00     0.000 C 
BRANCH   6   7
ATOM      7  C   UNL     1      -4.087 -22.415 -15.063  1.00  0.00     0.000 C 
BRANCH   7   8
ATOM      8  C   UNL     1      -4.565 -23.038 -13.740  1.00  0.00     0.000 C 
BRANCH   8   9
ATOM      9  C   UNL     1      -6.092 -22.978 -13.572  1.00  0.00     0.000 C 
BRANCH   9  10
ATOM     10  C   UNL     1      -6.519 -22.616 -12.137  1.00  0.00     0.006 C 
BRANCH  10  11
ATOM     11  C   UNL     1      -8.019 -22.311 -11.986  1.00  0.00     0.053 C 
BRANCH  11  12
ATOM     12  C   UNL     1      -8.328 -20.867 -12.235  1.00  0.00     0.041 C 
ATOM     13  O   UNL     1      -8.808 -20.156 -11.312  1.00  0.00    -0.550 OA
ATOM     14  O   UNL     1      -8.073 -20.304 -13.480  1.00  0.00    -0.550 OA
ENDBRANCH  11  12
ENDBRANCH  10  11
ENDBRANCH   9  10
ENDBRANCH   8   9
ENDBRANCH   7   8
ENDBRANCH   6   7
ENDBRANCH   5   6
ENDBRANCH   4   5
ENDBRANCH   3   4
ENDBRANCH   2   3
ENDBRANCH   1   2
BRANCH   1  15
ATOM     15  C   UNL     1       4.366 -23.117 -16.801  1.00  0.00     0.000 C 
BRANCH  15  16
ATOM     16  C   UNL     1       5.837 -23.080 -16.340  1.00  0.00     0.000 C 
BRANCH  16  17
ATOM     17  C   UNL     1       6.307 -21.697 -15.851  1.00  0.00     0.000 C 
BRANCH  17  18
ATOM     18  C   UNL     1       7.369 -21.067 -16.767  1.00  0.00    -0.000 C 
BRANCH  18  19
ATOM     19  C   UNL     1       8.795 -21.575 -16.479  1.00  0.00    -0.000 C 
BRANCH  19  20
ATOM     20  C   UNL     1       9.393 -22.520 -17.545  1.00  0.00    -0.000 C 
BRANCH  20  21
ATOM     21  C   UNL     1      10.603 -21.961 -18.322  1.00  0.00    -0.000 C 
BRANCH  21  22
ATOM     22  C   UNL     1      10.429 -21.926 -19.851  1.00  0.00    -0.000 C 
BRANCH  22  23
ATOM     23  C   UNL     1       9.352 -20.924 -20.301  1.00  0.00    -0.000 C 
BRANCH  23  24
ATOM     24  C   UNL     1       9.535 -20.457 -21.758  1.00  0.00    -0.000 C 
BRANCH  24  25
ATOM     25  C   UNL     1       9.882 -21.572 -22.762  1.00  0.00    -0.003 C 
ATOM     26  C   UNL     1       8.680 -22.438 -23.135  1.00  0.00     0.004 C 
ENDBRANCH  24  25
ENDBRANCH  23  24
ENDBRANCH  22  23
ENDBRANCH  21  22
ENDBRANCH  20  21
ENDBRANCH  19  20
ENDBRANCH  18  19
ENDBRANCH  17  18
ENDBRANCH  16  17
ENDBRANCH  15  16
ENDBRANCH   1  15
TORSDOF 22
ENDMDL
MODEL 7
REMARK VINA RESULT:    -1.779      1.589      2.371
REMARK INTER + INTRA:          -5.073
REMARK INTER:                  -3.419
REMARK INTRA:                  -1.653
REMARK UNBOUND:                -1.006
REMARK SMILES CCCCCCCCCCCCCCCCCCCCCCCC(=O)[O-]
REMARK SMILES IDX 13 1 14 2 15 3 16 4 17 5 18 6 19 7 20 8 21 9 22 10 23 11
REMARK SMILES IDX 24 12 25 13 26 14 12 15 11 16 10 17 9 18 8 19 7 20 6 21 5 22
REMARK SMILES IDX 4 23 3 24 2 25 1 26
REMARK H PARENT
REMARK Flexibility Score: inf
ROOT
ATOM      1  C   UNL     1       3.867 -22.300 -15.878  1.00  0.00     0.000 C 
ENDROOT
BRANCH   1   2
ATOM      2  C   UNL     1       2.430 -22.839 -15.725  1.00  0.00     0.000 C 
BRANCH   2   3
ATOM      3  C   UNL     1       1.335 -21.763 -15.864  1.00  0.00     0.000 C 
BRANCH   3   4
ATOM      4  C   UNL     1      -0.035 -22.270 -16.362  1.00  0.00     0.000 C 
BRANCH   4   5
ATOM      5  C   UNL     1      -0.956 -22.854 -15.272  1.00  0.00     0.000 C 
BRANCH   5   6
ATOM      6  C   UNL     1      -2.146 -21.935 -14.933  1.00  0.00     0.000 C 
BRANCH   6   7
ATOM      7  C   UNL     1      -2.728 -22.221 -13.532  1.00  0.00     0.000 C 
BRANCH   7   8
ATOM      8  C   UNL     1      -3.973 -23.125 -13.550  1.00  0.00     0.000 C 
BRANCH   8   9
ATOM      9  C   UNL     1      -5.020 -22.674 -14.581  1.00  0.00     0.000 C 
BRANCH   9  10
ATOM     10  C   UNL     1      -6.432 -22.544 -13.977  1.00  0.00     0.006 C 
BRANCH  10  11
ATOM     11  C   UNL     1      -7.315 -21.490 -14.667  1.00  0.00     0.053 C 
BRANCH  11  12
ATOM     12  C   UNL     1      -8.097 -22.071 -15.804  1.00  0.00     0.041 C 
ATOM     13  O   UNL     1      -8.875 -23.042 -15.605  1.00  0.00    -0.550 OA
ATOM     14  O   UNL     1      -7.977 -21.533 -17.081  1.00  0.00    -0.550 OA
ENDBRANCH  11  12
ENDBRANCH  10  11
ENDBRANCH   9  10
ENDBRANCH   8   9
ENDBRANCH   7   8
ENDBRANCH   6   7
ENDBRANCH   5   6
ENDBRANCH   4   5
ENDBRANCH   3   4
ENDBRANCH   2   3
ENDBRANCH   1   2
BRANCH   1  15
ATOM     15  C   UNL     1       4.656 -23.006 -16.996  1.00  0.00     0.000 C 
BRANCH  15  16
ATOM     16  C   UNL     1       6.174 -22.749 -16.896  1.00  0.00     0.000 C 
BRANCH  16  17
ATOM     17  C   UNL     1       6.599 -21.984 -15.628  1.00  0.00     0.000 C 
BRANCH  17  18
ATOM     18  C   UNL     1       7.128 -20.573 -15.930  1.00  0.00    -0.000 C 
BRANCH  18  19
ATOM     19  C   UNL     1       8.324 -20.172 -15.044  1.00  0.00    -0.000 C 
BRANCH  19  20
ATOM     20  C   UNL     1       9.542 -21.120 -15.100  1.00  0.00    -0.000 C 
BRANCH  20  21
ATOM     21  C   UNL     1      10.394 -21.029 -16.382  1.00  0.00    -0.000 C 
BRANCH  21  22
ATOM     22  C   UNL     1      10.345 -22.279 -17.281  1.00  0.00    -0.000 C 
BRANCH  22  23
ATOM     23  C   UNL     1      10.254 -21.929 -18.776  1.00  0.00    -0.000 C 
BRANCH  23  24
ATOM     24  C   UNL     1       8.803 -21.782 -19.273  1.00  0.00    -0.000 C 
BRANCH  24  25
ATOM     25  C   UNL     1       8.423 -22.693 -20.455  1.00  0.00    -0.003 C 
ATOM     26  C   UNL     1       6.922 -22.969 -20.539  1.00  0.00     0.004 C 
ENDBRANCH  24  25
ENDBRANCH  23  24
ENDBRANCH  22  23
ENDBRANCH  21  22
ENDBRANCH  20  21
ENDBRANCH  19  20
ENDBRANCH  18  19
ENDBRANCH  17  18
ENDBRANCH  16  17
ENDBRANCH  15  16
ENDBRANCH   1  15
TORSDOF 22
ENDMDL
MODEL 8
REMARK VINA RESULT:    -1.746      1.707      4.799
REMARK INTER + INTRA:          -4.998
REMARK INTER:                  -3.380
REMARK INTRA:                  -1.618
REMARK UNBOUND:                -1.006
REMARK SMILES CCCCCCCCCCCCCCCCCCCCCCCC(=O)[O-]
REMARK SMILES IDX 13 1 14 2 15 3 16 4 17 5 18 6 19 7 20 8 21 9 22 10 23 11
REMARK SMILES IDX 24 12 25 13 26 14 12 15 11 16 10 17 9 18 8 19 7 20 6 21 5 22
REMARK SMILES IDX 4 23 3 24 2 25 1 26
REMARK H PARENT
REMARK Flexibility Score: inf
ROOT
ATOM      1  C   UNL     1      -2.754 -23.056 -14.223  1.00  0.00     0.000 C 
ENDROOT
BRANCH   1   2
ATOM      2  C   UNL     1      -3.426 -22.637 -15.546  1.00  0.00     0.000 C 
BRANCH   2   3
ATOM      3  C   UNL     1      -4.963 -22.747 -15.536  1.00  0.00     0.000 C 
BRANCH   3   4
ATOM      4  C   UNL     1      -5.680 -22.143 -16.761  1.00  0.00     0.000 C 
BRANCH   4   5
ATOM      5  C   UNL     1      -6.363 -20.782 -16.518  1.00  0.00     0.000 C 
BRANCH   5   6
ATOM      6  C   UNL     1      -7.839 -20.915 -16.096  1.00  0.00     0.000 C 
BRANCH   6   7
ATOM      7  C   UNL     1      -8.475 -22.235 -16.586  1.00  0.00     0.000 C 
BRANCH   7   8
ATOM      8  C   UNL     1      -9.102 -23.076 -15.460  1.00  0.00     0.000 C 
BRANCH   8   9
ATOM      9  C   UNL     1      -9.125 -22.340 -14.111  1.00  0.00     0.000 C 
BRANCH   9  10
ATOM     10  C   UNL     1      -7.994 -22.792 -13.167  1.00  0.00     0.006 C 
BRANCH  10  11
ATOM     11  C   UNL     1      -7.244 -21.635 -12.486  1.00  0.00     0.053 C 
BRANCH  11  12
ATOM     12  C   UNL     1      -8.182 -20.640 -11.875  1.00  0.00     0.041 C 
ATOM     13  O   UNL     1      -8.767 -20.906 -10.791  1.00  0.00    -0.550 OA
ATOM     14  O   UNL     1      -8.399 -19.414 -12.494  1.00  0.00    -0.550 OA
ENDBRANCH  11  12
ENDBRANCH  10  11
ENDBRANCH   9  10
ENDBRANCH   8   9
ENDBRANCH   7   8
ENDBRANCH   6   7
ENDBRANCH   5   6
ENDBRANCH   4   5
ENDBRANCH   3   4
ENDBRANCH   2   3
ENDBRANCH   1   2
BRANCH   1  15
ATOM     15  C   UNL     1      -1.277 -22.627 -14.138  1.00  0.00     0.000 C 
BRANCH  15  16
ATOM     16  C   UNL     1      -0.744 -22.088 -15.481  1.00  0.00     0.000 C 
BRANCH  16  17
ATOM     17  C   UNL     1       0.564 -22.753 -15.949  1.00  0.00     0.000 C 
BRANCH  17  18
ATOM     18  C   UNL     1       1.640 -21.735 -16.361  1.00  0.00    -0.000 C 
BRANCH  18  19
ATOM     19  C   UNL     1       2.716 -21.520 -15.279  1.00  0.00    -0.000 C 
BRANCH  19  20
ATOM     20  C   UNL     1       4.163 -21.857 -15.702  1.00  0.00    -0.000 C 
BRANCH  20  21
ATOM     21  C   UNL     1       5.236 -20.843 -15.255  1.00  0.00    -0.000 C 
BRANCH  21  22
ATOM     22  C   UNL     1       6.398 -20.652 -16.247  1.00  0.00    -0.000 C 
BRANCH  22  23
ATOM     23  C   UNL     1       7.631 -21.499 -15.884  1.00  0.00    -0.000 C 
BRANCH  23  24
ATOM     24  C   UNL     1       7.643 -22.873 -16.581  1.00  0.00    -0.000 C 
BRANCH  24  25
ATOM     25  C   UNL     1       8.764 -23.069 -17.618  1.00  0.00    -0.003 C 
ATOM     26  C   UNL     1       9.015 -21.825 -18.470  1.00  0.00     0.004 C 
ENDBRANCH  24  25
ENDBRANCH  23  24
ENDBRANCH  22  23
ENDBRANCH  21  22
ENDBRANCH  20  21
ENDBRANCH  19  20
ENDBRANCH  18  19
ENDBRANCH  17  18
ENDBRANCH  16  17
ENDBRANCH  15  16
ENDBRANCH   1  15
TORSDOF 22
ENDMDL
MODEL 9
REMARK VINA RESULT:    -1.508      5.675     14.390
REMARK INTER + INTRA:          -4.453
REMARK INTER:                  -3.597
REMARK INTRA:                  -0.856
REMARK UNBOUND:                -1.006
REMARK SMILES CCCCCCCCCCCCCCCCCCCCCCCC(=O)[O-]
REMARK SMILES IDX 13 1 14 2 15 3 16 4 17 5 18 6 19 7 20 8 21 9 22 10 23 11
REMARK SMILES IDX 24 12 25 13 26 14 12 15 11 16 10 17 9 18 8 19 7 20 6 21 5 22
REMARK SMILES IDX 4 23 3 24 2 25 1 26
REMARK H PARENT
REMARK Flexibility Score: inf
ROOT
ATOM      1  C   UNL     1       1.344 -22.842 -16.326  1.00  0.00     0.000 C 
ENDROOT
BRANCH   1   2
ATOM      2  C   UNL     1       2.754 -23.083 -15.750  1.00  0.00     0.000 C 
BRANCH   2   3
ATOM      3  C   UNL     1       3.832 -22.127 -16.299  1.00  0.00     0.000 C 
BRANCH   3   4
ATOM      4  C   UNL     1       5.229 -22.748 -16.503  1.00  0.00     0.000 C 
BRANCH   4   5
ATOM      5  C   UNL     1       6.400 -21.746 -16.513  1.00  0.00     0.000 C 
BRANCH   5   6
ATOM      6  C   UNL     1       6.179 -20.551 -15.565  1.00  0.00     0.000 C 
BRANCH   6   7
ATOM      7  C   UNL     1       7.507 -19.913 -15.105  1.00  0.00     0.000 C 
BRANCH   7   8
ATOM      8  C   UNL     1       8.578 -20.937 -14.690  1.00  0.00     0.000 C 
BRANCH   8   9
ATOM      9  C   UNL     1       9.963 -20.619 -15.275  1.00  0.00     0.000 C 
BRANCH   9  10
ATOM     10  C   UNL     1      10.385 -21.610 -16.377  1.00  0.00     0.006 C 
BRANCH  10  11
ATOM     11  C   UNL     1       9.361 -21.756 -17.515  1.00  0.00     0.053 C 
BRANCH  11  12
ATOM     12  C   UNL     1      10.021 -21.894 -18.852  1.00  0.00     0.041 C 
ATOM     13  O   UNL     1      11.125 -22.494 -18.952  1.00  0.00    -0.550 OA
ATOM     14  O   UNL     1       9.413 -21.372 -19.988  1.00  0.00    -0.550 OA
ENDBRANCH  11  12
ENDBRANCH  10  11
ENDBRANCH   9  10
ENDBRANCH   8   9
ENDBRANCH   7   8
ENDBRANCH   6   7
ENDBRANCH   5   6
ENDBRANCH   4   5
ENDBRANCH   3   4
ENDBRANCH   2   3
ENDBRANCH   1   2
BRANCH   1  15
ATOM     15  C   UNL     1       0.398 -22.151 -15.327  1.00  0.00     0.000 C 
BRANCH  15  16
ATOM     16  C   UNL     1      -0.863 -22.991 -15.034  1.00  0.00     0.000 C 
BRANCH  16  17
ATOM     17  C   UNL     1      -2.071 -22.164 -14.556  1.00  0.00     0.000 C 
BRANCH  17  18
ATOM     18  C   UNL     1      -3.201 -22.097 -15.596  1.00  0.00    -0.000 C 
BRANCH  18  19
ATOM     19  C   UNL     1      -4.321 -23.124 -15.339  1.00  0.00    -0.000 C 
BRANCH  19  20
ATOM     20  C   UNL     1      -4.935 -23.100 -13.921  1.00  0.00    -0.000 C 
BRANCH  20  21
ATOM     21  C   UNL     1      -6.473 -22.999 -13.867  1.00  0.00    -0.000 C 
BRANCH  21  22
ATOM     22  C   UNL     1      -7.110 -22.206 -15.024  1.00  0.00    -0.000 C 
BRANCH  22  23
ATOM     23  C   UNL     1      -8.637 -22.085 -14.887  1.00  0.00    -0.000 C 
BRANCH  23  24
ATOM     24  C   UNL     1      -9.066 -21.209 -13.693  1.00  0.00    -0.000 C 
BRANCH  24  25
ATOM     25  C   UNL     1      -8.766 -19.707 -13.845  1.00  0.00    -0.003 C 
ATOM     26  C   UNL     1      -8.831 -18.946 -12.521  1.00  0.00     0.004 C 
ENDBRANCH  24  25
ENDBRANCH  23  24
ENDBRANCH  22  23
ENDBRANCH  21  22
ENDBRANCH  20  21
ENDBRANCH  19  20
ENDBRANCH  18  19
ENDBRANCH  17  18
ENDBRANCH  16  17
ENDBRANCH  15  16
ENDBRANCH   1  15
TORSDOF 22
ENDMDL
