MODEL 1
REMARK VINA RESULT:    -6.090      0.000      0.000
REMARK INTER + INTRA:         -18.911
REMARK INTER:                 -16.059
REMARK INTRA:                  -2.852
REMARK UNBOUND:                -2.852
REMARK SMILES CCCCCCCCCCCCCCCCCCCCCCCCCCCCCC(=O)[O-]
REMARK SMILES IDX 16 1 17 2 18 3 19 4 20 5 21 6 22 7 23 8 24 9 25 10 26 11
REMARK SMILES IDX 27 12 28 13 29 14 30 15 31 16 32 17 15 18 14 19 13 20 12 21
REMARK SMILES IDX 11 22 10 23 9 24 8 25 7 26 6 27 5 28 4 29 3 30 2 31 1 32
REMARK H PARENT
REMARK Flexibility Score: inf
ROOT
ATOM      1  C   UNL     1      88.755 321.329 193.349  1.00  0.00     0.000 C 
ENDROOT
BRANCH   1   2
ATOM      2  C   UNL     1      88.455 322.717 193.949  1.00  0.00     0.000 C 
BRANCH   2   3
ATOM      3  C   UNL     1      86.984 323.152 193.798  1.00  0.00     0.000 C 
BRANCH   3   4
ATOM      4  C   UNL     1      86.778 324.543 193.167  1.00  0.00     0.000 C 
BRANCH   4   5
ATOM      5  C   UNL     1      88.052 325.401 193.049  1.00  0.00     0.000 C 
BRANCH   5   6
ATOM      6  C   UNL     1      88.074 326.581 194.032  1.00  0.00     0.000 C 
BRANCH   6   7
ATOM      7  C   UNL     1      86.770 326.647 194.843  1.00  0.00     0.000 C 
BRANCH   7   8
ATOM      8  C   UNL     1      87.013 326.497 196.355  1.00  0.00     0.000 C 
BRANCH   8   9
ATOM      9  C   UNL     1      87.893 325.280 196.693  1.00  0.00     0.000 C 
BRANCH   9  10
ATOM     10  C   UNL     1      89.191 325.670 197.420  1.00  0.00     0.000 C 
BRANCH  10  11
ATOM     11  C   UNL     1      88.938 326.456 198.716  1.00  0.00     0.000 C 
BRANCH  11  12
ATOM     12  C   UNL     1      88.942 325.559 199.967  1.00  0.00     0.000 C 
BRANCH  12  13
ATOM     13  C   UNL     1      89.454 326.258 201.244  1.00  0.00     0.006 C 
BRANCH  13  14
ATOM     14  C   UNL     1      90.960 326.556 201.194  1.00  0.00     0.053 C 
BRANCH  14  15
ATOM     15  C   UNL     1      91.447 327.090 202.505  1.00  0.00     0.041 C 
ATOM     16  O   UNL     1      92.679 327.119 202.765  1.00  0.00    -0.550 OA
ATOM     17  O   UNL     1      90.534 327.542 203.450  1.00  0.00    -0.550 OA
ENDBRANCH  14  15
ENDBRANCH  13  14
ENDBRANCH  12  13
ENDBRANCH  11  12
ENDBRANCH  10  11
ENDBRANCH   9  10
ENDBRANCH   8   9
ENDBRANCH   7   8
ENDBRANCH   6   7
ENDBRANCH   5   6
ENDBRANCH   4   5
ENDBRANCH   3   4
ENDBRANCH   2   3
ENDBRANCH   1   2
BRANCH   1  18
ATOM     18  C   UNL     1      89.142 321.399 191.861  1.00  0.00     0.000 C 
BRANCH  18  19
ATOM     19  C   UNL     1      87.929 321.204 190.925  1.00  0.00     0.000 C 
BRANCH  19  20
ATOM     20  C   UNL     1      87.560 322.460 190.111  1.00  0.00     0.000 C 
BRANCH  20  21
ATOM     21  C   UNL     1      88.629 323.564 190.092  1.00  0.00     0.000 C 
BRANCH  21  22
ATOM     22  C   UNL     1      89.471 323.640 188.803  1.00  0.00     0.000 C 
BRANCH  22  23
ATOM     23  C   UNL     1      90.329 322.384 188.533  1.00  0.00     0.000 C 
BRANCH  23  24
ATOM     24  C   UNL     1      91.846 322.648 188.414  1.00  0.00    -0.000 C 
BRANCH  24  25
ATOM     25  C   UNL     1      92.734 321.926 189.449  1.00  0.00    -0.000 C 
BRANCH  25  26
ATOM     26  C   UNL     1      94.193 322.418 189.530  1.00  0.00    -0.000 C 
BRANCH  26  27
ATOM     27  C   UNL     1      94.368 323.947 189.502  1.00  0.00    -0.000 C 
BRANCH  27  28
ATOM     28  C   UNL     1      95.499 324.435 190.422  1.00  0.00    -0.000 C 
BRANCH  28  29
ATOM     29  C   UNL     1      94.997 325.370 191.535  1.00  0.00    -0.000 C 
BRANCH  29  30
ATOM     30  C   UNL     1      96.021 325.583 192.670  1.00  0.00    -0.000 C 
BRANCH  30  31
ATOM     31  C   UNL     1      95.754 324.664 193.872  1.00  0.00    -0.003 C 
ATOM     32  C   UNL     1      95.591 325.470 195.159  1.00  0.00     0.004 C 
ENDBRANCH  30  31
ENDBRANCH  29  30
ENDBRANCH  28  29
ENDBRANCH  27  28
ENDBRANCH  26  27
ENDBRANCH  25  26
ENDBRANCH  24  25
ENDBRANCH  23  24
ENDBRANCH  22  23
ENDBRANCH  21  22
ENDBRANCH  20  21
ENDBRANCH  19  20
ENDBRANCH  18  19
ENDBRANCH   1  18
TORSDOF 28
ENDMDL
MODEL 2
REMARK VINA RESULT:    -6.074      5.083     11.506
REMARK INTER + INTRA:         -18.867
REMARK INTER:                 -15.603
REMARK INTRA:                  -3.265
REMARK UNBOUND:                -2.852
REMARK SMILES CCCCCCCCCCCCCCCCCCCCCCCCCCCCCC(=O)[O-]
REMARK SMILES IDX 16 1 17 2 18 3 19 4 20 5 21 6 22 7 23 8 24 9 25 10 26 11
REMARK SMILES IDX 27 12 28 13 29 14 30 15 31 16 32 17 15 18 14 19 13 20 12 21
REMARK SMILES IDX 11 22 10 23 9 24 8 25 7 26 6 27 5 28 4 29 3 30 2 31 1 32
REMARK H PARENT
REMARK Flexibility Score: inf
ROOT
ATOM      1  C   UNL     1      89.238 322.414 200.245  1.00  0.00     0.000 C 
ENDROOT
BRANCH   1   2
ATOM      2  C   UNL     1      88.342 322.681 199.018  1.00  0.00     0.000 C 
BRANCH   2   3
ATOM      3  C   UNL     1      88.782 323.900 198.185  1.00  0.00     0.000 C 
BRANCH   3   4
ATOM      4  C   UNL     1      88.952 325.207 198.983  1.00  0.00     0.000 C 
BRANCH   4   5
ATOM      5  C   UNL     1      88.835 326.499 198.152  1.00  0.00     0.000 C 
BRANCH   5   6
ATOM      6  C   UNL     1      88.497 326.235 196.678  1.00  0.00     0.000 C 
BRANCH   6   7
ATOM      7  C   UNL     1      86.997 326.441 196.410  1.00  0.00     0.000 C 
BRANCH   7   8
ATOM      8  C   UNL     1      86.664 326.427 194.907  1.00  0.00     0.000 C 
BRANCH   8   9
ATOM      9  C   UNL     1      87.917 326.565 194.024  1.00  0.00     0.000 C 
BRANCH   9  10
ATOM     10  C   UNL     1      88.157 325.329 193.139  1.00  0.00     0.000 C 
BRANCH  10  11
ATOM     11  C   UNL     1      86.894 324.473 192.952  1.00  0.00     0.000 C 
BRANCH  11  12
ATOM     12  C   UNL     1      86.887 323.706 191.618  1.00  0.00     0.000 C 
BRANCH  12  13
ATOM     13  C   UNL     1      88.288 323.292 191.120  1.00  0.00     0.006 C 
BRANCH  13  14
ATOM     14  C   UNL     1      88.454 323.468 189.602  1.00  0.00     0.053 C 
BRANCH  14  15
ATOM     15  C   UNL     1      89.463 322.507 189.057  1.00  0.00     0.041 C 
ATOM     16  O   UNL     1      90.604 322.909 188.706  1.00  0.00    -0.550 OA
ATOM     17  O   UNL     1      89.135 321.164 188.919  1.00  0.00    -0.550 OA
ENDBRANCH  14  15
ENDBRANCH  13  14
ENDBRANCH  12  13
ENDBRANCH  11  12
ENDBRANCH  10  11
ENDBRANCH   9  10
ENDBRANCH   8   9
ENDBRANCH   7   8
ENDBRANCH   6   7
ENDBRANCH   5   6
ENDBRANCH   4   5
ENDBRANCH   3   4
ENDBRANCH   2   3
ENDBRANCH   1   2
BRANCH   1  18
ATOM     18  C   UNL     1      88.432 322.297 201.551  1.00  0.00     0.000 C 
BRANCH  18  19
ATOM     19  C   UNL     1      86.937 322.628 201.355  1.00  0.00     0.000 C 
BRANCH  19  20
ATOM     20  C   UNL     1      86.295 323.354 202.554  1.00  0.00     0.000 C 
BRANCH  20  21
ATOM     21  C   UNL     1      87.213 323.540 203.772  1.00  0.00     0.000 C 
BRANCH  21  22
ATOM     22  C   UNL     1      86.490 323.646 205.129  1.00  0.00     0.000 C 
BRANCH  22  23
ATOM     23  C   UNL     1      86.876 324.893 205.956  1.00  0.00     0.000 C 
BRANCH  23  24
ATOM     24  C   UNL     1      88.391 325.068 206.197  1.00  0.00    -0.000 C 
BRANCH  24  25
ATOM     25  C   UNL     1      88.877 326.522 206.374  1.00  0.00    -0.000 C 
BRANCH  25  26
ATOM     26  C   UNL     1      89.868 327.025 205.307  1.00  0.00    -0.000 C 
BRANCH  26  27
ATOM     27  C   UNL     1      89.222 327.660 204.062  1.00  0.00    -0.000 C 
BRANCH  27  28
ATOM     28  C   UNL     1      89.020 326.654 202.916  1.00  0.00    -0.000 C 
BRANCH  28  29
ATOM     29  C   UNL     1      90.168 325.637 202.810  1.00  0.00    -0.000 C 
BRANCH  29  30
ATOM     30  C   UNL     1      91.241 326.023 201.769  1.00  0.00    -0.000 C 
BRANCH  30  31
ATOM     31  C   UNL     1      92.135 327.173 202.257  1.00  0.00    -0.003 C 
ATOM     32  C   UNL     1      93.143 326.687 203.295  1.00  0.00     0.004 C 
ENDBRANCH  30  31
ENDBRANCH  29  30
ENDBRANCH  28  29
ENDBRANCH  27  28
ENDBRANCH  26  27
ENDBRANCH  25  26
ENDBRANCH  24  25
ENDBRANCH  23  24
ENDBRANCH  22  23
ENDBRANCH  21  22
ENDBRANCH  20  21
ENDBRANCH  19  20
ENDBRANCH  18  19
ENDBRANCH   1  18
TORSDOF 28
ENDMDL
MODEL 3
REMARK VINA RESULT:    -6.037      2.573      5.889
REMARK INTER + INTRA:         -18.771
REMARK INTER:                 -16.748
REMARK INTRA:                  -2.022
REMARK UNBOUND:                -2.852
REMARK SMILES CCCCCCCCCCCCCCCCCCCCCCCCCCCCCC(=O)[O-]
REMARK SMILES IDX 16 1 17 2 18 3 19 4 20 5 21 6 22 7 23 8 24 9 25 10 26 11
REMARK SMILES IDX 27 12 28 13 29 14 30 15 31 16 32 17 15 18 14 19 13 20 12 21
REMARK SMILES IDX 11 22 10 23 9 24 8 25 7 26 6 27 5 28 4 29 3 30 2 31 1 32
REMARK H PARENT
REMARK Flexibility Score: inf
ROOT
ATOM      1  C   UNL     1      88.369 325.891 196.967  1.00  0.00     0.000 C 
ENDROOT
BRANCH   1   2
ATOM      2  C   UNL     1      88.876 326.671 198.197  1.00  0.00     0.000 C 
BRANCH   2   3
ATOM      3  C   UNL     1      89.346 325.767 199.353  1.00  0.00     0.000 C 
BRANCH   3   4
ATOM      4  C   UNL     1      89.669 326.505 200.667  1.00  0.00     0.000 C 
BRANCH   4   5
ATOM      5  C   UNL     1      88.753 326.154 201.855  1.00  0.00     0.000 C 
BRANCH   5   6
ATOM      6  C   UNL     1      88.149 324.746 201.750  1.00  0.00     0.000 C 
BRANCH   6   7
ATOM      7  C   UNL     1      89.069 323.700 202.399  1.00  0.00     0.000 C 
BRANCH   7   8
ATOM      8  C   UNL     1      88.359 322.904 203.508  1.00  0.00     0.000 C 
BRANCH   8   9
ATOM      9  C   UNL     1      86.905 323.360 203.724  1.00  0.00     0.000 C 
BRANCH   9  10
ATOM     10  C   UNL     1      86.649 323.868 205.153  1.00  0.00     0.000 C 
BRANCH  10  11
ATOM     11  C   UNL     1      87.914 324.420 205.828  1.00  0.00     0.000 C 
BRANCH  11  12
ATOM     12  C   UNL     1      87.663 325.741 206.577  1.00  0.00     0.000 C 
BRANCH  12  13
ATOM     13  C   UNL     1      88.902 326.655 206.679  1.00  0.00     0.006 C 
BRANCH  13  14
ATOM     14  C   UNL     1      89.356 327.194 205.313  1.00  0.00     0.053 C 
BRANCH  14  15
ATOM     15  C   UNL     1      90.835 327.046 205.141  1.00  0.00     0.041 C 
ATOM     16  O   UNL     1      91.301 326.326 204.218  1.00  0.00    -0.550 OA
ATOM     17  O   UNL     1      91.702 327.691 206.014  1.00  0.00    -0.550 OA
ENDBRANCH  14  15
ENDBRANCH  13  14
ENDBRANCH  12  13
ENDBRANCH  11  12
ENDBRANCH  10  11
ENDBRANCH   9  10
ENDBRANCH   8   9
ENDBRANCH   7   8
ENDBRANCH   6   7
ENDBRANCH   5   6
ENDBRANCH   4   5
ENDBRANCH   3   4
ENDBRANCH   2   3
ENDBRANCH   1   2
BRANCH   1  18
ATOM     18  C   UNL     1      88.866 326.492 195.641  1.00  0.00     0.000 C 
BRANCH  18  19
ATOM     19  C   UNL     1      87.708 326.847 194.682  1.00  0.00     0.000 C 
BRANCH  19  20
ATOM     20  C   UNL     1      86.491 325.907 194.797  1.00  0.00     0.000 C 
BRANCH  20  21
ATOM     21  C   UNL     1      86.328 324.906 193.643  1.00  0.00     0.000 C 
BRANCH  21  22
ATOM     22  C   UNL     1      87.621 324.189 193.208  1.00  0.00     0.000 C 
BRANCH  22  23
ATOM     23  C   UNL     1      88.060 324.501 191.760  1.00  0.00     0.000 C 
BRANCH  23  24
ATOM     24  C   UNL     1      87.639 323.446 190.713  1.00  0.00    -0.000 C 
BRANCH  24  25
ATOM     25  C   UNL     1      88.534 323.352 189.460  1.00  0.00    -0.000 C 
BRANCH  25  26
ATOM     26  C   UNL     1      89.628 322.267 189.506  1.00  0.00    -0.000 C 
BRANCH  26  27
ATOM     27  C   UNL     1      90.717 322.392 188.425  1.00  0.00    -0.000 C 
BRANCH  27  28
ATOM     28  C   UNL     1      92.140 322.375 189.007  1.00  0.00    -0.000 C 
BRANCH  28  29
ATOM     29  C   UNL     1      93.111 323.279 188.227  1.00  0.00    -0.000 C 
BRANCH  29  30
ATOM     30  C   UNL     1      93.598 324.502 189.034  1.00  0.00    -0.000 C 
BRANCH  30  31
ATOM     31  C   UNL     1      94.870 324.196 189.840  1.00  0.00    -0.003 C 
ATOM     32  C   UNL     1      95.045 325.182 190.992  1.00  0.00     0.004 C 
ENDBRANCH  30  31
ENDBRANCH  29  30
ENDBRANCH  28  29
ENDBRANCH  27  28
ENDBRANCH  26  27
ENDBRANCH  25  26
ENDBRANCH  24  25
ENDBRANCH  23  24
ENDBRANCH  22  23
ENDBRANCH  21  22
ENDBRANCH  20  21
ENDBRANCH  19  20
ENDBRANCH  18  19
ENDBRANCH   1  18
TORSDOF 28
ENDMDL
MODEL 4
REMARK VINA RESULT:    -6.015      4.448     10.815
REMARK INTER + INTRA:         -18.712
REMARK INTER:                 -14.526
REMARK INTRA:                  -4.186
REMARK UNBOUND:                -2.852
REMARK SMILES CCCCCCCCCCCCCCCCCCCCCCCCCCCCCC(=O)[O-]
REMARK SMILES IDX 16 1 17 2 18 3 19 4 20 5 21 6 22 7 23 8 24 9 25 10 26 11
REMARK SMILES IDX 27 12 28 13 29 14 30 15 31 16 32 17 15 18 14 19 13 20 12 21
REMARK SMILES IDX 11 22 10 23 9 24 8 25 7 26 6 27 5 28 4 29 3 30 2 31 1 32
REMARK H PARENT
REMARK Flexibility Score: inf
ROOT
ATOM      1  C   UNL     1      88.921 325.773 199.374  1.00  0.00     0.000 C 
ENDROOT
BRANCH   1   2
ATOM      2  C   UNL     1      88.873 326.847 198.268  1.00  0.00     0.000 C 
BRANCH   2   3
ATOM      3  C   UNL     1      88.110 326.401 197.005  1.00  0.00     0.000 C 
BRANCH   3   4
ATOM      4  C   UNL     1      88.913 326.497 195.693  1.00  0.00     0.000 C 
BRANCH   4   5
ATOM      5  C   UNL     1      88.068 326.750 194.429  1.00  0.00     0.000 C 
BRANCH   5   6
ATOM      6  C   UNL     1      86.612 326.288 194.579  1.00  0.00     0.000 C 
BRANCH   6   7
ATOM      7  C   UNL     1      86.276 325.183 193.565  1.00  0.00     0.000 C 
BRANCH   7   8
ATOM      8  C   UNL     1      87.517 324.695 192.798  1.00  0.00     0.000 C 
BRANCH   8   9
ATOM      9  C   UNL     1      87.840 323.216 193.077  1.00  0.00     0.000 C 
BRANCH   9  10
ATOM     10  C   UNL     1      88.680 323.023 194.351  1.00  0.00     0.000 C 
BRANCH  10  11
ATOM     11  C   UNL     1      87.850 322.528 195.546  1.00  0.00     0.000 C 
BRANCH  11  12
ATOM     12  C   UNL     1      88.498 322.865 196.901  1.00  0.00     0.000 C 
BRANCH  12  13
ATOM     13  C   UNL     1      90.023 323.092 196.833  1.00  0.00     0.006 C 
BRANCH  13  14
ATOM     14  C   UNL     1      90.697 323.015 198.212  1.00  0.00     0.053 C 
BRANCH  14  15
ATOM     15  C   UNL     1      92.104 322.520 198.097  1.00  0.00     0.041 C 
ATOM     16  O   UNL     1      92.921 323.093 197.328  1.00  0.00    -0.550 OA
ATOM     17  O   UNL     1      92.510 321.410 198.827  1.00  0.00    -0.550 OA
ENDBRANCH  14  15
ENDBRANCH  13  14
ENDBRANCH  12  13
ENDBRANCH  11  12
ENDBRANCH  10  11
ENDBRANCH   9  10
ENDBRANCH   8   9
ENDBRANCH   7   8
ENDBRANCH   6   7
ENDBRANCH   5   6
ENDBRANCH   4   5
ENDBRANCH   3   4
ENDBRANCH   2   3
ENDBRANCH   1   2
BRANCH   1  18
ATOM     18  C   UNL     1      89.811 326.184 200.559  1.00  0.00     0.000 C 
BRANCH  18  19
ATOM     19  C   UNL     1      88.998 326.448 201.846  1.00  0.00     0.000 C 
BRANCH  19  20
ATOM     20  C   UNL     1      89.867 326.756 203.082  1.00  0.00     0.000 C 
BRANCH  20  21
ATOM     21  C   UNL     1      89.105 327.324 204.290  1.00  0.00     0.000 C 
BRANCH  21  22
ATOM     22  C   UNL     1      89.881 327.308 205.622  1.00  0.00     0.000 C 
BRANCH  22  23
ATOM     23  C   UNL     1      89.219 326.458 206.729  1.00  0.00     0.000 C 
BRANCH  23  24
ATOM     24  C   UNL     1      87.840 325.869 206.359  1.00  0.00    -0.000 C 
BRANCH  24  25
ATOM     25  C   UNL     1      87.841 324.392 205.913  1.00  0.00    -0.000 C 
BRANCH  25  26
ATOM     26  C   UNL     1      86.545 323.903 205.235  1.00  0.00    -0.000 C 
BRANCH  26  27
ATOM     27  C   UNL     1      86.746 322.870 204.112  1.00  0.00    -0.000 C 
BRANCH  27  28
ATOM     28  C   UNL     1      86.880 323.516 202.723  1.00  0.00    -0.000 C 
BRANCH  28  29
ATOM     29  C   UNL     1      87.945 322.832 201.850  1.00  0.00    -0.000 C 
BRANCH  29  30
ATOM     30  C   UNL     1      87.476 322.555 200.406  1.00  0.00    -0.000 C 
BRANCH  30  31
ATOM     31  C   UNL     1      87.779 321.116 199.963  1.00  0.00    -0.003 C 
ATOM     32  C   UNL     1      86.891 320.113 200.695  1.00  0.00     0.004 C 
ENDBRANCH  30  31
ENDBRANCH  29  30
ENDBRANCH  28  29
ENDBRANCH  27  28
ENDBRANCH  26  27
ENDBRANCH  25  26
ENDBRANCH  24  25
ENDBRANCH  23  24
ENDBRANCH  22  23
ENDBRANCH  21  22
ENDBRANCH  20  21
ENDBRANCH  19  20
ENDBRANCH  18  19
ENDBRANCH   1  18
TORSDOF 28
ENDMDL
MODEL 5
REMARK VINA RESULT:    -5.959      4.200      8.507
REMARK INTER + INTRA:         -18.565
REMARK INTER:                 -14.690
REMARK INTRA:                  -3.876
REMARK UNBOUND:                -2.852
REMARK SMILES CCCCCCCCCCCCCCCCCCCCCCCCCCCCCC(=O)[O-]
REMARK SMILES IDX 16 1 17 2 18 3 19 4 20 5 21 6 22 7 23 8 24 9 25 10 26 11
REMARK SMILES IDX 27 12 28 13 29 14 30 15 31 16 32 17 15 18 14 19 13 20 12 21
REMARK SMILES IDX 11 22 10 23 9 24 8 25 7 26 6 27 5 28 4 29 3 30 2 31 1 32
REMARK H PARENT
REMARK Flexibility Score: inf
ROOT
ATOM      1  C   UNL     1      86.525 322.330 201.257  1.00  0.00     0.000 C 
ENDROOT
BRANCH   1   2
ATOM      2  C   UNL     1      86.224 323.296 202.421  1.00  0.00     0.000 C 
BRANCH   2   3
ATOM      3  C   UNL     1      87.103 323.060 203.664  1.00  0.00     0.000 C 
BRANCH   3   4
ATOM      4  C   UNL     1      86.593 323.724 204.958  1.00  0.00     0.000 C 
BRANCH   4   5
ATOM      5  C   UNL     1      87.692 324.138 205.956  1.00  0.00     0.000 C 
BRANCH   5   6
ATOM      6  C   UNL     1      87.588 325.608 206.387  1.00  0.00     0.000 C 
BRANCH   6   7
ATOM      7  C   UNL     1      88.947 326.139 206.870  1.00  0.00     0.000 C 
BRANCH   7   8
ATOM      8  C   UNL     1      89.488 327.266 205.973  1.00  0.00     0.000 C 
BRANCH   8   9
ATOM      9  C   UNL     1      90.058 326.740 204.643  1.00  0.00     0.000 C 
BRANCH   9  10
ATOM     10  C   UNL     1      89.179 327.107 203.435  1.00  0.00     0.000 C 
BRANCH  10  11
ATOM     11  C   UNL     1      88.858 325.900 202.540  1.00  0.00     0.000 C 
BRANCH  11  12
ATOM     12  C   UNL     1      89.178 326.156 201.057  1.00  0.00     0.000 C 
BRANCH  12  13
ATOM     13  C   UNL     1      90.669 326.437 200.772  1.00  0.00     0.006 C 
BRANCH  13  14
ATOM     14  C   UNL     1      91.599 325.370 201.369  1.00  0.00     0.053 C 
BRANCH  14  15
ATOM     15  C   UNL     1      91.360 324.034 200.737  1.00  0.00     0.041 C 
ATOM     16  O   UNL     1      91.119 323.025 201.451  1.00  0.00    -0.550 OA
ATOM     17  O   UNL     1      91.421 323.901 199.356  1.00  0.00    -0.550 OA
ENDBRANCH  14  15
ENDBRANCH  13  14
ENDBRANCH  12  13
ENDBRANCH  11  12
ENDBRANCH  10  11
ENDBRANCH   9  10
ENDBRANCH   8   9
ENDBRANCH   7   8
ENDBRANCH   6   7
ENDBRANCH   5   6
ENDBRANCH   4   5
ENDBRANCH   3   4
ENDBRANCH   2   3
ENDBRANCH   1   2
BRANCH   1  18
ATOM     18  C   UNL     1      87.766 322.749 200.448  1.00  0.00     0.000 C 
BRANCH  18  19
ATOM     19  C   UNL     1      88.339 321.591 199.602  1.00  0.00     0.000 C 
BRANCH  19  20
ATOM     20  C   UNL     1      87.550 321.314 198.307  1.00  0.00     0.000 C 
BRANCH  20  21
ATOM     21  C   UNL     1      88.364 321.436 197.008  1.00  0.00     0.000 C 
BRANCH  21  22
ATOM     22  C   UNL     1      88.165 322.751 196.230  1.00  0.00     0.000 C 
BRANCH  22  23
ATOM     23  C   UNL     1      89.180 323.859 196.591  1.00  0.00     0.000 C 
BRANCH  23  24
ATOM     24  C   UNL     1      88.654 324.926 197.574  1.00  0.00    -0.000 C 
BRANCH  24  25
ATOM     25  C   UNL     1      88.449 326.338 196.985  1.00  0.00    -0.000 C 
BRANCH  25  26
ATOM     26  C   UNL     1      88.582 326.442 195.453  1.00  0.00    -0.000 C 
BRANCH  26  27
ATOM     27  C   UNL     1      87.273 326.757 194.704  1.00  0.00    -0.000 C 
BRANCH  27  28
ATOM     28  C   UNL     1      86.867 325.647 193.720  1.00  0.00    -0.000 C 
BRANCH  28  29
ATOM     29  C   UNL     1      88.073 324.862 193.179  1.00  0.00    -0.000 C 
BRANCH  29  30
ATOM     30  C   UNL     1      87.841 324.264 191.775  1.00  0.00    -0.000 C 
BRANCH  30  31
ATOM     31  C   UNL     1      86.494 323.532 191.673  1.00  0.00    -0.003 C 
ATOM     32  C   UNL     1      86.646 322.190 190.961  1.00  0.00     0.004 C 
ENDBRANCH  30  31
ENDBRANCH  29  30
ENDBRANCH  28  29
ENDBRANCH  27  28
ENDBRANCH  26  27
ENDBRANCH  25  26
ENDBRANCH  24  25
ENDBRANCH  23  24
ENDBRANCH  22  23
ENDBRANCH  21  22
ENDBRANCH  20  21
ENDBRANCH  19  20
ENDBRANCH  18  19
ENDBRANCH   1  18
TORSDOF 28
ENDMDL
MODEL 6
REMARK VINA RESULT:    -5.952      5.205     11.822
REMARK INTER + INTRA:         -18.546
REMARK INTER:                 -14.876
REMARK INTRA:                  -3.670
REMARK UNBOUND:                -2.852
REMARK SMILES CCCCCCCCCCCCCCCCCCCCCCCCCCCCCC(=O)[O-]
REMARK SMILES IDX 16 1 17 2 18 3 19 4 20 5 21 6 22 7 23 8 24 9 25 10 26 11
REMARK SMILES IDX 27 12 28 13 29 14 30 15 31 16 32 17 15 18 14 19 13 20 12 21
REMARK SMILES IDX 11 22 10 23 9 24 8 25 7 26 6 27 5 28 4 29 3 30 2 31 1 32
REMARK H PARENT
REMARK Flexibility Score: inf
ROOT
ATOM      1  C   UNL     1      88.884 326.346 201.727  1.00  0.00     0.000 C 
ENDROOT
BRANCH   1   2
ATOM      2  C   UNL     1      89.640 325.801 200.499  1.00  0.00     0.000 C 
BRANCH   2   3
ATOM      3  C   UNL     1      89.231 326.471 199.173  1.00  0.00     0.000 C 
BRANCH   3   4
ATOM      4  C   UNL     1      88.901 325.496 198.026  1.00  0.00     0.000 C 
BRANCH   4   5
ATOM      5  C   UNL     1      88.044 326.090 196.891  1.00  0.00     0.000 C 
BRANCH   5   6
ATOM      6  C   UNL     1      88.871 326.490 195.661  1.00  0.00     0.000 C 
BRANCH   6   7
ATOM      7  C   UNL     1      87.961 326.845 194.475  1.00  0.00     0.000 C 
BRANCH   7   8
ATOM      8  C   UNL     1      86.525 326.325 194.662  1.00  0.00     0.000 C 
BRANCH   8   9
ATOM      9  C   UNL     1      86.169 325.204 193.669  1.00  0.00     0.000 C 
BRANCH   9  10
ATOM     10  C   UNL     1      86.745 323.839 194.085  1.00  0.00     0.000 C 
BRANCH  10  11
ATOM     11  C   UNL     1      87.895 323.374 193.180  1.00  0.00     0.000 C 
BRANCH  11  12
ATOM     12  C   UNL     1      88.099 324.287 191.958  1.00  0.00     0.000 C 
BRANCH  12  13
ATOM     13  C   UNL     1      87.930 323.572 190.600  1.00  0.00     0.006 C 
BRANCH  13  14
ATOM     14  C   UNL     1      86.659 322.712 190.536  1.00  0.00     0.053 C 
BRANCH  14  15
ATOM     15  C   UNL     1      86.981 321.302 190.153  1.00  0.00     0.041 C 
ATOM     16  O   UNL     1      86.627 320.848 189.033  1.00  0.00    -0.550 OA
ATOM     17  O   UNL     1      87.661 320.481 191.044  1.00  0.00    -0.550 OA
ENDBRANCH  14  15
ENDBRANCH  13  14
ENDBRANCH  12  13
ENDBRANCH  11  12
ENDBRANCH  10  11
ENDBRANCH   9  10
ENDBRANCH   8   9
ENDBRANCH   7   8
ENDBRANCH   6   7
ENDBRANCH   5   6
ENDBRANCH   4   5
ENDBRANCH   3   4
ENDBRANCH   2   3
ENDBRANCH   1   2
BRANCH   1  18
ATOM     18  C   UNL     1      89.825 326.702 202.891  1.00  0.00     0.000 C 
BRANCH  18  19
ATOM     19  C   UNL     1      89.109 327.482 204.014  1.00  0.00     0.000 C 
BRANCH  19  20
ATOM     20  C   UNL     1      89.674 327.210 205.423  1.00  0.00     0.000 C 
BRANCH  20  21
ATOM     21  C   UNL     1      89.347 325.823 206.001  1.00  0.00     0.000 C 
BRANCH  21  22
ATOM     22  C   UNL     1      87.934 325.678 206.599  1.00  0.00     0.000 C 
BRANCH  22  23
ATOM     23  C   UNL     1      87.025 324.684 205.843  1.00  0.00     0.000 C 
BRANCH  23  24
ATOM     24  C   UNL     1      87.777 323.596 205.046  1.00  0.00    -0.000 C 
BRANCH  24  25
ATOM     25  C   UNL     1      87.535 323.594 203.522  1.00  0.00    -0.000 C 
BRANCH  25  26
ATOM     26  C   UNL     1      86.069 323.411 203.082  1.00  0.00    -0.000 C 
BRANCH  26  27
ATOM     27  C   UNL     1      85.879 322.767 201.697  1.00  0.00    -0.000 C 
BRANCH  27  28
ATOM     28  C   UNL     1      87.053 321.861 201.293  1.00  0.00    -0.000 C 
BRANCH  28  29
ATOM     29  C   UNL     1      87.661 322.247 199.934  1.00  0.00    -0.000 C 
BRANCH  29  30
ATOM     30  C   UNL     1      89.197 322.397 199.965  1.00  0.00    -0.000 C 
BRANCH  30  31
ATOM     31  C   UNL     1      89.835 321.589 201.106  1.00  0.00    -0.003 C 
ATOM     32  C   UNL     1      90.669 322.484 202.019  1.00  0.00     0.004 C 
ENDBRANCH  30  31
ENDBRANCH  29  30
ENDBRANCH  28  29
ENDBRANCH  27  28
ENDBRANCH  26  27
ENDBRANCH  25  26
ENDBRANCH  24  25
ENDBRANCH  23  24
ENDBRANCH  22  23
ENDBRANCH  21  22
ENDBRANCH  20  21
ENDBRANCH  19  20
ENDBRANCH  18  19
ENDBRANCH   1  18
TORSDOF 28
ENDMDL
MODEL 7
REMARK VINA RESULT:    -5.916      4.689     12.208
REMARK INTER + INTRA:         -18.452
REMARK INTER:                 -16.032
REMARK INTRA:                  -2.419
REMARK UNBOUND:                -2.852
REMARK SMILES CCCCCCCCCCCCCCCCCCCCCCCCCCCCCC(=O)[O-]
REMARK SMILES IDX 16 1 17 2 18 3 19 4 20 5 21 6 22 7 23 8 24 9 25 10 26 11
REMARK SMILES IDX 27 12 28 13 29 14 30 15 31 16 32 17 15 18 14 19 13 20 12 21
REMARK SMILES IDX 11 22 10 23 9 24 8 25 7 26 6 27 5 28 4 29 3 30 2 31 1 32
REMARK H PARENT
REMARK Flexibility Score: inf
ROOT
ATOM      1  C   UNL     1      88.888 324.968 198.424  1.00  0.00     0.000 C 
ENDROOT
BRANCH   1   2
ATOM      2  C   UNL     1      88.814 326.426 197.928  1.00  0.00     0.000 C 
BRANCH   2   3
ATOM      3  C   UNL     1      88.762 326.556 196.393  1.00  0.00     0.000 C 
BRANCH   3   4
ATOM      4  C   UNL     1      87.427 326.133 195.749  1.00  0.00     0.000 C 
BRANCH   4   5
ATOM      5  C   UNL     1      87.243 326.570 194.283  1.00  0.00     0.000 C 
BRANCH   5   6
ATOM      6  C   UNL     1      88.026 325.695 193.294  1.00  0.00     0.000 C 
BRANCH   6   7
ATOM      7  C   UNL     1      88.106 324.241 193.786  1.00  0.00     0.000 C 
BRANCH   7   8
ATOM      8  C   UNL     1      88.114 323.230 192.626  1.00  0.00     0.000 C 
BRANCH   8   9
ATOM      9  C   UNL     1      87.186 323.649 191.471  1.00  0.00     0.000 C 
BRANCH   9  10
ATOM     10  C   UNL     1      87.541 322.955 190.145  1.00  0.00     0.000 C 
BRANCH  10  11
ATOM     11  C   UNL     1      88.827 323.506 189.507  1.00  0.00     0.000 C 
BRANCH  11  12
ATOM     12  C   UNL     1      89.948 322.456 189.427  1.00  0.00     0.000 C 
BRANCH  12  13
ATOM     13  C   UNL     1      91.078 322.812 188.437  1.00  0.00     0.006 C 
BRANCH  13  14
ATOM     14  C   UNL     1      92.436 322.225 188.850  1.00  0.00     0.053 C 
BRANCH  14  15
ATOM     15  C   UNL     1      93.555 323.154 188.495  1.00  0.00     0.041 C 
ATOM     16  O   UNL     1      93.481 324.379 188.778  1.00  0.00    -0.550 OA
ATOM     17  O   UNL     1      94.676 322.668 187.835  1.00  0.00    -0.550 OA
ENDBRANCH  14  15
ENDBRANCH  13  14
ENDBRANCH  12  13
ENDBRANCH  11  12
ENDBRANCH  10  11
ENDBRANCH   9  10
ENDBRANCH   8   9
ENDBRANCH   7   8
ENDBRANCH   6   7
ENDBRANCH   5   6
ENDBRANCH   4   5
ENDBRANCH   3   4
ENDBRANCH   2   3
ENDBRANCH   1   2
BRANCH   1  18
ATOM     18  C   UNL     1      89.335 324.866 199.893  1.00  0.00     0.000 C 
BRANCH  18  19
ATOM     19  C   UNL     1      89.616 326.247 200.523  1.00  0.00     0.000 C 
BRANCH  19  20
ATOM     20  C   UNL     1      88.853 326.500 201.839  1.00  0.00     0.000 C 
BRANCH  20  21
ATOM     21  C   UNL     1      89.736 326.852 203.048  1.00  0.00     0.000 C 
BRANCH  21  22
ATOM     22  C   UNL     1      88.998 327.506 204.232  1.00  0.00     0.000 C 
BRANCH  22  23
ATOM     23  C   UNL     1      89.676 327.284 205.602  1.00  0.00     0.000 C 
BRANCH  23  24
ATOM     24  C   UNL     1      88.834 326.487 206.621  1.00  0.00    -0.000 C 
BRANCH  24  25
ATOM     25  C   UNL     1      88.380 325.084 206.164  1.00  0.00    -0.000 C 
BRANCH  25  26
ATOM     26  C   UNL     1      86.855 324.881 206.064  1.00  0.00    -0.000 C 
BRANCH  26  27
ATOM     27  C   UNL     1      86.397 323.911 204.960  1.00  0.00    -0.000 C 
BRANCH  27  28
ATOM     28  C   UNL     1      87.392 323.822 203.792  1.00  0.00    -0.000 C 
BRANCH  28  29
ATOM     29  C   UNL     1      86.714 323.462 202.460  1.00  0.00    -0.000 C 
BRANCH  29  30
ATOM     30  C   UNL     1      87.448 322.355 201.673  1.00  0.00    -0.000 C 
BRANCH  30  31
ATOM     31  C   UNL     1      86.719 321.990 200.370  1.00  0.00    -0.003 C 
ATOM     32  C   UNL     1      86.599 320.476 200.209  1.00  0.00     0.004 C 
ENDBRANCH  30  31
ENDBRANCH  29  30
ENDBRANCH  28  29
ENDBRANCH  27  28
ENDBRANCH  26  27
ENDBRANCH  25  26
ENDBRANCH  24  25
ENDBRANCH  23  24
ENDBRANCH  22  23
ENDBRANCH  21  22
ENDBRANCH  20  21
ENDBRANCH  19  20
ENDBRANCH  18  19
ENDBRANCH   1  18
TORSDOF 28
ENDMDL
MODEL 8
REMARK VINA RESULT:    -5.869      4.225     10.371
REMARK INTER + INTRA:         -18.327
REMARK INTER:                 -14.508
REMARK INTRA:                  -3.819
REMARK UNBOUND:                -2.852
REMARK SMILES CCCCCCCCCCCCCCCCCCCCCCCCCCCCCC(=O)[O-]
REMARK SMILES IDX 16 1 17 2 18 3 19 4 20 5 21 6 22 7 23 8 24 9 25 10 26 11
REMARK SMILES IDX 27 12 28 13 29 14 30 15 31 16 32 17 15 18 14 19 13 20 12 21
REMARK SMILES IDX 11 22 10 23 9 24 8 25 7 26 6 27 5 28 4 29 3 30 2 31 1 32
REMARK H PARENT
REMARK Flexibility Score: inf
ROOT
ATOM      1  C   UNL     1      87.923 325.741 196.643  1.00  0.00     0.000 C 
ENDROOT
BRANCH   1   2
ATOM      2  C   UNL     1      86.661 326.480 196.154  1.00  0.00     0.000 C 
BRANCH   2   3
ATOM      3  C   UNL     1      86.708 326.862 194.661  1.00  0.00     0.000 C 
BRANCH   3   4
ATOM      4  C   UNL     1      88.064 326.620 193.969  1.00  0.00     0.000 C 
BRANCH   4   5
ATOM      5  C   UNL     1      88.103 325.410 193.016  1.00  0.00     0.000 C 
BRANCH   5   6
ATOM      6  C   UNL     1      86.803 324.592 193.033  1.00  0.00     0.000 C 
BRANCH   6   7
ATOM      7  C   UNL     1      86.985 323.283 193.818  1.00  0.00     0.000 C 
BRANCH   7   8
ATOM      8  C   UNL     1      88.458 322.848 193.898  1.00  0.00     0.000 C 
BRANCH   8   9
ATOM      9  C   UNL     1      88.713 321.830 195.024  1.00  0.00     0.000 C 
BRANCH   9  10
ATOM     10  C   UNL     1      87.761 322.017 196.218  1.00  0.00     0.000 C 
BRANCH  10  11
ATOM     11  C   UNL     1      88.357 321.517 197.543  1.00  0.00     0.000 C 
BRANCH  11  12
ATOM     12  C   UNL     1      89.894 321.590 197.570  1.00  0.00     0.000 C 
BRANCH  12  13
ATOM     13  C   UNL     1      90.457 323.025 197.652  1.00  0.00     0.006 C 
BRANCH  13  14
ATOM     14  C   UNL     1      91.918 323.063 198.126  1.00  0.00     0.053 C 
BRANCH  14  15
ATOM     15  C   UNL     1      92.011 323.527 199.546  1.00  0.00     0.041 C 
ATOM     16  O   UNL     1      92.890 324.363 199.888  1.00  0.00    -0.550 OA
ATOM     17  O   UNL     1      91.135 323.023 200.498  1.00  0.00    -0.550 OA
ENDBRANCH  14  15
ENDBRANCH  13  14
ENDBRANCH  12  13
ENDBRANCH  11  12
ENDBRANCH  10  11
ENDBRANCH   9  10
ENDBRANCH   8   9
ENDBRANCH   7   8
ENDBRANCH   6   7
ENDBRANCH   5   6
ENDBRANCH   4   5
ENDBRANCH   3   4
ENDBRANCH   2   3
ENDBRANCH   1   2
BRANCH   1  18
ATOM     18  C   UNL     1      88.665 326.508 197.751  1.00  0.00     0.000 C 
BRANCH  18  19
ATOM     19  C   UNL     1      88.925 325.639 199.000  1.00  0.00     0.000 C 
BRANCH  19  20
ATOM     20  C   UNL     1      89.569 326.406 200.173  1.00  0.00     0.000 C 
BRANCH  20  21
ATOM     21  C   UNL     1      88.829 326.286 201.515  1.00  0.00     0.000 C 
BRANCH  21  22
ATOM     22  C   UNL     1      89.717 325.930 202.724  1.00  0.00     0.000 C 
BRANCH  22  23
ATOM     23  C   UNL     1      90.155 327.148 203.568  1.00  0.00     0.000 C 
BRANCH  23  24
ATOM     24  C   UNL     1      89.193 327.521 204.716  1.00  0.00    -0.000 C 
BRANCH  24  25
ATOM     25  C   UNL     1      89.511 326.890 206.088  1.00  0.00    -0.000 C 
BRANCH  25  26
ATOM     26  C   UNL     1      88.373 326.063 206.718  1.00  0.00    -0.000 C 
BRANCH  26  27
ATOM     27  C   UNL     1      88.185 324.654 206.128  1.00  0.00    -0.000 C 
BRANCH  27  28
ATOM     28  C   UNL     1      86.756 324.405 205.618  1.00  0.00    -0.000 C 
BRANCH  28  29
ATOM     29  C   UNL     1      86.654 323.159 204.723  1.00  0.00    -0.000 C 
BRANCH  29  30
ATOM     30  C   UNL     1      86.658 323.481 203.213  1.00  0.00    -0.000 C 
BRANCH  30  31
ATOM     31  C   UNL     1      87.300 322.359 202.383  1.00  0.00    -0.003 C 
ATOM     32  C   UNL     1      87.623 322.834 200.968  1.00  0.00     0.004 C 
ENDBRANCH  30  31
ENDBRANCH  29  30
ENDBRANCH  28  29
ENDBRANCH  27  28
ENDBRANCH  26  27
ENDBRANCH  25  26
ENDBRANCH  24  25
ENDBRANCH  23  24
ENDBRANCH  22  23
ENDBRANCH  21  22
ENDBRANCH  20  21
ENDBRANCH  19  20
ENDBRANCH  18  19
ENDBRANCH   1  18
TORSDOF 28
ENDMDL
MODEL 9
REMARK VINA RESULT:    -5.836      4.400     10.351
REMARK INTER + INTRA:         -18.240
REMARK INTER:                 -13.441
REMARK INTRA:                  -4.799
REMARK UNBOUND:                -2.852
REMARK SMILES CCCCCCCCCCCCCCCCCCCCCCCCCCCCCC(=O)[O-]
REMARK SMILES IDX 16 1 17 2 18 3 19 4 20 5 21 6 22 7 23 8 24 9 25 10 26 11
REMARK SMILES IDX 27 12 28 13 29 14 30 15 31 16 32 17 15 18 14 19 13 20 12 21
REMARK SMILES IDX 11 22 10 23 9 24 8 25 7 26 6 27 5 28 4 29 3 30 2 31 1 32
REMARK H PARENT
REMARK Flexibility Score: inf
ROOT
ATOM      1  C   UNL     1      89.175 325.831 199.171  1.00  0.00     0.000 C 
ENDROOT
BRANCH   1   2
ATOM      2  C   UNL     1      88.854 326.818 198.032  1.00  0.00     0.000 C 
BRANCH   2   3
ATOM      3  C   UNL     1      88.211 326.153 196.799  1.00  0.00     0.000 C 
BRANCH   3   4
ATOM      4  C   UNL     1      88.864 326.514 195.450  1.00  0.00     0.000 C 
BRANCH   4   5
ATOM      5  C   UNL     1      87.876 326.754 194.291  1.00  0.00     0.000 C 
BRANCH   5   6
ATOM      6  C   UNL     1      86.537 326.029 194.485  1.00  0.00     0.000 C 
BRANCH   6   7
ATOM      7  C   UNL     1      86.316 324.976 193.389  1.00  0.00     0.000 C 
BRANCH   7   8
ATOM      8  C   UNL     1      87.609 324.648 192.622  1.00  0.00     0.000 C 
BRANCH   8   9
ATOM      9  C   UNL     1      88.209 323.290 193.029  1.00  0.00     0.000 C 
BRANCH   9  10
ATOM     10  C   UNL     1      87.249 322.453 193.892  1.00  0.00     0.000 C 
BRANCH  10  11
ATOM     11  C   UNL     1      87.606 322.483 195.386  1.00  0.00     0.000 C 
BRANCH  11  12
ATOM     12  C   UNL     1      89.074 322.868 195.640  1.00  0.00     0.000 C 
BRANCH  12  13
ATOM     13  C   UNL     1      89.528 322.696 197.106  1.00  0.00     0.006 C 
BRANCH  13  14
ATOM     14  C   UNL     1      88.422 322.123 198.005  1.00  0.00     0.053 C 
BRANCH  14  15
ATOM     15  C   UNL     1      88.915 321.926 199.405  1.00  0.00     0.041 C 
ATOM     16  O   UNL     1      90.113 322.177 199.700  1.00  0.00    -0.550 OA
ATOM     17  O   UNL     1      88.052 321.447 200.382  1.00  0.00    -0.550 OA
ENDBRANCH  14  15
ENDBRANCH  13  14
ENDBRANCH  12  13
ENDBRANCH  11  12
ENDBRANCH  10  11
ENDBRANCH   9  10
ENDBRANCH   8   9
ENDBRANCH   7   8
ENDBRANCH   6   7
ENDBRANCH   5   6
ENDBRANCH   4   5
ENDBRANCH   3   4
ENDBRANCH   2   3
ENDBRANCH   1   2
BRANCH   1  18
ATOM     18  C   UNL     1      89.670 326.539 200.445  1.00  0.00     0.000 C 
BRANCH  18  19
ATOM     19  C   UNL     1      88.852 326.149 201.695  1.00  0.00     0.000 C 
BRANCH  19  20
ATOM     20  C   UNL     1      88.357 324.689 201.687  1.00  0.00     0.000 C 
BRANCH  20  21
ATOM     21  C   UNL     1      87.733 324.204 203.006  1.00  0.00     0.000 C 
BRANCH  21  22
ATOM     22  C   UNL     1      88.625 323.273 203.851  1.00  0.00     0.000 C 
BRANCH  22  23
ATOM     23  C   UNL     1      88.457 323.449 205.376  1.00  0.00     0.000 C 
BRANCH  23  24
ATOM     24  C   UNL     1      87.553 324.627 205.798  1.00  0.00    -0.000 C 
BRANCH  24  25
ATOM     25  C   UNL     1      88.282 325.854 206.386  1.00  0.00    -0.000 C 
BRANCH  25  26
ATOM     26  C   UNL     1      88.976 326.769 205.358  1.00  0.00    -0.000 C 
BRANCH  26  27
ATOM     27  C   UNL     1      90.346 327.319 205.794  1.00  0.00    -0.000 C 
BRANCH  27  28
ATOM     28  C   UNL     1      91.500 326.342 205.511  1.00  0.00    -0.000 C 
BRANCH  28  29
ATOM     29  C   UNL     1      91.432 325.738 204.098  1.00  0.00    -0.000 C 
BRANCH  29  30
ATOM     30  C   UNL     1      92.389 326.412 203.092  1.00  0.00    -0.000 C 
BRANCH  30  31
ATOM     31  C   UNL     1      92.868 325.437 202.005  1.00  0.00    -0.003 C 
ATOM     32  C   UNL     1      92.074 324.133 202.044  1.00  0.00     0.004 C 
ENDBRANCH  30  31
ENDBRANCH  29  30
ENDBRANCH  28  29
ENDBRANCH  27  28
ENDBRANCH  26  27
ENDBRANCH  25  26
ENDBRANCH  24  25
ENDBRANCH  23  24
ENDBRANCH  22  23
ENDBRANCH  21  22
ENDBRANCH  20  21
ENDBRANCH  19  20
ENDBRANCH  18  19
ENDBRANCH   1  18
TORSDOF 28
ENDMDL
