MODEL 1
REMARK VINA RESULT:    -5.963      0.000      0.000
REMARK INTER + INTRA:          -6.548
REMARK INTER:                  -6.486
REMARK INTRA:                  -0.063
REMARK UNBOUND:                -0.063
REMARK SMILES COc1cc2ccc(=O)oc2cc1O
REMARK SMILES IDX 3 1 13 2 12 3 11 4 5 5 4 6 6 7 7 8 8 9 9 10 10 11 2 12 1 13
REMARK SMILES IDX 14 14
REMARK H PARENT 14 15
REMARK Flexibility Score: inf
ROOT
ATOM      1  C   UNL     1      10.513  27.651  -1.184  1.00  0.00     0.161 A 
ATOM      2  C   UNL     1       9.539  27.307  -2.140  1.00  0.00     0.161 A 
ATOM      3  C   UNL     1       8.200  27.668  -1.945  1.00  0.00     0.098 A 
ATOM      4  C   UNL     1       7.817  28.371  -0.801  1.00  0.00     0.142 A 
ATOM      5  C   UNL     1       8.786  28.720   0.164  1.00  0.00     0.022 A 
ATOM      6  C   UNL     1      10.127  28.362  -0.028  1.00  0.00     0.062 A 
ATOM      7  C   UNL     1       8.372  29.424   1.299  1.00  0.00     0.019 A 
ATOM      8  C   UNL     1       7.026  29.759   1.444  1.00  0.00     0.094 A 
ATOM      9  C   UNL     1       6.122  29.379   0.446  1.00  0.00     0.336 A 
ATOM     10  O   UNL     1       4.903  29.671   0.559  1.00  0.00    -0.246 OA
ATOM     11  O   UNL     1       6.543  28.709  -0.624  1.00  0.00    -0.423 OA
ENDROOT
BRANCH   1  12
ATOM     12  O   UNL     1      11.847  27.274  -1.412  1.00  0.00    -0.493 OA
ATOM     13  C   UNL     1      12.900  28.179  -1.729  1.00  0.00     0.278 C 
ENDBRANCH   1  12
BRANCH   2  14
ATOM     14  O   UNL     1       9.882  26.604  -3.296  1.00  0.00    -0.504 OA
ATOM     15  H   UNL     1      10.845  26.458  -3.573  1.00  0.00     0.293 HD
ENDBRANCH   2  14
TORSDOF 2
ENDMDL
MODEL 2
REMARK VINA RESULT:    -5.891      9.202     12.424
REMARK INTER + INTRA:          -6.470
REMARK INTER:                  -6.406
REMARK INTRA:                  -0.064
REMARK UNBOUND:                -0.063
REMARK SMILES COc1cc2ccc(=O)oc2cc1O
REMARK SMILES IDX 3 1 13 2 12 3 11 4 5 5 4 6 6 7 7 8 8 9 9 10 10 11 2 12 1 13
REMARK SMILES IDX 14 14
REMARK H PARENT 14 15
REMARK Flexibility Score: inf
ROOT
ATOM      1  C   UNL     1       3.754  38.971   5.507  1.00  0.00     0.161 A 
ATOM      2  C   UNL     1       3.106  38.245   6.525  1.00  0.00     0.161 A 
ATOM      3  C   UNL     1       2.836  36.881   6.356  1.00  0.00     0.098 A 
ATOM      4  C   UNL     1       3.206  36.228   5.178  1.00  0.00     0.142 A 
ATOM      5  C   UNL     1       3.854  36.947   4.153  1.00  0.00     0.022 A 
ATOM      6  C   UNL     1       4.127  38.311   4.318  1.00  0.00     0.062 A 
ATOM      7  C   UNL     1       4.212  36.265   2.985  1.00  0.00     0.019 A 
ATOM      8  C   UNL     1       3.920  34.906   2.869  1.00  0.00     0.094 A 
ATOM      9  C   UNL     1       3.274  34.259   3.927  1.00  0.00     0.336 A 
ATOM     10  O   UNL     1       3.001  33.033   3.842  1.00  0.00    -0.246 OA
ATOM     11  O   UNL     1       2.945  34.932   5.028  1.00  0.00    -0.423 OA
ENDROOT
BRANCH   1  12
ATOM     12  O   UNL     1       4.008  40.337   5.710  1.00  0.00    -0.493 OA
ATOM     13  C   UNL     1       5.292  40.886   5.992  1.00  0.00     0.278 C 
ENDBRANCH   1  12
BRANCH   2  14
ATOM     14  O   UNL     1       2.721  38.861   7.716  1.00  0.00    -0.504 OA
ATOM     15  H   UNL     1       2.707  38.366   8.600  1.00  0.00     0.293 HD
ENDBRANCH   2  14
TORSDOF 2
ENDMDL
MODEL 3
REMARK VINA RESULT:    -5.783      1.300      4.905
REMARK INTER + INTRA:          -6.352
REMARK INTER:                  -6.292
REMARK INTRA:                  -0.061
REMARK UNBOUND:                -0.063
REMARK SMILES COc1cc2ccc(=O)oc2cc1O
REMARK SMILES IDX 3 1 13 2 12 3 11 4 5 5 4 6 6 7 7 8 8 9 9 10 10 11 2 12 1 13
REMARK SMILES IDX 14 14
REMARK H PARENT 14 15
REMARK Flexibility Score: inf
ROOT
ATOM      1  C   UNL     1       7.032  29.954   1.426  1.00  0.00     0.161 A 
ATOM      2  C   UNL     1       6.058  29.628   0.462  1.00  0.00     0.161 A 
ATOM      3  C   UNL     1       6.400  28.853  -0.652  1.00  0.00     0.098 A 
ATOM      4  C   UNL     1       7.709  28.396  -0.820  1.00  0.00     0.142 A 
ATOM      5  C   UNL     1       8.692  28.718   0.139  1.00  0.00     0.022 A 
ATOM      6  C   UNL     1       8.353  29.493   1.256  1.00  0.00     0.062 A 
ATOM      7  C   UNL     1       9.994  28.246  -0.057  1.00  0.00     0.019 A 
ATOM      8  C   UNL     1      10.281  27.477  -1.185  1.00  0.00     0.094 A 
ATOM      9  C   UNL     1       9.255  27.198  -2.093  1.00  0.00     0.336 A 
ATOM     10  O   UNL     1       9.493  26.506  -3.118  1.00  0.00    -0.246 OA
ATOM     11  O   UNL     1       8.024  27.660  -1.883  1.00  0.00    -0.423 OA
ENDROOT
BRANCH   1  12
ATOM     12  O   UNL     1       6.653  30.734   2.532  1.00  0.00    -0.493 OA
ATOM     13  C   UNL     1       7.118  32.056   2.784  1.00  0.00     0.278 C 
ENDBRANCH   1  12
BRANCH   2  14
ATOM     14  O   UNL     1       4.739  30.066   0.595  1.00  0.00    -0.504 OA
ATOM     15  H   UNL     1       4.488  31.045   0.540  1.00  0.00     0.293 HD
ENDBRANCH   2  14
TORSDOF 2
ENDMDL
MODEL 4
REMARK VINA RESULT:    -5.766      1.776      5.304
REMARK INTER + INTRA:          -6.334
REMARK INTER:                  -6.305
REMARK INTRA:                  -0.029
REMARK UNBOUND:                -0.063
REMARK SMILES COc1cc2ccc(=O)oc2cc1O
REMARK SMILES IDX 3 1 13 2 12 3 11 4 5 5 4 6 6 7 7 8 8 9 9 10 10 11 2 12 1 13
REMARK SMILES IDX 14 14
REMARK H PARENT 14 15
REMARK Flexibility Score: inf
ROOT
ATOM      1  C   UNL     1       5.635  28.414  -0.969  1.00  0.00     0.161 A 
ATOM      2  C   UNL     1       5.880  29.296   0.102  1.00  0.00     0.161 A 
ATOM      3  C   UNL     1       7.179  29.455   0.602  1.00  0.00     0.098 A 
ATOM      4  C   UNL     1       8.242  28.740   0.046  1.00  0.00     0.142 A 
ATOM      5  C   UNL     1       8.006  27.854  -1.026  1.00  0.00     0.022 A 
ATOM      6  C   UNL     1       6.709  27.693  -1.530  1.00  0.00     0.062 A 
ATOM      7  C   UNL     1       9.091  27.153  -1.562  1.00  0.00     0.019 A 
ATOM      8  C   UNL     1      10.365  27.348  -1.026  1.00  0.00     0.094 A 
ATOM      9  C   UNL     1      10.522  28.243   0.037  1.00  0.00     0.336 A 
ATOM     10  O   UNL     1      11.662  28.433   0.535  1.00  0.00    -0.246 OA
ATOM     11  O   UNL     1       9.472  28.897   0.528  1.00  0.00    -0.423 OA
ENDROOT
BRANCH   1  12
ATOM     12  O   UNL     1       4.320  28.280  -1.446  1.00  0.00    -0.493 OA
ATOM     13  C   UNL     1       3.346  27.402  -0.890  1.00  0.00     0.278 C 
ENDBRANCH   1  12
BRANCH   2  14
ATOM     14  O   UNL     1       4.844  30.028   0.684  1.00  0.00    -0.504 OA
ATOM     15  H   UNL     1       5.016  30.851   1.248  1.00  0.00     0.293 HD
ENDBRANCH   2  14
TORSDOF 2
ENDMDL
MODEL 5
REMARK VINA RESULT:    -5.729      1.156      4.795
REMARK INTER + INTRA:          -6.294
REMARK INTER:                  -6.249
REMARK INTRA:                  -0.045
REMARK UNBOUND:                -0.063
REMARK SMILES COc1cc2ccc(=O)oc2cc1O
REMARK SMILES IDX 3 1 13 2 12 3 11 4 5 5 4 6 6 7 7 8 8 9 9 10 10 11 2 12 1 13
REMARK SMILES IDX 14 14
REMARK H PARENT 14 15
REMARK Flexibility Score: inf
ROOT
ATOM      1  C   UNL     1       7.164  28.408  -0.307  1.00  0.00     0.161 A 
ATOM      2  C   UNL     1       7.287  27.584  -1.442  1.00  0.00     0.161 A 
ATOM      3  C   UNL     1       8.554  27.235  -1.926  1.00  0.00     0.098 A 
ATOM      4  C   UNL     1       9.707  27.700  -1.289  1.00  0.00     0.142 A 
ATOM      5  C   UNL     1       9.593  28.527  -0.152  1.00  0.00     0.022 A 
ATOM      6  C   UNL     1       8.328  28.878   0.336  1.00  0.00     0.062 A 
ATOM      7  C   UNL     1      10.765  28.977   0.465  1.00  0.00     0.019 A 
ATOM      8  C   UNL     1      12.002  28.599  -0.058  1.00  0.00     0.094 A 
ATOM      9  C   UNL     1      12.036  27.777  -1.189  1.00  0.00     0.336 A 
ATOM     10  O   UNL     1      13.143  27.426  -1.677  1.00  0.00    -0.246 OA
ATOM     11  O   UNL     1      10.906  27.363  -1.756  1.00  0.00    -0.423 OA
ENDROOT
BRANCH   1  12
ATOM     12  O   UNL     1       5.877  28.739   0.151  1.00  0.00    -0.493 OA
ATOM     13  C   UNL     1       5.564  29.903   0.910  1.00  0.00     0.278 C 
ENDBRANCH   1  12
BRANCH   2  14
ATOM     14  O   UNL     1       6.160  27.100  -2.106  1.00  0.00    -0.504 OA
ATOM     15  H   UNL     1       5.819  27.515  -2.965  1.00  0.00     0.293 HD
ENDBRANCH   2  14
TORSDOF 2
ENDMDL
MODEL 6
REMARK VINA RESULT:    -5.689      1.707      2.555
REMARK INTER + INTRA:          -6.251
REMARK INTER:                  -6.186
REMARK INTRA:                  -0.065
REMARK UNBOUND:                -0.063
REMARK SMILES COc1cc2ccc(=O)oc2cc1O
REMARK SMILES IDX 3 1 13 2 12 3 11 4 5 5 4 6 6 7 7 8 8 9 9 10 10 11 2 12 1 13
REMARK SMILES IDX 14 14
REMARK H PARENT 14 15
REMARK Flexibility Score: inf
ROOT
ATOM      1  C   UNL     1       8.180  27.773  -1.018  1.00  0.00     0.161 A 
ATOM      2  C   UNL     1       6.788  27.748  -1.227  1.00  0.00     0.161 A 
ATOM      3  C   UNL     1       5.948  28.590  -0.487  1.00  0.00     0.098 A 
ATOM      4  C   UNL     1       6.482  29.463   0.464  1.00  0.00     0.142 A 
ATOM      5  C   UNL     1       7.876  29.494   0.681  1.00  0.00     0.022 A 
ATOM      6  C   UNL     1       8.719  28.654  -0.057  1.00  0.00     0.062 A 
ATOM      7  C   UNL     1       8.381  30.378   1.640  1.00  0.00     0.019 A 
ATOM      8  C   UNL     1       7.500  31.196   2.348  1.00  0.00     0.094 A 
ATOM      9  C   UNL     1       6.130  31.109   2.080  1.00  0.00     0.336 A 
ATOM     10  O   UNL     1       5.319  31.837   2.709  1.00  0.00    -0.246 OA
ATOM     11  O   UNL     1       5.676  30.259   1.162  1.00  0.00    -0.423 OA
ENDROOT
BRANCH   1  12
ATOM     12  O   UNL     1       8.993  26.915  -1.777  1.00  0.00    -0.493 OA
ATOM     13  C   UNL     1       9.746  27.315  -2.917  1.00  0.00     0.278 C 
ENDBRANCH   1  12
BRANCH   2  14
ATOM     14  O   UNL     1       6.216  26.891  -2.168  1.00  0.00    -0.504 OA
ATOM     15  H   UNL     1       6.371  25.890  -2.150  1.00  0.00     0.293 HD
ENDBRANCH   2  14
TORSDOF 2
ENDMDL
MODEL 7
REMARK VINA RESULT:    -5.663      9.009     11.143
REMARK INTER + INTRA:          -6.222
REMARK INTER:                  -6.166
REMARK INTRA:                  -0.056
REMARK UNBOUND:                -0.063
REMARK SMILES COc1cc2ccc(=O)oc2cc1O
REMARK SMILES IDX 3 1 13 2 12 3 11 4 5 5 4 6 6 7 7 8 8 9 9 10 10 11 2 12 1 13
REMARK SMILES IDX 14 14
REMARK H PARENT 14 15
REMARK Flexibility Score: inf
ROOT
ATOM      1  C   UNL     1       2.280  33.823   5.042  1.00  0.00     0.161 A 
ATOM      2  C   UNL     1       3.187  33.610   3.986  1.00  0.00     0.161 A 
ATOM      3  C   UNL     1       3.871  34.691   3.415  1.00  0.00     0.098 A 
ATOM      4  C   UNL     1       3.660  35.989   3.885  1.00  0.00     0.142 A 
ATOM      5  C   UNL     1       2.752  36.212   4.942  1.00  0.00     0.022 A 
ATOM      6  C   UNL     1       2.067  35.134   5.517  1.00  0.00     0.062 A 
ATOM      7  C   UNL     1       2.562  37.523   5.391  1.00  0.00     0.019 A 
ATOM      8  C   UNL     1       3.269  38.563   4.787  1.00  0.00     0.094 A 
ATOM      9  C   UNL     1       4.151  38.265   3.743  1.00  0.00     0.336 A 
ATOM     10  O   UNL     1       4.798  39.190   3.184  1.00  0.00    -0.246 OA
ATOM     11  O   UNL     1       4.314  37.009   3.336  1.00  0.00    -0.423 OA
ENDROOT
BRANCH   1  12
ATOM     12  O   UNL     1       1.612  32.716   5.592  1.00  0.00    -0.493 OA
ATOM     13  C   UNL     1       0.343  32.240   5.155  1.00  0.00     0.278 C 
ENDBRANCH   1  12
BRANCH   2  14
ATOM     14  O   UNL     1       3.425  32.329   3.489  1.00  0.00    -0.504 OA
ATOM     15  H   UNL     1       2.894  31.941   2.719  1.00  0.00     0.293 HD
ENDBRANCH   2  14
TORSDOF 2
ENDMDL
MODEL 8
REMARK VINA RESULT:    -5.564      7.869     10.461
REMARK INTER + INTRA:          -6.115
REMARK INTER:                  -6.054
REMARK INTRA:                  -0.061
REMARK UNBOUND:                -0.063
REMARK SMILES COc1cc2ccc(=O)oc2cc1O
REMARK SMILES IDX 3 1 13 2 12 3 11 4 5 5 4 6 6 7 7 8 8 9 9 10 10 11 2 12 1 13
REMARK SMILES IDX 14 14
REMARK H PARENT 14 15
REMARK Flexibility Score: inf
ROOT
ATOM      1  C   UNL     1       4.421  34.876   2.566  1.00  0.00     0.161 A 
ATOM      2  C   UNL     1       3.867  34.045   3.559  1.00  0.00     0.161 A 
ATOM      3  C   UNL     1       3.305  34.604   4.713  1.00  0.00     0.098 A 
ATOM      4  C   UNL     1       3.288  35.989   4.891  1.00  0.00     0.142 A 
ATOM      5  C   UNL     1       3.841  36.829   3.902  1.00  0.00     0.022 A 
ATOM      6  C   UNL     1       4.404  36.274   2.746  1.00  0.00     0.062 A 
ATOM      7  C   UNL     1       3.810  38.212   4.109  1.00  0.00     0.019 A 
ATOM      8  C   UNL     1       3.237  38.717   5.277  1.00  0.00     0.094 A 
ATOM      9  C   UNL     1       2.709  37.822   6.214  1.00  0.00     0.336 A 
ATOM     10  O   UNL     1       2.188  38.257   7.274  1.00  0.00    -0.246 OA
ATOM     11  O   UNL     1       2.752  36.511   5.991  1.00  0.00    -0.423 OA
ENDROOT
BRANCH   1  12
ATOM     12  O   UNL     1       4.977  34.281   1.420  1.00  0.00    -0.493 OA
ATOM     13  C   UNL     1       6.354  33.955   1.268  1.00  0.00     0.278 C 
ENDBRANCH   1  12
BRANCH   2  14
ATOM     14  O   UNL     1       3.865  32.657   3.417  1.00  0.00    -0.504 OA
ATOM     15  H   UNL     1       3.022  32.138   3.204  1.00  0.00     0.293 HD
ENDBRANCH   2  14
TORSDOF 2
ENDMDL
MODEL 9
REMARK VINA RESULT:    -5.531      7.217     10.767
REMARK INTER + INTRA:          -6.079
REMARK INTER:                  -6.018
REMARK INTRA:                  -0.061
REMARK UNBOUND:                -0.063
REMARK SMILES COc1cc2ccc(=O)oc2cc1O
REMARK SMILES IDX 3 1 13 2 12 3 11 4 5 5 4 6 6 7 7 8 8 9 9 10 10 11 2 12 1 13
REMARK SMILES IDX 14 14
REMARK H PARENT 14 15
REMARK Flexibility Score: inf
ROOT
ATOM      1  C   UNL     1       2.856  36.632   4.825  1.00  0.00     0.161 A 
ATOM      2  C   UNL     1       2.291  35.357   5.024  1.00  0.00     0.161 A 
ATOM      3  C   UNL     1       2.776  34.252   4.313  1.00  0.00     0.098 A 
ATOM      4  C   UNL     1       3.822  34.403   3.400  1.00  0.00     0.142 A 
ATOM      5  C   UNL     1       4.393  35.677   3.193  1.00  0.00     0.022 A 
ATOM      6  C   UNL     1       3.912  36.784   3.904  1.00  0.00     0.062 A 
ATOM      7  C   UNL     1       5.439  35.796   2.273  1.00  0.00     0.019 A 
ATOM      8  C   UNL     1       5.884  34.663   1.591  1.00  0.00     0.094 A 
ATOM      9  C   UNL     1       5.269  33.434   1.847  1.00  0.00     0.336 A 
ATOM     10  O   UNL     1       5.655  32.400   1.241  1.00  0.00    -0.246 OA
ATOM     11  O   UNL     1       4.276  33.348   2.728  1.00  0.00    -0.423 OA
ENDROOT
BRANCH   1  12
ATOM     12  O   UNL     1       2.345  37.718   5.556  1.00  0.00    -0.493 OA
ATOM     13  C   UNL     1       2.873  38.176   6.797  1.00  0.00     0.278 C 
ENDBRANCH   1  12
BRANCH   2  14
ATOM     14  O   UNL     1       1.245  35.165   5.927  1.00  0.00    -0.504 OA
ATOM     15  H   UNL     1       1.331  35.396   6.909  1.00  0.00     0.293 HD
ENDBRANCH   2  14
TORSDOF 2
ENDMDL
