MODEL 1
REMARK VINA RESULT:    -2.443      0.000      0.000
REMARK INTER + INTRA:          -5.896
REMARK INTER:                  -4.443
REMARK INTRA:                  -1.453
REMARK UNBOUND:                -1.453
REMARK SMILES CCCCCCCCCCCCCCCC(=O)[O-]
REMARK SMILES IDX 9 1 10 2 11 3 12 4 13 5 14 6 15 7 16 8 17 9 18 10 8 11 7 12
REMARK SMILES IDX 6 13 5 14 4 15 3 16 2 17 1 18
REMARK H PARENT
REMARK Flexibility Score: inf
ROOT
ATOM      1  C   UNL     1     -10.081 -20.001  17.531  1.00  0.00     0.000 C 
ENDROOT
BRANCH   1   2
ATOM      2  C   UNL     1     -11.125 -19.805  16.421  1.00  0.00     0.000 C 
BRANCH   2   3
ATOM      3  C   UNL     1     -10.750 -20.518  15.109  1.00  0.00     0.000 C 
BRANCH   3   4
ATOM      4  C   UNL     1      -9.393 -20.105  14.507  1.00  0.00     0.000 C 
BRANCH   4   5
ATOM      5  C   UNL     1      -8.357 -21.240  14.396  1.00  0.00     0.000 C 
BRANCH   5   6
ATOM      6  C   UNL     1      -7.315 -21.245  15.535  1.00  0.00     0.006 C 
BRANCH   6   7
ATOM      7  C   UNL     1      -6.907 -22.663  15.953  1.00  0.00     0.053 C 
BRANCH   7   8
ATOM      8  C   UNL     1      -5.757 -22.616  16.909  1.00  0.00     0.041 C 
ATOM      9  O   UNL     1      -4.603 -22.323  16.499  1.00  0.00    -0.550 OA
ATOM     10  O   UNL     1      -5.951 -22.942  18.246  1.00  0.00    -0.550 OA
ENDBRANCH   7   8
ENDBRANCH   6   7
ENDBRANCH   5   6
ENDBRANCH   4   5
ENDBRANCH   3   4
ENDBRANCH   2   3
ENDBRANCH   1   2
BRANCH   1  11
ATOM     11  C   UNL     1     -10.017 -21.472  17.970  1.00  0.00     0.000 C 
BRANCH  11  12
ATOM     12  C   UNL     1     -10.905 -21.768  19.189  1.00  0.00    -0.000 C 
BRANCH  12  13
ATOM     13  C   UNL     1     -10.361 -22.921  20.051  1.00  0.00    -0.000 C 
BRANCH  13  14
ATOM     14  C   UNL     1      -8.847 -23.125  19.873  1.00  0.00    -0.000 C 
BRANCH  14  15
ATOM     15  C   UNL     1      -8.071 -22.946  21.190  1.00  0.00    -0.000 C 
BRANCH  15  16
ATOM     16  C   UNL     1      -8.989 -22.903  22.424  1.00  0.00    -0.000 C 
BRANCH  16  17
ATOM     17  C   UNL     1      -8.729 -21.730  23.388  1.00  0.00    -0.003 C 
ATOM     18  C   UNL     1      -9.072 -20.370  22.780  1.00  0.00     0.004 C 
ENDBRANCH  16  17
ENDBRANCH  15  16
ENDBRANCH  14  15
ENDBRANCH  13  14
ENDBRANCH  12  13
ENDBRANCH  11  12
ENDBRANCH   1  11
TORSDOF 14
ENDMDL
MODEL 2
REMARK VINA RESULT:    -1.738      3.883      5.388
REMARK INTER + INTRA:          -4.613
REMARK INTER:                  -4.109
REMARK INTRA:                  -0.503
REMARK UNBOUND:                -1.453
REMARK SMILES CCCCCCCCCCCCCCCC(=O)[O-]
REMARK SMILES IDX 9 1 10 2 11 3 12 4 13 5 14 6 15 7 16 8 17 9 18 10 8 11 7 12
REMARK SMILES IDX 6 13 5 14 4 15 3 16 2 17 1 18
REMARK H PARENT
REMARK Flexibility Score: inf
ROOT
ATOM      1  C   UNL     1      -6.789 -22.673  17.579  1.00  0.00     0.000 C 
ENDROOT
BRANCH   1   2
ATOM      2  C   UNL     1      -5.763 -22.444  16.459  1.00  0.00     0.000 C 
BRANCH   2   3
ATOM      3  C   UNL     1      -4.398 -23.094  16.751  1.00  0.00     0.000 C 
BRANCH   3   4
ATOM      4  C   UNL     1      -3.176 -22.288  16.270  1.00  0.00     0.000 C 
BRANCH   4   5
ATOM      5  C   UNL     1      -1.915 -23.125  15.980  1.00  0.00     0.000 C 
BRANCH   5   6
ATOM      6  C   UNL     1      -0.599 -22.426  16.382  1.00  0.00     0.006 C 
BRANCH   6   7
ATOM      7  C   UNL     1       0.614 -22.972  15.619  1.00  0.00     0.053 C 
BRANCH   7   8
ATOM      8  C   UNL     1       1.859 -22.253  16.033  1.00  0.00     0.041 C 
ATOM      9  O   UNL     1       1.785 -21.209  16.733  1.00  0.00    -0.550 OA
ATOM     10  O   UNL     1       3.100 -22.708  15.604  1.00  0.00    -0.550 OA
ENDBRANCH   7   8
ENDBRANCH   6   7
ENDBRANCH   5   6
ENDBRANCH   4   5
ENDBRANCH   3   4
ENDBRANCH   2   3
ENDBRANCH   1   2
BRANCH   1  11
ATOM     11  C   UNL     1      -8.189 -22.213  17.144  1.00  0.00     0.000 C 
BRANCH  11  12
ATOM     12  C   UNL     1      -9.308 -22.812  18.010  1.00  0.00    -0.000 C 
BRANCH  12  13
ATOM     13  C   UNL     1     -10.320 -21.754  18.484  1.00  0.00    -0.000 C 
BRANCH  13  14
ATOM     14  C   UNL     1      -9.785 -20.909  19.652  1.00  0.00    -0.000 C 
BRANCH  14  15
ATOM     15  C   UNL     1     -10.364 -21.345  21.009  1.00  0.00    -0.000 C 
BRANCH  15  16
ATOM     16  C   UNL     1      -9.780 -22.679  21.506  1.00  0.00    -0.000 C 
BRANCH  16  17
ATOM     17  C   UNL     1      -8.599 -22.546  22.486  1.00  0.00    -0.003 C 
ATOM     18  C   UNL     1      -8.478 -21.148  23.091  1.00  0.00     0.004 C 
ENDBRANCH  16  17
ENDBRANCH  15  16
ENDBRANCH  14  15
ENDBRANCH  13  14
ENDBRANCH  12  13
ENDBRANCH  11  12
ENDBRANCH   1  11
TORSDOF 14
ENDMDL
MODEL 3
REMARK VINA RESULT:    -1.650      8.463     12.093
REMARK INTER + INTRA:          -4.453
REMARK INTER:                  -4.005
REMARK INTRA:                  -0.448
REMARK UNBOUND:                -1.453
REMARK SMILES CCCCCCCCCCCCCCCC(=O)[O-]
REMARK SMILES IDX 9 1 10 2 11 3 12 4 13 5 14 6 15 7 16 8 17 9 18 10 8 11 7 12
REMARK SMILES IDX 6 13 5 14 4 15 3 16 2 17 1 18
REMARK H PARENT
REMARK Flexibility Score: inf
ROOT
ATOM      1  C   UNL     1       1.104 -23.122  15.313  1.00  0.00     0.000 C 
ENDROOT
BRANCH   1   2
ATOM      2  C   UNL     1       0.034 -22.322  16.070  1.00  0.00     0.000 C 
BRANCH   2   3
ATOM      3  C   UNL     1      -1.263 -23.119  16.302  1.00  0.00     0.000 C 
BRANCH   3   4
ATOM      4  C   UNL     1      -2.563 -22.356  15.983  1.00  0.00     0.000 C 
BRANCH   4   5
ATOM      5  C   UNL     1      -3.862 -23.117  16.310  1.00  0.00     0.000 C 
BRANCH   5   6
ATOM      6  C   UNL     1      -5.032 -22.199  16.725  1.00  0.00     0.006 C 
BRANCH   6   7
ATOM      7  C   UNL     1      -6.396 -22.751  16.289  1.00  0.00     0.053 C 
BRANCH   7   8
ATOM      8  C   UNL     1      -7.458 -22.348  17.262  1.00  0.00     0.041 C 
ATOM      9  O   UNL     1      -7.322 -22.597  18.489  1.00  0.00    -0.550 OA
ATOM     10  O   UNL     1      -8.621 -21.738  16.808  1.00  0.00    -0.550 OA
ENDBRANCH   7   8
ENDBRANCH   6   7
ENDBRANCH   5   6
ENDBRANCH   4   5
ENDBRANCH   3   4
ENDBRANCH   2   3
ENDBRANCH   1   2
BRANCH   1  11
ATOM     11  C   UNL     1       2.444 -22.370  15.295  1.00  0.00     0.000 C 
BRANCH  11  12
ATOM     12  C   UNL     1       3.448 -22.919  16.321  1.00  0.00    -0.000 C 
BRANCH  12  13
ATOM     13  C   UNL     1       4.861 -22.339  16.133  1.00  0.00    -0.000 C 
BRANCH  13  14
ATOM     14  C   UNL     1       5.542 -22.002  17.470  1.00  0.00    -0.000 C 
BRANCH  14  15
ATOM     15  C   UNL     1       7.074 -22.122  17.397  1.00  0.00    -0.000 C 
BRANCH  15  16
ATOM     16  C   UNL     1       7.559 -22.816  16.112  1.00  0.00    -0.000 C 
BRANCH  16  17
ATOM     17  C   UNL     1       8.378 -21.925  15.161  1.00  0.00    -0.003 C 
ATOM     18  C   UNL     1       8.363 -22.421  13.715  1.00  0.00     0.004 C 
ENDBRANCH  16  17
ENDBRANCH  15  16
ENDBRANCH  14  15
ENDBRANCH  13  14
ENDBRANCH  12  13
ENDBRANCH  11  12
ENDBRANCH   1  11
TORSDOF 14
ENDMDL
MODEL 4
REMARK VINA RESULT:    -1.594      1.309      2.072
REMARK INTER + INTRA:          -4.352
REMARK INTER:                  -3.550
REMARK INTRA:                  -0.802
REMARK UNBOUND:                -1.453
REMARK SMILES CCCCCCCCCCCCCCCC(=O)[O-]
REMARK SMILES IDX 9 1 10 2 11 3 12 4 13 5 14 6 15 7 16 8 17 9 18 10 8 11 7 12
REMARK SMILES IDX 6 13 5 14 4 15 3 16 2 17 1 18
REMARK H PARENT
REMARK Flexibility Score: inf
ROOT
ATOM      1  C   UNL     1      -9.429 -20.614  18.662  1.00  0.00     0.000 C 
ENDROOT
BRANCH   1   2
ATOM      2  C   UNL     1     -10.570 -20.041  17.808  1.00  0.00     0.000 C 
BRANCH   2   3
ATOM      3  C   UNL     1     -10.943 -20.944  16.618  1.00  0.00     0.000 C 
BRANCH   3   4
ATOM      4  C   UNL     1     -10.641 -20.350  15.229  1.00  0.00     0.000 C 
BRANCH   4   5
ATOM      5  C   UNL     1      -9.153 -20.061  14.952  1.00  0.00     0.000 C 
BRANCH   5   6
ATOM      6  C   UNL     1      -8.316 -21.328  14.671  1.00  0.00     0.006 C 
BRANCH   6   7
ATOM      7  C   UNL     1      -6.923 -21.266  15.309  1.00  0.00     0.053 C 
BRANCH   7   8
ATOM      8  C   UNL     1      -6.905 -22.023  16.600  1.00  0.00     0.041 C 
ATOM      9  O   UNL     1      -6.111 -21.690  17.518  1.00  0.00    -0.550 OA
ATOM     10  O   UNL     1      -7.733 -23.125  16.771  1.00  0.00    -0.550 OA
ENDBRANCH   7   8
ENDBRANCH   6   7
ENDBRANCH   5   6
ENDBRANCH   4   5
ENDBRANCH   3   4
ENDBRANCH   2   3
ENDBRANCH   1   2
BRANCH   1  11
ATOM     11  C   UNL     1      -9.789 -22.011  19.192  1.00  0.00     0.000 C 
BRANCH  11  12
ATOM     12  C   UNL     1     -10.891 -21.974  20.264  1.00  0.00    -0.000 C 
BRANCH  12  13
ATOM     13  C   UNL     1     -10.916 -20.645  21.040  1.00  0.00    -0.000 C 
BRANCH  13  14
ATOM     14  C   UNL     1     -10.001 -20.667  22.275  1.00  0.00    -0.000 C 
BRANCH  14  15
ATOM     15  C   UNL     1     -10.695 -21.260  23.513  1.00  0.00    -0.000 C 
BRANCH  15  16
ATOM     16  C   UNL     1     -10.331 -22.736  23.752  1.00  0.00    -0.000 C 
BRANCH  16  17
ATOM     17  C   UNL     1      -8.822 -23.025  23.855  1.00  0.00    -0.003 C 
ATOM     18  C   UNL     1      -8.106 -22.955  22.506  1.00  0.00     0.004 C 
ENDBRANCH  16  17
ENDBRANCH  15  16
ENDBRANCH  14  15
ENDBRANCH  13  14
ENDBRANCH  12  13
ENDBRANCH  11  12
ENDBRANCH   1  11
TORSDOF 14
ENDMDL
MODEL 5
REMARK VINA RESULT:    -1.531      3.952      6.423
REMARK INTER + INTRA:          -4.236
REMARK INTER:                  -3.615
REMARK INTRA:                  -0.621
REMARK UNBOUND:                -1.453
REMARK SMILES CCCCCCCCCCCCCCCC(=O)[O-]
REMARK SMILES IDX 9 1 10 2 11 3 12 4 13 5 14 6 15 7 16 8 17 9 18 10 8 11 7 12
REMARK SMILES IDX 6 13 5 14 4 15 3 16 2 17 1 18
REMARK H PARENT
REMARK Flexibility Score: inf
ROOT
ATOM      1  C   UNL     1      -6.581 -22.983  16.864  1.00  0.00     0.000 C 
ENDROOT
BRANCH   1   2
ATOM      2  C   UNL     1      -5.141 -22.635  17.268  1.00  0.00     0.000 C 
BRANCH   2   3
ATOM      3  C   UNL     1      -4.256 -22.249  16.067  1.00  0.00     0.000 C 
BRANCH   3   4
ATOM      4  C   UNL     1      -2.882 -22.944  16.020  1.00  0.00     0.000 C 
BRANCH   4   5
ATOM      5  C   UNL     1      -1.691 -22.016  15.715  1.00  0.00     0.000 C 
BRANCH   5   6
ATOM      6  C   UNL     1      -0.456 -22.275  16.605  1.00  0.00     0.006 C 
BRANCH   6   7
ATOM      7  C   UNL     1       0.682 -22.968  15.844  1.00  0.00     0.053 C 
BRANCH   7   8
ATOM      8  C   UNL     1       1.968 -22.230  16.043  1.00  0.00     0.041 C 
ATOM      9  O   UNL     1       2.010 -21.219  16.791  1.00  0.00    -0.550 OA
ATOM     10  O   UNL     1       3.111 -22.632  15.362  1.00  0.00    -0.550 OA
ENDBRANCH   7   8
ENDBRANCH   6   7
ENDBRANCH   5   6
ENDBRANCH   4   5
ENDBRANCH   3   4
ENDBRANCH   2   3
ENDBRANCH   1   2
BRANCH   1  11
ATOM     11  C   UNL     1      -7.479 -23.125  18.103  1.00  0.00     0.000 C 
BRANCH  11  12
ATOM     12  C   UNL     1      -8.598 -22.071  18.150  1.00  0.00    -0.000 C 
BRANCH  12  13
ATOM     13  C   UNL     1      -9.993 -22.680  17.926  1.00  0.00    -0.000 C 
BRANCH  13  14
ATOM     14  C   UNL     1     -11.125 -21.679  18.212  1.00  0.00    -0.000 C 
BRANCH  14  15
ATOM     15  C   UNL     1     -10.626 -20.224  18.262  1.00  0.00    -0.000 C 
BRANCH  15  16
ATOM     16  C   UNL     1     -10.825 -19.478  16.931  1.00  0.00    -0.000 C 
BRANCH  16  17
ATOM     17  C   UNL     1     -11.027 -20.383  15.702  1.00  0.00    -0.003 C 
ATOM     18  C   UNL     1      -9.768 -20.517  14.845  1.00  0.00     0.004 C 
ENDBRANCH  16  17
ENDBRANCH  15  16
ENDBRANCH  14  15
ENDBRANCH  13  14
ENDBRANCH  12  13
ENDBRANCH  11  12
ENDBRANCH   1  11
TORSDOF 14
ENDMDL
MODEL 6
REMARK VINA RESULT:    -1.517      3.093      6.292
REMARK INTER + INTRA:          -4.212
REMARK INTER:                  -3.332
REMARK INTRA:                  -0.880
REMARK UNBOUND:                -1.453
REMARK SMILES CCCCCCCCCCCCCCCC(=O)[O-]
REMARK SMILES IDX 9 1 10 2 11 3 12 4 13 5 14 6 15 7 16 8 17 9 18 10 8 11 7 12
REMARK SMILES IDX 6 13 5 14 4 15 3 16 2 17 1 18
REMARK H PARENT
REMARK Flexibility Score: inf
ROOT
ATOM      1  C   UNL     1      -9.187 -21.310  15.207  1.00  0.00     0.000 C 
ENDROOT
BRANCH   1   2
ATOM      2  C   UNL     1      -9.981 -20.027  15.495  1.00  0.00     0.000 C 
BRANCH   2   3
ATOM      3  C   UNL     1     -10.969 -20.180  16.666  1.00  0.00     0.000 C 
BRANCH   3   4
ATOM      4  C   UNL     1     -11.090 -21.607  17.234  1.00  0.00     0.000 C 
BRANCH   4   5
ATOM      5  C   UNL     1     -10.961 -21.713  18.766  1.00  0.00     0.000 C 
BRANCH   5   6
ATOM      6  C   UNL     1      -9.508 -21.597  19.277  1.00  0.00     0.006 C 
BRANCH   6   7
ATOM      7  C   UNL     1      -9.430 -21.455  20.802  1.00  0.00     0.053 C 
BRANCH   7   8
ATOM      8  C   UNL     1     -10.169 -20.234  21.251  1.00  0.00     0.041 C 
ATOM      9  O   UNL     1     -10.688 -20.193  22.398  1.00  0.00    -0.550 OA
ATOM     10  O   UNL     1     -10.325 -19.158  20.386  1.00  0.00    -0.550 OA
ENDBRANCH   7   8
ENDBRANCH   6   7
ENDBRANCH   5   6
ENDBRANCH   4   5
ENDBRANCH   3   4
ENDBRANCH   2   3
ENDBRANCH   1   2
BRANCH   1  11
ATOM     11  C   UNL     1      -7.709 -21.139  15.589  1.00  0.00     0.000 C 
BRANCH  11  12
ATOM     12  C   UNL     1      -7.119 -22.391  16.257  1.00  0.00    -0.000 C 
BRANCH  12  13
ATOM     13  C   UNL     1      -6.003 -22.054  17.262  1.00  0.00    -0.000 C 
BRANCH  13  14
ATOM     14  C   UNL     1      -4.759 -22.939  17.079  1.00  0.00    -0.000 C 
BRANCH  14  15
ATOM     15  C   UNL     1      -3.819 -22.413  15.979  1.00  0.00    -0.000 C 
BRANCH  15  16
ATOM     16  C   UNL     1      -2.453 -23.121  15.972  1.00  0.00    -0.000 C 
BRANCH  16  17
ATOM     17  C   UNL     1      -1.303 -22.321  16.610  1.00  0.00    -0.003 C 
ATOM     18  C   UNL     1       0.055 -22.609  15.968  1.00  0.00     0.004 C 
ENDBRANCH  16  17
ENDBRANCH  15  16
ENDBRANCH  14  15
ENDBRANCH  13  14
ENDBRANCH  12  13
ENDBRANCH  11  12
ENDBRANCH   1  11
TORSDOF 14
ENDMDL
MODEL 7
REMARK VINA RESULT:    -1.235      8.937     11.804
REMARK INTER + INTRA:          -3.699
REMARK INTER:                  -3.149
REMARK INTRA:                  -0.550
REMARK UNBOUND:                -1.453
REMARK SMILES CCCCCCCCCCCCCCCC(=O)[O-]
REMARK SMILES IDX 9 1 10 2 11 3 12 4 13 5 14 6 15 7 16 8 17 9 18 10 8 11 7 12
REMARK SMILES IDX 6 13 5 14 4 15 3 16 2 17 1 18
REMARK H PARENT
REMARK Flexibility Score: inf
ROOT
ATOM      1  C   UNL     1       1.597 -22.263  15.991  1.00  0.00     0.000 C 
ENDROOT
BRANCH   1   2
ATOM      2  C   UNL     1       2.727 -22.768  15.081  1.00  0.00     0.000 C 
BRANCH   2   3
ATOM      3  C   UNL     1       4.039 -23.036  15.842  1.00  0.00     0.000 C 
BRANCH   3   4
ATOM      4  C   UNL     1       4.406 -21.979  16.901  1.00  0.00     0.000 C 
BRANCH   4   5
ATOM      5  C   UNL     1       5.728 -22.237  17.649  1.00  0.00     0.000 C 
BRANCH   5   6
ATOM      6  C   UNL     1       6.852 -21.244  17.284  1.00  0.00     0.006 C 
BRANCH   6   7
ATOM      7  C   UNL     1       8.106 -21.945  16.746  1.00  0.00     0.053 C 
BRANCH   7   8
ATOM      8  C   UNL     1       8.187 -21.803  15.259  1.00  0.00     0.041 C 
ATOM      9  O   UNL     1       9.075 -21.076  14.739  1.00  0.00    -0.550 OA
ATOM     10  O   UNL     1       7.252 -22.434  14.448  1.00  0.00    -0.550 OA
ENDBRANCH   7   8
ENDBRANCH   6   7
ENDBRANCH   5   6
ENDBRANCH   4   5
ENDBRANCH   3   4
ENDBRANCH   2   3
ENDBRANCH   1   2
BRANCH   1  11
ATOM     11  C   UNL     1       0.258 -22.918  15.618  1.00  0.00     0.000 C 
BRANCH  11  12
ATOM     12  C   UNL     1      -0.925 -22.350  16.419  1.00  0.00    -0.000 C 
BRANCH  12  13
ATOM     13  C   UNL     1      -2.246 -22.394  15.632  1.00  0.00    -0.000 C 
BRANCH  13  14
ATOM     14  C   UNL     1      -3.363 -23.125  16.396  1.00  0.00    -0.000 C 
BRANCH  14  15
ATOM     15  C   UNL     1      -4.641 -22.278  16.525  1.00  0.00    -0.000 C 
BRANCH  15  16
ATOM     16  C   UNL     1      -5.667 -22.889  17.495  1.00  0.00    -0.000 C 
BRANCH  16  17
ATOM     17  C   UNL     1      -7.115 -22.927  16.971  1.00  0.00    -0.003 C 
ATOM     18  C   UNL     1      -7.347 -21.988  15.787  1.00  0.00     0.004 C 
ENDBRANCH  16  17
ENDBRANCH  15  16
ENDBRANCH  14  15
ENDBRANCH  13  14
ENDBRANCH  12  13
ENDBRANCH  11  12
ENDBRANCH   1  11
TORSDOF 14
ENDMDL
