MODEL 1
REMARK VINA RESULT:    -5.166      0.000      0.000
REMARK INTER + INTRA:         -12.330
REMARK INTER:                  -9.998
REMARK INTRA:                  -2.332
REMARK UNBOUND:                -2.332
REMARK SMILES CCCCCCCCCCCCCCCCCC(=O)[O-]
REMARK SMILES IDX 10 1 11 2 12 3 13 4 14 5 15 6 16 7 17 8 18 9 19 10 20 11
REMARK SMILES IDX 9 12 8 13 7 14 6 15 5 16 4 17 3 18 2 19 1 20
REMARK H PARENT
REMARK Flexibility Score: inf
ROOT
ATOM      1  C   UNL     1      43.948 -11.693 -40.303  1.00  0.00     0.000 C 
ENDROOT
BRANCH   1   2
ATOM      2  C   UNL     1      45.408 -11.821 -39.821  1.00  0.00     0.000 C 
BRANCH   2   3
ATOM      3  C   UNL     1      45.822 -13.231 -39.352  1.00  0.00     0.000 C 
BRANCH   3   4
ATOM      4  C   UNL     1      46.863 -13.256 -38.219  1.00  0.00     0.000 C 
BRANCH   4   5
ATOM      5  C   UNL     1      46.465 -14.194 -37.067  1.00  0.00     0.000 C 
BRANCH   5   6
ATOM      6  C   UNL     1      47.535 -14.275 -35.964  1.00  0.00     0.000 C 
BRANCH   6   7
ATOM      7  C   UNL     1      47.532 -13.098 -34.967  1.00  0.00     0.006 C 
BRANCH   7   8
ATOM      8  C   UNL     1      48.636 -13.162 -33.899  1.00  0.00     0.053 C 
BRANCH   8   9
ATOM      9  C   UNL     1      48.081 -13.439 -32.535  1.00  0.00     0.041 C 
ATOM     10  O   UNL     1      47.642 -14.584 -32.251  1.00  0.00    -0.550 OA
ATOM     11  O   UNL     1      48.021 -12.424 -31.589  1.00  0.00    -0.550 OA
ENDBRANCH   8   9
ENDBRANCH   7   8
ENDBRANCH   6   7
ENDBRANCH   5   6
ENDBRANCH   4   5
ENDBRANCH   3   4
ENDBRANCH   2   3
ENDBRANCH   1   2
BRANCH   1  12
ATOM     12  C   UNL     1      43.128 -10.593 -39.606  1.00  0.00     0.000 C 
BRANCH  12  13
ATOM     13  C   UNL     1      43.688 -10.215 -38.227  1.00  0.00    -0.000 C 
BRANCH  13  14
ATOM     14  C   UNL     1      42.917 -10.926 -37.108  1.00  0.00    -0.000 C 
BRANCH  14  15
ATOM     15  C   UNL     1      43.799 -11.972 -36.410  1.00  0.00    -0.000 C 
BRANCH  15  16
ATOM     16  C   UNL     1      43.858 -11.787 -34.882  1.00  0.00    -0.000 C 
BRANCH  16  17
ATOM     17  C   UNL     1      43.190 -12.906 -34.062  1.00  0.00    -0.000 C 
BRANCH  17  18
ATOM     18  C   UNL     1      44.204 -13.770 -33.293  1.00  0.00    -0.000 C 
BRANCH  18  19
ATOM     19  C   UNL     1      44.495 -15.104 -33.998  1.00  0.00    -0.003 C 
ATOM     20  C   UNL     1      43.438 -15.465 -35.042  1.00  0.00     0.004 C 
ENDBRANCH  18  19
ENDBRANCH  17  18
ENDBRANCH  16  17
ENDBRANCH  15  16
ENDBRANCH  14  15
ENDBRANCH  13  14
ENDBRANCH  12  13
ENDBRANCH   1  12
TORSDOF 16
ENDMDL
MODEL 2
REMARK VINA RESULT:    -5.054      2.229      4.594
REMARK INTER + INTRA:         -12.114
REMARK INTER:                  -9.932
REMARK INTRA:                  -2.182
REMARK UNBOUND:                -2.332
REMARK SMILES CCCCCCCCCCCCCCCCCC(=O)[O-]
REMARK SMILES IDX 10 1 11 2 12 3 13 4 14 5 15 6 16 7 17 8 18 9 19 10 20 11
REMARK SMILES IDX 9 12 8 13 7 14 6 15 5 16 4 17 3 18 2 19 1 20
REMARK H PARENT
REMARK Flexibility Score: inf
ROOT
ATOM      1  C   UNL     1      43.954 -11.805 -41.249  1.00  0.00     0.000 C 
ENDROOT
BRANCH   1   2
ATOM      2  C   UNL     1      43.222 -10.478 -41.539  1.00  0.00     0.000 C 
BRANCH   2   3
ATOM      3  C   UNL     1      42.625  -9.775 -40.304  1.00  0.00     0.000 C 
BRANCH   3   4
ATOM      4  C   UNL     1      41.395 -10.470 -39.695  1.00  0.00     0.000 C 
BRANCH   4   5
ATOM      5  C   UNL     1      41.598 -10.851 -38.218  1.00  0.00     0.000 C 
BRANCH   5   6
ATOM      6  C   UNL     1      42.777 -10.106 -37.566  1.00  0.00     0.000 C 
BRANCH   6   7
ATOM      7  C   UNL     1      43.772 -11.005 -36.803  1.00  0.00     0.006 C 
BRANCH   7   8
ATOM      8  C   UNL     1      43.247 -12.416 -36.488  1.00  0.00     0.053 C 
BRANCH   8   9
ATOM      9  C   UNL     1      42.664 -12.501 -35.111  1.00  0.00     0.041 C 
ATOM     10  O   UNL     1      41.633 -13.192 -34.902  1.00  0.00    -0.550 OA
ATOM     11  O   UNL     1      43.241 -11.791 -34.065  1.00  0.00    -0.550 OA
ENDBRANCH   8   9
ENDBRANCH   7   8
ENDBRANCH   6   7
ENDBRANCH   5   6
ENDBRANCH   4   5
ENDBRANCH   3   4
ENDBRANCH   2   3
ENDBRANCH   1   2
BRANCH   1  12
ATOM     12  C   UNL     1      44.975 -11.745 -40.100  1.00  0.00     0.000 C 
BRANCH  12  13
ATOM     13  C   UNL     1      45.546 -13.125 -39.737  1.00  0.00    -0.000 C 
BRANCH  13  14
ATOM     14  C   UNL     1      46.392 -13.049 -38.461  1.00  0.00    -0.000 C 
BRANCH  14  15
ATOM     15  C   UNL     1      46.476 -14.421 -37.775  1.00  0.00    -0.000 C 
BRANCH  15  16
ATOM     16  C   UNL     1      47.177 -14.367 -36.404  1.00  0.00    -0.000 C 
BRANCH  16  17
ATOM     17  C   UNL     1      46.392 -13.642 -35.296  1.00  0.00    -0.000 C 
BRANCH  17  18
ATOM     18  C   UNL     1      46.395 -14.406 -33.962  1.00  0.00    -0.000 C 
BRANCH  18  19
ATOM     19  C   UNL     1      45.017 -14.996 -33.619  1.00  0.00    -0.003 C 
ATOM     20  C   UNL     1      44.442 -14.440 -32.316  1.00  0.00     0.004 C 
ENDBRANCH  18  19
ENDBRANCH  17  18
ENDBRANCH  16  17
ENDBRANCH  15  16
ENDBRANCH  14  15
ENDBRANCH  13  14
ENDBRANCH  12  13
ENDBRANCH   1  12
TORSDOF 16
ENDMDL
MODEL 3
REMARK VINA RESULT:    -5.038      1.290      3.931
REMARK INTER + INTRA:         -12.082
REMARK INTER:                  -9.803
REMARK INTRA:                  -2.279
REMARK UNBOUND:                -2.332
REMARK SMILES CCCCCCCCCCCCCCCCCC(=O)[O-]
REMARK SMILES IDX 10 1 11 2 12 3 13 4 14 5 15 6 16 7 17 8 18 9 19 10 20 11
REMARK SMILES IDX 9 12 8 13 7 14 6 15 5 16 4 17 3 18 2 19 1 20
REMARK H PARENT
REMARK Flexibility Score: inf
ROOT
ATOM      1  C   UNL     1      41.616 -10.910 -37.844  1.00  0.00     0.000 C 
ENDROOT
BRANCH   1   2
ATOM      2  C   UNL     1      42.158 -12.004 -36.901  1.00  0.00     0.000 C 
BRANCH   2   3
ATOM      3  C   UNL     1      43.662 -11.902 -36.576  1.00  0.00     0.000 C 
BRANCH   3   4
ATOM      4  C   UNL     1      44.029 -12.203 -35.113  1.00  0.00     0.000 C 
BRANCH   4   5
ATOM      5  C   UNL     1      43.369 -13.490 -34.588  1.00  0.00     0.000 C 
BRANCH   5   6
ATOM      6  C   UNL     1      44.311 -14.706 -34.632  1.00  0.00     0.000 C 
BRANCH   6   7
ATOM      7  C   UNL     1      44.544 -15.398 -33.273  1.00  0.00     0.006 C 
BRANCH   7   8
ATOM      8  C   UNL     1      45.959 -15.217 -32.698  1.00  0.00     0.053 C 
BRANCH   8   9
ATOM      9  C   UNL     1      46.283 -13.775 -32.452  1.00  0.00     0.041 C 
ATOM     10  O   UNL     1      45.620 -13.112 -31.613  1.00  0.00    -0.550 OA
ATOM     11  O   UNL     1      47.298 -13.158 -33.173  1.00  0.00    -0.550 OA
ENDBRANCH   8   9
ENDBRANCH   7   8
ENDBRANCH   6   7
ENDBRANCH   5   6
ENDBRANCH   4   5
ENDBRANCH   3   4
ENDBRANCH   2   3
ENDBRANCH   1   2
BRANCH   1  12
ATOM     12  C   UNL     1      42.574  -9.733 -38.094  1.00  0.00     0.000 C 
BRANCH  12  13
ATOM     13  C   UNL     1      43.121  -9.703 -39.529  1.00  0.00    -0.000 C 
BRANCH  13  14
ATOM     14  C   UNL     1      42.593 -10.893 -40.340  1.00  0.00    -0.000 C 
BRANCH  14  15
ATOM     15  C   UNL     1      43.747 -11.662 -41.001  1.00  0.00    -0.000 C 
BRANCH  15  16
ATOM     16  C   UNL     1      45.003 -11.743 -40.112  1.00  0.00    -0.000 C 
BRANCH  16  17
ATOM     17  C   UNL     1      45.400 -13.163 -39.670  1.00  0.00    -0.000 C 
BRANCH  17  18
ATOM     18  C   UNL     1      46.506 -13.169 -38.601  1.00  0.00    -0.000 C 
BRANCH  18  19
ATOM     19  C   UNL     1      46.447 -14.413 -37.700  1.00  0.00    -0.003 C 
ATOM     20  C   UNL     1      47.334 -14.290 -36.461  1.00  0.00     0.004 C 
ENDBRANCH  18  19
ENDBRANCH  17  18
ENDBRANCH  16  17
ENDBRANCH  15  16
ENDBRANCH  14  15
ENDBRANCH  13  14
ENDBRANCH  12  13
ENDBRANCH   1  12
TORSDOF 16
ENDMDL
MODEL 4
REMARK VINA RESULT:    -5.028      3.181      5.493
REMARK INTER + INTRA:         -12.063
REMARK INTER:                  -9.672
REMARK INTRA:                  -2.392
REMARK UNBOUND:                -2.332
REMARK SMILES CCCCCCCCCCCCCCCCCC(=O)[O-]
REMARK SMILES IDX 10 1 11 2 12 3 13 4 14 5 15 6 16 7 17 8 18 9 19 10 20 11
REMARK SMILES IDX 9 12 8 13 7 14 6 15 5 16 4 17 3 18 2 19 1 20
REMARK H PARENT
REMARK Flexibility Score: inf
ROOT
ATOM      1  C   UNL     1      44.763 -12.775 -36.246  1.00  0.00     0.000 C 
ENDROOT
BRANCH   1   2
ATOM      2  C   UNL     1      45.363 -14.114 -36.723  1.00  0.00     0.000 C 
BRANCH   2   3
ATOM      3  C   UNL     1      45.838 -14.135 -38.190  1.00  0.00     0.000 C 
BRANCH   3   4
ATOM      4  C   UNL     1      46.802 -12.999 -38.573  1.00  0.00     0.000 C 
BRANCH   4   5
ATOM      5  C   UNL     1      46.134 -11.921 -39.444  1.00  0.00     0.000 C 
BRANCH   5   6
ATOM      6  C   UNL     1      44.883 -12.437 -40.178  1.00  0.00     0.000 C 
BRANCH   6   7
ATOM      7  C   UNL     1      43.626 -11.558 -40.017  1.00  0.00     0.006 C 
BRANCH   7   8
ATOM      8  C   UNL     1      43.801 -10.359 -39.071  1.00  0.00     0.053 C 
BRANCH   8   9
ATOM      9  C   UNL     1      42.490  -9.872 -38.535  1.00  0.00     0.041 C 
ATOM     10  O   UNL     1      42.452  -8.880 -37.761  1.00  0.00    -0.550 OA
ATOM     11  O   UNL     1      41.314 -10.534 -38.865  1.00  0.00    -0.550 OA
ENDBRANCH   8   9
ENDBRANCH   7   8
ENDBRANCH   6   7
ENDBRANCH   5   6
ENDBRANCH   4   5
ENDBRANCH   3   4
ENDBRANCH   2   3
ENDBRANCH   1   2
BRANCH   1  12
ATOM     12  C   UNL     1      43.226 -12.713 -36.251  1.00  0.00     0.000 C 
BRANCH  12  13
ATOM     13  C   UNL     1      42.607 -13.158 -34.918  1.00  0.00    -0.000 C 
BRANCH  13  14
ATOM     14  C   UNL     1      43.479 -12.718 -33.735  1.00  0.00    -0.000 C 
BRANCH  14  15
ATOM     15  C   UNL     1      43.966 -13.932 -32.930  1.00  0.00    -0.000 C 
BRANCH  15  16
ATOM     16  C   UNL     1      45.372 -13.734 -32.333  1.00  0.00    -0.000 C 
BRANCH  16  17
ATOM     17  C   UNL     1      46.510 -14.444 -33.090  1.00  0.00    -0.000 C 
BRANCH  17  18
ATOM     18  C   UNL     1      47.806 -13.618 -33.133  1.00  0.00    -0.000 C 
BRANCH  18  19
ATOM     19  C   UNL     1      48.112 -13.078 -34.540  1.00  0.00    -0.003 C 
ATOM     20  C   UNL     1      48.875 -14.081 -35.406  1.00  0.00     0.004 C 
ENDBRANCH  18  19
ENDBRANCH  17  18
ENDBRANCH  16  17
ENDBRANCH  15  16
ENDBRANCH  14  15
ENDBRANCH  13  14
ENDBRANCH  12  13
ENDBRANCH   1  12
TORSDOF 16
ENDMDL
MODEL 5
REMARK VINA RESULT:    -5.006      2.826      5.838
REMARK INTER + INTRA:         -12.021
REMARK INTER:                  -9.587
REMARK INTRA:                  -2.434
REMARK UNBOUND:                -2.332
REMARK SMILES CCCCCCCCCCCCCCCCCC(=O)[O-]
REMARK SMILES IDX 10 1 11 2 12 3 13 4 14 5 15 6 16 7 17 8 18 9 19 10 20 11
REMARK SMILES IDX 9 12 8 13 7 14 6 15 5 16 4 17 3 18 2 19 1 20
REMARK H PARENT
REMARK Flexibility Score: inf
ROOT
ATOM      1  C   UNL     1      44.284 -15.478 -33.065  1.00  0.00     0.000 C 
ENDROOT
BRANCH   1   2
ATOM      2  C   UNL     1      45.750 -15.315 -32.616  1.00  0.00     0.000 C 
BRANCH   2   3
ATOM      3  C   UNL     1      46.400 -13.963 -32.975  1.00  0.00     0.000 C 
BRANCH   3   4
ATOM      4  C   UNL     1      47.506 -14.041 -34.042  1.00  0.00     0.000 C 
BRANCH   4   5
ATOM      5  C   UNL     1      47.124 -13.323 -35.348  1.00  0.00     0.000 C 
BRANCH   5   6
ATOM      6  C   UNL     1      47.225 -14.235 -36.583  1.00  0.00     0.000 C 
BRANCH   6   7
ATOM      7  C   UNL     1      45.944 -14.318 -37.437  1.00  0.00     0.006 C 
BRANCH   7   8
ATOM      8  C   UNL     1      45.461 -12.971 -38.000  1.00  0.00     0.053 C 
BRANCH   8   9
ATOM      9  C   UNL     1      45.894 -12.770 -39.420  1.00  0.00     0.041 C 
ATOM     10  O   UNL     1      45.072 -12.921 -40.360  1.00  0.00    -0.550 OA
ATOM     11  O   UNL     1      47.215 -12.446 -39.706  1.00  0.00    -0.550 OA
ENDBRANCH   8   9
ENDBRANCH   7   8
ENDBRANCH   6   7
ENDBRANCH   5   6
ENDBRANCH   4   5
ENDBRANCH   3   4
ENDBRANCH   2   3
ENDBRANCH   1   2
BRANCH   1  12
ATOM     12  C   UNL     1      44.078 -15.579 -34.587  1.00  0.00     0.000 C 
BRANCH  12  13
ATOM     13  C   UNL     1      43.013 -14.604 -35.110  1.00  0.00    -0.000 C 
BRANCH  13  14
ATOM     14  C   UNL     1      43.139 -13.236 -34.427  1.00  0.00    -0.000 C 
BRANCH  14  15
ATOM     15  C   UNL     1      42.965 -12.097 -35.441  1.00  0.00    -0.000 C 
BRANCH  15  16
ATOM     16  C   UNL     1      41.711 -12.260 -36.321  1.00  0.00    -0.000 C 
BRANCH  16  17
ATOM     17  C   UNL     1      41.555 -11.213 -37.439  1.00  0.00    -0.000 C 
BRANCH  17  18
ATOM     18  C   UNL     1      42.845 -10.419 -37.699  1.00  0.00    -0.000 C 
BRANCH  18  19
ATOM     19  C   UNL     1      42.953  -9.931 -39.153  1.00  0.00    -0.003 C 
ATOM     20  C   UNL     1      42.371 -10.927 -40.157  1.00  0.00     0.004 C 
ENDBRANCH  18  19
ENDBRANCH  17  18
ENDBRANCH  16  17
ENDBRANCH  15  16
ENDBRANCH  14  15
ENDBRANCH  13  14
ENDBRANCH  12  13
ENDBRANCH   1  12
TORSDOF 16
ENDMDL
MODEL 6
REMARK VINA RESULT:    -5.000      2.769      5.966
REMARK INTER + INTRA:         -12.009
REMARK INTER:                  -9.612
REMARK INTRA:                  -2.397
REMARK UNBOUND:                -2.332
REMARK SMILES CCCCCCCCCCCCCCCCCC(=O)[O-]
REMARK SMILES IDX 10 1 11 2 12 3 13 4 14 5 15 6 16 7 17 8 18 9 19 10 20 11
REMARK SMILES IDX 9 12 8 13 7 14 6 15 5 16 4 17 3 18 2 19 1 20
REMARK H PARENT
REMARK Flexibility Score: inf
ROOT
ATOM      1  C   UNL     1      44.118 -11.642 -35.230  1.00  0.00     0.000 C 
ENDROOT
BRANCH   1   2
ATOM      2  C   UNL     1      43.707 -11.488 -36.709  1.00  0.00     0.000 C 
BRANCH   2   3
ATOM      3  C   UNL     1      42.298 -12.011 -37.056  1.00  0.00     0.000 C 
BRANCH   3   4
ATOM      4  C   UNL     1      41.415 -11.021 -37.836  1.00  0.00     0.000 C 
BRANCH   4   5
ATOM      5  C   UNL     1      42.229  -9.913 -38.525  1.00  0.00     0.000 C 
BRANCH   5   6
ATOM      6  C   UNL     1      42.375 -10.134 -40.041  1.00  0.00     0.000 C 
BRANCH   6   7
ATOM      7  C   UNL     1      43.814 -10.413 -40.522  1.00  0.00     0.006 C 
BRANCH   7   8
ATOM      8  C   UNL     1      44.101 -11.885 -40.859  1.00  0.00     0.053 C 
BRANCH   8   9
ATOM      9  C   UNL     1      45.245 -12.431 -40.059  1.00  0.00     0.041 C 
ATOM     10  O   UNL     1      45.386 -13.674 -39.923  1.00  0.00    -0.550 OA
ATOM     11  O   UNL     1      46.135 -11.564 -39.437  1.00  0.00    -0.550 OA
ENDBRANCH   8   9
ENDBRANCH   7   8
ENDBRANCH   6   7
ENDBRANCH   5   6
ENDBRANCH   4   5
ENDBRANCH   3   4
ENDBRANCH   2   3
ENDBRANCH   1   2
BRANCH   1  12
ATOM     12  C   UNL     1      43.109 -12.402 -34.351  1.00  0.00     0.000 C 
BRANCH  12  13
ATOM     13  C   UNL     1      43.686 -13.700 -33.768  1.00  0.00    -0.000 C 
BRANCH  13  14
ATOM     14  C   UNL     1      44.903 -13.409 -32.881  1.00  0.00    -0.000 C 
BRANCH  14  15
ATOM     15  C   UNL     1      45.731 -14.681 -32.649  1.00  0.00    -0.000 C 
BRANCH  15  16
ATOM     16  C   UNL     1      47.195 -14.539 -33.109  1.00  0.00    -0.000 C 
BRANCH  16  17
ATOM     17  C   UNL     1      47.478 -13.338 -34.029  1.00  0.00    -0.000 C 
BRANCH  17  18
ATOM     18  C   UNL     1      48.060 -13.751 -35.391  1.00  0.00    -0.000 C 
BRANCH  18  19
ATOM     19  C   UNL     1      47.100 -13.458 -36.555  1.00  0.00    -0.003 C 
ATOM     20  C   UNL     1      45.954 -14.467 -36.646  1.00  0.00     0.004 C 
ENDBRANCH  18  19
ENDBRANCH  17  18
ENDBRANCH  16  17
ENDBRANCH  15  16
ENDBRANCH  14  15
ENDBRANCH  13  14
ENDBRANCH  12  13
ENDBRANCH   1  12
TORSDOF 16
ENDMDL
MODEL 7
REMARK VINA RESULT:    -4.989      2.530      5.065
REMARK INTER + INTRA:         -11.988
REMARK INTER:                  -9.919
REMARK INTRA:                  -2.069
REMARK UNBOUND:                -2.332
REMARK SMILES CCCCCCCCCCCCCCCCCC(=O)[O-]
REMARK SMILES IDX 10 1 11 2 12 3 13 4 14 5 15 6 16 7 17 8 18 9 19 10 20 11
REMARK SMILES IDX 9 12 8 13 7 14 6 15 5 16 4 17 3 18 2 19 1 20
REMARK H PARENT
REMARK Flexibility Score: inf
ROOT
ATOM      1  C   UNL     1      43.491 -10.203 -37.541  1.00  0.00     0.000 C 
ENDROOT
BRANCH   1   2
ATOM      2  C   UNL     1      42.208  -9.423 -37.893  1.00  0.00     0.000 C 
BRANCH   2   3
ATOM      3  C   UNL     1      41.957  -9.220 -39.401  1.00  0.00     0.000 C 
BRANCH   3   4
ATOM      4  C   UNL     1      41.469 -10.472 -40.150  1.00  0.00     0.000 C 
BRANCH   4   5
ATOM      5  C   UNL     1      42.290 -10.763 -41.418  1.00  0.00     0.000 C 
BRANCH   5   6
ATOM      6  C   UNL     1      43.808 -10.722 -41.170  1.00  0.00     0.000 C 
BRANCH   6   7
ATOM      7  C   UNL     1      44.407 -12.018 -40.585  1.00  0.00     0.006 C 
BRANCH   7   8
ATOM      8  C   UNL     1      45.691 -11.814 -39.764  1.00  0.00     0.053 C 
BRANCH   8   9
ATOM      9  C   UNL     1      46.130 -13.078 -39.089  1.00  0.00     0.041 C 
ATOM     10  O   UNL     1      45.481 -14.143 -39.255  1.00  0.00    -0.550 OA
ATOM     11  O   UNL     1      47.238 -13.069 -38.250  1.00  0.00    -0.550 OA
ENDBRANCH   8   9
ENDBRANCH   7   8
ENDBRANCH   6   7
ENDBRANCH   5   6
ENDBRANCH   4   5
ENDBRANCH   3   4
ENDBRANCH   2   3
ENDBRANCH   1   2
BRANCH   1  12
ATOM     12  C   UNL     1      43.266 -11.497 -36.739  1.00  0.00     0.000 C 
BRANCH  12  13
ATOM     13  C   UNL     1      41.804 -11.967 -36.765  1.00  0.00    -0.000 C 
BRANCH  13  14
ATOM     14  C   UNL     1      41.451 -12.726 -35.479  1.00  0.00    -0.000 C 
BRANCH  14  15
ATOM     15  C   UNL     1      42.719 -13.128 -34.712  1.00  0.00    -0.000 C 
BRANCH  15  16
ATOM     16  C   UNL     1      43.083 -14.615 -34.889  1.00  0.00    -0.000 C 
BRANCH  16  17
ATOM     17  C   UNL     1      44.293 -14.888 -35.801  1.00  0.00    -0.000 C 
BRANCH  17  18
ATOM     18  C   UNL     1      45.573 -14.181 -35.325  1.00  0.00    -0.000 C 
BRANCH  18  19
ATOM     19  C   UNL     1      46.024 -14.656 -33.934  1.00  0.00    -0.003 C 
ATOM     20  C   UNL     1      47.349 -14.029 -33.495  1.00  0.00     0.004 C 
ENDBRANCH  18  19
ENDBRANCH  17  18
ENDBRANCH  16  17
ENDBRANCH  15  16
ENDBRANCH  14  15
ENDBRANCH  13  14
ENDBRANCH  12  13
ENDBRANCH   1  12
TORSDOF 16
ENDMDL
MODEL 8
REMARK VINA RESULT:    -4.974      1.629      2.546
REMARK INTER + INTRA:         -11.958
REMARK INTER:                  -9.734
REMARK INTRA:                  -2.224
REMARK UNBOUND:                -2.332
REMARK SMILES CCCCCCCCCCCCCCCCCC(=O)[O-]
REMARK SMILES IDX 10 1 11 2 12 3 13 4 14 5 15 6 16 7 17 8 18 9 19 10 20 11
REMARK SMILES IDX 9 12 8 13 7 14 6 15 5 16 4 17 3 18 2 19 1 20
REMARK H PARENT
REMARK Flexibility Score: inf
ROOT
ATOM      1  C   UNL     1      42.484 -11.126 -39.475  1.00  0.00     0.000 C 
ENDROOT
BRANCH   1   2
ATOM      2  C   UNL     1      43.439 -10.835 -40.651  1.00  0.00     0.000 C 
BRANCH   2   3
ATOM      3  C   UNL     1      44.240 -12.050 -41.161  1.00  0.00     0.000 C 
BRANCH   3   4
ATOM      4  C   UNL     1      45.000 -12.827 -40.071  1.00  0.00     0.000 C 
BRANCH   4   5
ATOM      5  C   UNL     1      46.126 -12.000 -39.428  1.00  0.00     0.000 C 
BRANCH   5   6
ATOM      6  C   UNL     1      47.056 -12.846 -38.539  1.00  0.00     0.000 C 
BRANCH   6   7
ATOM      7  C   UNL     1      46.439 -14.160 -38.018  1.00  0.00     0.006 C 
BRANCH   7   8
ATOM      8  C   UNL     1      46.104 -14.158 -36.517  1.00  0.00     0.053 C 
BRANCH   8   9
ATOM      9  C   UNL     1      47.271 -13.725 -35.683  1.00  0.00     0.041 C 
ATOM     10  O   UNL     1      47.188 -12.696 -34.964  1.00  0.00    -0.550 OA
ATOM     11  O   UNL     1      48.461 -14.441 -35.727  1.00  0.00    -0.550 OA
ENDBRANCH   8   9
ENDBRANCH   7   8
ENDBRANCH   6   7
ENDBRANCH   5   6
ENDBRANCH   4   5
ENDBRANCH   3   4
ENDBRANCH   2   3
ENDBRANCH   1   2
BRANCH   1  12
ATOM     12  C   UNL     1      42.490 -10.070 -38.356  1.00  0.00     0.000 C 
BRANCH  12  13
ATOM     13  C   UNL     1      43.324 -10.495 -37.139  1.00  0.00    -0.000 C 
BRANCH  13  14
ATOM     14  C   UNL     1      43.258 -12.014 -36.934  1.00  0.00    -0.000 C 
BRANCH  14  15
ATOM     15  C   UNL     1      41.978 -12.412 -36.184  1.00  0.00    -0.000 C 
BRANCH  15  16
ATOM     16  C   UNL     1      42.226 -12.730 -34.697  1.00  0.00    -0.000 C 
BRANCH  16  17
ATOM     17  C   UNL     1      43.691 -12.615 -34.239  1.00  0.00    -0.000 C 
BRANCH  17  18
ATOM     18  C   UNL     1      43.920 -13.167 -32.822  1.00  0.00    -0.000 C 
BRANCH  18  19
ATOM     19  C   UNL     1      44.878 -14.369 -32.807  1.00  0.00    -0.003 C 
ATOM     20  C   UNL     1      44.324 -15.578 -33.563  1.00  0.00     0.004 C 
ENDBRANCH  18  19
ENDBRANCH  17  18
ENDBRANCH  16  17
ENDBRANCH  15  16
ENDBRANCH  14  15
ENDBRANCH  13  14
ENDBRANCH  12  13
ENDBRANCH   1  12
TORSDOF 16
ENDMDL
MODEL 9
REMARK VINA RESULT:    -4.958      2.621      5.453
REMARK INTER + INTRA:         -11.927
REMARK INTER:                  -9.836
REMARK INTRA:                  -2.091
REMARK UNBOUND:                -2.332
REMARK SMILES CCCCCCCCCCCCCCCCCC(=O)[O-]
REMARK SMILES IDX 10 1 11 2 12 3 13 4 14 5 15 6 16 7 17 8 18 9 19 10 20 11
REMARK SMILES IDX 9 12 8 13 7 14 6 15 5 16 4 17 3 18 2 19 1 20
REMARK H PARENT
REMARK Flexibility Score: inf
ROOT
ATOM      1  C   UNL     1      46.887 -14.534 -36.794  1.00  0.00     0.000 C 
ENDROOT
BRANCH   1   2
ATOM      2  C   UNL     1      46.222 -13.425 -37.634  1.00  0.00     0.000 C 
BRANCH   2   3
ATOM      3  C   UNL     1      47.140 -12.749 -38.672  1.00  0.00     0.000 C 
BRANCH   3   4
ATOM      4  C   UNL     1      46.411 -12.140 -39.882  1.00  0.00     0.000 C 
BRANCH   4   5
ATOM      5  C   UNL     1      44.993 -12.706 -40.068  1.00  0.00     0.000 C 
BRANCH   5   6
ATOM      6  C   UNL     1      44.086 -11.786 -40.903  1.00  0.00     0.000 C 
BRANCH   6   7
ATOM      7  C   UNL     1      42.937 -11.118 -40.120  1.00  0.00     0.006 C 
BRANCH   7   8
ATOM      8  C   UNL     1      43.387 -10.295 -38.902  1.00  0.00     0.053 C 
BRANCH   8   9
ATOM      9  C   UNL     1      42.856 -10.857 -37.619  1.00  0.00     0.041 C 
ATOM     10  O   UNL     1      41.663 -11.249 -37.545  1.00  0.00    -0.550 OA
ATOM     11  O   UNL     1      43.672 -10.917 -36.495  1.00  0.00    -0.550 OA
ENDBRANCH   8   9
ENDBRANCH   7   8
ENDBRANCH   6   7
ENDBRANCH   5   6
ENDBRANCH   4   5
ENDBRANCH   3   4
ENDBRANCH   2   3
ENDBRANCH   1   2
BRANCH   1  12
ATOM     12  C   UNL     1      47.979 -14.049 -35.825  1.00  0.00     0.000 C 
BRANCH  12  13
ATOM     13  C   UNL     1      47.477 -12.975 -34.849  1.00  0.00    -0.000 C 
BRANCH  13  14
ATOM     14  C   UNL     1      48.074 -13.182 -33.452  1.00  0.00    -0.000 C 
BRANCH  14  15
ATOM     15  C   UNL     1      46.991 -13.605 -32.449  1.00  0.00    -0.000 C 
BRANCH  15  16
ATOM     16  C   UNL     1      46.477 -15.038 -32.686  1.00  0.00    -0.000 C 
BRANCH  16  17
ATOM     17  C   UNL     1      44.946 -15.194 -32.670  1.00  0.00    -0.000 C 
BRANCH  17  18
ATOM     18  C   UNL     1      44.342 -15.318 -34.079  1.00  0.00    -0.000 C 
BRANCH  18  19
ATOM     19  C   UNL     1      43.934 -13.957 -34.666  1.00  0.00    -0.003 C 
ATOM     20  C   UNL     1      43.547 -12.940 -33.591  1.00  0.00     0.004 C 
ENDBRANCH  18  19
ENDBRANCH  17  18
ENDBRANCH  16  17
ENDBRANCH  15  16
ENDBRANCH  14  15
ENDBRANCH  13  14
ENDBRANCH  12  13
ENDBRANCH   1  12
TORSDOF 16
ENDMDL
