MODEL 1
REMARK VINA RESULT:    -3.487      0.000      0.000
REMARK INTER + INTRA:         -13.915
REMARK INTER:                  -8.788
REMARK INTRA:                  -5.126
REMARK UNBOUND:                -5.126
REMARK SMILES CCCCCCCCCCCCCCCCCCCCCCCCCCCC(=O)[O-]
REMARK SMILES IDX 15 1 16 2 17 3 18 4 19 5 20 6 21 7 22 8 23 9 24 10 25 11
REMARK SMILES IDX 26 12 27 13 28 14 29 15 30 16 14 17 13 18 12 19 11 20 10 21
REMARK SMILES IDX 9 22 8 23 7 24 6 25 5 26 4 27 3 28 2 29 1 30
REMARK H PARENT
REMARK Flexibility Score: inf
ROOT
ATOM      1  C   UNL     1       9.631   4.536  -0.145  1.00  0.00     0.000 C 
ENDROOT
BRANCH   1   2
ATOM      2  C   UNL     1      10.330   5.765  -0.755  1.00  0.00     0.000 C 
BRANCH   2   3
ATOM      3  C   UNL     1      10.786   5.515  -2.203  1.00  0.00     0.000 C 
BRANCH   3   4
ATOM      4  C   UNL     1      10.725   6.791  -3.062  1.00  0.00     0.000 C 
BRANCH   4   5
ATOM      5  C   UNL     1      10.253   6.514  -4.497  1.00  0.00     0.000 C 
BRANCH   5   6
ATOM      6  C   UNL     1       9.875   5.040  -4.728  1.00  0.00     0.000 C 
BRANCH   6   7
ATOM      7  C   UNL     1      10.643   4.412  -5.911  1.00  0.00     0.000 C 
BRANCH   7   8
ATOM      8  C   UNL     1      11.300   3.058  -5.579  1.00  0.00     0.000 C 
BRANCH   8   9
ATOM      9  C   UNL     1      10.853   2.426  -4.248  1.00  0.00     0.000 C 
BRANCH   9  10
ATOM     10  C   UNL     1      11.964   1.699  -3.461  1.00  0.00     0.000 C 
BRANCH  10  11
ATOM     11  C   UNL     1      12.126   2.143  -1.997  1.00  0.00     0.000 C 
BRANCH  11  12
ATOM     12  C   UNL     1      11.293   1.295  -1.021  1.00  0.00     0.006 C 
BRANCH  12  13
ATOM     13  C   UNL     1      11.889   1.286   0.392  1.00  0.00     0.053 C 
BRANCH  13  14
ATOM     14  C   UNL     1      12.759   0.088   0.624  1.00  0.00     0.041 C 
ATOM     15  O   UNL     1      13.630  -0.236  -0.225  1.00  0.00    -0.550 OA
ATOM     16  O   UNL     1      12.629  -0.651   1.792  1.00  0.00    -0.550 OA
ENDBRANCH  13  14
ENDBRANCH  12  13
ENDBRANCH  11  12
ENDBRANCH  10  11
ENDBRANCH   9  10
ENDBRANCH   8   9
ENDBRANCH   7   8
ENDBRANCH   6   7
ENDBRANCH   5   6
ENDBRANCH   4   5
ENDBRANCH   3   4
ENDBRANCH   2   3
ENDBRANCH   1   2
BRANCH   1  17
ATOM     17  C   UNL     1       8.789   3.763  -1.174  1.00  0.00     0.000 C 
BRANCH  17  18
ATOM     18  C   UNL     1       7.330   4.248  -1.214  1.00  0.00     0.000 C 
BRANCH  18  19
ATOM     19  C   UNL     1       6.713   4.181  -2.622  1.00  0.00     0.000 C 
BRANCH  19  20
ATOM     20  C   UNL     1       6.533   5.542  -3.323  1.00  0.00     0.000 C 
BRANCH  20  21
ATOM     21  C   UNL     1       6.256   6.692  -2.344  1.00  0.00     0.000 C 
BRANCH  21  22
ATOM     22  C   UNL     1       7.339   7.778  -2.443  1.00  0.00    -0.000 C 
BRANCH  22  23
ATOM     23  C   UNL     1       7.666   8.415  -1.077  1.00  0.00    -0.000 C 
BRANCH  23  24
ATOM     24  C   UNL     1       6.429   8.707  -0.208  1.00  0.00    -0.000 C 
BRANCH  24  25
ATOM     25  C   UNL     1       6.657   8.410   1.280  1.00  0.00    -0.000 C 
BRANCH  25  26
ATOM     26  C   UNL     1       6.255   6.971   1.626  1.00  0.00    -0.000 C 
BRANCH  26  27
ATOM     27  C   UNL     1       7.467   6.163   2.107  1.00  0.00    -0.000 C 
BRANCH  27  28
ATOM     28  C   UNL     1       8.316   6.978   3.094  1.00  0.00    -0.000 C 
BRANCH  28  29
ATOM     29  C   UNL     1       9.760   7.173   2.610  1.00  0.00    -0.003 C 
ATOM     30  C   UNL     1      10.748   6.236   3.305  1.00  0.00     0.004 C 
ENDBRANCH  28  29
ENDBRANCH  27  28
ENDBRANCH  26  27
ENDBRANCH  25  26
ENDBRANCH  24  25
ENDBRANCH  23  24
ENDBRANCH  22  23
ENDBRANCH  21  22
ENDBRANCH  20  21
ENDBRANCH  19  20
ENDBRANCH  18  19
ENDBRANCH  17  18
ENDBRANCH   1  17
TORSDOF 26
ENDMDL
MODEL 2
REMARK VINA RESULT:    -3.227      2.460      6.405
REMARK INTER + INTRA:         -13.258
REMARK INTER:                  -7.958
REMARK INTRA:                  -5.300
REMARK UNBOUND:                -5.126
REMARK SMILES CCCCCCCCCCCCCCCCCCCCCCCCCCCC(=O)[O-]
REMARK SMILES IDX 15 1 16 2 17 3 18 4 19 5 20 6 21 7 22 8 23 9 24 10 25 11
REMARK SMILES IDX 26 12 27 13 28 14 29 15 30 16 14 17 13 18 12 19 11 20 10 21
REMARK SMILES IDX 9 22 8 23 7 24 6 25 5 26 4 27 3 28 2 29 1 30
REMARK H PARENT
REMARK Flexibility Score: inf
ROOT
ATOM      1  C   UNL     1      11.510   1.623  -0.453  1.00  0.00     0.000 C 
ENDROOT
BRANCH   1   2
ATOM      2  C   UNL     1      10.019   2.007  -0.404  1.00  0.00     0.000 C 
BRANCH   2   3
ATOM      3  C   UNL     1       9.732   3.088   0.651  1.00  0.00     0.000 C 
BRANCH   3   4
ATOM      4  C   UNL     1       9.105   4.352   0.034  1.00  0.00     0.000 C 
BRANCH   4   5
ATOM      5  C   UNL     1      10.160   5.355  -0.456  1.00  0.00     0.000 C 
BRANCH   5   6
ATOM      6  C   UNL     1       9.568   6.447  -1.365  1.00  0.00     0.000 C 
BRANCH   6   7
ATOM      7  C   UNL     1       9.898   7.871  -0.870  1.00  0.00     0.000 C 
BRANCH   7   8
ATOM      8  C   UNL     1       8.655   8.745  -0.612  1.00  0.00     0.000 C 
BRANCH   8   9
ATOM      9  C   UNL     1       7.352   7.965  -0.360  1.00  0.00     0.000 C 
BRANCH   9  10
ATOM     10  C   UNL     1       6.458   8.530   0.765  1.00  0.00     0.000 C 
BRANCH  10  11
ATOM     11  C   UNL     1       6.234   7.585   1.958  1.00  0.00     0.000 C 
BRANCH  11  12
ATOM     12  C   UNL     1       7.360   6.551   2.121  1.00  0.00     0.006 C 
BRANCH  12  13
ATOM     13  C   UNL     1       8.245   6.845   3.340  1.00  0.00     0.053 C 
BRANCH  13  14
ATOM     14  C   UNL     1       9.677   7.056   2.953  1.00  0.00     0.041 C 
ATOM     15  O   UNL     1      10.472   6.081   2.916  1.00  0.00    -0.550 OA
ATOM     16  O   UNL     1      10.125   8.323   2.604  1.00  0.00    -0.550 OA
ENDBRANCH  13  14
ENDBRANCH  12  13
ENDBRANCH  11  12
ENDBRANCH  10  11
ENDBRANCH   9  10
ENDBRANCH   8   9
ENDBRANCH   7   8
ENDBRANCH   6   7
ENDBRANCH   5   6
ENDBRANCH   4   5
ENDBRANCH   3   4
ENDBRANCH   2   3
ENDBRANCH   1   2
BRANCH   1  17
ATOM     17  C   UNL     1      12.009   1.373  -1.887  1.00  0.00     0.000 C 
BRANCH  17  18
ATOM     18  C   UNL     1      11.060   1.965  -2.943  1.00  0.00     0.000 C 
BRANCH  18  19
ATOM     19  C   UNL     1      11.364   3.438  -3.266  1.00  0.00     0.000 C 
BRANCH  19  20
ATOM     20  C   UNL     1      10.305   4.152  -4.129  1.00  0.00     0.000 C 
BRANCH  20  21
ATOM     21  C   UNL     1      10.698   4.244  -5.611  1.00  0.00     0.000 C 
BRANCH  21  22
ATOM     22  C   UNL     1      10.746   5.706  -6.083  1.00  0.00    -0.000 C 
BRANCH  22  23
ATOM     23  C   UNL     1      10.488   6.706  -4.939  1.00  0.00    -0.000 C 
BRANCH  23  24
ATOM     24  C   UNL     1       9.785   8.001  -5.385  1.00  0.00    -0.000 C 
BRANCH  24  25
ATOM     25  C   UNL     1       8.701   8.465  -4.401  1.00  0.00    -0.000 C 
BRANCH  25  26
ATOM     26  C   UNL     1       7.334   7.868  -4.761  1.00  0.00    -0.000 C 
BRANCH  26  27
ATOM     27  C   UNL     1       6.922   6.793  -3.747  1.00  0.00    -0.000 C 
BRANCH  27  28
ATOM     28  C   UNL     1       6.926   5.399  -4.389  1.00  0.00    -0.000 C 
BRANCH  28  29
ATOM     29  C   UNL     1       6.538   4.291  -3.399  1.00  0.00    -0.003 C 
ATOM     30  C   UNL     1       6.185   4.831  -2.014  1.00  0.00     0.004 C 
ENDBRANCH  28  29
ENDBRANCH  27  28
ENDBRANCH  26  27
ENDBRANCH  25  26
ENDBRANCH  24  25
ENDBRANCH  23  24
ENDBRANCH  22  23
ENDBRANCH  21  22
ENDBRANCH  20  21
ENDBRANCH  19  20
ENDBRANCH  18  19
ENDBRANCH  17  18
ENDBRANCH   1  17
TORSDOF 26
ENDMDL
MODEL 3
REMARK VINA RESULT:    -3.091      2.626      6.596
REMARK INTER + INTRA:         -12.915
REMARK INTER:                  -8.864
REMARK INTRA:                  -4.052
REMARK UNBOUND:                -5.126
REMARK SMILES CCCCCCCCCCCCCCCCCCCCCCCCCCCC(=O)[O-]
REMARK SMILES IDX 15 1 16 2 17 3 18 4 19 5 20 6 21 7 22 8 23 9 24 10 25 11
REMARK SMILES IDX 26 12 27 13 28 14 29 15 30 16 14 17 13 18 12 19 11 20 10 21
REMARK SMILES IDX 9 22 8 23 7 24 6 25 5 26 4 27 3 28 2 29 1 30
REMARK H PARENT
REMARK Flexibility Score: inf
ROOT
ATOM      1  C   UNL     1       9.850   3.898   1.201  1.00  0.00     0.000 C 
ENDROOT
BRANCH   1   2
ATOM      2  C   UNL     1      10.252   5.384   1.223  1.00  0.00     0.000 C 
BRANCH   2   3
ATOM      3  C   UNL     1      10.553   5.884   2.645  1.00  0.00     0.000 C 
BRANCH   3   4
ATOM      4  C   UNL     1       9.804   7.188   2.975  1.00  0.00     0.000 C 
BRANCH   4   5
ATOM      5  C   UNL     1       9.904   8.228   1.850  1.00  0.00     0.000 C 
BRANCH   5   6
ATOM      6  C   UNL     1       8.545   8.861   1.499  1.00  0.00     0.000 C 
BRANCH   6   7
ATOM      7  C   UNL     1       8.388   9.123  -0.014  1.00  0.00     0.000 C 
BRANCH   7   8
ATOM      8  C   UNL     1       9.462   8.435  -0.880  1.00  0.00     0.000 C 
BRANCH   8   9
ATOM      9  C   UNL     1       9.639   9.028  -2.290  1.00  0.00     0.000 C 
BRANCH   9  10
ATOM     10  C   UNL     1       8.436   8.836  -3.237  1.00  0.00     0.000 C 
BRANCH  10  11
ATOM     11  C   UNL     1       8.426   7.513  -4.021  1.00  0.00     0.000 C 
BRANCH  11  12
ATOM     12  C   UNL     1       9.687   7.317  -4.880  1.00  0.00     0.006 C 
BRANCH  12  13
ATOM     13  C   UNL     1      10.409   6.003  -4.557  1.00  0.00     0.053 C 
BRANCH  13  14
ATOM     14  C   UNL     1      10.094   4.932  -5.557  1.00  0.00     0.041 C 
ATOM     15  O   UNL     1      10.967   4.080  -5.868  1.00  0.00    -0.550 OA
ATOM     16  O   UNL     1       8.827   4.855  -6.119  1.00  0.00    -0.550 OA
ENDBRANCH  13  14
ENDBRANCH  12  13
ENDBRANCH  11  12
ENDBRANCH  10  11
ENDBRANCH   9  10
ENDBRANCH   8   9
ENDBRANCH   7   8
ENDBRANCH   6   7
ENDBRANCH   5   6
ENDBRANCH   4   5
ENDBRANCH   3   4
ENDBRANCH   2   3
ENDBRANCH   1   2
BRANCH   1  17
ATOM     17  C   UNL     1       8.356   3.694   0.898  1.00  0.00     0.000 C 
BRANCH  17  18
ATOM     18  C   UNL     1       7.612   5.029   0.724  1.00  0.00     0.000 C 
BRANCH  18  19
ATOM     19  C   UNL     1       7.640   5.549  -0.725  1.00  0.00     0.000 C 
BRANCH  19  20
ATOM     20  C   UNL     1       6.523   5.005  -1.637  1.00  0.00     0.000 C 
BRANCH  20  21
ATOM     21  C   UNL     1       7.057   4.158  -2.803  1.00  0.00     0.000 C 
BRANCH  21  22
ATOM     22  C   UNL     1       8.542   3.816  -2.607  1.00  0.00    -0.000 C 
BRANCH  22  23
ATOM     23  C   UNL     1       8.763   2.345  -2.204  1.00  0.00    -0.000 C 
BRANCH  23  24
ATOM     24  C   UNL     1      10.150   1.793  -2.579  1.00  0.00    -0.000 C 
BRANCH  24  25
ATOM     25  C   UNL     1      11.257   2.853  -2.509  1.00  0.00    -0.000 C 
BRANCH  25  26
ATOM     26  C   UNL     1      12.362   2.437  -1.530  1.00  0.00    -0.000 C 
BRANCH  26  27
ATOM     27  C   UNL     1      11.879   1.315  -0.603  1.00  0.00    -0.000 C 
BRANCH  27  28
ATOM     28  C   UNL     1      13.060   0.479  -0.088  1.00  0.00    -0.000 C 
BRANCH  28  29
ATOM     29  C   UNL     1      12.676  -0.420   1.096  1.00  0.00    -0.003 C 
ATOM     30  C   UNL     1      13.564  -0.198   2.320  1.00  0.00     0.004 C 
ENDBRANCH  28  29
ENDBRANCH  27  28
ENDBRANCH  26  27
ENDBRANCH  25  26
ENDBRANCH  24  25
ENDBRANCH  23  24
ENDBRANCH  22  23
ENDBRANCH  21  22
ENDBRANCH  20  21
ENDBRANCH  19  20
ENDBRANCH  18  19
ENDBRANCH  17  18
ENDBRANCH   1  17
TORSDOF 26
ENDMDL
MODEL 4
REMARK VINA RESULT:    -2.946      1.248      3.580
REMARK INTER + INTRA:         -12.550
REMARK INTER:                  -8.346
REMARK INTRA:                  -4.204
REMARK UNBOUND:                -5.126
REMARK SMILES CCCCCCCCCCCCCCCCCCCCCCCCCCCC(=O)[O-]
REMARK SMILES IDX 15 1 16 2 17 3 18 4 19 5 20 6 21 7 22 8 23 9 24 10 25 11
REMARK SMILES IDX 26 12 27 13 28 14 29 15 30 16 14 17 13 18 12 19 11 20 10 21
REMARK SMILES IDX 9 22 8 23 7 24 6 25 5 26 4 27 3 28 2 29 1 30
REMARK H PARENT
REMARK Flexibility Score: inf
ROOT
ATOM      1  C   UNL     1       9.595   4.416   0.343  1.00  0.00     0.000 C 
ENDROOT
BRANCH   1   2
ATOM      2  C   UNL     1       9.747   4.496  -1.188  1.00  0.00     0.000 C 
BRANCH   2   3
ATOM      3  C   UNL     1       8.767   3.564  -1.919  1.00  0.00     0.000 C 
BRANCH   3   4
ATOM      4  C   UNL     1       8.083   4.257  -3.111  1.00  0.00     0.000 C 
BRANCH   4   5
ATOM      5  C   UNL     1       9.006   5.259  -3.820  1.00  0.00     0.000 C 
BRANCH   5   6
ATOM      6  C   UNL     1       9.210   4.932  -5.310  1.00  0.00     0.000 C 
BRANCH   6   7
ATOM      7  C   UNL     1      10.702   4.846  -5.697  1.00  0.00     0.000 C 
BRANCH   7   8
ATOM      8  C   UNL     1      11.206   3.406  -5.918  1.00  0.00     0.000 C 
BRANCH   8   9
ATOM      9  C   UNL     1      10.805   2.401  -4.823  1.00  0.00     0.000 C 
BRANCH   9  10
ATOM     10  C   UNL     1      11.944   1.983  -3.869  1.00  0.00     0.000 C 
BRANCH  10  11
ATOM     11  C   UNL     1      11.487   1.340  -2.548  1.00  0.00     0.000 C 
BRANCH  11  12
ATOM     12  C   UNL     1      12.289   1.837  -1.333  1.00  0.00     0.006 C 
BRANCH  12  13
ATOM     13  C   UNL     1      11.801   1.209  -0.021  1.00  0.00     0.053 C 
BRANCH  13  14
ATOM     14  C   UNL     1      12.726   0.132   0.460  1.00  0.00     0.041 C 
ATOM     15  O   UNL     1      12.483  -0.475   1.536  1.00  0.00    -0.550 OA
ATOM     16  O   UNL     1      13.836  -0.221  -0.294  1.00  0.00    -0.550 OA
ENDBRANCH  13  14
ENDBRANCH  12  13
ENDBRANCH  11  12
ENDBRANCH  10  11
ENDBRANCH   9  10
ENDBRANCH   8   9
ENDBRANCH   7   8
ENDBRANCH   6   7
ENDBRANCH   5   6
ENDBRANCH   4   5
ENDBRANCH   3   4
ENDBRANCH   2   3
ENDBRANCH   1   2
BRANCH   1  17
ATOM     17  C   UNL     1       8.132   4.239   0.783  1.00  0.00     0.000 C 
BRANCH  17  18
ATOM     18  C   UNL     1       7.205   5.292   0.153  1.00  0.00     0.000 C 
BRANCH  18  19
ATOM     19  C   UNL     1       6.890   6.461   1.103  1.00  0.00     0.000 C 
BRANCH  19  20
ATOM     20  C   UNL     1       6.838   6.094   2.598  1.00  0.00     0.000 C 
BRANCH  20  21
ATOM     21  C   UNL     1       7.780   6.947   3.461  1.00  0.00     0.000 C 
BRANCH  21  22
ATOM     22  C   UNL     1       9.221   6.414   3.405  1.00  0.00    -0.000 C 
BRANCH  22  23
ATOM     23  C   UNL     1      10.222   7.466   2.887  1.00  0.00    -0.000 C 
BRANCH  23  24
ATOM     24  C   UNL     1       9.604   8.856   2.649  1.00  0.00    -0.000 C 
BRANCH  24  25
ATOM     25  C   UNL     1       9.282   9.125   1.173  1.00  0.00    -0.000 C 
BRANCH  25  26
ATOM     26  C   UNL     1       9.965   8.098   0.261  1.00  0.00    -0.000 C 
BRANCH  26  27
ATOM     27  C   UNL     1      10.243   8.694  -1.125  1.00  0.00    -0.000 C 
BRANCH  27  28
ATOM     28  C   UNL     1       9.263   8.141  -2.170  1.00  0.00    -0.000 C 
BRANCH  28  29
ATOM     29  C   UNL     1       7.798   8.449  -1.828  1.00  0.00    -0.003 C 
ATOM     30  C   UNL     1       6.850   8.189  -2.999  1.00  0.00     0.004 C 
ENDBRANCH  28  29
ENDBRANCH  27  28
ENDBRANCH  26  27
ENDBRANCH  25  26
ENDBRANCH  24  25
ENDBRANCH  23  24
ENDBRANCH  22  23
ENDBRANCH  21  22
ENDBRANCH  20  21
ENDBRANCH  19  20
ENDBRANCH  18  19
ENDBRANCH  17  18
ENDBRANCH   1  17
TORSDOF 26
ENDMDL
MODEL 5
REMARK VINA RESULT:    -2.936      2.829      5.009
REMARK INTER + INTRA:         -12.526
REMARK INTER:                  -7.408
REMARK INTRA:                  -5.117
REMARK UNBOUND:                -5.126
REMARK SMILES CCCCCCCCCCCCCCCCCCCCCCCCCCCC(=O)[O-]
REMARK SMILES IDX 15 1 16 2 17 3 18 4 19 5 20 6 21 7 22 8 23 9 24 10 25 11
REMARK SMILES IDX 26 12 27 13 28 14 29 15 30 16 14 17 13 18 12 19 11 20 10 21
REMARK SMILES IDX 9 22 8 23 7 24 6 25 5 26 4 27 3 28 2 29 1 30
REMARK H PARENT
REMARK Flexibility Score: inf
ROOT
ATOM      1  C   UNL     1      10.709   2.283   0.469  1.00  0.00     0.000 C 
ENDROOT
BRANCH   1   2
ATOM      2  C   UNL     1      10.868   1.623  -0.913  1.00  0.00     0.000 C 
BRANCH   2   3
ATOM      3  C   UNL     1      12.157   2.066  -1.624  1.00  0.00     0.000 C 
BRANCH   3   4
ATOM      4  C   UNL     1      12.153   1.702  -3.120  1.00  0.00     0.000 C 
BRANCH   4   5
ATOM      5  C   UNL     1      10.934   2.271  -3.862  1.00  0.00     0.000 C 
BRANCH   5   6
ATOM      6  C   UNL     1      11.164   2.398  -5.378  1.00  0.00     0.000 C 
BRANCH   6   7
ATOM      7  C   UNL     1      11.129   3.864  -5.861  1.00  0.00     0.000 C 
BRANCH   7   8
ATOM      8  C   UNL     1       9.842   4.617  -5.473  1.00  0.00     0.000 C 
BRANCH   8   9
ATOM      9  C   UNL     1       9.971   6.151  -5.437  1.00  0.00     0.000 C 
BRANCH   9  10
ATOM     10  C   UNL     1       8.651   6.925  -5.642  1.00  0.00     0.000 C 
BRANCH  10  11
ATOM     11  C   UNL     1       8.026   7.503  -4.360  1.00  0.00     0.000 C 
BRANCH  11  12
ATOM     12  C   UNL     1       6.489   7.535  -4.407  1.00  0.00     0.006 C 
BRANCH  12  13
ATOM     13  C   UNL     1       5.900   6.246  -4.995  1.00  0.00     0.053 C 
BRANCH  13  14
ATOM     14  C   UNL     1       5.895   5.128  -3.997  1.00  0.00     0.041 C 
ATOM     15  O   UNL     1       5.896   3.931  -4.388  1.00  0.00    -0.550 OA
ATOM     16  O   UNL     1       5.922   5.407  -2.637  1.00  0.00    -0.550 OA
ENDBRANCH  13  14
ENDBRANCH  12  13
ENDBRANCH  11  12
ENDBRANCH  10  11
ENDBRANCH   9  10
ENDBRANCH   8   9
ENDBRANCH   7   8
ENDBRANCH   6   7
ENDBRANCH   5   6
ENDBRANCH   4   5
ENDBRANCH   3   4
ENDBRANCH   2   3
ENDBRANCH   1   2
BRANCH   1  17
ATOM     17  C   UNL     1       9.790   3.516   0.433  1.00  0.00     0.000 C 
BRANCH  17  18
ATOM     18  C   UNL     1       8.989   3.605  -0.878  1.00  0.00     0.000 C 
BRANCH  18  19
ATOM     19  C   UNL     1       9.244   4.911  -1.651  1.00  0.00     0.000 C 
BRANCH  19  20
ATOM     20  C   UNL     1      10.727   5.241  -1.907  1.00  0.00     0.000 C 
BRANCH  20  21
ATOM     21  C   UNL     1      11.144   6.612  -1.353  1.00  0.00     0.000 C 
BRANCH  21  22
ATOM     22  C   UNL     1      10.215   7.724  -1.865  1.00  0.00    -0.000 C 
BRANCH  22  23
ATOM     23  C   UNL     1       9.968   8.822  -0.811  1.00  0.00    -0.000 C 
BRANCH  23  24
ATOM     24  C   UNL     1       8.481   9.056  -0.486  1.00  0.00    -0.000 C 
BRANCH  24  25
ATOM     25  C   UNL     1       7.620   7.800  -0.679  1.00  0.00    -0.000 C 
BRANCH  25  26
ATOM     26  C   UNL     1       6.773   7.512   0.567  1.00  0.00    -0.000 C 
BRANCH  26  27
ATOM     27  C   UNL     1       6.975   6.068   1.045  1.00  0.00    -0.000 C 
BRANCH  27  28
ATOM     28  C   UNL     1       7.538   6.035   2.473  1.00  0.00    -0.000 C 
BRANCH  28  29
ATOM     29  C   UNL     1       8.639   7.082   2.699  1.00  0.00    -0.003 C 
ATOM     30  C   UNL     1      10.041   6.532   2.439  1.00  0.00     0.004 C 
ENDBRANCH  28  29
ENDBRANCH  27  28
ENDBRANCH  26  27
ENDBRANCH  25  26
ENDBRANCH  24  25
ENDBRANCH  23  24
ENDBRANCH  22  23
ENDBRANCH  21  22
ENDBRANCH  20  21
ENDBRANCH  19  20
ENDBRANCH  18  19
ENDBRANCH  17  18
ENDBRANCH   1  17
TORSDOF 26
ENDMDL
MODEL 6
REMARK VINA RESULT:    -2.912      3.180      5.430
REMARK INTER + INTRA:         -12.465
REMARK INTER:                  -7.506
REMARK INTRA:                  -4.959
REMARK UNBOUND:                -5.126
REMARK SMILES CCCCCCCCCCCCCCCCCCCCCCCCCCCC(=O)[O-]
REMARK SMILES IDX 15 1 16 2 17 3 18 4 19 5 20 6 21 7 22 8 23 9 24 10 25 11
REMARK SMILES IDX 26 12 27 13 28 14 29 15 30 16 14 17 13 18 12 19 11 20 10 21
REMARK SMILES IDX 9 22 8 23 7 24 6 25 5 26 4 27 3 28 2 29 1 30
REMARK H PARENT
REMARK Flexibility Score: inf
ROOT
ATOM      1  C   UNL     1      11.735   1.583  -0.495  1.00  0.00     0.000 C 
ENDROOT
BRANCH   1   2
ATOM      2  C   UNL     1      11.944   1.311  -1.996  1.00  0.00     0.000 C 
BRANCH   2   3
ATOM      3  C   UNL     1      11.988   2.607  -2.822  1.00  0.00     0.000 C 
BRANCH   3   4
ATOM      4  C   UNL     1      11.114   2.522  -4.086  1.00  0.00     0.000 C 
BRANCH   4   5
ATOM      5  C   UNL     1      10.977   3.874  -4.802  1.00  0.00     0.000 C 
BRANCH   5   6
ATOM      6  C   UNL     1      10.001   4.830  -4.092  1.00  0.00     0.000 C 
BRANCH   6   7
ATOM      7  C   UNL     1      10.705   6.087  -3.536  1.00  0.00     0.000 C 
BRANCH   7   8
ATOM      8  C   UNL     1      11.020   6.009  -2.029  1.00  0.00     0.000 C 
BRANCH   8   9
ATOM      9  C   UNL     1      10.397   7.128  -1.175  1.00  0.00     0.000 C 
BRANCH   9  10
ATOM     10  C   UNL     1       9.942   8.376  -1.961  1.00  0.00     0.000 C 
BRANCH  10  11
ATOM     11  C   UNL     1       8.657   9.044  -1.442  1.00  0.00     0.000 C 
BRANCH  11  12
ATOM     12  C   UNL     1       7.553   9.125  -2.510  1.00  0.00     0.006 C 
BRANCH  12  13
ATOM     13  C   UNL     1       7.348   7.788  -3.234  1.00  0.00     0.053 C 
BRANCH  13  14
ATOM     14  C   UNL     1       7.627   7.899  -4.702  1.00  0.00     0.041 C 
ATOM     15  O   UNL     1       8.063   8.978  -5.184  1.00  0.00    -0.550 OA
ATOM     16  O   UNL     1       7.436   6.803  -5.532  1.00  0.00    -0.550 OA
ENDBRANCH  13  14
ENDBRANCH  12  13
ENDBRANCH  11  12
ENDBRANCH  10  11
ENDBRANCH   9  10
ENDBRANCH   8   9
ENDBRANCH   7   8
ENDBRANCH   6   7
ENDBRANCH   5   6
ENDBRANCH   4   5
ENDBRANCH   3   4
ENDBRANCH   2   3
ENDBRANCH   1   2
BRANCH   1  17
ATOM     17  C   UNL     1      10.831   2.800  -0.236  1.00  0.00     0.000 C 
BRANCH  17  18
ATOM     18  C   UNL     1       9.342   2.474  -0.450  1.00  0.00     0.000 C 
BRANCH  18  19
ATOM     19  C   UNL     1       8.670   3.390  -1.487  1.00  0.00     0.000 C 
BRANCH  19  20
ATOM     20  C   UNL     1       7.414   4.132  -0.989  1.00  0.00     0.000 C 
BRANCH  20  21
ATOM     21  C   UNL     1       7.668   4.964   0.277  1.00  0.00     0.000 C 
BRANCH  21  22
ATOM     22  C   UNL     1       7.080   6.377   0.140  1.00  0.00    -0.000 C 
BRANCH  22  23
ATOM     23  C   UNL     1       5.875   6.610   1.074  1.00  0.00    -0.000 C 
BRANCH  23  24
ATOM     24  C   UNL     1       5.951   7.918   1.882  1.00  0.00    -0.000 C 
BRANCH  24  25
ATOM     25  C   UNL     1       6.384   7.701   3.338  1.00  0.00    -0.000 C 
BRANCH  25  26
ATOM     26  C   UNL     1       7.718   8.401   3.630  1.00  0.00    -0.000 C 
BRANCH  26  27
ATOM     27  C   UNL     1       8.479   8.694   2.331  1.00  0.00    -0.000 C 
BRANCH  27  28
ATOM     28  C   UNL     1       9.901   8.115   2.384  1.00  0.00    -0.000 C 
BRANCH  28  29
ATOM     29  C   UNL     1       9.966   6.775   3.130  1.00  0.00    -0.003 C 
ATOM     30  C   UNL     1      10.675   5.684   2.326  1.00  0.00     0.004 C 
ENDBRANCH  28  29
ENDBRANCH  27  28
ENDBRANCH  26  27
ENDBRANCH  25  26
ENDBRANCH  24  25
ENDBRANCH  23  24
ENDBRANCH  22  23
ENDBRANCH  21  22
ENDBRANCH  20  21
ENDBRANCH  19  20
ENDBRANCH  18  19
ENDBRANCH  17  18
ENDBRANCH   1  17
TORSDOF 26
ENDMDL
MODEL 7
REMARK VINA RESULT:    -2.808      1.867      5.768
REMARK INTER + INTRA:         -12.204
REMARK INTER:                  -7.825
REMARK INTRA:                  -4.378
REMARK UNBOUND:                -5.126
REMARK SMILES CCCCCCCCCCCCCCCCCCCCCCCCCCCC(=O)[O-]
REMARK SMILES IDX 15 1 16 2 17 3 18 4 19 5 20 6 21 7 22 8 23 9 24 10 25 11
REMARK SMILES IDX 26 12 27 13 28 14 29 15 30 16 14 17 13 18 12 19 11 20 10 21
REMARK SMILES IDX 9 22 8 23 7 24 6 25 5 26 4 27 3 28 2 29 1 30
REMARK H PARENT
REMARK Flexibility Score: inf
ROOT
ATOM      1  C   UNL     1       6.292   7.330   0.067  1.00  0.00     0.000 C 
ENDROOT
BRANCH   1   2
ATOM      2  C   UNL     1       6.329   5.791   0.110  1.00  0.00     0.000 C 
BRANCH   2   3
ATOM      3  C   UNL     1       5.998   5.163  -1.254  1.00  0.00     0.000 C 
BRANCH   3   4
ATOM      4  C   UNL     1       5.875   6.219  -2.367  1.00  0.00     0.000 C 
BRANCH   4   5
ATOM      5  C   UNL     1       7.127   6.292  -3.254  1.00  0.00     0.000 C 
BRANCH   5   6
ATOM      6  C   UNL     1       7.301   7.663  -3.930  1.00  0.00     0.000 C 
BRANCH   6   7
ATOM      7  C   UNL     1       7.999   8.690  -3.013  1.00  0.00     0.000 C 
BRANCH   7   8
ATOM      8  C   UNL     1       9.399   8.254  -2.539  1.00  0.00     0.000 C 
BRANCH   8   9
ATOM      9  C   UNL     1      10.438   8.071  -3.661  1.00  0.00     0.000 C 
BRANCH   9  10
ATOM     10  C   UNL     1      10.783   6.606  -4.003  1.00  0.00     0.000 C 
BRANCH  10  11
ATOM     11  C   UNL     1      10.302   6.126  -5.383  1.00  0.00     0.000 C 
BRANCH  11  12
ATOM     12  C   UNL     1       9.874   4.649  -5.386  1.00  0.00     0.006 C 
BRANCH  12  13
ATOM     13  C   UNL     1      10.447   3.877  -4.190  1.00  0.00     0.053 C 
BRANCH  13  14
ATOM     14  C   UNL     1      11.250   2.689  -4.625  1.00  0.00     0.041 C 
ATOM     15  O   UNL     1      11.729   2.640  -5.789  1.00  0.00    -0.550 OA
ATOM     16  O   UNL     1      11.495   1.651  -3.737  1.00  0.00    -0.550 OA
ENDBRANCH  13  14
ENDBRANCH  12  13
ENDBRANCH  11  12
ENDBRANCH  10  11
ENDBRANCH   9  10
ENDBRANCH   8   9
ENDBRANCH   7   8
ENDBRANCH   6   7
ENDBRANCH   5   6
ENDBRANCH   4   5
ENDBRANCH   3   4
ENDBRANCH   2   3
ENDBRANCH   1   2
BRANCH   1  17
ATOM     17  C   UNL     1       6.033   7.954   1.449  1.00  0.00     0.000 C 
BRANCH  17  18
ATOM     18  C   UNL     1       7.225   8.795   1.939  1.00  0.00     0.000 C 
BRANCH  18  19
ATOM     19  C   UNL     1       7.724   8.375   3.332  1.00  0.00     0.000 C 
BRANCH  19  20
ATOM     20  C   UNL     1       8.421   7.002   3.392  1.00  0.00     0.000 C 
BRANCH  20  21
ATOM     21  C   UNL     1       9.734   6.957   2.596  1.00  0.00     0.000 C 
BRANCH  21  22
ATOM     22  C   UNL     1       9.765   5.751   1.643  1.00  0.00    -0.000 C 
BRANCH  22  23
ATOM     23  C   UNL     1       9.844   6.170   0.161  1.00  0.00    -0.000 C 
BRANCH  23  24
ATOM     24  C   UNL     1       9.777   4.992  -0.827  1.00  0.00    -0.000 C 
BRANCH  24  25
ATOM     25  C   UNL     1       9.051   3.767  -0.254  1.00  0.00    -0.000 C 
BRANCH  25  26
ATOM     26  C   UNL     1       9.752   2.465  -0.664  1.00  0.00    -0.000 C 
BRANCH  26  27
ATOM     27  C   UNL     1      10.873   2.112   0.322  1.00  0.00    -0.000 C 
BRANCH  27  28
ATOM     28  C   UNL     1      12.050   1.442  -0.401  1.00  0.00    -0.000 C 
BRANCH  28  29
ATOM     29  C   UNL     1      12.514   0.153   0.293  1.00  0.00    -0.003 C 
ATOM     30  C   UNL     1      13.978  -0.180   0.007  1.00  0.00     0.004 C 
ENDBRANCH  28  29
ENDBRANCH  27  28
ENDBRANCH  26  27
ENDBRANCH  25  26
ENDBRANCH  24  25
ENDBRANCH  23  24
ENDBRANCH  22  23
ENDBRANCH  21  22
ENDBRANCH  20  21
ENDBRANCH  19  20
ENDBRANCH  18  19
ENDBRANCH  17  18
ENDBRANCH   1  17
TORSDOF 26
ENDMDL
MODEL 8
REMARK VINA RESULT:    -2.781      3.527      7.080
REMARK INTER + INTRA:         -12.134
REMARK INTER:                  -7.905
REMARK INTRA:                  -4.229
REMARK UNBOUND:                -5.126
REMARK SMILES CCCCCCCCCCCCCCCCCCCCCCCCCCCC(=O)[O-]
REMARK SMILES IDX 15 1 16 2 17 3 18 4 19 5 20 6 21 7 22 8 23 9 24 10 25 11
REMARK SMILES IDX 26 12 27 13 28 14 29 15 30 16 14 17 13 18 12 19 11 20 10 21
REMARK SMILES IDX 9 22 8 23 7 24 6 25 5 26 4 27 3 28 2 29 1 30
REMARK H PARENT
REMARK Flexibility Score: inf
ROOT
ATOM      1  C   UNL     1      11.090   1.884  -0.152  1.00  0.00     0.000 C 
ENDROOT
BRANCH   1   2
ATOM      2  C   UNL     1       9.707   2.534  -0.346  1.00  0.00     0.000 C 
BRANCH   2   3
ATOM      3  C   UNL     1       9.121   3.060   0.974  1.00  0.00     0.000 C 
BRANCH   3   4
ATOM      4  C   UNL     1       8.744   4.550   0.892  1.00  0.00     0.000 C 
BRANCH   4   5
ATOM      5  C   UNL     1       9.974   5.470   0.869  1.00  0.00     0.000 C 
BRANCH   5   6
ATOM      6  C   UNL     1       9.641   6.900   0.407  1.00  0.00     0.000 C 
BRANCH   6   7
ATOM      7  C   UNL     1       9.822   7.942   1.531  1.00  0.00     0.000 C 
BRANCH   7   8
ATOM      8  C   UNL     1       8.500   8.564   2.023  1.00  0.00     0.000 C 
BRANCH   8   9
ATOM      9  C   UNL     1       7.225   7.937   1.429  1.00  0.00     0.000 C 
BRANCH   9  10
ATOM     10  C   UNL     1       6.151   7.535   2.462  1.00  0.00     0.000 C 
BRANCH  10  11
ATOM     11  C   UNL     1       6.456   6.255   3.259  1.00  0.00     0.000 C 
BRANCH  11  12
ATOM     12  C   UNL     1       7.197   6.535   4.577  1.00  0.00     0.006 C 
BRANCH  12  13
ATOM     13  C   UNL     1       6.298   6.328   5.803  1.00  0.00     0.053 C 
BRANCH  13  14
ATOM     14  C   UNL     1       6.492   7.405   6.827  1.00  0.00     0.041 C 
ATOM     15  O   UNL     1       6.594   8.608   6.469  1.00  0.00    -0.550 OA
ATOM     16  O   UNL     1       6.528   7.084   8.177  1.00  0.00    -0.550 OA
ENDBRANCH  13  14
ENDBRANCH  12  13
ENDBRANCH  11  12
ENDBRANCH  10  11
ENDBRANCH   9  10
ENDBRANCH   8   9
ENDBRANCH   7   8
ENDBRANCH   6   7
ENDBRANCH   5   6
ENDBRANCH   4   5
ENDBRANCH   3   4
ENDBRANCH   2   3
ENDBRANCH   1   2
BRANCH   1  17
ATOM     17  C   UNL     1      11.947   1.923  -1.428  1.00  0.00     0.000 C 
BRANCH  17  18
ATOM     18  C   UNL     1      11.306   2.784  -2.531  1.00  0.00     0.000 C 
BRANCH  18  19
ATOM     19  C   UNL     1      11.508   4.293  -2.309  1.00  0.00     0.000 C 
BRANCH  19  20
ATOM     20  C   UNL     1      10.359   5.189  -2.811  1.00  0.00     0.000 C 
BRANCH  20  21
ATOM     21  C   UNL     1      10.031   4.972  -4.296  1.00  0.00     0.000 C 
BRANCH  21  22
ATOM     22  C   UNL     1      10.247   6.259  -5.107  1.00  0.00    -0.000 C 
BRANCH  22  23
ATOM     23  C   UNL     1      10.522   7.484  -4.211  1.00  0.00    -0.000 C 
BRANCH  23  24
ATOM     24  C   UNL     1       9.634   8.701  -4.524  1.00  0.00    -0.000 C 
BRANCH  24  25
ATOM     25  C   UNL     1       8.607   8.994  -3.421  1.00  0.00    -0.000 C 
BRANCH  25  26
ATOM     26  C   UNL     1       7.413   8.035  -3.507  1.00  0.00    -0.000 C 
BRANCH  26  27
ATOM     27  C   UNL     1       7.287   7.199  -2.227  1.00  0.00    -0.000 C 
BRANCH  27  28
ATOM     28  C   UNL     1       6.166   6.158  -2.357  1.00  0.00    -0.000 C 
BRANCH  28  29
ATOM     29  C   UNL     1       6.486   4.849  -1.621  1.00  0.00    -0.003 C 
ATOM     30  C   UNL     1       6.925   3.731  -2.566  1.00  0.00     0.004 C 
ENDBRANCH  28  29
ENDBRANCH  27  28
ENDBRANCH  26  27
ENDBRANCH  25  26
ENDBRANCH  24  25
ENDBRANCH  23  24
ENDBRANCH  22  23
ENDBRANCH  21  22
ENDBRANCH  20  21
ENDBRANCH  19  20
ENDBRANCH  18  19
ENDBRANCH  17  18
ENDBRANCH   1  17
TORSDOF 26
ENDMDL
MODEL 9
REMARK VINA RESULT:    -2.672      3.161      5.219
REMARK INTER + INTRA:         -11.859
REMARK INTER:                  -6.893
REMARK INTRA:                  -4.966
REMARK UNBOUND:                -5.126
REMARK SMILES CCCCCCCCCCCCCCCCCCCCCCCCCCCC(=O)[O-]
REMARK SMILES IDX 15 1 16 2 17 3 18 4 19 5 20 6 21 7 22 8 23 9 24 10 25 11
REMARK SMILES IDX 26 12 27 13 28 14 29 15 30 16 14 17 13 18 12 19 11 20 10 21
REMARK SMILES IDX 9 22 8 23 7 24 6 25 5 26 4 27 3 28 2 29 1 30
REMARK H PARENT
REMARK Flexibility Score: inf
ROOT
ATOM      1  C   UNL     1      11.880   2.570  -1.257  1.00  0.00     0.000 C 
ENDROOT
BRANCH   1   2
ATOM      2  C   UNL     1      11.410   1.327  -2.035  1.00  0.00     0.000 C 
BRANCH   2   3
ATOM      3  C   UNL     1      10.754   1.694  -3.376  1.00  0.00     0.000 C 
BRANCH   3   4
ATOM      4  C   UNL     1      11.600   2.694  -4.185  1.00  0.00     0.000 C 
BRANCH   4   5
ATOM      5  C   UNL     1      10.753   3.545  -5.143  1.00  0.00     0.000 C 
BRANCH   5   6
ATOM      6  C   UNL     1      10.127   4.772  -4.458  1.00  0.00     0.000 C 
BRANCH   6   7
ATOM      7  C   UNL     1       8.666   5.012  -4.895  1.00  0.00     0.000 C 
BRANCH   7   8
ATOM      8  C   UNL     1       8.356   6.477  -5.258  1.00  0.00     0.000 C 
BRANCH   8   9
ATOM      9  C   UNL     1       7.265   7.143  -4.400  1.00  0.00     0.000 C 
BRANCH   9  10
ATOM     10  C   UNL     1       7.739   8.340  -3.549  1.00  0.00     0.000 C 
BRANCH  10  11
ATOM     11  C   UNL     1       8.955   9.098  -4.108  1.00  0.00     0.000 C 
BRANCH  11  12
ATOM     12  C   UNL     1      10.152   9.104  -3.141  1.00  0.00     0.006 C 
BRANCH  12  13
ATOM     13  C   UNL     1      11.187   8.028  -3.494  1.00  0.00     0.053 C 
BRANCH  13  14
ATOM     14  C   UNL     1      11.941   8.366  -4.744  1.00  0.00     0.041 C 
ATOM     15  O   UNL     1      12.945   9.125  -4.692  1.00  0.00    -0.550 OA
ATOM     16  O   UNL     1      11.555   7.820  -5.960  1.00  0.00    -0.550 OA
ENDBRANCH  13  14
ENDBRANCH  12  13
ENDBRANCH  11  12
ENDBRANCH  10  11
ENDBRANCH   9  10
ENDBRANCH   8   9
ENDBRANCH   7   8
ENDBRANCH   6   7
ENDBRANCH   5   6
ENDBRANCH   4   5
ENDBRANCH   3   4
ENDBRANCH   2   3
ENDBRANCH   1   2
BRANCH   1  17
ATOM     17  C   UNL     1      10.731   3.544  -0.948  1.00  0.00     0.000 C 
BRANCH  17  18
ATOM     18  C   UNL     1       9.994   3.178   0.352  1.00  0.00     0.000 C 
BRANCH  18  19
ATOM     19  C   UNL     1       8.531   3.655   0.368  1.00  0.00     0.000 C 
BRANCH  19  20
ATOM     20  C   UNL     1       7.888   3.842  -1.020  1.00  0.00     0.000 C 
BRANCH  20  21
ATOM     21  C   UNL     1       7.587   5.311  -1.352  1.00  0.00     0.000 C 
BRANCH  21  22
ATOM     22  C   UNL     1       6.314   5.792  -0.640  1.00  0.00    -0.000 C 
BRANCH  22  23
ATOM     23  C   UNL     1       6.405   7.265  -0.192  1.00  0.00    -0.000 C 
BRANCH  23  24
ATOM     24  C   UNL     1       6.127   7.484   1.306  1.00  0.00    -0.000 C 
BRANCH  24  25
ATOM     25  C   UNL     1       6.442   6.250   2.162  1.00  0.00    -0.000 C 
BRANCH  25  26
ATOM     26  C   UNL     1       7.620   6.518   3.107  1.00  0.00    -0.000 C 
BRANCH  26  27
ATOM     27  C   UNL     1       8.203   7.917   2.874  1.00  0.00    -0.000 C 
BRANCH  27  28
ATOM     28  C   UNL     1       9.707   7.844   2.569  1.00  0.00    -0.000 C 
BRANCH  28  29
ATOM     29  C   UNL     1      10.054   6.729   1.572  1.00  0.00    -0.003 C 
ATOM     30  C   UNL     1      10.069   7.215   0.123  1.00  0.00     0.004 C 
ENDBRANCH  28  29
ENDBRANCH  27  28
ENDBRANCH  26  27
ENDBRANCH  25  26
ENDBRANCH  24  25
ENDBRANCH  23  24
ENDBRANCH  22  23
ENDBRANCH  21  22
ENDBRANCH  20  21
ENDBRANCH  19  20
ENDBRANCH  18  19
ENDBRANCH  17  18
ENDBRANCH   1  17
TORSDOF 26
ENDMDL
