MODEL 1
REMARK VINA RESULT:    -6.031      0.000      0.000
REMARK INTER + INTRA:          -6.561
REMARK INTER:                  -6.560
REMARK INTRA:                  -0.001
REMARK UNBOUND:                -0.001
REMARK SMILES C[C@H]1[C@H](C)CC[C@]2(C(=O)[O-])CC[C@]3(C)C(=CC[C@H]4[C@]5(C)CC[C@H](O)C(C)(C)[C@H]5CC[C@]43C)[C@H]12
REMARK SMILES IDX 7 1 6 2 11 3 33 4 5 5 12 6 15 7 2 8 3 9 13 10 16 11 1 12
REMARK SMILES IDX 4 13 14 14 31 15 17 16 18 17 30 18 32 19 19 20 29 21 28 22
REMARK SMILES IDX 21 23 20 24 25 25 22 26 23 27 26 28 27 29 8 30 9 31 10 32
REMARK SMILES IDX 24 33
REMARK H PARENT 24 34
REMARK Flexibility Score: inf
ROOT
ATOM      1  C   UNL     1      49.653  21.469  79.351  1.00  0.00     0.017 C 
ATOM      2  C   UNL     1      51.197  21.415  79.484  1.00  0.00     0.014 C 
ATOM      3  C   UNL     1      49.066  20.052  79.127  1.00  0.00     0.014 C 
ATOM      4  C   UNL     1      49.228  22.395  78.165  1.00  0.00     0.030 C 
ATOM      5  C   UNL     1      51.922  21.145  78.165  1.00  0.00     0.004 C 
ATOM      6  C   UNL     1      47.523  20.057  78.977  1.00  0.00     0.013 C 
ATOM      7  C   UNL     1      47.691  22.331  78.011  1.00  0.00    -0.063 C 
ATOM      8  C   UNL     1      50.023  22.171  76.838  1.00  0.00    -0.003 C 
ATOM      9  C   UNL     1      51.555  22.194  77.103  1.00  0.00    -0.011 C 
ATOM     10  C   UNL     1      46.961  20.980  77.828  1.00  0.00    -0.006 C 
ATOM     11  C   UNL     1      47.035  23.430  78.407  1.00  0.00    -0.027 C 
ATOM     12  C   UNL     1      49.626  23.238  75.794  1.00  0.00     0.008 C 
ATOM     13  C   UNL     1      52.377  21.925  75.829  1.00  0.00     0.008 C 
ATOM     14  C   UNL     1      47.356  20.347  76.451  1.00  0.00     0.017 C 
ATOM     15  C   UNL     1      45.330  21.105  77.880  1.00  0.00    -0.020 C 
ATOM     16  C   UNL     1      45.587  23.499  78.713  1.00  0.00     0.032 C 
ATOM     17  C   UNL     1      44.857  22.141  78.978  1.00  0.00     0.006 C 
ATOM     18  C   UNL     1      44.740  21.610  76.493  1.00  0.00     0.008 C 
ATOM     19  C   UNL     1      44.795  19.655  78.203  1.00  0.00     0.012 C 
ATOM     20  C   UNL     1      43.249  22.353  79.095  1.00  0.00    -0.025 C 
ATOM     21  C   UNL     1      43.380  22.383  76.525  1.00  0.00     0.005 C 
ATOM     22  C   UNL     1      42.535  21.982  77.744  1.00  0.00     0.003 C 
ATOM     23  C   UNL     1      42.626  21.424  80.178  1.00  0.00     0.010 C 
ATOM     24  C   UNL     1      42.950  23.822  79.553  1.00  0.00     0.012 C 
ATOM     25  C   UNL     1      40.966  22.139  77.692  1.00  0.00    -0.006 C 
ATOM     26  C   UNL     1      41.077  21.518  80.249  1.00  0.00     0.033 C 
ATOM     27  C   UNL     1      40.360  21.306  78.888  1.00  0.00     0.120 C 
ATOM     28  C   UNL     1      40.474  23.613  77.729  1.00  0.00     0.014 C 
ATOM     29  C   UNL     1      40.414  21.535  76.364  1.00  0.00     0.014 C 
ENDROOT
BRANCH   1  30
ATOM     30  C   UNL     1      49.137  22.008  80.687  1.00  0.00     0.048 C 
ATOM     31  O   UNL     1      49.252  23.228  80.986  1.00  0.00    -0.550 OA
ATOM     32  O   UNL     1      48.627  21.131  81.642  1.00  0.00    -0.550 OA
ENDBRANCH   1  30
BRANCH  27  33
ATOM     33  O   UNL     1      40.395  19.930  78.585  1.00  0.00    -0.393 OA
ATOM     34  H   UNL     1      39.621  19.508  79.041  1.00  0.00     0.210 HD
ENDBRANCH  27  33
TORSDOF 2
ENDMDL
MODEL 2
REMARK VINA RESULT:    -5.957      2.219      8.215
REMARK INTER + INTRA:          -6.479
REMARK INTER:                  -6.494
REMARK INTRA:                   0.015
REMARK UNBOUND:                -0.001
REMARK SMILES C[C@H]1[C@H](C)CC[C@]2(C(=O)[O-])CC[C@]3(C)C(=CC[C@H]4[C@]5(C)CC[C@H](O)C(C)(C)[C@H]5CC[C@]43C)[C@H]12
REMARK SMILES IDX 7 1 6 2 11 3 33 4 5 5 12 6 15 7 2 8 3 9 13 10 16 11 1 12
REMARK SMILES IDX 4 13 14 14 31 15 17 16 18 17 30 18 32 19 19 20 29 21 28 22
REMARK SMILES IDX 21 23 20 24 25 25 22 26 23 27 26 28 27 29 8 30 9 31 10 32
REMARK SMILES IDX 24 33
REMARK H PARENT 24 34
REMARK Flexibility Score: inf
ROOT
ATOM      1  C   UNL     1      45.469  20.440  78.129  1.00  0.00     0.017 C 
ATOM      2  C   UNL     1      44.063  19.887  78.479  1.00  0.00     0.014 C 
ATOM      3  C   UNL     1      46.047  21.268  79.306  1.00  0.00     0.014 C 
ATOM      4  C   UNL     1      45.412  21.337  76.850  1.00  0.00     0.030 C 
ATOM      5  C   UNL     1      42.965  20.950  78.486  1.00  0.00     0.004 C 
ATOM      6  C   UNL     1      47.449  21.852  78.998  1.00  0.00     0.013 C 
ATOM      7  C   UNL     1      46.812  21.945  76.606  1.00  0.00    -0.063 C 
ATOM      8  C   UNL     1      44.241  22.372  76.823  1.00  0.00    -0.003 C 
ATOM      9  C   UNL     1      42.885  21.677  77.135  1.00  0.00    -0.011 C 
ATOM     10  C   UNL     1      47.534  22.756  77.708  1.00  0.00    -0.006 C 
ATOM     11  C   UNL     1      47.483  21.428  75.569  1.00  0.00    -0.027 C 
ATOM     12  C   UNL     1      44.196  23.086  75.454  1.00  0.00     0.008 C 
ATOM     13  C   UNL     1      41.710  22.671  77.170  1.00  0.00     0.008 C 
ATOM     14  C   UNL     1      46.752  24.084  77.986  1.00  0.00     0.017 C 
ATOM     15  C   UNL     1      49.078  23.146  77.329  1.00  0.00    -0.020 C 
ATOM     16  C   UNL     1      48.942  21.553  75.345  1.00  0.00     0.032 C 
ATOM     17  C   UNL     1      49.812  21.962  76.578  1.00  0.00     0.006 C 
ATOM     18  C   UNL     1      49.139  24.406  76.362  1.00  0.00     0.008 C 
ATOM     19  C   UNL     1      49.790  23.476  78.698  1.00  0.00     0.012 C 
ATOM     20  C   UNL     1      51.350  22.259  76.139  1.00  0.00    -0.025 C 
ATOM     21  C   UNL     1      50.376  24.527  75.411  1.00  0.00     0.005 C 
ATOM     22  C   UNL     1      51.602  23.804  75.989  1.00  0.00     0.003 C 
ATOM     23  C   UNL     1      52.359  21.763  77.216  1.00  0.00     0.010 C 
ATOM     24  C   UNL     1      51.679  21.463  74.830  1.00  0.00     0.012 C 
ATOM     25  C   UNL     1      53.051  24.259  75.560  1.00  0.00    -0.006 C 
ATOM     26  C   UNL     1      53.834  22.122  76.885  1.00  0.00     0.033 C 
ATOM     27  C   UNL     1      54.074  23.625  76.582  1.00  0.00     0.120 C 
ATOM     28  C   UNL     1      53.422  23.897  74.095  1.00  0.00     0.014 C 
ATOM     29  C   UNL     1      53.174  25.811  75.665  1.00  0.00     0.014 C 
ENDROOT
BRANCH   1  30
ATOM     30  C   UNL     1      46.358  19.214  77.909  1.00  0.00     0.048 C 
ATOM     31  O   UNL     1      46.221  18.485  76.889  1.00  0.00    -0.550 OA
ATOM     32  O   UNL     1      47.264  18.824  78.892  1.00  0.00    -0.550 OA
ENDBRANCH   1  30
BRANCH  27  33
ATOM     33  O   UNL     1      54.038  24.329  77.802  1.00  0.00    -0.393 OA
ATOM     34  H   UNL     1      53.649  23.720  78.482  1.00  0.00     0.210 HD
ENDBRANCH  27  33
TORSDOF 2
ENDMDL
MODEL 3
REMARK VINA RESULT:    -5.941     12.390     14.312
REMARK INTER + INTRA:          -6.463
REMARK INTER:                  -6.531
REMARK INTRA:                   0.068
REMARK UNBOUND:                -0.001
REMARK SMILES C[C@H]1[C@H](C)CC[C@]2(C(=O)[O-])CC[C@]3(C)C(=CC[C@H]4[C@]5(C)CC[C@H](O)C(C)(C)[C@H]5CC[C@]43C)[C@H]12
REMARK SMILES IDX 7 1 6 2 11 3 33 4 5 5 12 6 15 7 2 8 3 9 13 10 16 11 1 12
REMARK SMILES IDX 4 13 14 14 31 15 17 16 18 17 30 18 32 19 19 20 29 21 28 22
REMARK SMILES IDX 21 23 20 24 25 25 22 26 23 27 26 28 27 29 8 30 9 31 10 32
REMARK SMILES IDX 24 33
REMARK H PARENT 24 34
REMARK Flexibility Score: inf
ROOT
ATOM      1  C   UNL     1      50.866  33.739  86.811  1.00  0.00     0.017 C 
ATOM      2  C   UNL     1      51.861  34.642  86.037  1.00  0.00     0.014 C 
ATOM      3  C   UNL     1      51.448  33.327  88.188  1.00  0.00     0.014 C 
ATOM      4  C   UNL     1      50.529  32.452  85.991  1.00  0.00     0.030 C 
ATOM      5  C   UNL     1      53.074  33.894  85.484  1.00  0.00     0.004 C 
ATOM      6  C   UNL     1      50.493  32.412  88.995  1.00  0.00     0.013 C 
ATOM      7  C   UNL     1      49.621  31.540  86.848  1.00  0.00    -0.063 C 
ATOM      8  C   UNL     1      51.764  31.729  85.360  1.00  0.00    -0.003 C 
ATOM      9  C   UNL     1      52.645  32.737  84.569  1.00  0.00    -0.011 C 
ATOM     10  C   UNL     1      50.050  31.087  88.263  1.00  0.00    -0.006 C 
ATOM     11  C   UNL     1      48.341  31.484  86.456  1.00  0.00    -0.027 C 
ATOM     12  C   UNL     1      51.295  30.571  84.453  1.00  0.00     0.008 C 
ATOM     13  C   UNL     1      53.902  32.076  83.974  1.00  0.00     0.008 C 
ATOM     14  C   UNL     1      51.294  30.141  88.162  1.00  0.00     0.017 C 
ATOM     15  C   UNL     1      48.875  30.294  89.081  1.00  0.00    -0.020 C 
ATOM     16  C   UNL     1      47.212  31.005  87.287  1.00  0.00     0.032 C 
ATOM     17  C   UNL     1      47.451  30.938  88.831  1.00  0.00     0.006 C 
ATOM     18  C   UNL     1      48.773  28.774  88.626  1.00  0.00     0.008 C 
ATOM     19  C   UNL     1      49.275  30.380  90.606  1.00  0.00     0.012 C 
ATOM     20  C   UNL     1      46.210  30.207  89.586  1.00  0.00    -0.025 C 
ATOM     21  C   UNL     1      47.387  28.065  88.779  1.00  0.00     0.005 C 
ATOM     22  C   UNL     1      46.550  28.704  89.899  1.00  0.00     0.003 C 
ATOM     23  C   UNL     1      45.903  30.872  90.960  1.00  0.00     0.010 C 
ATOM     24  C   UNL     1      44.911  30.365  88.723  1.00  0.00     0.012 C 
ATOM     25  C   UNL     1      45.441  27.851  90.628  1.00  0.00    -0.006 C 
ATOM     26  C   UNL     1      44.794  30.138  91.762  1.00  0.00     0.033 C 
ATOM     27  C   UNL     1      45.039  28.617  91.949  1.00  0.00     0.120 C 
ATOM     28  C   UNL     1      44.193  27.550  89.751  1.00  0.00     0.014 C 
ATOM     29  C   UNL     1      46.023  26.463  91.041  1.00  0.00     0.014 C 
ENDROOT
BRANCH   1  30
ATOM     30  C   UNL     1      49.619  34.593  87.042  1.00  0.00     0.048 C 
ATOM     31  O   UNL     1      48.679  34.614  86.201  1.00  0.00    -0.550 OA
ATOM     32  O   UNL     1      49.552  35.447  88.140  1.00  0.00    -0.550 OA
ENDBRANCH   1  30
BRANCH  27  33
ATOM     33  O   UNL     1      46.039  28.452  92.928  1.00  0.00    -0.393 OA
ATOM     34  H   UNL     1      45.771  28.989  93.717  1.00  0.00     0.210 HD
ENDBRANCH  27  33
TORSDOF 2
ENDMDL
MODEL 4
REMARK VINA RESULT:    -5.928     11.964     14.095
REMARK INTER + INTRA:          -6.448
REMARK INTER:                  -6.446
REMARK INTRA:                  -0.002
REMARK UNBOUND:                -0.001
REMARK SMILES C[C@H]1[C@H](C)CC[C@]2(C(=O)[O-])CC[C@]3(C)C(=CC[C@H]4[C@]5(C)CC[C@H](O)C(C)(C)[C@H]5CC[C@]43C)[C@H]12
REMARK SMILES IDX 7 1 6 2 11 3 33 4 5 5 12 6 15 7 2 8 3 9 13 10 16 11 1 12
REMARK SMILES IDX 4 13 14 14 31 15 17 16 18 17 30 18 32 19 19 20 29 21 28 22
REMARK SMILES IDX 21 23 20 24 25 25 22 26 23 27 26 28 27 29 8 30 9 31 10 32
REMARK SMILES IDX 24 33
REMARK H PARENT 24 34
REMARK Flexibility Score: inf
ROOT
ATOM      1  C   UNL     1      50.215  33.506  82.276  1.00  0.00     0.017 C 
ATOM      2  C   UNL     1      50.713  34.107  80.936  1.00  0.00     0.014 C 
ATOM      3  C   UNL     1      49.642  34.610  83.200  1.00  0.00     0.014 C 
ATOM      4  C   UNL     1      51.374  32.765  83.019  1.00  0.00     0.030 C 
ATOM      5  C   UNL     1      52.011  34.905  81.061  1.00  0.00     0.004 C 
ATOM      6  C   UNL     1      49.141  34.058  84.559  1.00  0.00     0.013 C 
ATOM      7  C   UNL     1      50.854  32.277  84.390  1.00  0.00    -0.063 C 
ATOM      8  C   UNL     1      52.725  33.549  83.079  1.00  0.00    -0.003 C 
ATOM      9  C   UNL     1      53.135  34.048  81.664  1.00  0.00    -0.011 C 
ATOM     10  C   UNL     1      50.213  33.260  85.398  1.00  0.00    -0.006 C 
ATOM     11  C   UNL     1      50.660  30.955  84.487  1.00  0.00    -0.027 C 
ATOM     12  C   UNL     1      53.828  32.660  83.694  1.00  0.00     0.008 C 
ATOM     13  C   UNL     1      54.436  34.871  81.685  1.00  0.00     0.008 C 
ATOM     14  C   UNL     1      51.292  34.274  85.909  1.00  0.00     0.017 C 
ATOM     15  C   UNL     1      49.551  32.523  86.701  1.00  0.00    -0.020 C 
ATOM     16  C   UNL     1      49.840  30.283  85.521  1.00  0.00     0.032 C 
ATOM     17  C   UNL     1      48.822  31.176  86.303  1.00  0.00     0.006 C 
ATOM     18  C   UNL     1      50.656  32.142  87.777  1.00  0.00     0.008 C 
ATOM     19  C   UNL     1      48.530  33.560  87.313  1.00  0.00     0.012 C 
ATOM     20  C   UNL     1      48.148  30.355  87.535  1.00  0.00    -0.025 C 
ATOM     21  C   UNL     1      50.361  30.926  88.718  1.00  0.00     0.005 C 
ATOM     22  C   UNL     1      48.850  30.710  88.897  1.00  0.00     0.003 C 
ATOM     23  C   UNL     1      46.647  30.727  87.717  1.00  0.00     0.010 C 
ATOM     24  C   UNL     1      48.183  28.821  87.218  1.00  0.00     0.012 C 
ATOM     25  C   UNL     1      48.313  29.989  90.193  1.00  0.00    -0.006 C 
ATOM     26  C   UNL     1      45.992  30.045  88.949  1.00  0.00     0.033 C 
ATOM     27  C   UNL     1      46.759  30.257  90.282  1.00  0.00     0.120 C 
ATOM     28  C   UNL     1      48.623  28.467  90.248  1.00  0.00     0.014 C 
ATOM     29  C   UNL     1      48.976  30.610  91.461  1.00  0.00     0.014 C 
ENDROOT
BRANCH   1  30
ATOM     30  C   UNL     1      49.086  32.541  81.907  1.00  0.00     0.048 C 
ATOM     31  O   UNL     1      49.334  31.400  81.430  1.00  0.00    -0.550 OA
ATOM     32  O   UNL     1      47.759  32.955  81.995  1.00  0.00    -0.550 OA
ENDBRANCH   1  30
BRANCH  27  33
ATOM     33  O   UNL     1      46.520  31.576  90.719  1.00  0.00    -0.393 OA
ATOM     34  H   UNL     1      46.559  32.163  89.920  1.00  0.00     0.210 HD
ENDBRANCH  27  33
TORSDOF 2
ENDMDL
MODEL 5
REMARK VINA RESULT:    -5.920     12.511     15.439
REMARK INTER + INTRA:          -6.439
REMARK INTER:                  -6.529
REMARK INTRA:                   0.089
REMARK UNBOUND:                -0.001
REMARK SMILES C[C@H]1[C@H](C)CC[C@]2(C(=O)[O-])CC[C@]3(C)C(=CC[C@H]4[C@]5(C)CC[C@H](O)C(C)(C)[C@H]5CC[C@]43C)[C@H]12
REMARK SMILES IDX 7 1 6 2 11 3 33 4 5 5 12 6 15 7 2 8 3 9 13 10 16 11 1 12
REMARK SMILES IDX 4 13 14 14 31 15 17 16 18 17 30 18 32 19 19 20 29 21 28 22
REMARK SMILES IDX 21 23 20 24 25 25 22 26 23 27 26 28 27 29 8 30 9 31 10 32
REMARK SMILES IDX 24 33
REMARK H PARENT 24 34
REMARK Flexibility Score: inf
ROOT
ATOM      1  C   UNL     1      48.825  33.045  87.127  1.00  0.00     0.017 C 
ATOM      2  C   UNL     1      47.874  32.938  88.347  1.00  0.00     0.014 C 
ATOM      3  C   UNL     1      48.298  32.202  85.938  1.00  0.00     0.014 C 
ATOM      4  C   UNL     1      50.265  32.563  87.500  1.00  0.00     0.030 C 
ATOM      5  C   UNL     1      47.936  31.589  89.063  1.00  0.00     0.004 C 
ATOM      6  C   UNL     1      49.224  32.268  84.697  1.00  0.00     0.013 C 
ATOM      7  C   UNL     1      51.143  32.590  86.228  1.00  0.00    -0.063 C 
ATOM      8  C   UNL     1      50.324  31.221  88.300  1.00  0.00    -0.003 C 
ATOM      9  C   UNL     1      49.366  31.269  89.525  1.00  0.00    -0.011 C 
ATOM     10  C   UNL     1      50.720  31.834  84.947  1.00  0.00    -0.006 C 
ATOM     11  C   UNL     1      52.055  33.571  86.189  1.00  0.00    -0.027 C 
ATOM     12  C   UNL     1      51.775  30.931  88.743  1.00  0.00     0.008 C 
ATOM     13  C   UNL     1      49.355  29.946  90.313  1.00  0.00     0.008 C 
ATOM     14  C   UNL     1      50.745  30.290  85.211  1.00  0.00     0.017 C 
ATOM     15  C   UNL     1      51.676  32.145  83.657  1.00  0.00    -0.020 C 
ATOM     16  C   UNL     1      52.749  34.046  84.969  1.00  0.00     0.032 C 
ATOM     17  C   UNL     1      52.102  33.667  83.597  1.00  0.00     0.006 C 
ATOM     18  C   UNL     1      53.020  31.298  83.711  1.00  0.00     0.008 C 
ATOM     19  C   UNL     1      50.832  31.743  82.385  1.00  0.00     0.012 C 
ATOM     20  C   UNL     1      53.074  34.075  82.358  1.00  0.00    -0.025 C 
ATOM     21  C   UNL     1      54.277  31.889  82.990  1.00  0.00     0.005 C 
ATOM     22  C   UNL     1      53.875  32.825  81.839  1.00  0.00     0.003 C 
ATOM     23  C   UNL     1      52.259  34.597  81.139  1.00  0.00     0.010 C 
ATOM     24  C   UNL     1      54.009  35.253  82.797  1.00  0.00     0.012 C 
ATOM     25  C   UNL     1      54.871  33.056  80.637  1.00  0.00    -0.006 C 
ATOM     26  C   UNL     1      53.140  34.898  79.896  1.00  0.00     0.033 C 
ATOM     27  C   UNL     1      54.055  33.722  79.461  1.00  0.00     0.120 C 
ATOM     28  C   UNL     1      56.121  33.904  81.003  1.00  0.00     0.014 C 
ATOM     29  C   UNL     1      55.414  31.687  80.125  1.00  0.00     0.014 C 
ENDROOT
BRANCH   1  30
ATOM     30  C   UNL     1      48.821  34.520  86.722  1.00  0.00     0.048 C 
ATOM     31  O   UNL     1      48.260  34.902  85.659  1.00  0.00    -0.550 OA
ATOM     32  O   UNL     1      49.535  35.451  87.473  1.00  0.00    -0.550 OA
ENDBRANCH   1  30
BRANCH  27  33
ATOM     33  O   UNL     1      53.252  32.755  78.822  1.00  0.00    -0.393 OA
ATOM     34  H   UNL     1      53.569  32.681  77.884  1.00  0.00     0.210 HD
ENDBRANCH  27  33
TORSDOF 2
ENDMDL
MODEL 6
REMARK VINA RESULT:    -5.832     12.357     15.260
REMARK INTER + INTRA:          -6.344
REMARK INTER:                  -6.345
REMARK INTRA:                   0.002
REMARK UNBOUND:                -0.001
REMARK SMILES C[C@H]1[C@H](C)CC[C@]2(C(=O)[O-])CC[C@]3(C)C(=CC[C@H]4[C@]5(C)CC[C@H](O)C(C)(C)[C@H]5CC[C@]43C)[C@H]12
REMARK SMILES IDX 7 1 6 2 11 3 33 4 5 5 12 6 15 7 2 8 3 9 13 10 16 11 1 12
REMARK SMILES IDX 4 13 14 14 31 15 17 16 18 17 30 18 32 19 19 20 29 21 28 22
REMARK SMILES IDX 21 23 20 24 25 25 22 26 23 27 26 28 27 29 8 30 9 31 10 32
REMARK SMILES IDX 24 33
REMARK H PARENT 24 34
REMARK Flexibility Score: inf
ROOT
ATOM      1  C   UNL     1      49.832  33.222  83.129  1.00  0.00     0.017 C 
ATOM      2  C   UNL     1      49.606  33.714  81.676  1.00  0.00     0.014 C 
ATOM      3  C   UNL     1      49.694  34.392  84.138  1.00  0.00     0.014 C 
ATOM      4  C   UNL     1      51.247  32.575  83.285  1.00  0.00     0.030 C 
ATOM      5  C   UNL     1      50.761  34.547  81.119  1.00  0.00     0.004 C 
ATOM      6  C   UNL     1      49.922  33.951  85.605  1.00  0.00     0.013 C 
ATOM      7  C   UNL     1      51.460  32.199  84.769  1.00  0.00    -0.063 C 
ATOM      8  C   UNL     1      52.418  33.390  82.647  1.00  0.00    -0.003 C 
ATOM      9  C   UNL     1      52.086  33.771  81.176  1.00  0.00    -0.011 C 
ATOM     10  C   UNL     1      51.308  33.253  85.891  1.00  0.00    -0.006 C 
ATOM     11  C   UNL     1      51.414  30.887  85.035  1.00  0.00    -0.027 C 
ATOM     12  C   UNL     1      53.732  32.583  82.727  1.00  0.00     0.008 C 
ATOM     13  C   UNL     1      53.192  34.620  80.525  1.00  0.00     0.008 C 
ATOM     14  C   UNL     1      52.437  34.330  85.762  1.00  0.00     0.017 C 
ATOM     15  C   UNL     1      51.380  32.620  87.398  1.00  0.00    -0.020 C 
ATOM     16  C   UNL     1      51.217  30.292  86.377  1.00  0.00     0.032 C 
ATOM     17  C   UNL     1      50.633  31.228  87.485  1.00  0.00     0.006 C 
ATOM     18  C   UNL     1      52.882  32.359  87.849  1.00  0.00     0.008 C 
ATOM     19  C   UNL     1      50.705  33.685  88.348  1.00  0.00     0.012 C 
ATOM     20  C   UNL     1      50.665  30.505  88.941  1.00  0.00    -0.025 C 
ATOM     21  C   UNL     1      53.135  31.225  88.898  1.00  0.00     0.005 C 
ATOM     22  C   UNL     1      51.900  30.993  89.783  1.00  0.00     0.003 C 
ATOM     23  C   UNL     1      49.405  30.859  89.785  1.00  0.00     0.010 C 
ATOM     24  C   UNL     1      50.641  28.949  88.750  1.00  0.00     0.012 C 
ATOM     25  C   UNL     1      52.078  30.378  91.225  1.00  0.00    -0.006 C 
ATOM     26  C   UNL     1      49.446  30.274  91.223  1.00  0.00     0.033 C 
ATOM     27  C   UNL     1      50.735  30.620  92.018  1.00  0.00     0.120 C 
ATOM     28  C   UNL     1      52.470  28.873  91.229  1.00  0.00     0.014 C 
ATOM     29  C   UNL     1      53.220  31.122  91.984  1.00  0.00     0.014 C 
ENDROOT
BRANCH   1  30
ATOM     30  C   UNL     1      48.723  32.205  83.404  1.00  0.00     0.048 C 
ATOM     31  O   UNL     1      48.780  31.036  82.934  1.00  0.00    -0.550 OA
ATOM     32  O   UNL     1      47.575  32.593  84.091  1.00  0.00    -0.550 OA
ENDBRANCH   1  30
BRANCH  27  33
ATOM     33  O   UNL     1      50.650  31.966  92.426  1.00  0.00    -0.393 OA
ATOM     34  H   UNL     1      51.453  32.160  92.975  1.00  0.00     0.210 HD
ENDBRANCH  27  33
TORSDOF 2
ENDMDL
MODEL 7
REMARK VINA RESULT:    -5.783     11.833     13.782
REMARK INTER + INTRA:          -6.291
REMARK INTER:                  -6.288
REMARK INTRA:                  -0.003
REMARK UNBOUND:                -0.001
REMARK SMILES C[C@H]1[C@H](C)CC[C@]2(C(=O)[O-])CC[C@]3(C)C(=CC[C@H]4[C@]5(C)CC[C@H](O)C(C)(C)[C@H]5CC[C@]43C)[C@H]12
REMARK SMILES IDX 7 1 6 2 11 3 33 4 5 5 12 6 15 7 2 8 3 9 13 10 16 11 1 12
REMARK SMILES IDX 4 13 14 14 31 15 17 16 18 17 30 18 32 19 19 20 29 21 28 22
REMARK SMILES IDX 21 23 20 24 25 25 22 26 23 27 26 28 27 29 8 30 9 31 10 32
REMARK SMILES IDX 24 33
REMARK H PARENT 24 34
REMARK Flexibility Score: inf
ROOT
ATOM      1  C   UNL     1      51.292  33.043  85.558  1.00  0.00     0.017 C 
ATOM      2  C   UNL     1      52.190  33.887  84.616  1.00  0.00     0.014 C 
ATOM      3  C   UNL     1      51.527  31.527  85.336  1.00  0.00     0.014 C 
ATOM      4  C   UNL     1      49.781  33.368  85.324  1.00  0.00     0.030 C 
ATOM      5  C   UNL     1      51.745  33.865  83.154  1.00  0.00     0.004 C 
ATOM      6  C   UNL     1      50.641  30.641  86.248  1.00  0.00     0.013 C 
ATOM      7  C   UNL     1      48.928  32.429  86.208  1.00  0.00    -0.063 C 
ATOM      8  C   UNL     1      49.343  33.421  83.824  1.00  0.00    -0.003 C 
ATOM      9  C   UNL     1      50.292  34.343  83.007  1.00  0.00    -0.011 C 
ATOM     10  C   UNL     1      49.088  30.893  86.130  1.00  0.00    -0.006 C 
ATOM     11  C   UNL     1      48.345  33.016  87.262  1.00  0.00    -0.027 C 
ATOM     12  C   UNL     1      47.878  33.900  83.716  1.00  0.00     0.008 C 
ATOM     13  C   UNL     1      49.927  34.383  81.511  1.00  0.00     0.008 C 
ATOM     14  C   UNL     1      48.613  30.382  84.727  1.00  0.00     0.017 C 
ATOM     15  C   UNL     1      48.244  30.087  87.277  1.00  0.00    -0.020 C 
ATOM     16  C   UNL     1      47.801  32.307  88.444  1.00  0.00     0.032 C 
ATOM     17  C   UNL     1      48.285  30.837  88.669  1.00  0.00     0.006 C 
ATOM     18  C   UNL     1      46.712  29.946  86.880  1.00  0.00     0.008 C 
ATOM     19  C   UNL     1      48.911  28.660  87.383  1.00  0.00     0.012 C 
ATOM     20  C   UNL     1      47.455  30.125  89.873  1.00  0.00    -0.025 C 
ATOM     21  C   UNL     1      45.673  29.815  88.043  1.00  0.00     0.005 C 
ATOM     22  C   UNL     1      46.313  29.208  89.302  1.00  0.00     0.003 C 
ATOM     23  C   UNL     1      48.368  29.193  90.723  1.00  0.00     0.010 C 
ATOM     24  C   UNL     1      46.916  31.223  90.853  1.00  0.00     0.012 C 
ATOM     25  C   UNL     1      45.409  28.447  90.347  1.00  0.00    -0.006 C 
ATOM     26  C   UNL     1      47.593  28.411  91.819  1.00  0.00     0.033 C 
ATOM     27  C   UNL     1      46.365  27.620  91.294  1.00  0.00     0.120 C 
ATOM     28  C   UNL     1      44.470  29.374  91.169  1.00  0.00     0.014 C 
ATOM     29  C   UNL     1      44.478  27.436  89.609  1.00  0.00     0.014 C 
ENDROOT
BRANCH   1  30
ATOM     30  C   UNL     1      51.724  33.403  86.980  1.00  0.00     0.048 C 
ATOM     31  O   UNL     1      51.364  34.487  87.516  1.00  0.00    -0.550 OA
ATOM     32  O   UNL     1      52.613  32.581  87.668  1.00  0.00    -0.550 OA
ENDBRANCH   1  30
BRANCH  27  33
ATOM     33  O   UNL     1      46.836  26.474  90.623  1.00  0.00    -0.393 OA
ATOM     34  H   UNL     1      46.561  25.684  91.158  1.00  0.00     0.210 HD
ENDBRANCH  27  33
TORSDOF 2
ENDMDL
MODEL 8
REMARK VINA RESULT:    -5.745     12.383     15.264
REMARK INTER + INTRA:          -6.249
REMARK INTER:                  -6.250
REMARK INTRA:                   0.001
REMARK UNBOUND:                -0.001
REMARK SMILES C[C@H]1[C@H](C)CC[C@]2(C(=O)[O-])CC[C@]3(C)C(=CC[C@H]4[C@]5(C)CC[C@H](O)C(C)(C)[C@H]5CC[C@]43C)[C@H]12
REMARK SMILES IDX 7 1 6 2 11 3 33 4 5 5 12 6 15 7 2 8 3 9 13 10 16 11 1 12
REMARK SMILES IDX 4 13 14 14 31 15 17 16 18 17 30 18 32 19 19 20 29 21 28 22
REMARK SMILES IDX 21 23 20 24 25 25 22 26 23 27 26 28 27 29 8 30 9 31 10 32
REMARK SMILES IDX 24 33
REMARK H PARENT 24 34
REMARK Flexibility Score: inf
ROOT
ATOM      1  C   UNL     1      45.692  29.420  90.845  1.00  0.00     0.017 C 
ATOM      2  C   UNL     1      44.872  28.664  91.923  1.00  0.00     0.014 C 
ATOM      3  C   UNL     1      45.374  28.880  89.427  1.00  0.00     0.014 C 
ATOM      4  C   UNL     1      47.226  29.281  91.115  1.00  0.00     0.030 C 
ATOM      5  C   UNL     1      45.354  27.237  92.180  1.00  0.00     0.004 C 
ATOM      6  C   UNL     1      46.180  29.598  88.316  1.00  0.00     0.013 C 
ATOM      7  C   UNL     1      47.997  29.960  89.960  1.00  0.00    -0.063 C 
ATOM      8  C   UNL     1      47.708  27.833  91.454  1.00  0.00    -0.003 C 
ATOM      9  C   UNL     1      46.837  27.214  92.584  1.00  0.00    -0.011 C 
ATOM     10  C   UNL     1      47.748  29.558  88.487  1.00  0.00    -0.006 C 
ATOM     11  C   UNL     1      48.585  31.122  90.275  1.00  0.00    -0.027 C 
ATOM     12  C   UNL     1      49.200  27.850  91.850  1.00  0.00     0.008 C 
ATOM     13  C   UNL     1      47.244  25.767  92.914  1.00  0.00     0.008 C 
ATOM     14  C   UNL     1      48.231  28.086  88.252  1.00  0.00     0.017 C 
ATOM     15  C   UNL     1      48.512  30.521  87.407  1.00  0.00    -0.020 C 
ATOM     16  C   UNL     1      49.053  32.136  89.302  1.00  0.00     0.032 C 
ATOM     17  C   UNL     1      48.477  32.040  87.851  1.00  0.00     0.006 C 
ATOM     18  C   UNL     1      50.044  30.126  87.255  1.00  0.00     0.008 C 
ATOM     19  C   UNL     1      47.759  30.315  86.035  1.00  0.00     0.012 C 
ATOM     20  C   UNL     1      49.230  33.078  86.851  1.00  0.00    -0.025 C 
ATOM     21  C   UNL     1      51.041  31.250  86.818  1.00  0.00     0.005 C 
ATOM     22  C   UNL     1      50.331  32.343  86.003  1.00  0.00     0.003 C 
ATOM     23  C   UNL     1      48.241  33.700  85.821  1.00  0.00     0.010 C 
ATOM     24  C   UNL     1      49.806  34.275  87.682  1.00  0.00     0.012 C 
ATOM     25  C   UNL     1      51.159  33.218  84.984  1.00  0.00    -0.006 C 
ATOM     26  C   UNL     1      48.937  34.617  84.779  1.00  0.00     0.033 C 
ATOM     27  C   UNL     1      50.131  33.955  84.039  1.00  0.00     0.120 C 
ATOM     28  C   UNL     1      52.128  34.230  85.657  1.00  0.00     0.014 C 
ATOM     29  C   UNL     1      52.049  32.297  84.093  1.00  0.00     0.014 C 
ENDROOT
BRANCH   1  30
ATOM     30  C   UNL     1      45.244  30.880  90.926  1.00  0.00     0.048 C 
ATOM     31  O   UNL     1      45.626  31.628  91.867  1.00  0.00    -0.550 OA
ATOM     32  O   UNL     1      44.315  31.376  90.014  1.00  0.00    -0.550 OA
ENDBRANCH   1  30
BRANCH  27  33
ATOM     33  O   UNL     1      49.611  33.051  83.092  1.00  0.00    -0.393 OA
ATOM     34  H   UNL     1      49.082  33.580  82.439  1.00  0.00     0.210 HD
ENDBRANCH  27  33
TORSDOF 2
ENDMDL
MODEL 9
REMARK VINA RESULT:    -5.673     12.050     15.350
REMARK INTER + INTRA:          -6.171
REMARK INTER:                  -6.171
REMARK INTRA:                   0.000
REMARK UNBOUND:                -0.001
REMARK SMILES C[C@H]1[C@H](C)CC[C@]2(C(=O)[O-])CC[C@]3(C)C(=CC[C@H]4[C@]5(C)CC[C@H](O)C(C)(C)[C@H]5CC[C@]43C)[C@H]12
REMARK SMILES IDX 7 1 6 2 11 3 33 4 5 5 12 6 15 7 2 8 3 9 13 10 16 11 1 12
REMARK SMILES IDX 4 13 14 14 31 15 17 16 18 17 30 18 32 19 19 20 29 21 28 22
REMARK SMILES IDX 21 23 20 24 25 25 22 26 23 27 26 28 27 29 8 30 9 31 10 32
REMARK SMILES IDX 24 33
REMARK H PARENT 24 34
REMARK Flexibility Score: inf
ROOT
ATOM      1  C   UNL     1      46.320  28.012  90.334  1.00  0.00     0.017 C 
ATOM      2  C   UNL     1      45.352  27.220  91.252  1.00  0.00     0.014 C 
ATOM      3  C   UNL     1      47.729  28.113  90.972  1.00  0.00     0.014 C 
ATOM      4  C   UNL     1      45.775  29.452  90.062  1.00  0.00     0.030 C 
ATOM      5  C   UNL     1      44.913  27.989  92.498  1.00  0.00     0.004 C 
ATOM      6  C   UNL     1      48.730  28.907  90.095  1.00  0.00     0.013 C 
ATOM      7  C   UNL     1      46.822  30.230  89.233  1.00  0.00    -0.063 C 
ATOM      8  C   UNL     1      45.254  30.209  91.326  1.00  0.00    -0.003 C 
ATOM      9  C   UNL     1      44.253  29.325  92.123  1.00  0.00    -0.011 C 
ATOM     10  C   UNL     1      48.283  30.373  89.722  1.00  0.00    -0.006 C 
ATOM     11  C   UNL     1      46.493  30.437  87.951  1.00  0.00    -0.027 C 
ATOM     12  C   UNL     1      44.603  31.547  90.912  1.00  0.00     0.008 C 
ATOM     13  C   UNL     1      43.754  30.014  93.406  1.00  0.00     0.008 C 
ATOM     14  C   UNL     1      48.323  31.246  91.022  1.00  0.00     0.017 C 
ATOM     15  C   UNL     1      49.278  31.059  88.618  1.00  0.00    -0.020 C 
ATOM     16  C   UNL     1      47.439  30.809  86.874  1.00  0.00     0.032 C 
ATOM     17  C   UNL     1      48.958  30.561  87.151  1.00  0.00     0.006 C 
ATOM     18  C   UNL     1      49.129  32.641  88.604  1.00  0.00     0.008 C 
ATOM     19  C   UNL     1      50.743  30.655  89.046  1.00  0.00     0.012 C 
ATOM     20  C   UNL     1      49.881  31.202  85.976  1.00  0.00    -0.025 C 
ATOM     21  C   UNL     1      49.464  33.387  87.270  1.00  0.00     0.005 C 
ATOM     22  C   UNL     1      50.467  32.593  86.419  1.00  0.00     0.003 C 
ATOM     23  C   UNL     1      51.111  30.301  85.659  1.00  0.00     0.010 C 
ATOM     24  C   UNL     1      49.050  31.291  84.651  1.00  0.00     0.012 C 
ATOM     25  C   UNL     1      51.385  33.351  85.384  1.00  0.00    -0.006 C 
ATOM     26  C   UNL     1      52.077  30.928  84.617  1.00  0.00     0.033 C 
ATOM     27  C   UNL     1      52.546  32.367  84.963  1.00  0.00     0.120 C 
ATOM     28  C   UNL     1      50.626  33.889  84.138  1.00  0.00     0.014 C 
ATOM     29  C   UNL     1      52.037  34.595  86.062  1.00  0.00     0.014 C 
ENDROOT
BRANCH   1  30
ATOM     30  C   UNL     1      46.424  27.203  89.040  1.00  0.00     0.048 C 
ATOM     31  O   UNL     1      45.492  27.211  88.190  1.00  0.00    -0.550 OA
ATOM     32  O   UNL     1      47.511  26.358  88.832  1.00  0.00    -0.550 OA
ENDBRANCH   1  30
BRANCH  27  33
ATOM     33  O   UNL     1      53.503  32.280  85.993  1.00  0.00    -0.393 OA
ATOM     34  H   UNL     1      54.305  31.835  85.614  1.00  0.00     0.210 HD
ENDBRANCH  27  33
TORSDOF 2
ENDMDL
