MODEL 1
REMARK VINA RESULT:    -4.207      0.000      0.000
REMARK INTER + INTRA:         -11.021
REMARK INTER:                  -8.142
REMARK INTRA:                  -2.880
REMARK UNBOUND:                -2.880
REMARK SMILES CCCCCCCCCCCCCCCCCC(=O)[O-]
REMARK SMILES IDX 10 1 11 2 12 3 13 4 14 5 15 6 16 7 17 8 18 9 19 10 20 11
REMARK SMILES IDX 9 12 8 13 7 14 6 15 5 16 4 17 3 18 2 19 1 20
REMARK H PARENT
REMARK Flexibility Score: inf
ROOT
ATOM      1  C   UNL     1       7.522 -16.474  21.406  1.00  0.00     0.000 C 
ENDROOT
BRANCH   1   2
ATOM      2  C   UNL     1       7.059 -16.067  22.810  1.00  0.00     0.000 C 
BRANCH   2   3
ATOM      3  C   UNL     1       7.969 -14.978  23.398  1.00  0.00     0.000 C 
BRANCH   3   4
ATOM      4  C   UNL     1       8.794 -15.492  24.596  1.00  0.00     0.000 C 
BRANCH   4   5
ATOM      5  C   UNL     1       8.177 -16.718  25.291  1.00  0.00     0.000 C 
BRANCH   5   6
ATOM      6  C   UNL     1       9.214 -17.568  26.037  1.00  0.00     0.000 C 
BRANCH   6   7
ATOM      7  C   UNL     1      10.634 -17.034  25.803  1.00  0.00     0.006 C 
BRANCH   7   8
ATOM      8  C   UNL     1      11.534 -18.062  25.102  1.00  0.00     0.053 C 
BRANCH   8   9
ATOM      9  C   UNL     1      12.266 -17.460  23.943  1.00  0.00     0.041 C 
ATOM     10  O   UNL     1      12.992 -18.181  23.208  1.00  0.00    -0.550 OA
ATOM     11  O   UNL     1      12.121 -16.109  23.655  1.00  0.00    -0.550 OA
ENDBRANCH   8   9
ENDBRANCH   7   8
ENDBRANCH   6   7
ENDBRANCH   5   6
ENDBRANCH   4   5
ENDBRANCH   3   4
ENDBRANCH   2   3
ENDBRANCH   1   2
BRANCH   1  12
ATOM     12  C   UNL     1       7.769 -17.985  21.324  1.00  0.00     0.000 C 
BRANCH  12  13
ATOM     13  C   UNL     1       9.117 -18.357  21.952  1.00  0.00    -0.000 C 
BRANCH  13  14
ATOM     14  C   UNL     1       8.956 -19.511  22.954  1.00  0.00    -0.000 C 
BRANCH  14  15
ATOM     15  C   UNL     1       7.497 -19.722  23.396  1.00  0.00    -0.000 C 
BRANCH  15  16
ATOM     16  C   UNL     1       6.868 -21.055  22.952  1.00  0.00    -0.000 C 
BRANCH  16  17
ATOM     17  C   UNL     1       7.861 -21.973  22.223  1.00  0.00    -0.000 C 
BRANCH  17  18
ATOM     18  C   UNL     1       7.505 -22.096  20.737  1.00  0.00    -0.000 C 
BRANCH  18  19
ATOM     19  C   UNL     1       8.750 -21.932  19.857  1.00  0.00    -0.003 C 
ATOM     20  C   UNL     1       8.647 -20.685  18.983  1.00  0.00     0.004 C 
ENDBRANCH  18  19
ENDBRANCH  17  18
ENDBRANCH  16  17
ENDBRANCH  15  16
ENDBRANCH  14  15
ENDBRANCH  13  14
ENDBRANCH  12  13
ENDBRANCH   1  12
TORSDOF 16
ENDMDL
MODEL 2
REMARK VINA RESULT:    -4.160      1.934      5.664
REMARK INTER + INTRA:         -10.931
REMARK INTER:                  -8.539
REMARK INTRA:                  -2.392
REMARK UNBOUND:                -2.880
REMARK SMILES CCCCCCCCCCCCCCCCCC(=O)[O-]
REMARK SMILES IDX 10 1 11 2 12 3 13 4 14 5 15 6 16 7 17 8 18 9 19 10 20 11
REMARK SMILES IDX 9 12 8 13 7 14 6 15 5 16 4 17 3 18 2 19 1 20
REMARK H PARENT
REMARK Flexibility Score: inf
ROOT
ATOM      1  C   UNL     1       7.368 -18.627  23.028  1.00  0.00     0.000 C 
ENDROOT
BRANCH   1   2
ATOM      2  C   UNL     1       7.935 -20.009  23.375  1.00  0.00     0.000 C 
BRANCH   2   3
ATOM      3  C   UNL     1       6.909 -21.115  23.087  1.00  0.00     0.000 C 
BRANCH   3   4
ATOM      4  C   UNL     1       6.833 -21.463  21.586  1.00  0.00     0.000 C 
BRANCH   4   5
ATOM      5  C   UNL     1       8.204 -21.744  20.947  1.00  0.00     0.000 C 
BRANCH   5   6
ATOM      6  C   UNL     1       8.788 -23.102  21.360  1.00  0.00     0.000 C 
BRANCH   6   7
ATOM      7  C   UNL     1      10.234 -22.951  21.855  1.00  0.00     0.006 C 
BRANCH   7   8
ATOM      8  C   UNL     1      10.803 -21.554  21.570  1.00  0.00     0.053 C 
BRANCH   8   9
ATOM      9  C   UNL     1      12.282 -21.594  21.339  1.00  0.00     0.041 C 
ATOM     10  O   UNL     1      13.074 -21.678  22.315  1.00  0.00    -0.550 OA
ATOM     11  O   UNL     1      12.785 -21.573  20.044  1.00  0.00    -0.550 OA
ENDBRANCH   8   9
ENDBRANCH   7   8
ENDBRANCH   6   7
ENDBRANCH   5   6
ENDBRANCH   4   5
ENDBRANCH   3   4
ENDBRANCH   2   3
ENDBRANCH   1   2
BRANCH   1  12
ATOM     12  C   UNL     1       7.974 -18.095  21.724  1.00  0.00     0.000 C 
BRANCH  12  13
ATOM     13  C   UNL     1       7.930 -16.563  21.681  1.00  0.00    -0.000 C 
BRANCH  13  14
ATOM     14  C   UNL     1       7.210 -16.000  22.916  1.00  0.00    -0.000 C 
BRANCH  14  15
ATOM     15  C   UNL     1       7.971 -14.835  23.575  1.00  0.00    -0.000 C 
BRANCH  15  16
ATOM     16  C   UNL     1       9.191 -15.248  24.418  1.00  0.00    -0.000 C 
BRANCH  16  17
ATOM     17  C   UNL     1       8.846 -16.267  25.514  1.00  0.00    -0.000 C 
BRANCH  17  18
ATOM     18  C   UNL     1      10.071 -17.112  25.883  1.00  0.00    -0.000 C 
BRANCH  18  19
ATOM     19  C   UNL     1      11.118 -17.082  24.764  1.00  0.00    -0.003 C 
ATOM     20  C   UNL     1      11.103 -18.378  23.958  1.00  0.00     0.004 C 
ENDBRANCH  18  19
ENDBRANCH  17  18
ENDBRANCH  16  17
ENDBRANCH  15  16
ENDBRANCH  14  15
ENDBRANCH  13  14
ENDBRANCH  12  13
ENDBRANCH   1  12
TORSDOF 16
ENDMDL
MODEL 3
REMARK VINA RESULT:    -4.146      1.891      3.642
REMARK INTER + INTRA:         -10.904
REMARK INTER:                  -8.033
REMARK INTRA:                  -2.870
REMARK UNBOUND:                -2.880
REMARK SMILES CCCCCCCCCCCCCCCCCC(=O)[O-]
REMARK SMILES IDX 10 1 11 2 12 3 13 4 14 5 15 6 16 7 17 8 18 9 19 10 20 11
REMARK SMILES IDX 9 12 8 13 7 14 6 15 5 16 4 17 3 18 2 19 1 20
REMARK H PARENT
REMARK Flexibility Score: inf
ROOT
ATOM      1  C   UNL     1       7.672 -19.908  21.081  1.00  0.00     0.000 C 
ENDROOT
BRANCH   1   2
ATOM      2  C   UNL     1       7.484 -20.174  22.579  1.00  0.00     0.000 C 
BRANCH   2   3
ATOM      3  C   UNL     1       8.189 -19.103  23.424  1.00  0.00     0.000 C 
BRANCH   3   4
ATOM      4  C   UNL     1       7.391 -17.784  23.477  1.00  0.00     0.000 C 
BRANCH   4   5
ATOM      5  C   UNL     1       7.999 -16.659  22.622  1.00  0.00     0.000 C 
BRANCH   5   6
ATOM      6  C   UNL     1       7.997 -15.299  23.333  1.00  0.00     0.000 C 
BRANCH   6   7
ATOM      7  C   UNL     1       9.077 -15.246  24.423  1.00  0.00     0.006 C 
BRANCH   7   8
ATOM      8  C   UNL     1      10.456 -15.665  23.895  1.00  0.00     0.053 C 
BRANCH   8   9
ATOM      9  C   UNL     1      11.076 -16.729  24.747  1.00  0.00     0.041 C 
ATOM     10  O   UNL     1      10.423 -17.247  25.691  1.00  0.00    -0.550 OA
ATOM     11  O   UNL     1      12.365 -17.172  24.477  1.00  0.00    -0.550 OA
ENDBRANCH   8   9
ENDBRANCH   7   8
ENDBRANCH   6   7
ENDBRANCH   5   6
ENDBRANCH   4   5
ENDBRANCH   3   4
ENDBRANCH   2   3
ENDBRANCH   1   2
BRANCH   1  12
ATOM     12  C   UNL     1       7.871 -21.218  20.308  1.00  0.00     0.000 C 
BRANCH  12  13
ATOM     13  C   UNL     1       7.596 -22.431  21.204  1.00  0.00    -0.000 C 
BRANCH  13  14
ATOM     14  C   UNL     1       8.831 -23.341  21.291  1.00  0.00    -0.000 C 
BRANCH  14  15
ATOM     15  C   UNL     1      10.147 -22.593  21.008  1.00  0.00    -0.000 C 
BRANCH  15  16
ATOM     16  C   UNL     1      11.038 -22.352  22.240  1.00  0.00    -0.000 C 
BRANCH  16  17
ATOM     17  C   UNL     1      11.339 -20.865  22.481  1.00  0.00    -0.000 C 
BRANCH  17  18
ATOM     18  C   UNL     1      11.405 -20.097  21.155  1.00  0.00    -0.000 C 
BRANCH  18  19
ATOM     19  C   UNL     1      11.384 -18.583  21.395  1.00  0.00    -0.003 C 
ATOM     20  C   UNL     1      10.569 -17.865  20.323  1.00  0.00     0.004 C 
ENDBRANCH  18  19
ENDBRANCH  17  18
ENDBRANCH  16  17
ENDBRANCH  15  16
ENDBRANCH  14  15
ENDBRANCH  13  14
ENDBRANCH  12  13
ENDBRANCH   1  12
TORSDOF 16
ENDMDL
MODEL 4
REMARK VINA RESULT:    -4.124      2.400      3.831
REMARK INTER + INTRA:         -10.860
REMARK INTER:                  -7.864
REMARK INTRA:                  -2.996
REMARK UNBOUND:                -2.880
REMARK SMILES CCCCCCCCCCCCCCCCCC(=O)[O-]
REMARK SMILES IDX 10 1 11 2 12 3 13 4 14 5 15 6 16 7 17 8 18 9 19 10 20 11
REMARK SMILES IDX 9 12 8 13 7 14 6 15 5 16 4 17 3 18 2 19 1 20
REMARK H PARENT
REMARK Flexibility Score: inf
ROOT
ATOM      1  C   UNL     1       9.114 -15.694  24.448  1.00  0.00     0.000 C 
ENDROOT
BRANCH   1   2
ATOM      2  C   UNL     1      10.414 -15.408  23.686  1.00  0.00     0.000 C 
BRANCH   2   3
ATOM      3  C   UNL     1      11.489 -16.454  24.016  1.00  0.00     0.000 C 
BRANCH   3   4
ATOM      4  C   UNL     1      10.898 -17.699  24.707  1.00  0.00     0.000 C 
BRANCH   4   5
ATOM      5  C   UNL     1      10.875 -18.951  23.813  1.00  0.00     0.000 C 
BRANCH   5   6
ATOM      6  C   UNL     1      11.524 -18.718  22.442  1.00  0.00     0.000 C 
BRANCH   6   7
ATOM      7  C   UNL     1      10.597 -19.179  21.308  1.00  0.00     0.006 C 
BRANCH   7   8
ATOM      8  C   UNL     1       9.679 -18.052  20.814  1.00  0.00     0.053 C 
BRANCH   8   9
ATOM      9  C   UNL     1       8.640 -18.561  19.863  1.00  0.00     0.041 C 
ATOM     10  O   UNL     1       7.420 -18.324  20.070  1.00  0.00    -0.550 OA
ATOM     11  O   UNL     1       9.021 -19.268  18.729  1.00  0.00    -0.550 OA
ENDBRANCH   8   9
ENDBRANCH   7   8
ENDBRANCH   6   7
ENDBRANCH   5   6
ENDBRANCH   4   5
ENDBRANCH   3   4
ENDBRANCH   2   3
ENDBRANCH   1   2
BRANCH   1  12
ATOM     12  C   UNL     1       7.915 -15.740  23.493  1.00  0.00     0.000 C 
BRANCH  12  13
ATOM     13  C   UNL     1       7.346 -17.160  23.394  1.00  0.00    -0.000 C 
BRANCH  13  14
ATOM     14  C   UNL     1       7.193 -17.790  24.787  1.00  0.00    -0.000 C 
BRANCH  14  15
ATOM     15  C   UNL     1       7.265 -19.328  24.761  1.00  0.00    -0.000 C 
BRANCH  15  16
ATOM     16  C   UNL     1       6.858 -19.977  23.426  1.00  0.00    -0.000 C 
BRANCH  16  17
ATOM     17  C   UNL     1       7.899 -20.978  22.903  1.00  0.00    -0.000 C 
BRANCH  17  18
ATOM     18  C   UNL     1       7.462 -21.574  21.560  1.00  0.00    -0.000 C 
BRANCH  18  19
ATOM     19  C   UNL     1       8.009 -22.995  21.385  1.00  0.00    -0.003 C 
ATOM     20  C   UNL     1       9.534 -23.012  21.452  1.00  0.00     0.004 C 
ENDBRANCH  18  19
ENDBRANCH  17  18
ENDBRANCH  16  17
ENDBRANCH  15  16
ENDBRANCH  14  15
ENDBRANCH  13  14
ENDBRANCH  12  13
ENDBRANCH   1  12
TORSDOF 16
ENDMDL
MODEL 5
REMARK VINA RESULT:    -4.092      1.956      4.353
REMARK INTER + INTRA:         -10.800
REMARK INTER:                  -7.892
REMARK INTRA:                  -2.908
REMARK UNBOUND:                -2.880
REMARK SMILES CCCCCCCCCCCCCCCCCC(=O)[O-]
REMARK SMILES IDX 10 1 11 2 12 3 13 4 14 5 15 6 16 7 17 8 18 9 19 10 20 11
REMARK SMILES IDX 9 12 8 13 7 14 6 15 5 16 4 17 3 18 2 19 1 20
REMARK H PARENT
REMARK Flexibility Score: inf
ROOT
ATOM      1  C   UNL     1       9.585 -18.803  18.852  1.00  0.00     0.000 C 
ENDROOT
BRANCH   1   2
ATOM      2  C   UNL     1       8.150 -19.246  18.543  1.00  0.00     0.000 C 
BRANCH   2   3
ATOM      3  C   UNL     1       7.128 -18.295  19.183  1.00  0.00     0.000 C 
BRANCH   3   4
ATOM      4  C   UNL     1       7.806 -17.145  19.957  1.00  0.00     0.000 C 
BRANCH   4   5
ATOM      5  C   UNL     1       6.927 -15.890  20.093  1.00  0.00     0.000 C 
BRANCH   5   6
ATOM      6  C   UNL     1       6.809 -15.397  21.542  1.00  0.00     0.000 C 
BRANCH   6   7
ATOM      7  C   UNL     1       7.721 -16.207  22.475  1.00  0.00     0.006 C 
BRANCH   7   8
ATOM      8  C   UNL     1       8.171 -15.393  23.696  1.00  0.00     0.053 C 
BRANCH   8   9
ATOM      9  C   UNL     1       8.363 -16.262  24.901  1.00  0.00     0.041 C 
ATOM     10  O   UNL     1       9.276 -16.003  25.729  1.00  0.00    -0.550 OA
ATOM     11  O   UNL     1       7.513 -17.337  25.125  1.00  0.00    -0.550 OA
ENDBRANCH   8   9
ENDBRANCH   7   8
ENDBRANCH   6   7
ENDBRANCH   5   6
ENDBRANCH   4   5
ENDBRANCH   3   4
ENDBRANCH   2   3
ENDBRANCH   1   2
BRANCH   1  12
ATOM     12  C   UNL     1      10.356 -19.906  19.588  1.00  0.00     0.000 C 
BRANCH  12  13
ATOM     13  C   UNL     1       9.665 -21.264  19.422  1.00  0.00    -0.000 C 
BRANCH  13  14
ATOM     14  C   UNL     1       9.992 -22.195  20.600  1.00  0.00    -0.000 C 
BRANCH  14  15
ATOM     15  C   UNL     1       8.735 -22.800  21.252  1.00  0.00    -0.000 C 
BRANCH  15  16
ATOM     16  C   UNL     1       7.460 -21.947  21.126  1.00  0.00    -0.000 C 
BRANCH  16  17
ATOM     17  C   UNL     1       7.124 -21.176  22.411  1.00  0.00    -0.000 C 
BRANCH  17  18
ATOM     18  C   UNL     1       7.896 -19.852  22.474  1.00  0.00    -0.000 C 
BRANCH  18  19
ATOM     19  C   UNL     1       9.114 -19.969  23.397  1.00  0.00    -0.003 C 
ATOM     20  C   UNL     1      10.157 -18.904  23.071  1.00  0.00     0.004 C 
ENDBRANCH  18  19
ENDBRANCH  17  18
ENDBRANCH  16  17
ENDBRANCH  15  16
ENDBRANCH  14  15
ENDBRANCH  13  14
ENDBRANCH  12  13
ENDBRANCH   1  12
TORSDOF 16
ENDMDL
MODEL 6
REMARK VINA RESULT:    -4.089      1.790      2.745
REMARK INTER + INTRA:         -10.792
REMARK INTER:                  -8.233
REMARK INTRA:                  -2.560
REMARK UNBOUND:                -2.880
REMARK SMILES CCCCCCCCCCCCCCCCCC(=O)[O-]
REMARK SMILES IDX 10 1 11 2 12 3 13 4 14 5 15 6 16 7 17 8 18 9 19 10 20 11
REMARK SMILES IDX 9 12 8 13 7 14 6 15 5 16 4 17 3 18 2 19 1 20
REMARK H PARENT
REMARK Flexibility Score: inf
ROOT
ATOM      1  C   UNL     1       7.949 -18.406  21.442  1.00  0.00     0.000 C 
ENDROOT
BRANCH   1   2
ATOM      2  C   UNL     1       7.682 -16.896  21.402  1.00  0.00     0.000 C 
BRANCH   2   3
ATOM      3  C   UNL     1       7.129 -16.397  22.745  1.00  0.00     0.000 C 
BRANCH   3   4
ATOM      4  C   UNL     1       7.878 -15.150  23.257  1.00  0.00     0.000 C 
BRANCH   4   5
ATOM      5  C   UNL     1       9.037 -15.475  24.215  1.00  0.00     0.000 C 
BRANCH   5   6
ATOM      6  C   UNL     1      10.413 -15.138  23.625  1.00  0.00     0.000 C 
BRANCH   6   7
ATOM      7  C   UNL     1      11.219 -16.414  23.344  1.00  0.00     0.006 C 
BRANCH   7   8
ATOM      8  C   UNL     1      10.684 -17.623  24.124  1.00  0.00     0.053 C 
BRANCH   8   9
ATOM      9  C   UNL     1      11.464 -17.862  25.380  1.00  0.00     0.041 C 
ATOM     10  O   UNL     1      12.695 -18.119  25.323  1.00  0.00    -0.550 OA
ATOM     11  O   UNL     1      10.836 -17.768  26.616  1.00  0.00    -0.550 OA
ENDBRANCH   8   9
ENDBRANCH   7   8
ENDBRANCH   6   7
ENDBRANCH   5   6
ENDBRANCH   4   5
ENDBRANCH   3   4
ENDBRANCH   2   3
ENDBRANCH   1   2
BRANCH   1  12
ATOM     12  C   UNL     1       7.498 -19.010  22.778  1.00  0.00     0.000 C 
BRANCH  12  13
ATOM     13  C   UNL     1       7.441 -20.540  22.698  1.00  0.00    -0.000 C 
BRANCH  13  14
ATOM     14  C   UNL     1       7.594 -21.021  21.247  1.00  0.00    -0.000 C 
BRANCH  14  15
ATOM     15  C   UNL     1       7.507 -22.552  21.110  1.00  0.00    -0.000 C 
BRANCH  15  16
ATOM     16  C   UNL     1       8.822 -23.306  21.375  1.00  0.00    -0.000 C 
BRANCH  16  17
ATOM     17  C   UNL     1      10.069 -22.446  21.117  1.00  0.00    -0.000 C 
BRANCH  17  18
ATOM     18  C   UNL     1      10.925 -22.327  22.383  1.00  0.00    -0.000 C 
BRANCH  18  19
ATOM     19  C   UNL     1      11.651 -20.977  22.432  1.00  0.00    -0.003 C 
ATOM     20  C   UNL     1      11.211 -20.072  21.285  1.00  0.00     0.004 C 
ENDBRANCH  18  19
ENDBRANCH  17  18
ENDBRANCH  16  17
ENDBRANCH  15  16
ENDBRANCH  14  15
ENDBRANCH  13  14
ENDBRANCH  12  13
ENDBRANCH   1  12
TORSDOF 16
ENDMDL
MODEL 7
REMARK VINA RESULT:    -4.082      1.926      4.570
REMARK INTER + INTRA:         -10.780
REMARK INTER:                  -7.646
REMARK INTRA:                  -3.134
REMARK UNBOUND:                -2.880
REMARK SMILES CCCCCCCCCCCCCCCCCC(=O)[O-]
REMARK SMILES IDX 10 1 11 2 12 3 13 4 14 5 15 6 16 7 17 8 18 9 19 10 20 11
REMARK SMILES IDX 9 12 8 13 7 14 6 15 5 16 4 17 3 18 2 19 1 20
REMARK H PARENT
REMARK Flexibility Score: inf
ROOT
ATOM      1  C   UNL     1       7.388 -21.051  22.836  1.00  0.00     0.000 C 
ENDROOT
BRANCH   1   2
ATOM      2  C   UNL     1       6.848 -21.476  21.465  1.00  0.00     0.000 C 
BRANCH   2   3
ATOM      3  C   UNL     1       7.693 -22.611  20.866  1.00  0.00     0.000 C 
BRANCH   3   4
ATOM      4  C   UNL     1       8.852 -23.028  21.795  1.00  0.00     0.000 C 
BRANCH   4   5
ATOM      5  C   UNL     1      10.246 -22.786  21.191  1.00  0.00     0.000 C 
BRANCH   5   6
ATOM      6  C   UNL     1      11.271 -22.306  22.226  1.00  0.00     0.000 C 
BRANCH   6   7
ATOM      7  C   UNL     1      10.959 -20.876  22.689  1.00  0.00     0.006 C 
BRANCH   7   8
ATOM      8  C   UNL     1      11.952 -19.852  22.122  1.00  0.00     0.053 C 
BRANCH   8   9
ATOM      9  C   UNL     1      12.513 -18.970  23.195  1.00  0.00     0.041 C 
ATOM     10  O   UNL     1      13.705 -19.115  23.576  1.00  0.00    -0.550 OA
ATOM     11  O   UNL     1      11.729 -17.967  23.751  1.00  0.00    -0.550 OA
ENDBRANCH   8   9
ENDBRANCH   7   8
ENDBRANCH   6   7
ENDBRANCH   5   6
ENDBRANCH   4   5
ENDBRANCH   3   4
ENDBRANCH   2   3
ENDBRANCH   1   2
BRANCH   1  12
ATOM     12  C   UNL     1       6.317 -20.308  23.643  1.00  0.00     0.000 C 
BRANCH  12  13
ATOM     13  C   UNL     1       6.765 -18.878  23.965  1.00  0.00    -0.000 C 
BRANCH  13  14
ATOM     14  C   UNL     1       8.211 -18.638  23.505  1.00  0.00    -0.000 C 
BRANCH  14  15
ATOM     15  C   UNL     1       8.371 -17.349  22.678  1.00  0.00    -0.000 C 
BRANCH  15  16
ATOM     16  C   UNL     1       8.740 -17.564  21.200  1.00  0.00    -0.000 C 
BRANCH  16  17
ATOM     17  C   UNL     1       7.546 -18.014  20.343  1.00  0.00    -0.000 C 
BRANCH  17  18
ATOM     18  C   UNL     1       8.008 -18.899  19.180  1.00  0.00    -0.000 C 
BRANCH  18  19
ATOM     19  C   UNL     1       9.363 -19.547  19.486  1.00  0.00    -0.003 C 
ATOM     20  C   UNL     1       9.786 -20.497  18.369  1.00  0.00     0.004 C 
ENDBRANCH  18  19
ENDBRANCH  17  18
ENDBRANCH  16  17
ENDBRANCH  15  16
ENDBRANCH  14  15
ENDBRANCH  13  14
ENDBRANCH  12  13
ENDBRANCH   1  12
TORSDOF 16
ENDMDL
MODEL 8
REMARK VINA RESULT:    -4.074      1.583      3.574
REMARK INTER + INTRA:         -10.765
REMARK INTER:                  -7.837
REMARK INTRA:                  -2.928
REMARK UNBOUND:                -2.880
REMARK SMILES CCCCCCCCCCCCCCCCCC(=O)[O-]
REMARK SMILES IDX 10 1 11 2 12 3 13 4 14 5 15 6 16 7 17 8 18 9 19 10 20 11
REMARK SMILES IDX 9 12 8 13 7 14 6 15 5 16 4 17 3 18 2 19 1 20
REMARK H PARENT
REMARK Flexibility Score: inf
ROOT
ATOM      1  C   UNL     1       6.870 -18.419  25.497  1.00  0.00     0.000 C 
ENDROOT
BRANCH   1   2
ATOM      2  C   UNL     1       7.944 -17.350  25.261  1.00  0.00     0.000 C 
BRANCH   2   3
ATOM      3  C   UNL     1       9.330 -17.856  25.686  1.00  0.00     0.000 C 
BRANCH   3   4
ATOM      4  C   UNL     1      10.452 -17.321  24.772  1.00  0.00     0.000 C 
BRANCH   4   5
ATOM      5  C   UNL     1      10.266 -15.850  24.362  1.00  0.00     0.000 C 
BRANCH   5   6
ATOM      6  C   UNL     1      11.259 -15.401  23.282  1.00  0.00     0.000 C 
BRANCH   6   7
ATOM      7  C   UNL     1      11.820 -16.606  22.514  1.00  0.00     0.006 C 
BRANCH   7   8
ATOM      8  C   UNL     1      13.329 -16.482  22.261  1.00  0.00     0.053 C 
BRANCH   8   9
ATOM      9  C   UNL     1      14.057 -17.742  22.616  1.00  0.00     0.041 C 
ATOM     10  O   UNL     1      15.085 -18.083  21.974  1.00  0.00    -0.550 OA
ATOM     11  O   UNL     1      13.617 -18.523  23.678  1.00  0.00    -0.550 OA
ENDBRANCH   8   9
ENDBRANCH   7   8
ENDBRANCH   6   7
ENDBRANCH   5   6
ENDBRANCH   4   5
ENDBRANCH   3   4
ENDBRANCH   2   3
ENDBRANCH   1   2
BRANCH   1  12
ATOM     12  C   UNL     1       6.439 -19.068  24.177  1.00  0.00     0.000 C 
BRANCH  12  13
ATOM     13  C   UNL     1       6.726 -20.574  24.185  1.00  0.00    -0.000 C 
BRANCH  13  14
ATOM     14  C   UNL     1       7.544 -20.984  22.951  1.00  0.00    -0.000 C 
BRANCH  14  15
ATOM     15  C   UNL     1       8.916 -20.287  22.881  1.00  0.00    -0.000 C 
BRANCH  15  16
ATOM     16  C   UNL     1       9.122 -19.376  21.659  1.00  0.00    -0.000 C 
BRANCH  16  17
ATOM     17  C   UNL     1       7.847 -19.199  20.820  1.00  0.00    -0.000 C 
BRANCH  17  18
ATOM     18  C   UNL     1       7.607 -17.721  20.491  1.00  0.00    -0.000 C 
BRANCH  18  19
ATOM     19  C   UNL     1       8.195 -16.813  21.577  1.00  0.00    -0.003 C 
ATOM     20  C   UNL     1       7.172 -15.785  22.051  1.00  0.00     0.004 C 
ENDBRANCH  18  19
ENDBRANCH  17  18
ENDBRANCH  16  17
ENDBRANCH  15  16
ENDBRANCH  14  15
ENDBRANCH  13  14
ENDBRANCH  12  13
ENDBRANCH   1  12
TORSDOF 16
ENDMDL
MODEL 9
REMARK VINA RESULT:    -4.052      1.682      5.454
REMARK INTER + INTRA:         -10.721
REMARK INTER:                  -7.950
REMARK INTRA:                  -2.772
REMARK UNBOUND:                -2.880
REMARK SMILES CCCCCCCCCCCCCCCCCC(=O)[O-]
REMARK SMILES IDX 10 1 11 2 12 3 13 4 14 5 15 6 16 7 17 8 18 9 19 10 20 11
REMARK SMILES IDX 9 12 8 13 7 14 6 15 5 16 4 17 3 18 2 19 1 20
REMARK H PARENT
REMARK Flexibility Score: inf
ROOT
ATOM      1  C   UNL     1       6.628 -21.122  22.009  1.00  0.00     0.000 C 
ENDROOT
BRANCH   1   2
ATOM      2  C   UNL     1       7.571 -21.848  21.041  1.00  0.00     0.000 C 
BRANCH   2   3
ATOM      3  C   UNL     1       8.330 -22.978  21.753  1.00  0.00     0.000 C 
BRANCH   3   4
ATOM      4  C   UNL     1       9.829 -22.991  21.391  1.00  0.00     0.000 C 
BRANCH   4   5
ATOM      5  C   UNL     1      10.665 -21.973  22.186  1.00  0.00     0.000 C 
BRANCH   5   6
ATOM      6  C   UNL     1      11.215 -20.839  21.311  1.00  0.00     0.000 C 
BRANCH   6   7
ATOM      7  C   UNL     1      11.381 -19.547  22.124  1.00  0.00     0.006 C 
BRANCH   7   8
ATOM      8  C   UNL     1      11.622 -19.826  23.615  1.00  0.00     0.053 C 
BRANCH   8   9
ATOM      9  C   UNL     1      12.984 -19.379  24.050  1.00  0.00     0.041 C 
ATOM     10  O   UNL     1      13.910 -19.253  23.206  1.00  0.00    -0.550 OA
ATOM     11  O   UNL     1      13.220 -19.069  25.383  1.00  0.00    -0.550 OA
ENDBRANCH   8   9
ENDBRANCH   7   8
ENDBRANCH   6   7
ENDBRANCH   5   6
ENDBRANCH   4   5
ENDBRANCH   3   4
ENDBRANCH   2   3
ENDBRANCH   1   2
BRANCH   1  12
ATOM     12  C   UNL     1       7.201 -21.109  23.431  1.00  0.00     0.000 C 
BRANCH  12  13
ATOM     13  C   UNL     1       8.021 -19.838  23.683  1.00  0.00    -0.000 C 
BRANCH  13  14
ATOM     14  C   UNL     1       7.272 -18.593  23.182  1.00  0.00    -0.000 C 
BRANCH  14  15
ATOM     15  C   UNL     1       8.016 -17.859  22.052  1.00  0.00    -0.000 C 
BRANCH  15  16
ATOM     16  C   UNL     1       8.879 -16.668  22.506  1.00  0.00    -0.000 C 
BRANCH  16  17
ATOM     17  C   UNL     1       8.152 -15.743  23.493  1.00  0.00    -0.000 C 
BRANCH  17  18
ATOM     18  C   UNL     1       9.015 -15.476  24.732  1.00  0.00    -0.000 C 
BRANCH  18  19
ATOM     19  C   UNL     1      10.207 -16.438  24.790  1.00  0.00    -0.003 C 
ATOM     20  C   UNL     1      10.121 -17.352  26.009  1.00  0.00     0.004 C 
ENDBRANCH  18  19
ENDBRANCH  17  18
ENDBRANCH  16  17
ENDBRANCH  15  16
ENDBRANCH  14  15
ENDBRANCH  13  14
ENDBRANCH  12  13
ENDBRANCH   1  12
TORSDOF 16
ENDMDL
