MODEL 1
REMARK VINA RESULT:    -4.432      0.000      0.000
REMARK INTER + INTRA:         -11.199
REMARK INTER:                  -8.578
REMARK INTRA:                  -2.621
REMARK UNBOUND:                -2.621
REMARK SMILES CCCCCCCCCCCCCCCCCC(=O)[O-]
REMARK SMILES IDX 10 1 11 2 12 3 13 4 14 5 15 6 16 7 17 8 18 9 19 10 20 11
REMARK SMILES IDX 9 12 8 13 7 14 6 15 5 16 4 17 3 18 2 19 1 20
REMARK H PARENT
REMARK Flexibility Score: inf
ROOT
ATOM      1  C   UNL     1      15.747   2.853   1.362  1.00  0.00     0.000 C 
ENDROOT
BRANCH   1   2
ATOM      2  C   UNL     1      14.796   2.590   2.545  1.00  0.00     0.000 C 
BRANCH   2   3
ATOM      3  C   UNL     1      13.642   1.645   2.184  1.00  0.00     0.000 C 
BRANCH   3   4
ATOM      4  C   UNL     1      12.320   2.413   2.061  1.00  0.00     0.000 C 
BRANCH   4   5
ATOM      5  C   UNL     1      12.403   3.768   2.777  1.00  0.00     0.000 C 
BRANCH   5   6
ATOM      6  C   UNL     1      11.983   4.910   1.841  1.00  0.00     0.000 C 
BRANCH   6   7
ATOM      7  C   UNL     1      10.542   4.757   1.320  1.00  0.00     0.006 C 
BRANCH   7   8
ATOM      8  C   UNL     1      10.438   4.522  -0.195  1.00  0.00     0.053 C 
BRANCH   8   9
ATOM      9  C   UNL     1       9.748   5.653  -0.894  1.00  0.00     0.041 C 
ATOM     10  O   UNL     1       9.730   6.801  -0.378  1.00  0.00    -0.550 OA
ATOM     11  O   UNL     1       9.095   5.432  -2.101  1.00  0.00    -0.550 OA
ENDBRANCH   8   9
ENDBRANCH   7   8
ENDBRANCH   6   7
ENDBRANCH   5   6
ENDBRANCH   4   5
ENDBRANCH   3   4
ENDBRANCH   2   3
ENDBRANCH   1   2
BRANCH   1  12
ATOM     12  C   UNL     1      15.343   4.027   0.446  1.00  0.00     0.000 C 
BRANCH  12  13
ATOM     13  C   UNL     1      15.811   3.907  -1.016  1.00  0.00    -0.000 C 
BRANCH  13  14
ATOM     14  C   UNL     1      14.689   3.644  -2.037  1.00  0.00    -0.000 C 
BRANCH  14  15
ATOM     15  C   UNL     1      13.479   2.885  -1.450  1.00  0.00    -0.000 C 
BRANCH  15  16
ATOM     16  C   UNL     1      13.688   1.360  -1.440  1.00  0.00    -0.000 C 
BRANCH  16  17
ATOM     17  C   UNL     1      14.325   0.843  -2.739  1.00  0.00    -0.000 C 
BRANCH  17  18
ATOM     18  C   UNL     1      15.481  -0.135  -2.482  1.00  0.00    -0.000 C 
BRANCH  18  19
ATOM     19  C   UNL     1      16.361   0.348  -1.324  1.00  0.00    -0.003 C 
ATOM     20  C   UNL     1      17.609   1.059  -1.839  1.00  0.00     0.004 C 
ENDBRANCH  18  19
ENDBRANCH  17  18
ENDBRANCH  16  17
ENDBRANCH  15  16
ENDBRANCH  14  15
ENDBRANCH  13  14
ENDBRANCH  12  13
ENDBRANCH   1  12
TORSDOF 16
ENDMDL
MODEL 2
REMARK VINA RESULT:    -4.302      1.002      2.219
REMARK INTER + INTRA:         -10.947
REMARK INTER:                  -8.248
REMARK INTRA:                  -2.698
REMARK UNBOUND:                -2.621
REMARK SMILES CCCCCCCCCCCCCCCCCC(=O)[O-]
REMARK SMILES IDX 10 1 11 2 12 3 13 4 14 5 15 6 16 7 17 8 18 9 19 10 20 11
REMARK SMILES IDX 9 12 8 13 7 14 6 15 5 16 4 17 3 18 2 19 1 20
REMARK H PARENT
REMARK Flexibility Score: inf
ROOT
ATOM      1  C   UNL     1      15.418   2.878   1.612  1.00  0.00     0.000 C 
ENDROOT
BRANCH   1   2
ATOM      2  C   UNL     1      14.382   1.743   1.512  1.00  0.00     0.000 C 
BRANCH   2   3
ATOM      3  C   UNL     1      13.323   1.803   2.622  1.00  0.00     0.000 C 
BRANCH   3   4
ATOM      4  C   UNL     1      12.104   2.619   2.174  1.00  0.00     0.000 C 
BRANCH   4   5
ATOM      5  C   UNL     1      12.100   4.006   2.830  1.00  0.00     0.000 C 
BRANCH   5   6
ATOM      6  C   UNL     1      11.800   5.102   1.797  1.00  0.00     0.000 C 
BRANCH   6   7
ATOM      7  C   UNL     1      10.963   4.590   0.610  1.00  0.00     0.006 C 
BRANCH   7   8
ATOM      8  C   UNL     1      10.173   5.684  -0.126  1.00  0.00     0.053 C 
BRANCH   8   9
ATOM      9  C   UNL     1       9.495   5.159  -1.354  1.00  0.00     0.041 C 
ATOM     10  O   UNL     1       9.324   3.921  -1.504  1.00  0.00    -0.550 OA
ATOM     11  O   UNL     1       9.081   6.036  -2.350  1.00  0.00    -0.550 OA
ENDBRANCH   8   9
ENDBRANCH   7   8
ENDBRANCH   6   7
ENDBRANCH   5   6
ENDBRANCH   4   5
ENDBRANCH   3   4
ENDBRANCH   2   3
ENDBRANCH   1   2
BRANCH   1  12
ATOM     12  C   UNL     1      15.251   4.011   0.577  1.00  0.00     0.000 C 
BRANCH  12  13
ATOM     13  C   UNL     1      16.078   3.848  -0.711  1.00  0.00    -0.000 C 
BRANCH  13  14
ATOM     14  C   UNL     1      16.860   2.525  -0.816  1.00  0.00    -0.000 C 
BRANCH  14  15
ATOM     15  C   UNL     1      16.446   1.653  -2.023  1.00  0.00    -0.000 C 
BRANCH  15  16
ATOM     16  C   UNL     1      15.747   0.350  -1.596  1.00  0.00    -0.000 C 
BRANCH  16  17
ATOM     17  C   UNL     1      14.319   0.236  -2.150  1.00  0.00    -0.000 C 
BRANCH  17  18
ATOM     18  C   UNL     1      13.758   1.586  -2.622  1.00  0.00    -0.000 C 
BRANCH  18  19
ATOM     19  C   UNL     1      12.763   2.152  -1.603  1.00  0.00    -0.003 C 
ATOM     20  C   UNL     1      11.594   1.196  -1.383  1.00  0.00     0.004 C 
ENDBRANCH  18  19
ENDBRANCH  17  18
ENDBRANCH  16  17
ENDBRANCH  15  16
ENDBRANCH  14  15
ENDBRANCH  13  14
ENDBRANCH  12  13
ENDBRANCH   1  12
TORSDOF 16
ENDMDL
MODEL 3
REMARK VINA RESULT:    -4.290      1.400      3.233
REMARK INTER + INTRA:         -10.923
REMARK INTER:                  -7.980
REMARK INTRA:                  -2.943
REMARK UNBOUND:                -2.621
REMARK SMILES CCCCCCCCCCCCCCCCCC(=O)[O-]
REMARK SMILES IDX 10 1 11 2 12 3 13 4 14 5 15 6 16 7 17 8 18 9 19 10 20 11
REMARK SMILES IDX 9 12 8 13 7 14 6 15 5 16 4 17 3 18 2 19 1 20
REMARK H PARENT
REMARK Flexibility Score: inf
ROOT
ATOM      1  C   UNL     1      15.627   3.095  -1.652  1.00  0.00     0.000 C 
ENDROOT
BRANCH   1   2
ATOM      2  C   UNL     1      14.920   3.639  -0.397  1.00  0.00     0.000 C 
BRANCH   2   3
ATOM      3  C   UNL     1      15.557   3.145   0.909  1.00  0.00     0.000 C 
BRANCH   3   4
ATOM      4  C   UNL     1      14.579   3.278   2.083  1.00  0.00     0.000 C 
BRANCH   4   5
ATOM      5  C   UNL     1      13.466   4.284   1.760  1.00  0.00     0.000 C 
BRANCH   5   6
ATOM      6  C   UNL     1      12.250   4.070   2.672  1.00  0.00     0.000 C 
BRANCH   6   7
ATOM      7  C   UNL     1      10.919   4.435   1.987  1.00  0.00     0.006 C 
BRANCH   7   8
ATOM      8  C   UNL     1      11.063   5.395   0.795  1.00  0.00     0.053 C 
BRANCH   8   9
ATOM      9  C   UNL     1       9.745   5.683   0.143  1.00  0.00     0.041 C 
ATOM     10  O   UNL     1       9.688   6.429  -0.869  1.00  0.00    -0.550 OA
ATOM     11  O   UNL     1       8.575   5.152   0.674  1.00  0.00    -0.550 OA
ENDBRANCH   8   9
ENDBRANCH   7   8
ENDBRANCH   6   7
ENDBRANCH   5   6
ENDBRANCH   4   5
ENDBRANCH   3   4
ENDBRANCH   2   3
ENDBRANCH   1   2
BRANCH   1  12
ATOM     12  C   UNL     1      16.924   2.304  -1.381  1.00  0.00     0.000 C 
BRANCH  12  13
ATOM     13  C   UNL     1      16.838   0.793  -1.659  1.00  0.00    -0.000 C 
BRANCH  13  14
ATOM     14  C   UNL     1      15.717   0.374  -2.629  1.00  0.00    -0.000 C 
BRANCH  14  15
ATOM     15  C   UNL     1      14.670  -0.570  -1.998  1.00  0.00    -0.000 C 
BRANCH  15  16
ATOM     16  C   UNL     1      13.363   0.159  -1.636  1.00  0.00    -0.000 C 
BRANCH  16  17
ATOM     17  C   UNL     1      13.170   0.306  -0.118  1.00  0.00    -0.000 C 
BRANCH  17  18
ATOM     18  C   UNL     1      11.990   1.220   0.241  1.00  0.00    -0.000 C 
BRANCH  18  19
ATOM     19  C   UNL     1      11.622   2.129  -0.937  1.00  0.00    -0.003 C 
ATOM     20  C   UNL     1      10.125   2.071  -1.231  1.00  0.00     0.004 C 
ENDBRANCH  18  19
ENDBRANCH  17  18
ENDBRANCH  16  17
ENDBRANCH  15  16
ENDBRANCH  14  15
ENDBRANCH  13  14
ENDBRANCH  12  13
ENDBRANCH   1  12
TORSDOF 16
ENDMDL
MODEL 4
REMARK VINA RESULT:    -4.282      1.122      2.524
REMARK INTER + INTRA:         -10.908
REMARK INTER:                  -8.688
REMARK INTRA:                  -2.220
REMARK UNBOUND:                -2.621
REMARK SMILES CCCCCCCCCCCCCCCCCC(=O)[O-]
REMARK SMILES IDX 10 1 11 2 12 3 13 4 14 5 15 6 16 7 17 8 18 9 19 10 20 11
REMARK SMILES IDX 9 12 8 13 7 14 6 15 5 16 4 17 3 18 2 19 1 20
REMARK H PARENT
REMARK Flexibility Score: inf
ROOT
ATOM      1  C   UNL     1      14.524   2.477   2.434  1.00  0.00     0.000 C 
ENDROOT
BRANCH   1   2
ATOM      2  C   UNL     1      13.135   2.856   1.888  1.00  0.00     0.000 C 
BRANCH   2   3
ATOM      3  C   UNL     1      12.398   3.865   2.780  1.00  0.00     0.000 C 
BRANCH   3   4
ATOM      4  C   UNL     1      11.709   4.944   1.936  1.00  0.00     0.000 C 
BRANCH   4   5
ATOM      5  C   UNL     1      11.128   4.347   0.648  1.00  0.00     0.000 C 
BRANCH   5   6
ATOM      6  C   UNL     1       9.593   4.331   0.692  1.00  0.00     0.000 C 
BRANCH   6   7
ATOM      7  C   UNL     1       8.956   4.252  -0.708  1.00  0.00     0.006 C 
BRANCH   7   8
ATOM      8  C   UNL     1       8.252   5.542  -1.157  1.00  0.00     0.053 C 
BRANCH   8   9
ATOM      9  C   UNL     1       9.025   6.265  -2.216  1.00  0.00     0.041 C 
ATOM     10  O   UNL     1       8.509   7.238  -2.826  1.00  0.00    -0.550 OA
ATOM     11  O   UNL     1      10.306   5.843  -2.554  1.00  0.00    -0.550 OA
ENDBRANCH   8   9
ENDBRANCH   7   8
ENDBRANCH   6   7
ENDBRANCH   5   6
ENDBRANCH   4   5
ENDBRANCH   3   4
ENDBRANCH   2   3
ENDBRANCH   1   2
BRANCH   1  12
ATOM     12  C   UNL     1      15.716   2.947   1.574  1.00  0.00     0.000 C 
BRANCH  12  13
ATOM     13  C   UNL     1      15.364   3.950   0.461  1.00  0.00    -0.000 C 
BRANCH  13  14
ATOM     14  C   UNL     1      16.125   3.745  -0.862  1.00  0.00    -0.000 C 
BRANCH  14  15
ATOM     15  C   UNL     1      16.977   2.457  -0.895  1.00  0.00    -0.000 C 
BRANCH  15  16
ATOM     16  C   UNL     1      16.499   1.462  -1.967  1.00  0.00    -0.000 C 
BRANCH  16  17
ATOM     17  C   UNL     1      15.747   0.263  -1.368  1.00  0.00    -0.000 C 
BRANCH  17  18
ATOM     18  C   UNL     1      14.368   0.049  -2.009  1.00  0.00    -0.000 C 
BRANCH  18  19
ATOM     19  C   UNL     1      13.264   0.692  -1.162  1.00  0.00    -0.003 C 
ATOM     20  C   UNL     1      12.887   2.069  -1.700  1.00  0.00     0.004 C 
ENDBRANCH  18  19
ENDBRANCH  17  18
ENDBRANCH  16  17
ENDBRANCH  15  16
ENDBRANCH  14  15
ENDBRANCH  13  14
ENDBRANCH  12  13
ENDBRANCH   1  12
TORSDOF 16
ENDMDL
MODEL 5
REMARK VINA RESULT:    -4.275      1.888      4.405
REMARK INTER + INTRA:         -10.895
REMARK INTER:                  -8.607
REMARK INTRA:                  -2.288
REMARK UNBOUND:                -2.621
REMARK SMILES CCCCCCCCCCCCCCCCCC(=O)[O-]
REMARK SMILES IDX 10 1 11 2 12 3 13 4 14 5 15 6 16 7 17 8 18 9 19 10 20 11
REMARK SMILES IDX 9 12 8 13 7 14 6 15 5 16 4 17 3 18 2 19 1 20
REMARK H PARENT
REMARK Flexibility Score: inf
ROOT
ATOM      1  C   UNL     1      16.861   1.741  -1.699  1.00  0.00     0.000 C 
ENDROOT
BRANCH   1   2
ATOM      2  C   UNL     1      16.148   0.575  -2.406  1.00  0.00     0.000 C 
BRANCH   2   3
ATOM      3  C   UNL     1      14.620   0.726  -2.414  1.00  0.00     0.000 C 
BRANCH   3   4
ATOM      4  C   UNL     1      13.961  -0.299  -1.483  1.00  0.00     0.000 C 
BRANCH   4   5
ATOM      5  C   UNL     1      12.656   0.251  -0.895  1.00  0.00     0.000 C 
BRANCH   5   6
ATOM      6  C   UNL     1      12.614   1.783  -0.987  1.00  0.00     0.000 C 
BRANCH   6   7
ATOM      7  C   UNL     1      11.499   2.403  -0.123  1.00  0.00     0.006 C 
BRANCH   7   8
ATOM      8  C   UNL     1      11.250   3.896  -0.388  1.00  0.00     0.053 C 
BRANCH   8   9
ATOM      9  C   UNL     1      10.861   4.631   0.858  1.00  0.00     0.041 C 
ATOM     10  O   UNL     1       9.647   4.762   1.164  1.00  0.00    -0.550 OA
ATOM     11  O   UNL     1      11.839   5.199   1.666  1.00  0.00    -0.550 OA
ENDBRANCH   8   9
ENDBRANCH   7   8
ENDBRANCH   6   7
ENDBRANCH   5   6
ENDBRANCH   4   5
ENDBRANCH   3   4
ENDBRANCH   2   3
ENDBRANCH   1   2
BRANCH   1  12
ATOM     12  C   UNL     1      16.043   3.046  -1.600  1.00  0.00     0.000 C 
BRANCH  12  13
ATOM     13  C   UNL     1      16.273   3.866  -0.318  1.00  0.00    -0.000 C 
BRANCH  13  14
ATOM     14  C   UNL     1      15.013   4.100   0.537  1.00  0.00    -0.000 C 
BRANCH  14  15
ATOM     15  C   UNL     1      14.956   3.229   1.812  1.00  0.00    -0.000 C 
BRANCH  15  16
ATOM     16  C   UNL     1      15.200   1.738   1.517  1.00  0.00    -0.000 C 
BRANCH  16  17
ATOM     17  C   UNL     1      15.782   0.984   2.723  1.00  0.00    -0.000 C 
BRANCH  17  18
ATOM     18  C   UNL     1      15.400   1.630   4.063  1.00  0.00    -0.000 C 
BRANCH  18  19
ATOM     19  C   UNL     1      16.440   1.307   5.142  1.00  0.00    -0.003 C 
ATOM     20  C   UNL     1      17.337   2.510   5.422  1.00  0.00     0.004 C 
ENDBRANCH  18  19
ENDBRANCH  17  18
ENDBRANCH  16  17
ENDBRANCH  15  16
ENDBRANCH  14  15
ENDBRANCH  13  14
ENDBRANCH  12  13
ENDBRANCH   1  12
TORSDOF 16
ENDMDL
MODEL 6
REMARK VINA RESULT:    -4.245      1.554      3.763
REMARK INTER + INTRA:         -10.837
REMARK INTER:                  -8.324
REMARK INTRA:                  -2.514
REMARK UNBOUND:                -2.621
REMARK SMILES CCCCCCCCCCCCCCCCCC(=O)[O-]
REMARK SMILES IDX 10 1 11 2 12 3 13 4 14 5 15 6 16 7 17 8 18 9 19 10 20 11
REMARK SMILES IDX 9 12 8 13 7 14 6 15 5 16 4 17 3 18 2 19 1 20
REMARK H PARENT
REMARK Flexibility Score: inf
ROOT
ATOM      1  C   UNL     1      16.878   1.774  -1.654  1.00  0.00     0.000 C 
ENDROOT
BRANCH   1   2
ATOM      2  C   UNL     1      16.074   3.087  -1.701  1.00  0.00     0.000 C 
BRANCH   2   3
ATOM      3  C   UNL     1      15.946   3.758  -0.326  1.00  0.00     0.000 C 
BRANCH   3   4
ATOM      4  C   UNL     1      14.473   3.939   0.062  1.00  0.00     0.000 C 
BRANCH   4   5
ATOM      5  C   UNL     1      14.335   4.291   1.548  1.00  0.00     0.000 C 
BRANCH   5   6
ATOM      6  C   UNL     1      12.968   3.852   2.092  1.00  0.00     0.000 C 
BRANCH   6   7
ATOM      7  C   UNL     1      11.902   4.959   1.992  1.00  0.00     0.006 C 
BRANCH   7   8
ATOM      8  C   UNL     1      10.566   4.499   1.386  1.00  0.00     0.053 C 
BRANCH   8   9
ATOM      9  C   UNL     1      10.469   4.822  -0.073  1.00  0.00     0.041 C 
ATOM     10  O   UNL     1      11.000   4.066  -0.927  1.00  0.00    -0.550 OA
ATOM     11  O   UNL     1       9.818   5.978  -0.488  1.00  0.00    -0.550 OA
ENDBRANCH   8   9
ENDBRANCH   7   8
ENDBRANCH   6   7
ENDBRANCH   5   6
ENDBRANCH   4   5
ENDBRANCH   3   4
ENDBRANCH   2   3
ENDBRANCH   1   2
BRANCH   1  12
ATOM     12  C   UNL     1      16.080   0.504  -2.016  1.00  0.00     0.000 C 
BRANCH  12  13
ATOM     13  C   UNL     1      14.623   0.749  -2.448  1.00  0.00    -0.000 C 
BRANCH  13  14
ATOM     14  C   UNL     1      13.560   0.324  -1.418  1.00  0.00    -0.000 C 
BRANCH  14  15
ATOM     15  C   UNL     1      14.139  -0.443  -0.209  1.00  0.00    -0.000 C 
BRANCH  15  16
ATOM     16  C   UNL     1      14.071   0.373   1.094  1.00  0.00    -0.000 C 
BRANCH  16  17
ATOM     17  C   UNL     1      15.461   0.687   1.669  1.00  0.00    -0.000 C 
BRANCH  17  18
ATOM     18  C   UNL     1      15.485   0.660   3.205  1.00  0.00    -0.000 C 
BRANCH  18  19
ATOM     19  C   UNL     1      16.086   1.954   3.765  1.00  0.00    -0.003 C 
ATOM     20  C   UNL     1      16.761   1.711   5.112  1.00  0.00     0.004 C 
ENDBRANCH  18  19
ENDBRANCH  17  18
ENDBRANCH  16  17
ENDBRANCH  15  16
ENDBRANCH  14  15
ENDBRANCH  13  14
ENDBRANCH  12  13
ENDBRANCH   1  12
TORSDOF 16
ENDMDL
MODEL 7
REMARK VINA RESULT:    -4.237      1.339      3.150
REMARK INTER + INTRA:         -10.821
REMARK INTER:                  -8.803
REMARK INTRA:                  -2.019
REMARK UNBOUND:                -2.621
REMARK SMILES CCCCCCCCCCCCCCCCCC(=O)[O-]
REMARK SMILES IDX 10 1 11 2 12 3 13 4 14 5 15 6 16 7 17 8 18 9 19 10 20 11
REMARK SMILES IDX 9 12 8 13 7 14 6 15 5 16 4 17 3 18 2 19 1 20
REMARK H PARENT
REMARK Flexibility Score: inf
ROOT
ATOM      1  C   UNL     1      13.126   3.668   1.520  1.00  0.00     0.000 C 
ENDROOT
BRANCH   1   2
ATOM      2  C   UNL     1      12.346   4.527   2.532  1.00  0.00     0.000 C 
BRANCH   2   3
ATOM      3  C   UNL     1      10.950   4.923   2.028  1.00  0.00     0.000 C 
BRANCH   3   4
ATOM      4  C   UNL     1      10.858   4.787   0.503  1.00  0.00     0.000 C 
BRANCH   4   5
ATOM      5  C   UNL     1       9.569   4.063   0.092  1.00  0.00     0.000 C 
BRANCH   5   6
ATOM      6  C   UNL     1       9.319   4.201  -1.416  1.00  0.00     0.000 C 
BRANCH   6   7
ATOM      7  C   UNL     1       9.908   5.498  -2.003  1.00  0.00     0.006 C 
BRANCH   7   8
ATOM      8  C   UNL     1       8.857   6.547  -2.401  1.00  0.00     0.053 C 
BRANCH   8   9
ATOM      9  C   UNL     1       8.878   7.737  -1.491  1.00  0.00     0.041 C 
ATOM     10  O   UNL     1       8.905   7.580  -0.242  1.00  0.00    -0.550 OA
ATOM     11  O   UNL     1       8.835   9.021  -2.022  1.00  0.00    -0.550 OA
ENDBRANCH   8   9
ENDBRANCH   7   8
ENDBRANCH   6   7
ENDBRANCH   5   6
ENDBRANCH   4   5
ENDBRANCH   3   4
ENDBRANCH   2   3
ENDBRANCH   1   2
BRANCH   1  12
ATOM     12  C   UNL     1      14.266   2.820   2.123  1.00  0.00     0.000 C 
BRANCH  12  13
ATOM     13  C   UNL     1      15.625   2.952   1.413  1.00  0.00    -0.000 C 
BRANCH  13  14
ATOM     14  C   UNL     1      15.635   3.905   0.202  1.00  0.00    -0.000 C 
BRANCH  14  15
ATOM     15  C   UNL     1      16.478   3.390  -0.985  1.00  0.00    -0.000 C 
BRANCH  15  16
ATOM     16  C   UNL     1      16.794   1.888  -0.876  1.00  0.00    -0.000 C 
BRANCH  16  17
ATOM     17  C   UNL     1      16.195   1.072  -2.033  1.00  0.00    -0.000 C 
BRANCH  17  18
ATOM     18  C   UNL     1      14.809   0.503  -1.699  1.00  0.00    -0.000 C 
BRANCH  18  19
ATOM     19  C   UNL     1      13.724   1.166  -2.554  1.00  0.00    -0.003 C 
ATOM     20  C   UNL     1      12.871   2.120  -1.722  1.00  0.00     0.004 C 
ENDBRANCH  18  19
ENDBRANCH  17  18
ENDBRANCH  16  17
ENDBRANCH  15  16
ENDBRANCH  14  15
ENDBRANCH  13  14
ENDBRANCH  12  13
ENDBRANCH   1  12
TORSDOF 16
ENDMDL
MODEL 8
REMARK VINA RESULT:    -4.207      1.452      4.182
REMARK INTER + INTRA:         -10.763
REMARK INTER:                  -8.275
REMARK INTRA:                  -2.488
REMARK UNBOUND:                -2.621
REMARK SMILES CCCCCCCCCCCCCCCCCC(=O)[O-]
REMARK SMILES IDX 10 1 11 2 12 3 13 4 14 5 15 6 16 7 17 8 18 9 19 10 20 11
REMARK SMILES IDX 9 12 8 13 7 14 6 15 5 16 4 17 3 18 2 19 1 20
REMARK H PARENT
REMARK Flexibility Score: inf
ROOT
ATOM      1  C   UNL     1      13.626   3.033  -2.350  1.00  0.00     0.000 C 
ENDROOT
BRANCH   1   2
ATOM      2  C   UNL     1      13.548   1.505  -2.527  1.00  0.00     0.000 C 
BRANCH   2   3
ATOM      3  C   UNL     1      12.621   0.833  -1.504  1.00  0.00     0.000 C 
BRANCH   3   4
ATOM      4  C   UNL     1      11.240   1.500  -1.491  1.00  0.00     0.000 C 
BRANCH   4   5
ATOM      5  C   UNL     1      10.874   1.980  -0.081  1.00  0.00     0.000 C 
BRANCH   5   6
ATOM      6  C   UNL     1       9.388   2.355   0.004  1.00  0.00     0.000 C 
BRANCH   6   7
ATOM      7  C   UNL     1       9.016   3.531  -0.919  1.00  0.00     0.006 C 
BRANCH   7   8
ATOM      8  C   UNL     1       8.942   4.893  -0.209  1.00  0.00     0.053 C 
BRANCH   8   9
ATOM      9  C   UNL     1       9.498   5.998  -1.054  1.00  0.00     0.041 C 
ATOM     10  O   UNL     1       9.364   7.197  -0.698  1.00  0.00    -0.550 OA
ATOM     11  O   UNL     1      10.137   5.704  -2.253  1.00  0.00    -0.550 OA
ENDBRANCH   8   9
ENDBRANCH   7   8
ENDBRANCH   6   7
ENDBRANCH   5   6
ENDBRANCH   4   5
ENDBRANCH   3   4
ENDBRANCH   2   3
ENDBRANCH   1   2
BRANCH   1  12
ATOM     12  C   UNL     1      15.010   3.573  -1.931  1.00  0.00     0.000 C 
BRANCH  12  13
ATOM     13  C   UNL     1      16.103   2.504  -1.756  1.00  0.00    -0.000 C 
BRANCH  13  14
ATOM     14  C   UNL     1      16.682   2.395  -0.332  1.00  0.00    -0.000 C 
BRANCH  14  15
ATOM     15  C   UNL     1      15.690   1.816   0.700  1.00  0.00    -0.000 C 
BRANCH  15  16
ATOM     16  C   UNL     1      15.344   2.821   1.813  1.00  0.00    -0.000 C 
BRANCH  16  17
ATOM     17  C   UNL     1      13.839   3.114   1.899  1.00  0.00    -0.000 C 
BRANCH  17  18
ATOM     18  C   UNL     1      13.478   4.515   1.383  1.00  0.00    -0.000 C 
BRANCH  18  19
ATOM     19  C   UNL     1      12.045   4.891   1.773  1.00  0.00    -0.003 C 
ATOM     20  C   UNL     1      11.662   4.283   3.119  1.00  0.00     0.004 C 
ENDBRANCH  18  19
ENDBRANCH  17  18
ENDBRANCH  16  17
ENDBRANCH  15  16
ENDBRANCH  14  15
ENDBRANCH  13  14
ENDBRANCH  12  13
ENDBRANCH   1  12
TORSDOF 16
ENDMDL
MODEL 9
REMARK VINA RESULT:    -4.116      1.420      2.859
REMARK INTER + INTRA:         -10.587
REMARK INTER:                  -8.289
REMARK INTRA:                  -2.298
REMARK UNBOUND:                -2.621
REMARK SMILES CCCCCCCCCCCCCCCCCC(=O)[O-]
REMARK SMILES IDX 10 1 11 2 12 3 13 4 14 5 15 6 16 7 17 8 18 9 19 10 20 11
REMARK SMILES IDX 9 12 8 13 7 14 6 15 5 16 4 17 3 18 2 19 1 20
REMARK H PARENT
REMARK Flexibility Score: inf
ROOT
ATOM      1  C   UNL     1      13.449   3.626   1.754  1.00  0.00     0.000 C 
ENDROOT
BRANCH   1   2
ATOM      2  C   UNL     1      12.426   4.667   2.243  1.00  0.00     0.000 C 
BRANCH   2   3
ATOM      3  C   UNL     1      10.983   4.143   2.220  1.00  0.00     0.000 C 
BRANCH   3   4
ATOM      4  C   UNL     1      10.150   4.874   1.159  1.00  0.00     0.000 C 
BRANCH   4   5
ATOM      5  C   UNL     1       9.117   3.933   0.527  1.00  0.00     0.000 C 
BRANCH   5   6
ATOM      6  C   UNL     1       9.176   4.003  -1.006  1.00  0.00     0.000 C 
BRANCH   6   7
ATOM      7  C   UNL     1       9.907   5.258  -1.518  1.00  0.00     0.006 C 
BRANCH   7   8
ATOM      8  C   UNL     1       9.012   6.242  -2.290  1.00  0.00     0.053 C 
BRANCH   8   9
ATOM      9  C   UNL     1       8.924   7.573  -1.609  1.00  0.00     0.041 C 
ATOM     10  O   UNL     1       8.800   7.640  -0.358  1.00  0.00    -0.550 OA
ATOM     11  O   UNL     1       8.946   8.742  -2.361  1.00  0.00    -0.550 OA
ENDBRANCH   8   9
ENDBRANCH   7   8
ENDBRANCH   6   7
ENDBRANCH   5   6
ENDBRANCH   4   5
ENDBRANCH   3   4
ENDBRANCH   2   3
ENDBRANCH   1   2
BRANCH   1  12
ATOM     12  C   UNL     1      12.883   2.547   0.807  1.00  0.00     0.000 C 
BRANCH  12  13
ATOM     13  C   UNL     1      12.804   2.954  -0.676  1.00  0.00    -0.000 C 
BRANCH  13  14
ATOM     14  C   UNL     1      12.245   1.871  -1.618  1.00  0.00    -0.000 C 
BRANCH  14  15
ATOM     15  C   UNL     1      13.119   0.600  -1.691  1.00  0.00    -0.000 C 
BRANCH  15  16
ATOM     16  C   UNL     1      14.251   0.723  -2.727  1.00  0.00    -0.000 C 
BRANCH  16  17
ATOM     17  C   UNL     1      15.597   0.203  -2.197  1.00  0.00    -0.000 C 
BRANCH  17  18
ATOM     18  C   UNL     1      16.076   0.965  -0.953  1.00  0.00    -0.000 C 
BRANCH  18  19
ATOM     19  C   UNL     1      16.878   2.210  -1.348  1.00  0.00    -0.003 C 
ATOM     20  C   UNL     1      16.379   3.446  -0.605  1.00  0.00     0.004 C 
ENDBRANCH  18  19
ENDBRANCH  17  18
ENDBRANCH  16  17
ENDBRANCH  15  16
ENDBRANCH  14  15
ENDBRANCH  13  14
ENDBRANCH  12  13
ENDBRANCH   1  12
TORSDOF 16
ENDMDL
