MODEL 1
REMARK VINA RESULT:    -5.468      0.000      0.000
REMARK INTER + INTRA:         -14.863
REMARK INTER:                 -12.501
REMARK INTRA:                  -2.362
REMARK UNBOUND:                -2.362
REMARK SMILES CCCCCCCCCCCCCCCCCCCCCCCC(=O)[O-]
REMARK SMILES IDX 13 1 14 2 15 3 16 4 17 5 18 6 19 7 20 8 21 9 22 10 23 11
REMARK SMILES IDX 24 12 25 13 26 14 12 15 11 16 10 17 9 18 8 19 7 20 6 21 5 22
REMARK SMILES IDX 4 23 3 24 2 25 1 26
REMARK H PARENT
REMARK Flexibility Score: inf
ROOT
ATOM      1  C   UNL     1      43.683  56.613  60.001  1.00  0.00     0.000 C 
ENDROOT
BRANCH   1   2
ATOM      2  C   UNL     1      42.967  55.363  59.457  1.00  0.00     0.000 C 
BRANCH   2   3
ATOM      3  C   UNL     1      42.283  54.546  60.564  1.00  0.00     0.000 C 
BRANCH   3   4
ATOM      4  C   UNL     1      40.802  54.259  60.261  1.00  0.00     0.000 C 
BRANCH   4   5
ATOM      5  C   UNL     1      39.905  55.491  60.469  1.00  0.00     0.000 C 
BRANCH   5   6
ATOM      6  C   UNL     1      38.393  55.196  60.531  1.00  0.00     0.000 C 
BRANCH   6   7
ATOM      7  C   UNL     1      37.514  56.307  59.920  1.00  0.00     0.000 C 
BRANCH   7   8
ATOM      8  C   UNL     1      36.326  55.739  59.123  1.00  0.00     0.000 C 
BRANCH   8   9
ATOM      9  C   UNL     1      36.082  54.248  59.407  1.00  0.00     0.000 C 
BRANCH   9  10
ATOM     10  C   UNL     1      35.154  53.595  58.368  1.00  0.00     0.006 C 
BRANCH  10  11
ATOM     11  C   UNL     1      35.678  52.230  57.902  1.00  0.00     0.053 C 
BRANCH  11  12
ATOM     12  C   UNL     1      34.609  51.181  57.934  1.00  0.00     0.041 C 
ATOM     13  O   UNL     1      34.866  50.003  57.569  1.00  0.00    -0.550 OA
ATOM     14  O   UNL     1      33.319  51.513  58.328  1.00  0.00    -0.550 OA
ENDBRANCH  11  12
ENDBRANCH  10  11
ENDBRANCH   9  10
ENDBRANCH   8   9
ENDBRANCH   7   8
ENDBRANCH   6   7
ENDBRANCH   5   6
ENDBRANCH   4   5
ENDBRANCH   3   4
ENDBRANCH   2   3
ENDBRANCH   1   2
BRANCH   1  15
ATOM     15  C   UNL     1      44.318  57.461  58.886  1.00  0.00     0.000 C 
BRANCH  15  16
ATOM     16  C   UNL     1      45.560  58.232  59.368  1.00  0.00     0.000 C 
BRANCH  16  17
ATOM     17  C   UNL     1      45.271  59.110  60.596  1.00  0.00     0.000 C 
BRANCH  17  18
ATOM     18  C   UNL     1      44.898  60.553  60.218  1.00  0.00    -0.000 C 
BRANCH  18  19
ATOM     19  C   UNL     1      43.424  60.885  60.507  1.00  0.00    -0.000 C 
BRANCH  19  20
ATOM     20  C   UNL     1      42.923  62.154  59.785  1.00  0.00    -0.000 C 
BRANCH  20  21
ATOM     21  C   UNL     1      43.281  62.153  58.287  1.00  0.00    -0.000 C 
BRANCH  21  22
ATOM     22  C   UNL     1      42.034  62.255  57.384  1.00  0.00    -0.000 C 
BRANCH  22  23
ATOM     23  C   UNL     1      41.050  61.081  57.549  1.00  0.00    -0.000 C 
BRANCH  23  24
ATOM     24  C   UNL     1      41.682  59.681  57.441  1.00  0.00    -0.000 C 
BRANCH  24  25
ATOM     25  C   UNL     1      40.937  58.575  58.212  1.00  0.00    -0.003 C 
ATOM     26  C   UNL     1      39.488  58.407  57.762  1.00  0.00     0.004 C 
ENDBRANCH  24  25
ENDBRANCH  23  24
ENDBRANCH  22  23
ENDBRANCH  21  22
ENDBRANCH  20  21
ENDBRANCH  19  20
ENDBRANCH  18  19
ENDBRANCH  17  18
ENDBRANCH  16  17
ENDBRANCH  15  16
ENDBRANCH   1  15
TORSDOF 22
ENDMDL
MODEL 2
REMARK VINA RESULT:    -5.396      1.278      3.582
REMARK INTER + INTRA:         -14.697
REMARK INTER:                 -12.321
REMARK INTRA:                  -2.376
REMARK UNBOUND:                -2.362
REMARK SMILES CCCCCCCCCCCCCCCCCCCCCCCC(=O)[O-]
REMARK SMILES IDX 13 1 14 2 15 3 16 4 17 5 18 6 19 7 20 8 21 9 22 10 23 11
REMARK SMILES IDX 24 12 25 13 26 14 12 15 11 16 10 17 9 18 8 19 7 20 6 21 5 22
REMARK SMILES IDX 4 23 3 24 2 25 1 26
REMARK H PARENT
REMARK Flexibility Score: inf
ROOT
ATOM      1  C   UNL     1      40.872  59.389  57.726  1.00  0.00     0.000 C 
ENDROOT
BRANCH   1   2
ATOM      2  C   UNL     1      40.762  57.896  58.087  1.00  0.00     0.000 C 
BRANCH   2   3
ATOM      3  C   UNL     1      40.096  57.666  59.453  1.00  0.00     0.000 C 
BRANCH   3   4
ATOM      4  C   UNL     1      38.680  57.076  59.331  1.00  0.00     0.000 C 
BRANCH   4   5
ATOM      5  C   UNL     1      38.355  56.076  60.453  1.00  0.00     0.000 C 
BRANCH   5   6
ATOM      6  C   UNL     1      37.569  54.826  60.008  1.00  0.00     0.000 C 
BRANCH   6   7
ATOM      7  C   UNL     1      36.084  55.102  59.695  1.00  0.00     0.000 C 
BRANCH   7   8
ATOM      8  C   UNL     1      35.537  54.172  58.597  1.00  0.00     0.000 C 
BRANCH   8   9
ATOM      9  C   UNL     1      36.038  52.726  58.743  1.00  0.00     0.000 C 
BRANCH   9  10
ATOM     10  C   UNL     1      35.091  51.705  58.086  1.00  0.00     0.006 C 
BRANCH  10  11
ATOM     11  C   UNL     1      33.640  52.203  58.048  1.00  0.00     0.053 C 
BRANCH  11  12
ATOM     12  C   UNL     1      32.667  51.110  58.369  1.00  0.00     0.041 C 
ATOM     13  O   UNL     1      32.909  49.924  58.023  1.00  0.00    -0.550 OA
ATOM     14  O   UNL     1      31.472  51.409  59.012  1.00  0.00    -0.550 OA
ENDBRANCH  11  12
ENDBRANCH  10  11
ENDBRANCH   9  10
ENDBRANCH   8   9
ENDBRANCH   7   8
ENDBRANCH   6   7
ENDBRANCH   5   6
ENDBRANCH   4   5
ENDBRANCH   3   4
ENDBRANCH   2   3
ENDBRANCH   1   2
BRANCH   1  15
ATOM     15  C   UNL     1      42.315  59.913  57.815  1.00  0.00     0.000 C 
BRANCH  15  16
ATOM     16  C   UNL     1      42.780  60.115  59.268  1.00  0.00     0.000 C 
BRANCH  16  17
ATOM     17  C   UNL     1      43.812  61.245  59.407  1.00  0.00     0.000 C 
BRANCH  17  18
ATOM     18  C   UNL     1      44.805  61.288  58.234  1.00  0.00    -0.000 C 
BRANCH  18  19
ATOM     19  C   UNL     1      46.078  60.466  58.500  1.00  0.00    -0.000 C 
BRANCH  19  20
ATOM     20  C   UNL     1      45.902  58.954  58.240  1.00  0.00    -0.000 C 
BRANCH  20  21
ATOM     21  C   UNL     1      46.258  58.105  59.474  1.00  0.00    -0.000 C 
BRANCH  21  22
ATOM     22  C   UNL     1      45.007  57.606  60.227  1.00  0.00    -0.000 C 
BRANCH  22  23
ATOM     23  C   UNL     1      44.132  56.640  59.406  1.00  0.00    -0.000 C 
BRANCH  23  24
ATOM     24  C   UNL     1      43.205  55.734  60.237  1.00  0.00    -0.000 C 
BRANCH  24  25
ATOM     25  C   UNL     1      42.305  54.798  59.409  1.00  0.00    -0.003 C 
ATOM     26  C   UNL     1      41.276  54.055  60.258  1.00  0.00     0.004 C 
ENDBRANCH  24  25
ENDBRANCH  23  24
ENDBRANCH  22  23
ENDBRANCH  21  22
ENDBRANCH  20  21
ENDBRANCH  19  20
ENDBRANCH  18  19
ENDBRANCH  17  18
ENDBRANCH  16  17
ENDBRANCH  15  16
ENDBRANCH   1  15
TORSDOF 22
ENDMDL
MODEL 3
REMARK VINA RESULT:    -5.348      3.306      8.354
REMARK INTER + INTRA:         -14.587
REMARK INTER:                 -12.540
REMARK INTRA:                  -2.047
REMARK UNBOUND:                -2.362
REMARK SMILES CCCCCCCCCCCCCCCCCCCCCCCC(=O)[O-]
REMARK SMILES IDX 13 1 14 2 15 3 16 4 17 5 18 6 19 7 20 8 21 9 22 10 23 11
REMARK SMILES IDX 24 12 25 13 26 14 12 15 11 16 10 17 9 18 8 19 7 20 6 21 5 22
REMARK SMILES IDX 4 23 3 24 2 25 1 26
REMARK H PARENT
REMARK Flexibility Score: inf
ROOT
ATOM      1  C   UNL     1      42.287  56.668  58.715  1.00  0.00     0.000 C 
ENDROOT
BRANCH   1   2
ATOM      2  C   UNL     1      43.665  57.331  58.534  1.00  0.00     0.000 C 
BRANCH   2   3
ATOM      3  C   UNL     1      44.583  57.126  59.749  1.00  0.00     0.000 C 
BRANCH   3   4
ATOM      4  C   UNL     1      45.751  58.127  59.786  1.00  0.00     0.000 C 
BRANCH   4   5
ATOM      5  C   UNL     1      45.549  59.237  60.831  1.00  0.00     0.000 C 
BRANCH   5   6
ATOM      6  C   UNL     1      44.126  59.332  61.416  1.00  0.00     0.000 C 
BRANCH   6   7
ATOM      7  C   UNL     1      43.281  60.478  60.821  1.00  0.00     0.000 C 
BRANCH   7   8
ATOM      8  C   UNL     1      44.145  61.520  60.089  1.00  0.00     0.000 C 
BRANCH   8   9
ATOM      9  C   UNL     1      43.607  61.858  58.690  1.00  0.00     0.000 C 
BRANCH   9  10
ATOM     10  C   UNL     1      42.321  61.084  58.351  1.00  0.00     0.006 C 
BRANCH  10  11
ATOM     11  C   UNL     1      41.440  61.839  57.347  1.00  0.00     0.053 C 
BRANCH  11  12
ATOM     12  C   UNL     1      40.436  60.936  56.696  1.00  0.00     0.041 C 
ATOM     13  O   UNL     1      40.018  59.914  57.300  1.00  0.00    -0.550 OA
ATOM     14  O   UNL     1      39.995  61.202  55.406  1.00  0.00    -0.550 OA
ENDBRANCH  11  12
ENDBRANCH  10  11
ENDBRANCH   9  10
ENDBRANCH   8   9
ENDBRANCH   7   8
ENDBRANCH   6   7
ENDBRANCH   5   6
ENDBRANCH   4   5
ENDBRANCH   3   4
ENDBRANCH   2   3
ENDBRANCH   1   2
BRANCH   1  15
ATOM     15  C   UNL     1      42.392  55.202  59.170  1.00  0.00     0.000 C 
BRANCH  15  16
ATOM     16  C   UNL     1      41.802  54.978  60.573  1.00  0.00     0.000 C 
BRANCH  16  17
ATOM     17  C   UNL     1      40.758  53.850  60.602  1.00  0.00     0.000 C 
BRANCH  17  18
ATOM     18  C   UNL     1      39.326  54.373  60.804  1.00  0.00    -0.000 C 
BRANCH  18  19
ATOM     19  C   UNL     1      39.209  55.891  60.588  1.00  0.00    -0.000 C 
BRANCH  19  20
ATOM     20  C   UNL     1      37.751  56.390  60.485  1.00  0.00    -0.000 C 
BRANCH  20  21
ATOM     21  C   UNL     1      37.081  55.967  59.165  1.00  0.00    -0.000 C 
BRANCH  21  22
ATOM     22  C   UNL     1      35.824  55.102  59.393  1.00  0.00    -0.000 C 
BRANCH  22  23
ATOM     23  C   UNL     1      36.044  53.602  59.115  1.00  0.00    -0.000 C 
BRANCH  23  24
ATOM     24  C   UNL     1      35.136  53.001  58.027  1.00  0.00    -0.000 C 
BRANCH  24  25
ATOM     25  C   UNL     1      34.877  51.489  58.163  1.00  0.00    -0.003 C 
ATOM     26  C   UNL     1      35.852  50.641  57.350  1.00  0.00     0.004 C 
ENDBRANCH  24  25
ENDBRANCH  23  24
ENDBRANCH  22  23
ENDBRANCH  21  22
ENDBRANCH  20  21
ENDBRANCH  19  20
ENDBRANCH  18  19
ENDBRANCH  17  18
ENDBRANCH  16  17
ENDBRANCH  15  16
ENDBRANCH   1  15
TORSDOF 22
ENDMDL
MODEL 4
REMARK VINA RESULT:    -5.255      1.988      3.488
REMARK INTER + INTRA:         -14.376
REMARK INTER:                 -11.016
REMARK INTRA:                  -3.360
REMARK UNBOUND:                -2.362
REMARK SMILES CCCCCCCCCCCCCCCCCCCCCCCC(=O)[O-]
REMARK SMILES IDX 13 1 14 2 15 3 16 4 17 5 18 6 19 7 20 8 21 9 22 10 23 11
REMARK SMILES IDX 24 12 25 13 26 14 12 15 11 16 10 17 9 18 8 19 7 20 6 21 5 22
REMARK SMILES IDX 4 23 3 24 2 25 1 26
REMARK H PARENT
REMARK Flexibility Score: inf
ROOT
ATOM      1  C   UNL     1      44.659  58.230  58.327  1.00  0.00     0.000 C 
ENDROOT
BRANCH   1   2
ATOM      2  C   UNL     1      43.292  58.933  58.249  1.00  0.00     0.000 C 
BRANCH   2   3
ATOM      3  C   UNL     1      42.151  57.967  57.893  1.00  0.00     0.000 C 
BRANCH   3   4
ATOM      4  C   UNL     1      40.997  58.009  58.911  1.00  0.00     0.000 C 
BRANCH   4   5
ATOM      5  C   UNL     1      41.152  56.962  60.026  1.00  0.00     0.000 C 
BRANCH   5   6
ATOM      6  C   UNL     1      42.262  55.917  59.793  1.00  0.00     0.000 C 
BRANCH   6   7
ATOM      7  C   UNL     1      42.115  54.647  60.657  1.00  0.00     0.000 C 
BRANCH   7   8
ATOM      8  C   UNL     1      40.868  53.827  60.281  1.00  0.00     0.000 C 
BRANCH   8   9
ATOM      9  C   UNL     1      39.916  53.621  61.469  1.00  0.00     0.000 C 
BRANCH   9  10
ATOM     10  C   UNL     1      38.435  53.689  61.056  1.00  0.00     0.006 C 
BRANCH  10  11
ATOM     11  C   UNL     1      38.108  54.976  60.287  1.00  0.00     0.053 C 
BRANCH  11  12
ATOM     12  C   UNL     1      36.735  54.935  59.687  1.00  0.00     0.041 C 
ATOM     13  O   UNL     1      36.222  53.834  59.353  1.00  0.00    -0.550 OA
ATOM     14  O   UNL     1      36.039  56.115  59.460  1.00  0.00    -0.550 OA
ENDBRANCH  11  12
ENDBRANCH  10  11
ENDBRANCH   9  10
ENDBRANCH   8   9
ENDBRANCH   7   8
ENDBRANCH   6   7
ENDBRANCH   5   6
ENDBRANCH   4   5
ENDBRANCH   3   4
ENDBRANCH   2   3
ENDBRANCH   1   2
BRANCH   1  15
ATOM     15  C   UNL     1      45.384  58.497  59.658  1.00  0.00     0.000 C 
BRANCH  15  16
ATOM     16  C   UNL     1      44.441  58.405  60.871  1.00  0.00     0.000 C 
BRANCH  16  17
ATOM     17  C   UNL     1      44.338  59.731  61.640  1.00  0.00     0.000 C 
BRANCH  17  18
ATOM     18  C   UNL     1      42.911  60.303  61.647  1.00  0.00    -0.000 C 
BRANCH  18  19
ATOM     19  C   UNL     1      42.794  61.627  60.873  1.00  0.00    -0.000 C 
BRANCH  19  20
ATOM     20  C   UNL     1      44.095  62.036  60.149  1.00  0.00    -0.000 C 
BRANCH  20  21
ATOM     21  C   UNL     1      43.825  62.621  58.750  1.00  0.00    -0.000 C 
BRANCH  21  22
ATOM     22  C   UNL     1      42.324  62.886  58.503  1.00  0.00    -0.000 C 
BRANCH  22  23
ATOM     23  C   UNL     1      41.833  62.426  57.117  1.00  0.00    -0.000 C 
BRANCH  23  24
ATOM     24  C   UNL     1      40.738  61.345  57.139  1.00  0.00    -0.000 C 
BRANCH  24  25
ATOM     25  C   UNL     1      40.034  61.110  55.790  1.00  0.00    -0.003 C 
ATOM     26  C   UNL     1      40.470  62.097  54.710  1.00  0.00     0.004 C 
ENDBRANCH  24  25
ENDBRANCH  23  24
ENDBRANCH  22  23
ENDBRANCH  21  22
ENDBRANCH  20  21
ENDBRANCH  19  20
ENDBRANCH  18  19
ENDBRANCH  17  18
ENDBRANCH  16  17
ENDBRANCH  15  16
ENDBRANCH   1  15
TORSDOF 22
ENDMDL
MODEL 5
REMARK VINA RESULT:    -5.244      4.318      8.041
REMARK INTER + INTRA:         -14.351
REMARK INTER:                 -10.798
REMARK INTRA:                  -3.553
REMARK UNBOUND:                -2.362
REMARK SMILES CCCCCCCCCCCCCCCCCCCCCCCC(=O)[O-]
REMARK SMILES IDX 13 1 14 2 15 3 16 4 17 5 18 6 19 7 20 8 21 9 22 10 23 11
REMARK SMILES IDX 24 12 25 13 26 14 12 15 11 16 10 17 9 18 8 19 7 20 6 21 5 22
REMARK SMILES IDX 4 23 3 24 2 25 1 26
REMARK H PARENT
REMARK Flexibility Score: inf
ROOT
ATOM      1  C   UNL     1      42.102  54.730  60.355  1.00  0.00     0.000 C 
ENDROOT
BRANCH   1   2
ATOM      2  C   UNL     1      42.643  55.008  58.941  1.00  0.00     0.000 C 
BRANCH   2   3
ATOM      3  C   UNL     1      43.519  56.269  58.882  1.00  0.00     0.000 C 
BRANCH   3   4
ATOM      4  C   UNL     1      43.836  56.838  60.276  1.00  0.00     0.000 C 
BRANCH   4   5
ATOM      5  C   UNL     1      45.036  57.800  60.265  1.00  0.00     0.000 C 
BRANCH   5   6
ATOM      6  C   UNL     1      45.754  57.935  58.907  1.00  0.00     0.000 C 
BRANCH   6   7
ATOM      7  C   UNL     1      45.603  59.325  58.256  1.00  0.00     0.000 C 
BRANCH   7   8
ATOM      8  C   UNL     1      44.178  59.887  58.405  1.00  0.00     0.000 C 
BRANCH   8   9
ATOM      9  C   UNL     1      44.165  61.394  58.704  1.00  0.00     0.000 C 
BRANCH   9  10
ATOM     10  C   UNL     1      43.322  61.742  59.943  1.00  0.00     0.006 C 
BRANCH  10  11
ATOM     11  C   UNL     1      42.855  60.489  60.696  1.00  0.00     0.053 C 
BRANCH  11  12
ATOM     12  C   UNL     1      42.894  60.682  62.181  1.00  0.00     0.041 C 
ATOM     13  O   UNL     1      42.243  61.618  62.716  1.00  0.00    -0.550 OA
ATOM     14  O   UNL     1      43.684  59.855  62.969  1.00  0.00    -0.550 OA
ENDBRANCH  11  12
ENDBRANCH  10  11
ENDBRANCH   9  10
ENDBRANCH   8   9
ENDBRANCH   7   8
ENDBRANCH   6   7
ENDBRANCH   5   6
ENDBRANCH   4   5
ENDBRANCH   3   4
ENDBRANCH   2   3
ENDBRANCH   1   2
BRANCH   1  15
ATOM     15  C   UNL     1      40.924  53.741  60.353  1.00  0.00     0.000 C 
BRANCH  15  16
ATOM     16  C   UNL     1      39.839  54.115  61.379  1.00  0.00     0.000 C 
BRANCH  16  17
ATOM     17  C   UNL     1      38.433  53.679  60.938  1.00  0.00     0.000 C 
BRANCH  17  18
ATOM     18  C   UNL     1      37.660  54.802  60.227  1.00  0.00    -0.000 C 
BRANCH  18  19
ATOM     19  C   UNL     1      38.142  56.206  60.630  1.00  0.00    -0.000 C 
BRANCH  19  20
ATOM     20  C   UNL     1      38.646  57.051  59.440  1.00  0.00    -0.000 C 
BRANCH  20  21
ATOM     21  C   UNL     1      40.099  57.523  59.634  1.00  0.00    -0.000 C 
BRANCH  21  22
ATOM     22  C   UNL     1      40.637  58.292  58.409  1.00  0.00    -0.000 C 
BRANCH  22  23
ATOM     23  C   UNL     1      39.548  58.671  57.387  1.00  0.00    -0.000 C 
BRANCH  23  24
ATOM     24  C   UNL     1      39.580  60.135  56.912  1.00  0.00    -0.000 C 
BRANCH  24  25
ATOM     25  C   UNL     1      40.961  60.812  56.998  1.00  0.00    -0.003 C 
ATOM     26  C   UNL     1      40.891  62.331  56.860  1.00  0.00     0.004 C 
ENDBRANCH  24  25
ENDBRANCH  23  24
ENDBRANCH  22  23
ENDBRANCH  21  22
ENDBRANCH  20  21
ENDBRANCH  19  20
ENDBRANCH  18  19
ENDBRANCH  17  18
ENDBRANCH  16  17
ENDBRANCH  15  16
ENDBRANCH   1  15
TORSDOF 22
ENDMDL
MODEL 6
REMARK VINA RESULT:    -5.238      4.231      8.868
REMARK INTER + INTRA:         -14.336
REMARK INTER:                 -11.592
REMARK INTRA:                  -2.744
REMARK UNBOUND:                -2.362
REMARK SMILES CCCCCCCCCCCCCCCCCCCCCCCC(=O)[O-]
REMARK SMILES IDX 13 1 14 2 15 3 16 4 17 5 18 6 19 7 20 8 21 9 22 10 23 11
REMARK SMILES IDX 24 12 25 13 26 14 12 15 11 16 10 17 9 18 8 19 7 20 6 21 5 22
REMARK SMILES IDX 4 23 3 24 2 25 1 26
REMARK H PARENT
REMARK Flexibility Score: inf
ROOT
ATOM      1  C   UNL     1      40.587  58.263  58.676  1.00  0.00     0.000 C 
ENDROOT
BRANCH   1   2
ATOM      2  C   UNL     1      39.338  58.256  57.777  1.00  0.00     0.000 C 
BRANCH   2   3
ATOM      3  C   UNL     1      39.225  59.522  56.914  1.00  0.00     0.000 C 
BRANCH   3   4
ATOM      4  C   UNL     1      40.381  60.510  57.153  1.00  0.00     0.000 C 
BRANCH   4   5
ATOM      5  C   UNL     1      40.694  61.367  55.915  1.00  0.00     0.000 C 
BRANCH   5   6
ATOM      6  C   UNL     1      41.374  62.719  56.211  1.00  0.00     0.000 C 
BRANCH   6   7
ATOM      7  C   UNL     1      41.678  62.951  57.706  1.00  0.00     0.000 C 
BRANCH   7   8
ATOM      8  C   UNL     1      43.188  62.935  58.003  1.00  0.00     0.000 C 
BRANCH   8   9
ATOM      9  C   UNL     1      43.512  62.353  59.388  1.00  0.00     0.000 C 
BRANCH   9  10
ATOM     10  C   UNL     1      43.305  60.830  59.451  1.00  0.00     0.006 C 
BRANCH  10  11
ATOM     11  C   UNL     1      43.945  60.109  58.258  1.00  0.00     0.053 C 
BRANCH  11  12
ATOM     12  C   UNL     1      45.364  59.718  58.538  1.00  0.00     0.041 C 
ATOM     13  O   UNL     1      45.622  58.858  59.420  1.00  0.00    -0.550 OA
ATOM     14  O   UNL     1      46.404  60.334  57.853  1.00  0.00    -0.550 OA
ENDBRANCH  11  12
ENDBRANCH  10  11
ENDBRANCH   9  10
ENDBRANCH   8   9
ENDBRANCH   7   8
ENDBRANCH   6   7
ENDBRANCH   5   6
ENDBRANCH   4   5
ENDBRANCH   3   4
ENDBRANCH   2   3
ENDBRANCH   1   2
BRANCH   1  15
ATOM     15  C   UNL     1      41.667  57.279  58.192  1.00  0.00     0.000 C 
BRANCH  15  16
ATOM     16  C   UNL     1      42.669  56.913  59.301  1.00  0.00     0.000 C 
BRANCH  16  17
ATOM     17  C   UNL     1      42.977  55.408  59.345  1.00  0.00     0.000 C 
BRANCH  17  18
ATOM     18  C   UNL     1      42.284  54.695  60.517  1.00  0.00    -0.000 C 
BRANCH  18  19
ATOM     19  C   UNL     1      40.920  54.099  60.131  1.00  0.00    -0.000 C 
BRANCH  19  20
ATOM     20  C   UNL     1      40.067  53.670  61.345  1.00  0.00    -0.000 C 
BRANCH  20  21
ATOM     21  C   UNL     1      38.724  54.419  61.409  1.00  0.00    -0.000 C 
BRANCH  21  22
ATOM     22  C   UNL     1      38.535  55.391  60.224  1.00  0.00    -0.000 C 
BRANCH  22  23
ATOM     23  C   UNL     1      37.093  55.436  59.683  1.00  0.00    -0.000 C 
BRANCH  23  24
ATOM     24  C   UNL     1      36.330  54.100  59.747  1.00  0.00    -0.000 C 
BRANCH  24  25
ATOM     25  C   UNL     1      35.441  53.804  58.525  1.00  0.00    -0.003 C 
ATOM     26  C   UNL     1      35.409  52.323  58.156  1.00  0.00     0.004 C 
ENDBRANCH  24  25
ENDBRANCH  23  24
ENDBRANCH  22  23
ENDBRANCH  21  22
ENDBRANCH  20  21
ENDBRANCH  19  20
ENDBRANCH  18  19
ENDBRANCH  17  18
ENDBRANCH  16  17
ENDBRANCH  15  16
ENDBRANCH   1  15
TORSDOF 22
ENDMDL
MODEL 7
REMARK VINA RESULT:    -5.223      3.090      8.716
REMARK INTER + INTRA:         -14.302
REMARK INTER:                 -12.288
REMARK INTRA:                  -2.014
REMARK UNBOUND:                -2.362
REMARK SMILES CCCCCCCCCCCCCCCCCCCCCCCC(=O)[O-]
REMARK SMILES IDX 13 1 14 2 15 3 16 4 17 5 18 6 19 7 20 8 21 9 22 10 23 11
REMARK SMILES IDX 24 12 25 13 26 14 12 15 11 16 10 17 9 18 8 19 7 20 6 21 5 22
REMARK SMILES IDX 4 23 3 24 2 25 1 26
REMARK H PARENT
REMARK Flexibility Score: inf
ROOT
ATOM      1  C   UNL     1      42.554  55.208  59.540  1.00  0.00     0.000 C 
ENDROOT
BRANCH   1   2
ATOM      2  C   UNL     1      43.792  55.911  60.126  1.00  0.00     0.000 C 
BRANCH   2   3
ATOM      3  C   UNL     1      43.560  57.409  60.372  1.00  0.00     0.000 C 
BRANCH   3   4
ATOM      4  C   UNL     1      44.832  58.250  60.164  1.00  0.00     0.000 C 
BRANCH   4   5
ATOM      5  C   UNL     1      45.337  58.212  58.712  1.00  0.00     0.000 C 
BRANCH   5   6
ATOM      6  C   UNL     1      46.348  59.316  58.342  1.00  0.00     0.000 C 
BRANCH   6   7
ATOM      7  C   UNL     1      46.110  60.652  59.076  1.00  0.00     0.000 C 
BRANCH   7   8
ATOM      8  C   UNL     1      45.020  61.502  58.399  1.00  0.00     0.000 C 
BRANCH   8   9
ATOM      9  C   UNL     1      43.698  61.503  59.184  1.00  0.00     0.000 C 
BRANCH   9  10
ATOM     10  C   UNL     1      42.468  61.386  58.267  1.00  0.00     0.006 C 
BRANCH  10  11
ATOM     11  C   UNL     1      42.360  60.000  57.618  1.00  0.00     0.053 C 
BRANCH  11  12
ATOM     12  C   UNL     1      40.964  59.459  57.687  1.00  0.00     0.041 C 
ATOM     13  O   UNL     1      40.005  60.117  57.206  1.00  0.00    -0.550 OA
ATOM     14  O   UNL     1      40.718  58.246  58.319  1.00  0.00    -0.550 OA
ENDBRANCH  11  12
ENDBRANCH  10  11
ENDBRANCH   9  10
ENDBRANCH   8   9
ENDBRANCH   7   8
ENDBRANCH   6   7
ENDBRANCH   5   6
ENDBRANCH   4   5
ENDBRANCH   3   4
ENDBRANCH   2   3
ENDBRANCH   1   2
BRANCH   1  15
ATOM     15  C   UNL     1      41.649  54.602  60.626  1.00  0.00     0.000 C 
BRANCH  15  16
ATOM     16  C   UNL     1      40.330  54.053  60.055  1.00  0.00     0.000 C 
BRANCH  16  17
ATOM     17  C   UNL     1      39.093  54.671  60.727  1.00  0.00     0.000 C 
BRANCH  17  18
ATOM     18  C   UNL     1      39.035  56.199  60.570  1.00  0.00    -0.000 C 
BRANCH  18  19
ATOM     19  C   UNL     1      37.939  56.657  59.592  1.00  0.00    -0.000 C 
BRANCH  19  20
ATOM     20  C   UNL     1      36.539  56.098  59.927  1.00  0.00    -0.000 C 
BRANCH  20  21
ATOM     21  C   UNL     1      35.954  55.261  58.775  1.00  0.00    -0.000 C 
BRANCH  21  22
ATOM     22  C   UNL     1      35.881  53.757  59.117  1.00  0.00    -0.000 C 
BRANCH  22  23
ATOM     23  C   UNL     1      35.193  52.907  58.032  1.00  0.00    -0.000 C 
BRANCH  23  24
ATOM     24  C   UNL     1      35.703  51.459  57.918  1.00  0.00    -0.000 C 
BRANCH  24  25
ATOM     25  C   UNL     1      34.609  50.407  57.658  1.00  0.00    -0.003 C 
ATOM     26  C   UNL     1      35.123  49.188  56.895  1.00  0.00     0.004 C 
ENDBRANCH  24  25
ENDBRANCH  23  24
ENDBRANCH  22  23
ENDBRANCH  21  22
ENDBRANCH  20  21
ENDBRANCH  19  20
ENDBRANCH  18  19
ENDBRANCH  17  18
ENDBRANCH  16  17
ENDBRANCH  15  16
ENDBRANCH   1  15
TORSDOF 22
ENDMDL
MODEL 8
REMARK VINA RESULT:    -5.198      3.615      8.552
REMARK INTER + INTRA:         -14.246
REMARK INTER:                 -12.078
REMARK INTRA:                  -2.168
REMARK UNBOUND:                -2.362
REMARK SMILES CCCCCCCCCCCCCCCCCCCCCCCC(=O)[O-]
REMARK SMILES IDX 13 1 14 2 15 3 16 4 17 5 18 6 19 7 20 8 21 9 22 10 23 11
REMARK SMILES IDX 24 12 25 13 26 14 12 15 11 16 10 17 9 18 8 19 7 20 6 21 5 22
REMARK SMILES IDX 4 23 3 24 2 25 1 26
REMARK H PARENT
REMARK Flexibility Score: inf
ROOT
ATOM      1  C   UNL     1      44.118  56.481  59.860  1.00  0.00     0.000 C 
ENDROOT
BRANCH   1   2
ATOM      2  C   UNL     1      44.109  57.817  60.625  1.00  0.00     0.000 C 
BRANCH   2   3
ATOM      3  C   UNL     1      45.431  58.587  60.483  1.00  0.00     0.000 C 
BRANCH   3   4
ATOM      4  C   UNL     1      46.176  58.254  59.178  1.00  0.00     0.000 C 
BRANCH   4   5
ATOM      5  C   UNL     1      45.937  59.298  58.075  1.00  0.00     0.000 C 
BRANCH   5   6
ATOM      6  C   UNL     1      46.219  60.758  58.484  1.00  0.00     0.000 C 
BRANCH   6   7
ATOM      7  C   UNL     1      45.106  61.746  58.078  1.00  0.00     0.000 C 
BRANCH   7   8
ATOM      8  C   UNL     1      44.001  61.850  59.144  1.00  0.00     0.000 C 
BRANCH   8   9
ATOM      9  C   UNL     1      42.589  61.748  58.545  1.00  0.00     0.000 C 
BRANCH   9  10
ATOM     10  C   UNL     1      42.321  62.826  57.481  1.00  0.00     0.006 C 
BRANCH  10  11
ATOM     11  C   UNL     1      40.858  62.830  57.017  1.00  0.00     0.053 C 
BRANCH  11  12
ATOM     12  C   UNL     1      40.539  61.639  56.166  1.00  0.00     0.041 C 
ATOM     13  O   UNL     1      40.082  60.590  56.691  1.00  0.00    -0.550 OA
ATOM     14  O   UNL     1      40.785  61.673  54.799  1.00  0.00    -0.550 OA
ENDBRANCH  11  12
ENDBRANCH  10  11
ENDBRANCH   9  10
ENDBRANCH   8   9
ENDBRANCH   7   8
ENDBRANCH   6   7
ENDBRANCH   5   6
ENDBRANCH   4   5
ENDBRANCH   3   4
ENDBRANCH   2   3
ENDBRANCH   1   2
BRANCH   1  15
ATOM     15  C   UNL     1      42.746  56.139  59.253  1.00  0.00     0.000 C 
BRANCH  15  16
ATOM     16  C   UNL     1      42.243  57.225  58.286  1.00  0.00     0.000 C 
BRANCH  16  17
ATOM     17  C   UNL     1      40.922  57.862  58.748  1.00  0.00     0.000 C 
BRANCH  17  18
ATOM     18  C   UNL     1      40.483  57.374  60.138  1.00  0.00    -0.000 C 
BRANCH  18  19
ATOM     19  C   UNL     1      39.115  56.670  60.118  1.00  0.00    -0.000 C 
BRANCH  19  20
ATOM     20  C   UNL     1      39.178  55.186  60.537  1.00  0.00    -0.000 C 
BRANCH  20  21
ATOM     21  C   UNL     1      37.812  54.486  60.413  1.00  0.00    -0.000 C 
BRANCH  21  22
ATOM     22  C   UNL     1      36.759  55.370  59.711  1.00  0.00    -0.000 C 
BRANCH  22  23
ATOM     23  C   UNL     1      35.773  54.580  58.830  1.00  0.00    -0.000 C 
BRANCH  23  24
ATOM     24  C   UNL     1      35.995  53.056  58.809  1.00  0.00    -0.000 C 
BRANCH  24  25
ATOM     25  C   UNL     1      34.917  52.257  58.054  1.00  0.00    -0.003 C 
ATOM     26  C   UNL     1      35.380  50.857  57.658  1.00  0.00     0.004 C 
ENDBRANCH  24  25
ENDBRANCH  23  24
ENDBRANCH  22  23
ENDBRANCH  21  22
ENDBRANCH  20  21
ENDBRANCH  19  20
ENDBRANCH  18  19
ENDBRANCH  17  18
ENDBRANCH  16  17
ENDBRANCH  15  16
ENDBRANCH   1  15
TORSDOF 22
ENDMDL
MODEL 9
REMARK VINA RESULT:    -5.188      3.535      8.150
REMARK INTER + INTRA:         -14.223
REMARK INTER:                 -10.909
REMARK INTRA:                  -3.314
REMARK UNBOUND:                -2.362
REMARK SMILES CCCCCCCCCCCCCCCCCCCCCCCC(=O)[O-]
REMARK SMILES IDX 13 1 14 2 15 3 16 4 17 5 18 6 19 7 20 8 21 9 22 10 23 11
REMARK SMILES IDX 24 12 25 13 26 14 12 15 11 16 10 17 9 18 8 19 7 20 6 21 5 22
REMARK SMILES IDX 4 23 3 24 2 25 1 26
REMARK H PARENT
REMARK Flexibility Score: inf
ROOT
ATOM      1  C   UNL     1      44.415  57.525  60.171  1.00  0.00     0.000 C 
ENDROOT
BRANCH   1   2
ATOM      2  C   UNL     1      44.953  57.894  58.777  1.00  0.00     0.000 C 
BRANCH   2   3
ATOM      3  C   UNL     1      46.442  58.273  58.799  1.00  0.00     0.000 C 
BRANCH   3   4
ATOM      4  C   UNL     1      46.939  58.646  60.207  1.00  0.00     0.000 C 
BRANCH   4   5
ATOM      5  C   UNL     1      46.885  60.160  60.473  1.00  0.00     0.000 C 
BRANCH   5   6
ATOM      6  C   UNL     1      45.724  60.624  61.375  1.00  0.00     0.000 C 
BRANCH   6   7
ATOM      7  C   UNL     1      44.587  61.336  60.612  1.00  0.00     0.000 C 
BRANCH   7   8
ATOM      8  C   UNL     1      45.014  61.764  59.197  1.00  0.00     0.000 C 
BRANCH   8   9
ATOM      9  C   UNL     1      43.904  61.550  58.155  1.00  0.00     0.000 C 
BRANCH   9  10
ATOM     10  C   UNL     1      42.644  60.906  58.759  1.00  0.00     0.006 C 
BRANCH  10  11
ATOM     11  C   UNL     1      41.809  60.168  57.705  1.00  0.00     0.053 C 
BRANCH  11  12
ATOM     12  C   UNL     1      40.716  61.032  57.153  1.00  0.00     0.041 C 
ATOM     13  O   UNL     1      40.503  62.173  57.640  1.00  0.00    -0.550 OA
ATOM     14  O   UNL     1      39.907  60.560  56.127  1.00  0.00    -0.550 OA
ENDBRANCH  11  12
ENDBRANCH  10  11
ENDBRANCH   9  10
ENDBRANCH   8   9
ENDBRANCH   7   8
ENDBRANCH   6   7
ENDBRANCH   5   6
ENDBRANCH   4   5
ENDBRANCH   3   4
ENDBRANCH   2   3
ENDBRANCH   1   2
BRANCH   1  15
ATOM     15  C   UNL     1      42.879  57.455  60.212  1.00  0.00     0.000 C 
BRANCH  15  16
ATOM     16  C   UNL     1      42.295  56.641  59.044  1.00  0.00     0.000 C 
BRANCH  16  17
ATOM     17  C   UNL     1      42.639  55.146  59.136  1.00  0.00     0.000 C 
BRANCH  17  18
ATOM     18  C   UNL     1      41.984  54.460  60.346  1.00  0.00    -0.000 C 
BRANCH  18  19
ATOM     19  C   UNL     1      40.489  54.169  60.130  1.00  0.00    -0.000 C 
BRANCH  19  20
ATOM     20  C   UNL     1      39.559  55.016  61.026  1.00  0.00    -0.000 C 
BRANCH  20  21
ATOM     21  C   UNL     1      38.836  56.122  60.236  1.00  0.00    -0.000 C 
BRANCH  21  22
ATOM     22  C   UNL     1      37.565  56.624  60.954  1.00  0.00    -0.000 C 
BRANCH  22  23
ATOM     23  C   UNL     1      36.279  56.466  60.120  1.00  0.00    -0.000 C 
BRANCH  23  24
ATOM     24  C   UNL     1      36.435  55.642  58.830  1.00  0.00    -0.000 C 
BRANCH  24  25
ATOM     25  C   UNL     1      35.834  54.226  58.891  1.00  0.00    -0.003 C 
ATOM     26  C   UNL     1      36.611  53.287  59.812  1.00  0.00     0.004 C 
ENDBRANCH  24  25
ENDBRANCH  23  24
ENDBRANCH  22  23
ENDBRANCH  21  22
ENDBRANCH  20  21
ENDBRANCH  19  20
ENDBRANCH  18  19
ENDBRANCH  17  18
ENDBRANCH  16  17
ENDBRANCH  15  16
ENDBRANCH   1  15
TORSDOF 22
ENDMDL
