MODEL 1
REMARK VINA RESULT:    -5.001      0.000      0.000
REMARK INTER + INTRA:          -9.428
REMARK INTER:                  -8.510
REMARK INTRA:                  -0.918
REMARK UNBOUND:                -0.918
REMARK SMILES CCCCCCCCCCCCCC(=O)[O-]
REMARK SMILES IDX 8 1 9 2 10 3 11 4 12 5 13 6 14 7 15 8 16 9 7 10 6 11 5 12
REMARK SMILES IDX 4 13 3 14 2 15 1 16
REMARK H PARENT
REMARK Flexibility Score: inf
ROOT
ATOM      1  C   UNL     1      13.674  30.173  61.657  1.00  0.00     0.000 C 
ENDROOT
BRANCH   1   2
ATOM      2  C   UNL     1      12.838  28.905  61.904  1.00  0.00     0.000 C 
BRANCH   2   3
ATOM      3  C   UNL     1      12.170  28.380  60.625  1.00  0.00     0.000 C 
BRANCH   3   4
ATOM      4  C   UNL     1      10.925  29.189  60.233  1.00  0.00     0.000 C 
BRANCH   4   5
ATOM      5  C   UNL     1      10.173  29.678  61.479  1.00  0.00     0.006 C 
BRANCH   5   6
ATOM      6  C   UNL     1       8.706  29.227  61.488  1.00  0.00     0.053 C 
BRANCH   6   7
ATOM      7  C   UNL     1       7.809  30.239  60.843  1.00  0.00     0.041 C 
ATOM      8  O   UNL     1       6.681  30.493  61.341  1.00  0.00    -0.550 OA
ATOM      9  O   UNL     1       8.206  30.877  59.674  1.00  0.00    -0.550 OA
ENDBRANCH   6   7
ENDBRANCH   5   6
ENDBRANCH   4   5
ENDBRANCH   3   4
ENDBRANCH   2   3
ENDBRANCH   1   2
BRANCH   1  10
ATOM     10  C   UNL     1      14.911  29.903  60.787  1.00  0.00     0.000 C 
BRANCH  10  11
ATOM     11  C   UNL     1      16.084  29.318  61.593  1.00  0.00    -0.000 C 
BRANCH  11  12
ATOM     12  C   UNL     1      16.360  30.100  62.887  1.00  0.00    -0.000 C 
BRANCH  12  13
ATOM     13  C   UNL     1      16.191  29.238  64.146  1.00  0.00    -0.000 C 
BRANCH  13  14
ATOM     14  C   UNL     1      15.790  27.804  63.780  1.00  0.00    -0.000 C 
BRANCH  14  15
ATOM     15  C   UNL     1      16.793  26.791  64.346  1.00  0.00    -0.003 C 
ATOM     16  C   UNL     1      17.931  26.534  63.363  1.00  0.00     0.004 C 
ENDBRANCH  14  15
ENDBRANCH  13  14
ENDBRANCH  12  13
ENDBRANCH  11  12
ENDBRANCH  10  11
ENDBRANCH   1  10
TORSDOF 12
ENDMDL
MODEL 2
REMARK VINA RESULT:    -4.848      1.321      2.413
REMARK INTER + INTRA:          -9.167
REMARK INTER:                  -7.877
REMARK INTRA:                  -1.290
REMARK UNBOUND:                -0.918
REMARK SMILES CCCCCCCCCCCCCC(=O)[O-]
REMARK SMILES IDX 8 1 9 2 10 3 11 4 12 5 13 6 14 7 15 8 16 9 7 10 6 11 5 12
REMARK SMILES IDX 4 13 3 14 2 15 1 16
REMARK H PARENT
REMARK Flexibility Score: inf
ROOT
ATOM      1  C   UNL     1      13.542  30.079  62.063  1.00  0.00     0.000 C 
ENDROOT
BRANCH   1   2
ATOM      2  C   UNL     1      13.757  30.473  60.591  1.00  0.00     0.000 C 
BRANCH   2   3
ATOM      3  C   UNL     1      12.962  29.586  59.621  1.00  0.00     0.000 C 
BRANCH   3   4
ATOM      4  C   UNL     1      11.690  30.271  59.101  1.00  0.00     0.000 C 
BRANCH   4   5
ATOM      5  C   UNL     1      10.490  29.314  59.153  1.00  0.00     0.006 C 
BRANCH   5   6
ATOM      6  C   UNL     1       9.872  29.230  60.556  1.00  0.00     0.053 C 
BRANCH   6   7
ATOM      7  C   UNL     1       8.579  29.981  60.640  1.00  0.00     0.041 C 
ATOM      8  O   UNL     1       8.218  30.729  59.694  1.00  0.00    -0.550 OA
ATOM      9  O   UNL     1       7.787  29.878  61.777  1.00  0.00    -0.550 OA
ENDBRANCH   6   7
ENDBRANCH   5   6
ENDBRANCH   4   5
ENDBRANCH   3   4
ENDBRANCH   2   3
ENDBRANCH   1   2
BRANCH   1  10
ATOM     10  C   UNL     1      13.042  28.635  62.220  1.00  0.00     0.000 C 
BRANCH  10  11
ATOM     11  C   UNL     1      14.029  27.750  63.002  1.00  0.00    -0.000 C 
BRANCH  11  12
ATOM     12  C   UNL     1      15.152  28.562  63.665  1.00  0.00    -0.000 C 
BRANCH  12  13
ATOM     13  C   UNL     1      16.531  27.904  63.505  1.00  0.00    -0.000 C 
BRANCH  13  14
ATOM     14  C   UNL     1      17.264  28.456  62.278  1.00  0.00    -0.000 C 
BRANCH  14  15
ATOM     15  C   UNL     1      17.134  29.982  62.198  1.00  0.00    -0.003 C 
ATOM     16  C   UNL     1      18.347  30.603  61.512  1.00  0.00     0.004 C 
ENDBRANCH  14  15
ENDBRANCH  13  14
ENDBRANCH  12  13
ENDBRANCH  11  12
ENDBRANCH  10  11
ENDBRANCH   1  10
TORSDOF 12
ENDMDL
MODEL 3
REMARK VINA RESULT:    -4.846      3.634      7.273
REMARK INTER + INTRA:          -9.165
REMARK INTER:                  -8.313
REMARK INTRA:                  -0.852
REMARK UNBOUND:                -0.918
REMARK SMILES CCCCCCCCCCCCCC(=O)[O-]
REMARK SMILES IDX 8 1 9 2 10 3 11 4 12 5 13 6 14 7 15 8 16 9 7 10 6 11 5 12
REMARK SMILES IDX 4 13 3 14 2 15 1 16
REMARK H PARENT
REMARK Flexibility Score: inf
ROOT
ATOM      1  C   UNL     1      13.592  30.178  61.299  1.00  0.00     0.000 C 
ENDROOT
BRANCH   1   2
ATOM      2  C   UNL     1      14.388  30.375  59.996  1.00  0.00     0.000 C 
BRANCH   2   3
ATOM      3  C   UNL     1      15.865  29.978  60.140  1.00  0.00     0.000 C 
BRANCH   3   4
ATOM      4  C   UNL     1      16.408  30.225  61.555  1.00  0.00     0.000 C 
BRANCH   4   5
ATOM      5  C   UNL     1      16.756  28.899  62.249  1.00  0.00     0.006 C 
BRANCH   5   6
ATOM      6  C   UNL     1      16.237  28.845  63.693  1.00  0.00     0.053 C 
BRANCH   6   7
ATOM      7  C   UNL     1      15.893  27.447  64.107  1.00  0.00     0.041 C 
ATOM      8  O   UNL     1      14.692  27.070  64.128  1.00  0.00    -0.550 OA
ATOM      9  O   UNL     1      16.897  26.571  64.502  1.00  0.00    -0.550 OA
ENDBRANCH   6   7
ENDBRANCH   5   6
ENDBRANCH   4   5
ENDBRANCH   3   4
ENDBRANCH   2   3
ENDBRANCH   1   2
BRANCH   1  10
ATOM     10  C   UNL     1      12.359  29.282  61.106  1.00  0.00     0.000 C 
BRANCH  10  11
ATOM     11  C   UNL     1      12.046  29.021  59.622  1.00  0.00    -0.000 C 
BRANCH  11  12
ATOM     12  C   UNL     1      11.193  30.135  58.993  1.00  0.00    -0.000 C 
BRANCH  12  13
ATOM     13  C   UNL     1       9.758  29.681  58.691  1.00  0.00    -0.000 C 
BRANCH  13  14
ATOM     14  C   UNL     1       8.773  30.249  59.720  1.00  0.00    -0.000 C 
BRANCH  14  15
ATOM     15  C   UNL     1       8.325  29.166  60.709  1.00  0.00    -0.003 C 
ATOM     16  C   UNL     1       8.746  29.514  62.134  1.00  0.00     0.004 C 
ENDBRANCH  14  15
ENDBRANCH  13  14
ENDBRANCH  12  13
ENDBRANCH  11  12
ENDBRANCH  10  11
ENDBRANCH   1  10
TORSDOF 12
ENDMDL
MODEL 4
REMARK VINA RESULT:    -4.838      2.228      4.140
REMARK INTER + INTRA:          -9.151
REMARK INTER:                  -7.820
REMARK INTRA:                  -1.331
REMARK UNBOUND:                -0.918
REMARK SMILES CCCCCCCCCCCCCC(=O)[O-]
REMARK SMILES IDX 8 1 9 2 10 3 11 4 12 5 13 6 14 7 15 8 16 9 7 10 6 11 5 12
REMARK SMILES IDX 4 13 3 14 2 15 1 16
REMARK H PARENT
REMARK Flexibility Score: inf
ROOT
ATOM      1  C   UNL     1      13.811  30.500  61.997  1.00  0.00     0.000 C 
ENDROOT
BRANCH   1   2
ATOM      2  C   UNL     1      12.422  29.843  62.084  1.00  0.00     0.000 C 
BRANCH   2   3
ATOM      3  C   UNL     1      12.388  28.447  61.444  1.00  0.00     0.000 C 
BRANCH   3   4
ATOM      4  C   UNL     1      11.716  28.446  60.063  1.00  0.00     0.000 C 
BRANCH   4   5
ATOM      5  C   UNL     1      10.638  29.536  59.976  1.00  0.00     0.006 C 
BRANCH   5   6
ATOM      6  C   UNL     1       9.219  28.960  60.080  1.00  0.00     0.053 C 
BRANCH   6   7
ATOM      7  C   UNL     1       8.465  29.544  61.235  1.00  0.00     0.041 C 
ATOM      8  O   UNL     1       8.957  29.510  62.394  1.00  0.00    -0.550 OA
ATOM      9  O   UNL     1       7.206  30.097  61.037  1.00  0.00    -0.550 OA
ENDBRANCH   6   7
ENDBRANCH   5   6
ENDBRANCH   4   5
ENDBRANCH   3   4
ENDBRANCH   2   3
ENDBRANCH   1   2
BRANCH   1  10
ATOM     10  C   UNL     1      14.928  29.481  61.721  1.00  0.00     0.000 C 
BRANCH  10  11
ATOM     11  C   UNL     1      15.685  29.774  60.413  1.00  0.00    -0.000 C 
BRANCH  11  12
ATOM     12  C   UNL     1      14.809  30.489  59.372  1.00  0.00    -0.000 C 
BRANCH  12  13
ATOM     13  C   UNL     1      14.858  29.812  57.994  1.00  0.00    -0.000 C 
BRANCH  13  14
ATOM     14  C   UNL     1      15.685  30.640  57.004  1.00  0.00    -0.000 C 
BRANCH  14  15
ATOM     15  C   UNL     1      15.930  32.055  57.539  1.00  0.00    -0.003 C 
ATOM     16  C   UNL     1      17.420  32.380  57.579  1.00  0.00     0.004 C 
ENDBRANCH  14  15
ENDBRANCH  13  14
ENDBRANCH  12  13
ENDBRANCH  11  12
ENDBRANCH  10  11
ENDBRANCH   1  10
TORSDOF 12
ENDMDL
MODEL 5
REMARK VINA RESULT:    -4.808      4.189      6.983
REMARK INTER + INTRA:          -9.100
REMARK INTER:                  -7.685
REMARK INTRA:                  -1.415
REMARK UNBOUND:                -0.918
REMARK SMILES CCCCCCCCCCCCCC(=O)[O-]
REMARK SMILES IDX 8 1 9 2 10 3 11 4 12 5 13 6 14 7 15 8 16 9 7 10 6 11 5 12
REMARK SMILES IDX 4 13 3 14 2 15 1 16
REMARK H PARENT
REMARK Flexibility Score: inf
ROOT
ATOM      1  C   UNL     1      11.487  29.807  61.893  1.00  0.00     0.000 C 
ENDROOT
BRANCH   1   2
ATOM      2  C   UNL     1      12.878  30.171  62.443  1.00  0.00     0.000 C 
BRANCH   2   3
ATOM      3  C   UNL     1      13.959  29.160  62.031  1.00  0.00     0.000 C 
BRANCH   3   4
ATOM      4  C   UNL     1      15.241  29.838  61.526  1.00  0.00     0.000 C 
BRANCH   4   5
ATOM      5  C   UNL     1      16.303  29.899  62.635  1.00  0.00     0.006 C 
BRANCH   5   6
ATOM      6  C   UNL     1      16.083  28.826  63.711  1.00  0.00     0.053 C 
BRANCH   6   7
ATOM      7  C   UNL     1      17.004  27.659  63.527  1.00  0.00     0.041 C 
ATOM      8  O   UNL     1      17.735  27.583  62.505  1.00  0.00    -0.550 OA
ATOM      9  O   UNL     1      17.030  26.638  64.470  1.00  0.00    -0.550 OA
ENDBRANCH   6   7
ENDBRANCH   5   6
ENDBRANCH   4   5
ENDBRANCH   3   4
ENDBRANCH   2   3
ENDBRANCH   1   2
BRANCH   1  10
ATOM     10  C   UNL     1      11.564  28.967  60.608  1.00  0.00     0.000 C 
BRANCH  10  11
ATOM     11  C   UNL     1      10.678  29.529  59.482  1.00  0.00    -0.000 C 
BRANCH  11  12
ATOM     12  C   UNL     1      11.419  30.548  58.601  1.00  0.00    -0.000 C 
BRANCH  12  13
ATOM     13  C   UNL     1      12.944  30.367  58.643  1.00  0.00    -0.000 C 
BRANCH  13  14
ATOM     14  C   UNL     1      13.655  31.722  58.735  1.00  0.00    -0.000 C 
BRANCH  14  15
ATOM     15  C   UNL     1      15.089  31.629  58.199  1.00  0.00    -0.003 C 
ATOM     16  C   UNL     1      15.267  30.400  57.313  1.00  0.00     0.004 C 
ENDBRANCH  14  15
ENDBRANCH  13  14
ENDBRANCH  12  13
ENDBRANCH  11  12
ENDBRANCH  10  11
ENDBRANCH   1  10
TORSDOF 12
ENDMDL
MODEL 6
REMARK VINA RESULT:    -4.800      3.168      3.903
REMARK INTER + INTRA:          -9.086
REMARK INTER:                  -7.410
REMARK INTRA:                  -1.676
REMARK UNBOUND:                -0.918
REMARK SMILES CCCCCCCCCCCCCC(=O)[O-]
REMARK SMILES IDX 8 1 9 2 10 3 11 4 12 5 13 6 14 7 15 8 16 9 7 10 6 11 5 12
REMARK SMILES IDX 4 13 3 14 2 15 1 16
REMARK H PARENT
REMARK Flexibility Score: inf
ROOT
ATOM      1  C   UNL     1      12.680  29.778  62.007  1.00  0.00     0.000 C 
ENDROOT
BRANCH   1   2
ATOM      2  C   UNL     1      12.592  28.440  61.254  1.00  0.00     0.000 C 
BRANCH   2   3
ATOM      3  C   UNL     1      11.621  28.494  60.065  1.00  0.00     0.000 C 
BRANCH   3   4
ATOM      4  C   UNL     1      11.120  29.916  59.774  1.00  0.00     0.000 C 
BRANCH   4   5
ATOM      5  C   UNL     1      11.595  30.394  58.394  1.00  0.00     0.006 C 
BRANCH   5   6
ATOM      6  C   UNL     1      12.914  31.176  58.472  1.00  0.00     0.053 C 
BRANCH   6   7
ATOM      7  C   UNL     1      13.861  30.779  57.381  1.00  0.00     0.041 C 
ATOM      8  O   UNL     1      14.518  29.710  57.472  1.00  0.00    -0.550 OA
ATOM      9  O   UNL     1      14.041  31.607  56.280  1.00  0.00    -0.550 OA
ENDBRANCH   6   7
ENDBRANCH   5   6
ENDBRANCH   4   5
ENDBRANCH   3   4
ENDBRANCH   2   3
ENDBRANCH   1   2
BRANCH   1  10
ATOM     10  C   UNL     1      14.072  30.422  61.906  1.00  0.00     0.000 C 
BRANCH  10  11
ATOM     11  C   UNL     1      15.006  29.658  60.951  1.00  0.00    -0.000 C 
BRANCH  11  12
ATOM     12  C   UNL     1      16.477  30.078  61.102  1.00  0.00    -0.000 C 
BRANCH  12  13
ATOM     13  C   UNL     1      17.066  29.687  62.465  1.00  0.00    -0.000 C 
BRANCH  13  14
ATOM     14  C   UNL     1      16.866  28.192  62.742  1.00  0.00    -0.000 C 
BRANCH  14  15
ATOM     15  C   UNL     1      16.230  27.967  64.118  1.00  0.00    -0.003 C 
ATOM     16  C   UNL     1      14.842  27.349  63.989  1.00  0.00     0.004 C 
ENDBRANCH  14  15
ENDBRANCH  13  14
ENDBRANCH  12  13
ENDBRANCH  11  12
ENDBRANCH  10  11
ENDBRANCH   1  10
TORSDOF 12
ENDMDL
MODEL 7
REMARK VINA RESULT:    -4.784      4.725      7.830
REMARK INTER + INTRA:          -9.058
REMARK INTER:                  -8.178
REMARK INTRA:                  -0.880
REMARK UNBOUND:                -0.918
REMARK SMILES CCCCCCCCCCCCCC(=O)[O-]
REMARK SMILES IDX 8 1 9 2 10 3 11 4 12 5 13 6 14 7 15 8 16 9 7 10 6 11 5 12
REMARK SMILES IDX 4 13 3 14 2 15 1 16
REMARK H PARENT
REMARK Flexibility Score: inf
ROOT
ATOM      1  C   UNL     1      15.998  29.746  60.792  1.00  0.00     0.000 C 
ENDROOT
BRANCH   1   2
ATOM      2  C   UNL     1      15.267  29.819  62.144  1.00  0.00     0.000 C 
BRANCH   2   3
ATOM      3  C   UNL     1      15.066  28.436  62.782  1.00  0.00     0.000 C 
BRANCH   3   4
ATOM      4  C   UNL     1      15.802  28.290  64.122  1.00  0.00     0.000 C 
BRANCH   4   5
ATOM      5  C   UNL     1      16.792  27.117  64.080  1.00  0.00     0.006 C 
BRANCH   5   6
ATOM      6  C   UNL     1      17.841  27.280  62.970  1.00  0.00     0.053 C 
BRANCH   6   7
ATOM      7  C   UNL     1      18.773  26.109  62.910  1.00  0.00     0.041 C 
ATOM      8  O   UNL     1      19.109  25.512  63.966  1.00  0.00    -0.550 OA
ATOM      9  O   UNL     1      19.297  25.699  61.690  1.00  0.00    -0.550 OA
ENDBRANCH   6   7
ENDBRANCH   5   6
ENDBRANCH   4   5
ENDBRANCH   3   4
ENDBRANCH   2   3
ENDBRANCH   1   2
BRANCH   1  10
ATOM     10  C   UNL     1      15.143  30.279  59.631  1.00  0.00     0.000 C 
BRANCH  10  11
ATOM     11  C   UNL     1      13.666  30.460  60.022  1.00  0.00    -0.000 C 
BRANCH  11  12
ATOM     12  C   UNL     1      12.792  29.268  59.599  1.00  0.00    -0.000 C 
BRANCH  12  13
ATOM     13  C   UNL     1      11.871  28.781  60.727  1.00  0.00    -0.000 C 
BRANCH  13  14
ATOM     14  C   UNL     1      10.561  29.578  60.749  1.00  0.00    -0.000 C 
BRANCH  14  15
ATOM     15  C   UNL     1       9.451  28.835  59.997  1.00  0.00    -0.003 C 
ATOM     16  C   UNL     1       9.362  29.298  58.546  1.00  0.00     0.004 C 
ENDBRANCH  14  15
ENDBRANCH  13  14
ENDBRANCH  12  13
ENDBRANCH  11  12
ENDBRANCH  10  11
ENDBRANCH   1  10
TORSDOF 12
ENDMDL
MODEL 8
REMARK VINA RESULT:    -4.745      4.743      8.221
REMARK INTER + INTRA:          -8.992
REMARK INTER:                  -8.171
REMARK INTRA:                  -0.820
REMARK UNBOUND:                -0.918
REMARK SMILES CCCCCCCCCCCCCC(=O)[O-]
REMARK SMILES IDX 8 1 9 2 10 3 11 4 12 5 13 6 14 7 15 8 16 9 7 10 6 11 5 12
REMARK SMILES IDX 4 13 3 14 2 15 1 16
REMARK H PARENT
REMARK Flexibility Score: inf
ROOT
ATOM      1  C   UNL     1      12.663  28.750  61.898  1.00  0.00     0.000 C 
ENDROOT
BRANCH   1   2
ATOM      2  C   UNL     1      14.182  28.784  62.143  1.00  0.00     0.000 C 
BRANCH   2   3
ATOM      3  C   UNL     1      14.582  28.113  63.466  1.00  0.00     0.000 C 
BRANCH   3   4
ATOM      4  C   UNL     1      16.026  28.432  63.877  1.00  0.00     0.000 C 
BRANCH   4   5
ATOM      5  C   UNL     1      16.922  27.191  63.746  1.00  0.00     0.006 C 
BRANCH   5   6
ATOM      6  C   UNL     1      18.004  27.365  62.672  1.00  0.00     0.053 C 
BRANCH   6   7
ATOM      7  C   UNL     1      18.930  26.188  62.620  1.00  0.00     0.041 C 
ATOM      8  O   UNL     1      19.382  25.787  61.516  1.00  0.00    -0.550 OA
ATOM      9  O   UNL     1      19.268  25.516  63.789  1.00  0.00    -0.550 OA
ENDBRANCH   6   7
ENDBRANCH   5   6
ENDBRANCH   4   5
ENDBRANCH   3   4
ENDBRANCH   2   3
ENDBRANCH   1   2
BRANCH   1  10
ATOM     10  C   UNL     1      12.310  28.467  60.430  1.00  0.00     0.000 C 
BRANCH  10  11
ATOM     11  C   UNL     1      12.660  29.642  59.501  1.00  0.00    -0.000 C 
BRANCH  11  12
ATOM     12  C   UNL     1      11.413  30.363  58.964  1.00  0.00    -0.000 C 
BRANCH  12  13
ATOM     13  C   UNL     1      10.145  29.501  59.060  1.00  0.00    -0.000 C 
BRANCH  13  14
ATOM     14  C   UNL     1       8.986  30.294  59.674  1.00  0.00    -0.000 C 
BRANCH  14  15
ATOM     15  C   UNL     1       8.262  29.471  60.746  1.00  0.00    -0.003 C 
ATOM     16  C   UNL     1       9.027  29.490  62.065  1.00  0.00     0.004 C 
ENDBRANCH  14  15
ENDBRANCH  13  14
ENDBRANCH  12  13
ENDBRANCH  11  12
ENDBRANCH  10  11
ENDBRANCH   1  10
TORSDOF 12
ENDMDL
MODEL 9
REMARK VINA RESULT:    -4.700      3.184      5.515
REMARK INTER + INTRA:          -8.915
REMARK INTER:                  -7.381
REMARK INTRA:                  -1.533
REMARK UNBOUND:                -0.918
REMARK SMILES CCCCCCCCCCCCCC(=O)[O-]
REMARK SMILES IDX 8 1 9 2 10 3 11 4 12 5 13 6 14 7 15 8 16 9 7 10 6 11 5 12
REMARK SMILES IDX 4 13 3 14 2 15 1 16
REMARK H PARENT
REMARK Flexibility Score: inf
ROOT
ATOM      1  C   UNL     1      15.825  30.332  59.614  1.00  0.00     0.000 C 
ENDROOT
BRANCH   1   2
ATOM      2  C   UNL     1      16.020  29.614  60.961  1.00  0.00     0.000 C 
BRANCH   2   3
ATOM      3  C   UNL     1      14.831  29.811  61.914  1.00  0.00     0.000 C 
BRANCH   3   4
ATOM      4  C   UNL     1      14.249  28.483  62.418  1.00  0.00     0.000 C 
BRANCH   4   5
ATOM      5  C   UNL     1      12.840  28.251  61.854  1.00  0.00     0.006 C 
BRANCH   5   6
ATOM      6  C   UNL     1      12.013  29.543  61.805  1.00  0.00     0.053 C 
BRANCH   6   7
ATOM      7  C   UNL     1      10.887  29.446  60.821  1.00  0.00     0.041 C 
ATOM      8  O   UNL     1      11.108  29.069  59.641  1.00  0.00    -0.550 OA
ATOM      9  O   UNL     1       9.598  29.803  61.201  1.00  0.00    -0.550 OA
ENDBRANCH   6   7
ENDBRANCH   5   6
ENDBRANCH   4   5
ENDBRANCH   3   4
ENDBRANCH   2   3
ENDBRANCH   1   2
BRANCH   1  10
ATOM     10  C   UNL     1      14.411  30.139  59.044  1.00  0.00     0.000 C 
BRANCH  10  11
ATOM     11  C   UNL     1      13.639  31.464  58.920  1.00  0.00    -0.000 C 
BRANCH  11  12
ATOM     12  C   UNL     1      14.432  32.542  58.162  1.00  0.00    -0.000 C 
BRANCH  12  13
ATOM     13  C   UNL     1      14.522  32.259  56.655  1.00  0.00    -0.000 C 
BRANCH  13  14
ATOM     14  C   UNL     1      15.975  32.024  56.226  1.00  0.00    -0.000 C 
BRANCH  14  15
ATOM     15  C   UNL     1      16.171  30.595  55.705  1.00  0.00    -0.003 C 
ATOM     16  C   UNL     1      14.955  30.125  54.913  1.00  0.00     0.004 C 
ENDBRANCH  14  15
ENDBRANCH  13  14
ENDBRANCH  12  13
ENDBRANCH  11  12
ENDBRANCH  10  11
ENDBRANCH   1  10
TORSDOF 12
ENDMDL
