MODEL 1
REMARK VINA RESULT:    -2.721      0.000      0.000
REMARK INTER + INTRA:         -12.384
REMARK INTER:                  -7.174
REMARK INTRA:                  -5.209
REMARK UNBOUND:                -5.209
REMARK SMILES CCCCCCCCCCCCCCCCCCCCCCCCCCCCCC(=O)[O-]
REMARK SMILES IDX 16 1 17 2 18 3 19 4 20 5 21 6 22 7 23 8 24 9 25 10 26 11
REMARK SMILES IDX 27 12 28 13 29 14 30 15 31 16 32 17 15 18 14 19 13 20 12 21
REMARK SMILES IDX 11 22 10 23 9 24 8 25 7 26 6 27 5 28 4 29 3 30 2 31 1 32
REMARK H PARENT
REMARK Flexibility Score: inf
ROOT
ATOM      1  C   UNL     1     147.155 148.722 142.838  1.00  0.00     0.000 C 
ENDROOT
BRANCH   1   2
ATOM      2  C   UNL     1     147.282 147.362 142.123  1.00  0.00     0.000 C 
BRANCH   2   3
ATOM      3  C   UNL     1     147.804 146.210 143.000  1.00  0.00     0.000 C 
BRANCH   3   4
ATOM      4  C   UNL     1     147.006 144.908 142.817  1.00  0.00     0.000 C 
BRANCH   4   5
ATOM      5  C   UNL     1     145.795 144.823 143.770  1.00  0.00     0.000 C 
BRANCH   5   6
ATOM      6  C   UNL     1     144.434 144.902 143.056  1.00  0.00     0.000 C 
BRANCH   6   7
ATOM      7  C   UNL     1     143.716 146.239 143.293  1.00  0.00     0.000 C 
BRANCH   7   8
ATOM      8  C   UNL     1     144.349 147.070 144.424  1.00  0.00     0.000 C 
BRANCH   8   9
ATOM      9  C   UNL     1     143.435 148.146 145.047  1.00  0.00     0.000 C 
BRANCH   9  10
ATOM     10  C   UNL     1     143.432 149.502 144.317  1.00  0.00     0.000 C 
BRANCH  10  11
ATOM     11  C   UNL     1     144.433 150.503 144.921  1.00  0.00     0.000 C 
BRANCH  11  12
ATOM     12  C   UNL     1     143.797 151.398 145.995  1.00  0.00     0.000 C 
BRANCH  12  13
ATOM     13  C   UNL     1     144.687 151.546 147.239  1.00  0.00     0.006 C 
BRANCH  13  14
ATOM     14  C   UNL     1     144.760 150.231 148.020  1.00  0.00     0.053 C 
BRANCH  14  15
ATOM     15  C   UNL     1     145.797 150.318 149.095  1.00  0.00     0.041 C 
ATOM     16  O   UNL     1     146.262 151.438 149.438  1.00  0.00    -0.550 OA
ATOM     17  O   UNL     1     146.216 149.168 149.752  1.00  0.00    -0.550 OA
ENDBRANCH  14  15
ENDBRANCH  13  14
ENDBRANCH  12  13
ENDBRANCH  11  12
ENDBRANCH  10  11
ENDBRANCH   9  10
ENDBRANCH   8   9
ENDBRANCH   7   8
ENDBRANCH   6   7
ENDBRANCH   5   6
ENDBRANCH   4   5
ENDBRANCH   3   4
ENDBRANCH   2   3
ENDBRANCH   1   2
BRANCH   1  18
ATOM     18  C   UNL     1     146.470 149.831 142.016  1.00  0.00     0.000 C 
BRANCH  18  19
ATOM     19  C   UNL     1     145.350 149.350 141.072  1.00  0.00     0.000 C 
BRANCH  19  20
ATOM     20  C   UNL     1     144.325 150.428 140.679  1.00  0.00     0.000 C 
BRANCH  20  21
ATOM     21  C   UNL     1     143.440 150.007 139.492  1.00  0.00     0.000 C 
BRANCH  21  22
ATOM     22  C   UNL     1     143.705 150.842 138.229  1.00  0.00     0.000 C 
BRANCH  22  23
ATOM     23  C   UNL     1     143.863 149.972 136.969  1.00  0.00     0.000 C 
BRANCH  23  24
ATOM     24  C   UNL     1     144.593 148.649 137.253  1.00  0.00    -0.000 C 
BRANCH  24  25
ATOM     25  C   UNL     1     144.022 147.472 136.446  1.00  0.00    -0.000 C 
BRANCH  25  26
ATOM     26  C   UNL     1     143.918 146.212 137.315  1.00  0.00    -0.000 C 
BRANCH  26  27
ATOM     27  C   UNL     1     143.615 146.573 138.777  1.00  0.00    -0.000 C 
BRANCH  27  28
ATOM     28  C   UNL     1     144.696 146.074 139.749  1.00  0.00    -0.000 C 
BRANCH  28  29
ATOM     29  C   UNL     1     145.471 144.864 139.207  1.00  0.00    -0.000 C 
BRANCH  29  30
ATOM     30  C   UNL     1     146.966 145.192 139.066  1.00  0.00    -0.000 C 
BRANCH  30  31
ATOM     31  C   UNL     1     147.446 145.135 137.608  1.00  0.00    -0.003 C 
ATOM     32  C   UNL     1     147.790 146.514 137.045  1.00  0.00     0.004 C 
ENDBRANCH  30  31
ENDBRANCH  29  30
ENDBRANCH  28  29
ENDBRANCH  27  28
ENDBRANCH  26  27
ENDBRANCH  25  26
ENDBRANCH  24  25
ENDBRANCH  23  24
ENDBRANCH  22  23
ENDBRANCH  21  22
ENDBRANCH  20  21
ENDBRANCH  19  20
ENDBRANCH  18  19
ENDBRANCH   1  18
TORSDOF 28
ENDMDL
MODEL 2
REMARK VINA RESULT:    -2.609      3.012      6.836
REMARK INTER + INTRA:         -12.088
REMARK INTER:                  -7.418
REMARK INTRA:                  -4.670
REMARK UNBOUND:                -5.209
REMARK SMILES CCCCCCCCCCCCCCCCCCCCCCCCCCCCCC(=O)[O-]
REMARK SMILES IDX 16 1 17 2 18 3 19 4 20 5 21 6 22 7 23 8 24 9 25 10 26 11
REMARK SMILES IDX 27 12 28 13 29 14 30 15 31 16 32 17 15 18 14 19 13 20 12 21
REMARK SMILES IDX 11 22 10 23 9 24 8 25 7 26 6 27 5 28 4 29 3 30 2 31 1 32
REMARK H PARENT
REMARK Flexibility Score: inf
ROOT
ATOM      1  C   UNL     1     144.282 149.458 144.755  1.00  0.00     0.000 C 
ENDROOT
BRANCH   1   2
ATOM      2  C   UNL     1     143.429 150.707 144.454  1.00  0.00     0.000 C 
BRANCH   2   3
ATOM      3  C   UNL     1     143.655 151.896 145.403  1.00  0.00     0.000 C 
BRANCH   3   4
ATOM      4  C   UNL     1     142.908 151.746 146.740  1.00  0.00     0.000 C 
BRANCH   4   5
ATOM      5  C   UNL     1     143.857 151.825 147.955  1.00  0.00     0.000 C 
BRANCH   5   6
ATOM      6  C   UNL     1     145.308 151.422 147.638  1.00  0.00     0.000 C 
BRANCH   6   7
ATOM      7  C   UNL     1     146.117 151.077 148.897  1.00  0.00     0.000 C 
BRANCH   7   8
ATOM      8  C   UNL     1     145.910 149.625 149.366  1.00  0.00     0.000 C 
BRANCH   8   9
ATOM      9  C   UNL     1     145.353 149.463 150.796  1.00  0.00     0.000 C 
BRANCH   9  10
ATOM     10  C   UNL     1     143.831 149.650 150.929  1.00  0.00     0.000 C 
BRANCH  10  11
ATOM     11  C   UNL     1     143.452 151.001 151.560  1.00  0.00     0.000 C 
BRANCH  11  12
ATOM     12  C   UNL     1     144.488 151.484 152.587  1.00  0.00     0.000 C 
BRANCH  12  13
ATOM     13  C   UNL     1     145.045 152.876 152.249  1.00  0.00     0.006 C 
BRANCH  13  14
ATOM     14  C   UNL     1     145.209 153.723 153.515  1.00  0.00     0.053 C 
BRANCH  14  15
ATOM     15  C   UNL     1     145.244 155.178 153.169  1.00  0.00     0.041 C 
ATOM     16  O   UNL     1     146.210 155.650 152.513  1.00  0.00    -0.550 OA
ATOM     17  O   UNL     1     144.187 156.004 153.530  1.00  0.00    -0.550 OA
ENDBRANCH  14  15
ENDBRANCH  13  14
ENDBRANCH  12  13
ENDBRANCH  11  12
ENDBRANCH  10  11
ENDBRANCH   9  10
ENDBRANCH   8   9
ENDBRANCH   7   8
ENDBRANCH   6   7
ENDBRANCH   5   6
ENDBRANCH   4   5
ENDBRANCH   3   4
ENDBRANCH   2   3
ENDBRANCH   1   2
BRANCH   1  18
ATOM     18  C   UNL     1     143.512 148.273 145.369  1.00  0.00     0.000 C 
BRANCH  18  19
ATOM     19  C   UNL     1     143.606 148.155 146.903  1.00  0.00     0.000 C 
BRANCH  19  20
ATOM     20  C   UNL     1     143.686 146.716 147.440  1.00  0.00     0.000 C 
BRANCH  20  21
ATOM     21  C   UNL     1     143.508 145.655 146.338  1.00  0.00     0.000 C 
BRANCH  21  22
ATOM     22  C   UNL     1     144.723 144.723 146.209  1.00  0.00     0.000 C 
BRANCH  22  23
ATOM     23  C   UNL     1     144.985 144.294 144.754  1.00  0.00     0.000 C 
BRANCH  23  24
ATOM     24  C   UNL     1     144.246 145.177 143.735  1.00  0.00    -0.000 C 
BRANCH  24  25
ATOM     25  C   UNL     1     145.198 145.865 142.746  1.00  0.00    -0.000 C 
BRANCH  25  26
ATOM     26  C   UNL     1     146.425 146.431 143.471  1.00  0.00    -0.000 C 
BRANCH  26  27
ATOM     27  C   UNL     1     147.290 147.273 142.521  1.00  0.00    -0.000 C 
BRANCH  27  28
ATOM     28  C   UNL     1     147.476 148.718 143.008  1.00  0.00    -0.000 C 
BRANCH  28  29
ATOM     29  C   UNL     1     146.799 149.747 142.091  1.00  0.00    -0.000 C 
BRANCH  29  30
ATOM     30  C   UNL     1     145.937 149.048 141.028  1.00  0.00    -0.000 C 
BRANCH  30  31
ATOM     31  C   UNL     1     144.478 149.528 141.045  1.00  0.00    -0.003 C 
ATOM     32  C   UNL     1     144.303 150.909 140.414  1.00  0.00     0.004 C 
ENDBRANCH  30  31
ENDBRANCH  29  30
ENDBRANCH  28  29
ENDBRANCH  27  28
ENDBRANCH  26  27
ENDBRANCH  25  26
ENDBRANCH  24  25
ENDBRANCH  23  24
ENDBRANCH  22  23
ENDBRANCH  21  22
ENDBRANCH  20  21
ENDBRANCH  19  20
ENDBRANCH  18  19
ENDBRANCH   1  18
TORSDOF 28
ENDMDL
MODEL 3
REMARK VINA RESULT:    -2.582      3.434      7.267
REMARK INTER + INTRA:         -12.019
REMARK INTER:                  -6.990
REMARK INTRA:                  -5.029
REMARK UNBOUND:                -5.209
REMARK SMILES CCCCCCCCCCCCCCCCCCCCCCCCCCCCCC(=O)[O-]
REMARK SMILES IDX 16 1 17 2 18 3 19 4 20 5 21 6 22 7 23 8 24 9 25 10 26 11
REMARK SMILES IDX 27 12 28 13 29 14 30 15 31 16 32 17 15 18 14 19 13 20 12 21
REMARK SMILES IDX 11 22 10 23 9 24 8 25 7 26 6 27 5 28 4 29 3 30 2 31 1 32
REMARK H PARENT
REMARK Flexibility Score: inf
ROOT
ATOM      1  C   UNL     1     144.395 150.529 146.687  1.00  0.00     0.000 C 
ENDROOT
BRANCH   1   2
ATOM      2  C   UNL     1     144.867 151.586 147.705  1.00  0.00     0.000 C 
BRANCH   2   3
ATOM      3  C   UNL     1     145.891 151.085 148.738  1.00  0.00     0.000 C 
BRANCH   3   4
ATOM      4  C   UNL     1     145.424 151.287 150.190  1.00  0.00     0.000 C 
BRANCH   4   5
ATOM      5  C   UNL     1     143.936 151.687 150.279  1.00  0.00     0.000 C 
BRANCH   5   6
ATOM      6  C   UNL     1     143.033 150.593 150.876  1.00  0.00     0.000 C 
BRANCH   6   7
ATOM      7  C   UNL     1     143.789 149.286 151.158  1.00  0.00     0.000 C 
BRANCH   7   8
ATOM      8  C   UNL     1     143.433 148.668 152.523  1.00  0.00     0.000 C 
BRANCH   8   9
ATOM      9  C   UNL     1     143.155 149.678 153.656  1.00  0.00     0.000 C 
BRANCH   9  10
ATOM     10  C   UNL     1     144.304 149.862 154.663  1.00  0.00     0.000 C 
BRANCH  10  11
ATOM     11  C   UNL     1     145.140 151.124 154.386  1.00  0.00     0.000 C 
BRANCH  11  12
ATOM     12  C   UNL     1     144.277 152.320 153.955  1.00  0.00     0.000 C 
BRANCH  12  13
ATOM     13  C   UNL     1     145.103 153.431 153.287  1.00  0.00     0.006 C 
BRANCH  13  14
ATOM     14  C   UNL     1     144.199 154.564 152.792  1.00  0.00     0.053 C 
BRANCH  14  15
ATOM     15  C   UNL     1     145.012 155.776 152.465  1.00  0.00     0.041 C 
ATOM     16  O   UNL     1     146.244 155.803 152.726  1.00  0.00    -0.550 OA
ATOM     17  O   UNL     1     144.420 156.859 151.826  1.00  0.00    -0.550 OA
ENDBRANCH  14  15
ENDBRANCH  13  14
ENDBRANCH  12  13
ENDBRANCH  11  12
ENDBRANCH  10  11
ENDBRANCH   9  10
ENDBRANCH   8   9
ENDBRANCH   7   8
ENDBRANCH   6   7
ENDBRANCH   5   6
ENDBRANCH   4   5
ENDBRANCH   3   4
ENDBRANCH   2   3
ENDBRANCH   1   2
BRANCH   1  18
ATOM     18  C   UNL     1     143.270 149.600 147.184  1.00  0.00     0.000 C 
BRANCH  18  19
ATOM     19  C   UNL     1     143.729 148.200 147.637  1.00  0.00     0.000 C 
BRANCH  19  20
ATOM     20  C   UNL     1     143.108 147.029 146.856  1.00  0.00     0.000 C 
BRANCH  20  21
ATOM     21  C   UNL     1     144.164 146.115 146.208  1.00  0.00     0.000 C 
BRANCH  21  22
ATOM     22  C   UNL     1     144.397 146.437 144.723  1.00  0.00     0.000 C 
BRANCH  22  23
ATOM     23  C   UNL     1     143.218 147.199 144.092  1.00  0.00     0.000 C 
BRANCH  23  24
ATOM     24  C   UNL     1     143.663 148.478 143.364  1.00  0.00    -0.000 C 
BRANCH  24  25
ATOM     25  C   UNL     1     145.076 148.929 143.768  1.00  0.00    -0.000 C 
BRANCH  25  26
ATOM     26  C   UNL     1     145.732 149.744 142.646  1.00  0.00    -0.000 C 
BRANCH  26  27
ATOM     27  C   UNL     1     147.004 149.053 142.132  1.00  0.00    -0.000 C 
BRANCH  27  28
ATOM     28  C   UNL     1     147.399 147.831 142.976  1.00  0.00    -0.000 C 
BRANCH  28  29
ATOM     29  C   UNL     1     147.485 146.539 142.149  1.00  0.00    -0.000 C 
BRANCH  29  30
ATOM     30  C   UNL     1     146.815 146.723 140.778  1.00  0.00    -0.000 C 
BRANCH  30  31
ATOM     31  C   UNL     1     145.451 146.022 140.691  1.00  0.00    -0.003 C 
ATOM     32  C   UNL     1     144.343 146.945 140.184  1.00  0.00     0.004 C 
ENDBRANCH  30  31
ENDBRANCH  29  30
ENDBRANCH  28  29
ENDBRANCH  27  28
ENDBRANCH  26  27
ENDBRANCH  25  26
ENDBRANCH  24  25
ENDBRANCH  23  24
ENDBRANCH  22  23
ENDBRANCH  21  22
ENDBRANCH  20  21
ENDBRANCH  19  20
ENDBRANCH  18  19
ENDBRANCH   1  18
TORSDOF 28
ENDMDL
MODEL 4
REMARK VINA RESULT:    -2.491      3.625      6.838
REMARK INTER + INTRA:         -11.777
REMARK INTER:                  -8.041
REMARK INTRA:                  -3.735
REMARK UNBOUND:                -5.209
REMARK SMILES CCCCCCCCCCCCCCCCCCCCCCCCCCCCCC(=O)[O-]
REMARK SMILES IDX 16 1 17 2 18 3 19 4 20 5 21 6 22 7 23 8 24 9 25 10 26 11
REMARK SMILES IDX 27 12 28 13 29 14 30 15 31 16 32 17 15 18 14 19 13 20 12 21
REMARK SMILES IDX 11 22 10 23 9 24 8 25 7 26 6 27 5 28 4 29 3 30 2 31 1 32
REMARK H PARENT
REMARK Flexibility Score: inf
ROOT
ATOM      1  C   UNL     1     142.968 150.793 147.119  1.00  0.00     0.000 C 
ENDROOT
BRANCH   1   2
ATOM      2  C   UNL     1     143.963 151.802 147.727  1.00  0.00     0.000 C 
BRANCH   2   3
ATOM      3  C   UNL     1     145.431 151.343 147.739  1.00  0.00     0.000 C 
BRANCH   3   4
ATOM      4  C   UNL     1     145.984 151.140 149.160  1.00  0.00     0.000 C 
BRANCH   4   5
ATOM      5  C   UNL     1     145.851 149.679 149.639  1.00  0.00     0.000 C 
BRANCH   5   6
ATOM      6  C   UNL     1     145.191 149.535 151.021  1.00  0.00     0.000 C 
BRANCH   6   7
ATOM      7  C   UNL     1     144.531 150.836 151.503  1.00  0.00     0.000 C 
BRANCH   7   8
ATOM      8  C   UNL     1     143.715 150.653 152.796  1.00  0.00     0.000 C 
BRANCH   8   9
ATOM      9  C   UNL     1     144.496 150.078 153.996  1.00  0.00     0.000 C 
BRANCH   9  10
ATOM     10  C   UNL     1     145.368 151.094 154.756  1.00  0.00     0.000 C 
BRANCH  10  11
ATOM     11  C   UNL     1     144.703 152.477 154.874  1.00  0.00     0.000 C 
BRANCH  11  12
ATOM     12  C   UNL     1     145.645 153.621 154.468  1.00  0.00     0.000 C 
BRANCH  12  13
ATOM     13  C   UNL     1     145.254 154.255 153.124  1.00  0.00     0.006 C 
BRANCH  13  14
ATOM     14  C   UNL     1     146.180 155.425 152.780  1.00  0.00     0.053 C 
BRANCH  14  15
ATOM     15  C   UNL     1     145.402 156.700 152.693  1.00  0.00     0.041 C 
ATOM     16  O   UNL     1     145.709 157.681 153.421  1.00  0.00    -0.550 OA
ATOM     17  O   UNL     1     144.367 156.821 151.774  1.00  0.00    -0.550 OA
ENDBRANCH  14  15
ENDBRANCH  13  14
ENDBRANCH  12  13
ENDBRANCH  11  12
ENDBRANCH  10  11
ENDBRANCH   9  10
ENDBRANCH   8   9
ENDBRANCH   7   8
ENDBRANCH   6   7
ENDBRANCH   5   6
ENDBRANCH   4   5
ENDBRANCH   3   4
ENDBRANCH   2   3
ENDBRANCH   1   2
BRANCH   1  18
ATOM     18  C   UNL     1     143.586 149.457 146.664  1.00  0.00     0.000 C 
BRANCH  18  19
ATOM     19  C   UNL     1     143.645 149.248 145.137  1.00  0.00     0.000 C 
BRANCH  19  20
ATOM     20  C   UNL     1     144.139 150.464 144.335  1.00  0.00     0.000 C 
BRANCH  20  21
ATOM     21  C   UNL     1     143.165 150.878 143.216  1.00  0.00     0.000 C 
BRANCH  21  22
ATOM     22  C   UNL     1     142.991 149.788 142.147  1.00  0.00     0.000 C 
BRANCH  22  23
ATOM     23  C   UNL     1     143.930 149.986 140.944  1.00  0.00     0.000 C 
BRANCH  23  24
ATOM     24  C   UNL     1     143.812 148.854 139.910  1.00  0.00    -0.000 C 
BRANCH  24  25
ATOM     25  C   UNL     1     143.201 147.574 140.500  1.00  0.00    -0.000 C 
BRANCH  25  26
ATOM     26  C   UNL     1     144.288 146.530 140.785  1.00  0.00    -0.000 C 
BRANCH  26  27
ATOM     27  C   UNL     1     144.208 146.031 142.236  1.00  0.00    -0.000 C 
BRANCH  27  28
ATOM     28  C   UNL     1     145.087 146.849 143.196  1.00  0.00    -0.000 C 
BRANCH  28  29
ATOM     29  C   UNL     1     146.512 146.290 143.320  1.00  0.00    -0.000 C 
BRANCH  29  30
ATOM     30  C   UNL     1     147.551 147.355 142.933  1.00  0.00    -0.000 C 
BRANCH  30  31
ATOM     31  C   UNL     1     146.921 148.558 142.214  1.00  0.00    -0.003 C 
ATOM     32  C   UNL     1     147.337 149.895 142.827  1.00  0.00     0.004 C 
ENDBRANCH  30  31
ENDBRANCH  29  30
ENDBRANCH  28  29
ENDBRANCH  27  28
ENDBRANCH  26  27
ENDBRANCH  25  26
ENDBRANCH  24  25
ENDBRANCH  23  24
ENDBRANCH  22  23
ENDBRANCH  21  22
ENDBRANCH  20  21
ENDBRANCH  19  20
ENDBRANCH  18  19
ENDBRANCH   1  18
TORSDOF 28
ENDMDL
MODEL 5
REMARK VINA RESULT:    -2.474      4.019      8.308
REMARK INTER + INTRA:         -11.734
REMARK INTER:                  -8.083
REMARK INTRA:                  -3.651
REMARK UNBOUND:                -5.209
REMARK SMILES CCCCCCCCCCCCCCCCCCCCCCCCCCCCCC(=O)[O-]
REMARK SMILES IDX 16 1 17 2 18 3 19 4 20 5 21 6 22 7 23 8 24 9 25 10 26 11
REMARK SMILES IDX 27 12 28 13 29 14 30 15 31 16 32 17 15 18 14 19 13 20 12 21
REMARK SMILES IDX 11 22 10 23 9 24 8 25 7 26 6 27 5 28 4 29 3 30 2 31 1 32
REMARK H PARENT
REMARK Flexibility Score: inf
ROOT
ATOM      1  C   UNL     1     145.127 151.283 147.592  1.00  0.00     0.000 C 
ENDROOT
BRANCH   1   2
ATOM      2  C   UNL     1     145.934 151.023 148.879  1.00  0.00     0.000 C 
BRANCH   2   3
ATOM      3  C   UNL     1     145.839 149.590 149.431  1.00  0.00     0.000 C 
BRANCH   3   4
ATOM      4  C   UNL     1     145.344 149.540 150.887  1.00  0.00     0.000 C 
BRANCH   4   5
ATOM      5  C   UNL     1     144.753 150.888 151.353  1.00  0.00     0.000 C 
BRANCH   5   6
ATOM      6  C   UNL     1     143.652 150.749 152.419  1.00  0.00     0.000 C 
BRANCH   6   7
ATOM      7  C   UNL     1     144.020 149.749 153.526  1.00  0.00     0.000 C 
BRANCH   7   8
ATOM      8  C   UNL     1     144.092 150.396 154.921  1.00  0.00     0.000 C 
BRANCH   8   9
ATOM      9  C   UNL     1     145.512 150.725 155.427  1.00  0.00     0.000 C 
BRANCH   9  10
ATOM     10  C   UNL     1     146.060 152.095 154.988  1.00  0.00     0.000 C 
BRANCH  10  11
ATOM     11  C   UNL     1     145.197 153.268 155.485  1.00  0.00     0.000 C 
BRANCH  11  12
ATOM     12  C   UNL     1     144.635 154.116 154.334  1.00  0.00     0.000 C 
BRANCH  12  13
ATOM     13  C   UNL     1     145.488 154.016 153.059  1.00  0.00     0.006 C 
BRANCH  13  14
ATOM     14  C   UNL     1     146.312 155.290 152.850  1.00  0.00     0.053 C 
BRANCH  14  15
ATOM     15  C   UNL     1     145.424 156.495 152.859  1.00  0.00     0.041 C 
ATOM     16  O   UNL     1     145.596 157.403 153.715  1.00  0.00    -0.550 OA
ATOM     17  O   UNL     1     144.438 156.638 151.891  1.00  0.00    -0.550 OA
ENDBRANCH  14  15
ENDBRANCH  13  14
ENDBRANCH  12  13
ENDBRANCH  11  12
ENDBRANCH  10  11
ENDBRANCH   9  10
ENDBRANCH   8   9
ENDBRANCH   7   8
ENDBRANCH   6   7
ENDBRANCH   5   6
ENDBRANCH   4   5
ENDBRANCH   3   4
ENDBRANCH   2   3
ENDBRANCH   1   2
BRANCH   1  18
ATOM     18  C   UNL     1     144.011 150.260 147.302  1.00  0.00     0.000 C 
BRANCH  18  19
ATOM     19  C   UNL     1     144.085 149.583 145.919  1.00  0.00     0.000 C 
BRANCH  19  20
ATOM     20  C   UNL     1     143.576 148.132 145.879  1.00  0.00     0.000 C 
BRANCH  20  21
ATOM     21  C   UNL     1     143.741 147.402 147.225  1.00  0.00     0.000 C 
BRANCH  21  22
ATOM     22  C   UNL     1     143.467 145.893 147.120  1.00  0.00     0.000 C 
BRANCH  22  23
ATOM     23  C   UNL     1     144.713 145.096 146.694  1.00  0.00     0.000 C 
BRANCH  23  24
ATOM     24  C   UNL     1     144.415 144.090 145.570  1.00  0.00    -0.000 C 
BRANCH  24  25
ATOM     25  C   UNL     1     145.065 144.484 144.235  1.00  0.00    -0.000 C 
BRANCH  25  26
ATOM     26  C   UNL     1     145.991 145.694 144.413  1.00  0.00    -0.000 C 
BRANCH  26  27
ATOM     27  C   UNL     1     145.880 146.655 143.219  1.00  0.00    -0.000 C 
BRANCH  27  28
ATOM     28  C   UNL     1     147.222 147.313 142.860  1.00  0.00    -0.000 C 
BRANCH  28  29
ATOM     29  C   UNL     1     147.053 148.701 142.225  1.00  0.00    -0.000 C 
BRANCH  29  30
ATOM     30  C   UNL     1     145.854 149.440 142.839  1.00  0.00    -0.000 C 
BRANCH  30  31
ATOM     31  C   UNL     1     144.897 149.996 141.773  1.00  0.00    -0.003 C 
ATOM     32  C   UNL     1     143.471 150.174 142.295  1.00  0.00     0.004 C 
ENDBRANCH  30  31
ENDBRANCH  29  30
ENDBRANCH  28  29
ENDBRANCH  27  28
ENDBRANCH  26  27
ENDBRANCH  25  26
ENDBRANCH  24  25
ENDBRANCH  23  24
ENDBRANCH  22  23
ENDBRANCH  21  22
ENDBRANCH  20  21
ENDBRANCH  19  20
ENDBRANCH  18  19
ENDBRANCH   1  18
TORSDOF 28
ENDMDL
MODEL 6
REMARK VINA RESULT:    -2.436      4.373     10.975
REMARK INTER + INTRA:         -11.633
REMARK INTER:                  -7.670
REMARK INTRA:                  -3.962
REMARK UNBOUND:                -5.209
REMARK SMILES CCCCCCCCCCCCCCCCCCCCCCCCCCCCCC(=O)[O-]
REMARK SMILES IDX 16 1 17 2 18 3 19 4 20 5 21 6 22 7 23 8 24 9 25 10 26 11
REMARK SMILES IDX 27 12 28 13 29 14 30 15 31 16 32 17 15 18 14 19 13 20 12 21
REMARK SMILES IDX 11 22 10 23 9 24 8 25 7 26 6 27 5 28 4 29 3 30 2 31 1 32
REMARK H PARENT
REMARK Flexibility Score: inf
ROOT
ATOM      1  C   UNL     1     143.657 150.377 143.288  1.00  0.00     0.000 C 
ENDROOT
BRANCH   1   2
ATOM      2  C   UNL     1     144.191 149.149 142.522  1.00  0.00     0.000 C 
BRANCH   2   3
ATOM      3  C   UNL     1     145.120 149.472 141.339  1.00  0.00     0.000 C 
BRANCH   3   4
ATOM      4  C   UNL     1     146.607 149.254 141.668  1.00  0.00     0.000 C 
BRANCH   4   5
ATOM      5  C   UNL     1     146.809 148.472 142.983  1.00  0.00     0.000 C 
BRANCH   5   6
ATOM      6  C   UNL     1     147.809 147.308 142.867  1.00  0.00     0.000 C 
BRANCH   6   7
ATOM      7  C   UNL     1     147.231 145.976 143.367  1.00  0.00     0.000 C 
BRANCH   7   8
ATOM      8  C   UNL     1     145.847 146.129 144.025  1.00  0.00     0.000 C 
BRANCH   8   9
ATOM      9  C   UNL     1     144.698 145.364 143.336  1.00  0.00     0.000 C 
BRANCH   9  10
ATOM     10  C   UNL     1     144.956 144.982 141.868  1.00  0.00     0.000 C 
BRANCH  10  11
ATOM     11  C   UNL     1     144.056 145.753 140.886  1.00  0.00     0.000 C 
BRANCH  11  12
ATOM     12  C   UNL     1     144.807 146.196 139.621  1.00  0.00     0.000 C 
BRANCH  12  13
ATOM     13  C   UNL     1     146.332 146.116 139.784  1.00  0.00     0.006 C 
BRANCH  13  14
ATOM     14  C   UNL     1     147.043 146.940 138.705  1.00  0.00     0.053 C 
BRANCH  14  15
ATOM     15  C   UNL     1     146.232 146.966 137.449  1.00  0.00     0.041 C 
ATOM     16  O   UNL     1     146.330 146.029 136.612  1.00  0.00    -0.550 OA
ATOM     17  O   UNL     1     145.332 148.000 137.223  1.00  0.00    -0.550 OA
ENDBRANCH  14  15
ENDBRANCH  13  14
ENDBRANCH  12  13
ENDBRANCH  11  12
ENDBRANCH  10  11
ENDBRANCH   9  10
ENDBRANCH   8   9
ENDBRANCH   7   8
ENDBRANCH   6   7
ENDBRANCH   5   6
ENDBRANCH   4   5
ENDBRANCH   3   4
ENDBRANCH   2   3
ENDBRANCH   1   2
BRANCH   1  18
ATOM     18  C   UNL     1     144.338 150.648 144.643  1.00  0.00     0.000 C 
BRANCH  18  19
ATOM     19  C   UNL     1     144.307 149.471 145.639  1.00  0.00     0.000 C 
BRANCH  19  20
ATOM     20  C   UNL     1     144.224 149.877 147.120  1.00  0.00     0.000 C 
BRANCH  20  21
ATOM     21  C   UNL     1     144.991 151.175 147.429  1.00  0.00     0.000 C 
BRANCH  21  22
ATOM     22  C   UNL     1     145.915 151.042 148.650  1.00  0.00     0.000 C 
BRANCH  22  23
ATOM     23  C   UNL     1     145.671 149.742 149.437  1.00  0.00     0.000 C 
BRANCH  23  24
ATOM     24  C   UNL     1     145.225 150.003 150.885  1.00  0.00    -0.000 C 
BRANCH  24  25
ATOM     25  C   UNL     1     144.783 151.456 151.116  1.00  0.00    -0.000 C 
BRANCH  25  26
ATOM     26  C   UNL     1     144.106 151.611 152.484  1.00  0.00    -0.000 C 
BRANCH  26  27
ATOM     27  C   UNL     1     144.814 150.762 153.551  1.00  0.00    -0.000 C 
BRANCH  27  28
ATOM     28  C   UNL     1     145.552 151.614 154.595  1.00  0.00    -0.000 C 
BRANCH  28  29
ATOM     29  C   UNL     1     144.741 152.838 155.046  1.00  0.00    -0.000 C 
BRANCH  29  30
ATOM     30  C   UNL     1     145.578 154.121 154.929  1.00  0.00    -0.000 C 
BRANCH  30  31
ATOM     31  C   UNL     1     146.542 154.087 153.733  1.00  0.00    -0.003 C 
ATOM     32  C   UNL     1     146.334 155.259 152.773  1.00  0.00     0.004 C 
ENDBRANCH  30  31
ENDBRANCH  29  30
ENDBRANCH  28  29
ENDBRANCH  27  28
ENDBRANCH  26  27
ENDBRANCH  25  26
ENDBRANCH  24  25
ENDBRANCH  23  24
ENDBRANCH  22  23
ENDBRANCH  21  22
ENDBRANCH  20  21
ENDBRANCH  19  20
ENDBRANCH  18  19
ENDBRANCH   1  18
TORSDOF 28
ENDMDL
MODEL 7
REMARK VINA RESULT:    -2.421      3.596      6.921
REMARK INTER + INTRA:         -11.594
REMARK INTER:                  -8.088
REMARK INTRA:                  -3.507
REMARK UNBOUND:                -5.209
REMARK SMILES CCCCCCCCCCCCCCCCCCCCCCCCCCCCCC(=O)[O-]
REMARK SMILES IDX 16 1 17 2 18 3 19 4 20 5 21 6 22 7 23 8 24 9 25 10 26 11
REMARK SMILES IDX 27 12 28 13 29 14 30 15 31 16 32 17 15 18 14 19 13 20 12 21
REMARK SMILES IDX 11 22 10 23 9 24 8 25 7 26 6 27 5 28 4 29 3 30 2 31 1 32
REMARK H PARENT
REMARK Flexibility Score: inf
ROOT
ATOM      1  C   UNL     1     143.114 150.701 147.202  1.00  0.00     0.000 C 
ENDROOT
BRANCH   1   2
ATOM      2  C   UNL     1     144.040 151.719 147.898  1.00  0.00     0.000 C 
BRANCH   2   3
ATOM      3  C   UNL     1     145.523 151.315 147.959  1.00  0.00     0.000 C 
BRANCH   3   4
ATOM      4  C   UNL     1     146.020 151.076 149.396  1.00  0.00     0.000 C 
BRANCH   4   5
ATOM      5  C   UNL     1     145.771 149.629 149.870  1.00  0.00     0.000 C 
BRANCH   5   6
ATOM      6  C   UNL     1     144.600 149.492 150.860  1.00  0.00     0.000 C 
BRANCH   6   7
ATOM      7  C   UNL     1     144.728 150.435 152.065  1.00  0.00     0.000 C 
BRANCH   7   8
ATOM      8  C   UNL     1     144.354 149.762 153.399  1.00  0.00     0.000 C 
BRANCH   8   9
ATOM      9  C   UNL     1     144.396 150.679 154.639  1.00  0.00     0.000 C 
BRANCH   9  10
ATOM     10  C   UNL     1     145.693 151.491 154.806  1.00  0.00     0.000 C 
BRANCH  10  11
ATOM     11  C   UNL     1     145.429 152.973 155.126  1.00  0.00     0.000 C 
BRANCH  11  12
ATOM     12  C   UNL     1     144.616 153.678 154.029  1.00  0.00     0.000 C 
BRANCH  12  13
ATOM     13  C   UNL     1     145.449 153.960 152.770  1.00  0.00     0.006 C 
BRANCH  13  14
ATOM     14  C   UNL     1     146.264 155.248 152.928  1.00  0.00     0.053 C 
BRANCH  14  15
ATOM     15  C   UNL     1     145.395 156.446 152.714  1.00  0.00     0.041 C 
ATOM     16  O   UNL     1     145.742 157.570 153.167  1.00  0.00    -0.550 OA
ATOM     17  O   UNL     1     144.226 156.334 151.972  1.00  0.00    -0.550 OA
ENDBRANCH  14  15
ENDBRANCH  13  14
ENDBRANCH  12  13
ENDBRANCH  11  12
ENDBRANCH  10  11
ENDBRANCH   9  10
ENDBRANCH   8   9
ENDBRANCH   7   8
ENDBRANCH   6   7
ENDBRANCH   5   6
ENDBRANCH   4   5
ENDBRANCH   3   4
ENDBRANCH   2   3
ENDBRANCH   1   2
BRANCH   1  18
ATOM     18  C   UNL     1     143.827 149.479 146.591  1.00  0.00     0.000 C 
BRANCH  18  19
ATOM     19  C   UNL     1     143.736 149.368 145.056  1.00  0.00     0.000 C 
BRANCH  19  20
ATOM     20  C   UNL     1     143.708 150.712 144.308  1.00  0.00     0.000 C 
BRANCH  20  21
ATOM     21  C   UNL     1     143.391 150.558 142.810  1.00  0.00     0.000 C 
BRANCH  21  22
ATOM     22  C   UNL     1     144.125 149.369 142.168  1.00  0.00     0.000 C 
BRANCH  22  23
ATOM     23  C   UNL     1     145.215 149.814 141.177  1.00  0.00     0.000 C 
BRANCH  23  24
ATOM     24  C   UNL     1     146.635 149.577 141.716  1.00  0.00    -0.000 C 
BRANCH  24  25
ATOM     25  C   UNL     1     146.647 148.749 143.010  1.00  0.00    -0.000 C 
BRANCH  25  26
ATOM     26  C   UNL     1     147.694 147.631 142.935  1.00  0.00    -0.000 C 
BRANCH  26  27
ATOM     27  C   UNL     1     147.026 146.247 142.938  1.00  0.00    -0.000 C 
BRANCH  27  28
ATOM     28  C   UNL     1     147.731 145.244 142.011  1.00  0.00    -0.000 C 
BRANCH  28  29
ATOM     29  C   UNL     1     146.942 144.967 140.723  1.00  0.00    -0.000 C 
BRANCH  29  30
ATOM     30  C   UNL     1     146.904 146.214 139.827  1.00  0.00    -0.000 C 
BRANCH  30  31
ATOM     31  C   UNL     1     145.476 146.586 139.395  1.00  0.00    -0.003 C 
ATOM     32  C   UNL     1     144.413 146.067 140.364  1.00  0.00     0.004 C 
ENDBRANCH  30  31
ENDBRANCH  29  30
ENDBRANCH  28  29
ENDBRANCH  27  28
ENDBRANCH  26  27
ENDBRANCH  25  26
ENDBRANCH  24  25
ENDBRANCH  23  24
ENDBRANCH  22  23
ENDBRANCH  21  22
ENDBRANCH  20  21
ENDBRANCH  19  20
ENDBRANCH  18  19
ENDBRANCH   1  18
TORSDOF 28
ENDMDL
MODEL 8
REMARK VINA RESULT:    -2.420      3.525     10.156
REMARK INTER + INTRA:         -11.590
REMARK INTER:                  -7.014
REMARK INTRA:                  -4.576
REMARK UNBOUND:                -5.209
REMARK SMILES CCCCCCCCCCCCCCCCCCCCCCCCCCCCCC(=O)[O-]
REMARK SMILES IDX 16 1 17 2 18 3 19 4 20 5 21 6 22 7 23 8 24 9 25 10 26 11
REMARK SMILES IDX 27 12 28 13 29 14 30 15 31 16 32 17 15 18 14 19 13 20 12 21
REMARK SMILES IDX 11 22 10 23 9 24 8 25 7 26 6 27 5 28 4 29 3 30 2 31 1 32
REMARK H PARENT
REMARK Flexibility Score: inf
ROOT
ATOM      1  C   UNL     1     143.664 147.644 147.370  1.00  0.00     0.000 C 
ENDROOT
BRANCH   1   2
ATOM      2  C   UNL     1     144.046 146.337 146.646  1.00  0.00     0.000 C 
BRANCH   2   3
ATOM      3  C   UNL     1     143.289 146.074 145.333  1.00  0.00     0.000 C 
BRANCH   3   4
ATOM      4  C   UNL     1     144.227 145.815 144.141  1.00  0.00     0.000 C 
BRANCH   4   5
ATOM      5  C   UNL     1     144.543 147.102 143.352  1.00  0.00     0.000 C 
BRANCH   5   6
ATOM      6  C   UNL     1     146.039 147.464 143.326  1.00  0.00     0.000 C 
BRANCH   6   7
ATOM      7  C   UNL     1     146.941 146.295 143.750  1.00  0.00     0.000 C 
BRANCH   7   8
ATOM      8  C   UNL     1     148.130 146.077 142.796  1.00  0.00     0.000 C 
BRANCH   8   9
ATOM      9  C   UNL     1     148.060 144.801 141.932  1.00  0.00     0.000 C 
BRANCH   9  10
ATOM     10  C   UNL     1     146.697 144.085 141.933  1.00  0.00     0.000 C 
BRANCH  10  11
ATOM     11  C   UNL     1     145.951 144.226 140.595  1.00  0.00     0.000 C 
BRANCH  11  12
ATOM     12  C   UNL     1     146.307 145.525 139.855  1.00  0.00     0.000 C 
BRANCH  12  13
ATOM     13  C   UNL     1     145.157 146.544 139.872  1.00  0.00     0.006 C 
BRANCH  13  14
ATOM     14  C   UNL     1     145.677 147.961 139.608  1.00  0.00     0.053 C 
BRANCH  14  15
ATOM     15  C   UNL     1     144.560 148.952 139.693  1.00  0.00     0.041 C 
ATOM     16  O   UNL     1     144.335 149.563 140.772  1.00  0.00    -0.550 OA
ATOM     17  O   UNL     1     143.797 149.238 138.568  1.00  0.00    -0.550 OA
ENDBRANCH  14  15
ENDBRANCH  13  14
ENDBRANCH  12  13
ENDBRANCH  11  12
ENDBRANCH  10  11
ENDBRANCH   9  10
ENDBRANCH   8   9
ENDBRANCH   7   8
ENDBRANCH   6   7
ENDBRANCH   5   6
ENDBRANCH   4   5
ENDBRANCH   3   4
ENDBRANCH   2   3
ENDBRANCH   1   2
BRANCH   1  18
ATOM     18  C   UNL     1     143.166 148.778 146.454  1.00  0.00     0.000 C 
BRANCH  18  19
ATOM     19  C   UNL     1     144.263 149.731 145.936  1.00  0.00     0.000 C 
BRANCH  19  20
ATOM     20  C   UNL     1     143.960 151.228 146.116  1.00  0.00     0.000 C 
BRANCH  20  21
ATOM     21  C   UNL     1     144.352 151.755 147.508  1.00  0.00     0.000 C 
BRANCH  21  22
ATOM     22  C   UNL     1     145.827 151.487 147.851  1.00  0.00     0.000 C 
BRANCH  22  23
ATOM     23  C   UNL     1     146.030 151.110 149.329  1.00  0.00     0.000 C 
BRANCH  23  24
ATOM     24  C   UNL     1     146.058 149.590 149.553  1.00  0.00    -0.000 C 
BRANCH  24  25
ATOM     25  C   UNL     1     145.196 149.151 150.747  1.00  0.00    -0.000 C 
BRANCH  25  26
ATOM     26  C   UNL     1     143.772 149.706 150.628  1.00  0.00    -0.000 C 
BRANCH  26  27
ATOM     27  C   UNL     1     143.347 150.422 151.919  1.00  0.00    -0.000 C 
BRANCH  27  28
ATOM     28  C   UNL     1     144.447 150.414 152.992  1.00  0.00    -0.000 C 
BRANCH  28  29
ATOM     29  C   UNL     1     144.762 151.817 153.532  1.00  0.00    -0.000 C 
BRANCH  29  30
ATOM     30  C   UNL     1     145.034 152.797 152.379  1.00  0.00    -0.000 C 
BRANCH  30  31
ATOM     31  C   UNL     1     145.489 154.178 152.876  1.00  0.00    -0.003 C 
ATOM     32  C   UNL     1     146.993 154.399 152.710  1.00  0.00     0.004 C 
ENDBRANCH  30  31
ENDBRANCH  29  30
ENDBRANCH  28  29
ENDBRANCH  27  28
ENDBRANCH  26  27
ENDBRANCH  25  26
ENDBRANCH  24  25
ENDBRANCH  23  24
ENDBRANCH  22  23
ENDBRANCH  21  22
ENDBRANCH  20  21
ENDBRANCH  19  20
ENDBRANCH  18  19
ENDBRANCH   1  18
TORSDOF 28
ENDMDL
MODEL 9
REMARK VINA RESULT:    -2.361      4.001     11.352
REMARK INTER + INTRA:         -11.436
REMARK INTER:                  -7.404
REMARK INTRA:                  -4.032
REMARK UNBOUND:                -5.209
REMARK SMILES CCCCCCCCCCCCCCCCCCCCCCCCCCCCCC(=O)[O-]
REMARK SMILES IDX 16 1 17 2 18 3 19 4 20 5 21 6 22 7 23 8 24 9 25 10 26 11
REMARK SMILES IDX 27 12 28 13 29 14 30 15 31 16 32 17 15 18 14 19 13 20 12 21
REMARK SMILES IDX 11 22 10 23 9 24 8 25 7 26 6 27 5 28 4 29 3 30 2 31 1 32
REMARK H PARENT
REMARK Flexibility Score: inf
ROOT
ATOM      1  C   UNL     1     144.016 150.609 146.822  1.00  0.00     0.000 C 
ENDROOT
BRANCH   1   2
ATOM      2  C   UNL     1     144.388 149.998 145.456  1.00  0.00     0.000 C 
BRANCH   2   3
ATOM      3  C   UNL     1     144.093 148.495 145.311  1.00  0.00     0.000 C 
BRANCH   3   4
ATOM      4  C   UNL     1     143.235 148.169 144.077  1.00  0.00     0.000 C 
BRANCH   4   5
ATOM      5  C   UNL     1     143.193 149.334 143.066  1.00  0.00     0.000 C 
BRANCH   5   6
ATOM      6  C   UNL     1     142.955 148.888 141.612  1.00  0.00     0.000 C 
BRANCH   6   7
ATOM      7  C   UNL     1     144.140 149.212 140.690  1.00  0.00     0.000 C 
BRANCH   7   8
ATOM      8  C   UNL     1     145.127 150.219 141.310  1.00  0.00     0.000 C 
BRANCH   8   9
ATOM      9  C   UNL     1     146.577 149.714 141.465  1.00  0.00     0.000 C 
BRANCH   9  10
ATOM     10  C   UNL     1     146.979 149.312 142.896  1.00  0.00     0.000 C 
BRANCH  10  11
ATOM     11  C   UNL     1     147.437 147.846 142.994  1.00  0.00     0.000 C 
BRANCH  11  12
ATOM     12  C   UNL     1     146.760 146.945 141.950  1.00  0.00     0.000 C 
BRANCH  12  13
ATOM     13  C   UNL     1     145.729 145.992 142.575  1.00  0.00     0.006 C 
BRANCH  13  14
ATOM     14  C   UNL     1     146.204 145.491 143.942  1.00  0.00     0.053 C 
BRANCH  14  15
ATOM     15  C   UNL     1     145.072 144.862 144.691  1.00  0.00     0.041 C 
ATOM     16  O   UNL     1     145.238 144.466 145.875  1.00  0.00    -0.550 OA
ATOM     17  O   UNL     1     143.820 144.756 144.098  1.00  0.00    -0.550 OA
ENDBRANCH  14  15
ENDBRANCH  13  14
ENDBRANCH  12  13
ENDBRANCH  11  12
ENDBRANCH  10  11
ENDBRANCH   9  10
ENDBRANCH   8   9
ENDBRANCH   7   8
ENDBRANCH   6   7
ENDBRANCH   5   6
ENDBRANCH   4   5
ENDBRANCH   3   4
ENDBRANCH   2   3
ENDBRANCH   1   2
BRANCH   1  18
ATOM     18  C   UNL     1     145.147 151.391 147.518  1.00  0.00     0.000 C 
BRANCH  18  19
ATOM     19  C   UNL     1     145.783 150.681 148.731  1.00  0.00     0.000 C 
BRANCH  19  20
ATOM     20  C   UNL     1     145.534 151.365 150.086  1.00  0.00     0.000 C 
BRANCH  20  21
ATOM     21  C   UNL     1     144.038 151.492 150.427  1.00  0.00     0.000 C 
BRANCH  21  22
ATOM     22  C   UNL     1     143.471 150.227 151.092  1.00  0.00     0.000 C 
BRANCH  22  23
ATOM     23  C   UNL     1     144.486 149.549 152.030  1.00  0.00     0.000 C 
BRANCH  23  24
ATOM     24  C   UNL     1     143.940 149.362 153.455  1.00  0.00    -0.000 C 
BRANCH  24  25
ATOM     25  C   UNL     1     144.665 150.239 154.487  1.00  0.00    -0.000 C 
BRANCH  25  26
ATOM     26  C   UNL     1     144.219 151.702 154.371  1.00  0.00    -0.000 C 
BRANCH  26  27
ATOM     27  C   UNL     1     145.413 152.622 154.070  1.00  0.00    -0.000 C 
BRANCH  27  28
ATOM     28  C   UNL     1     145.030 153.827 153.197  1.00  0.00    -0.000 C 
BRANCH  28  29
ATOM     29  C   UNL     1     146.245 154.664 152.771  1.00  0.00    -0.000 C 
BRANCH  29  30
ATOM     30  C   UNL     1     145.892 156.159 152.731  1.00  0.00    -0.000 C 
BRANCH  30  31
ATOM     31  C   UNL     1     145.042 156.595 153.934  1.00  0.00    -0.003 C 
ATOM     32  C   UNL     1     145.865 156.747 155.214  1.00  0.00     0.004 C 
ENDBRANCH  30  31
ENDBRANCH  29  30
ENDBRANCH  28  29
ENDBRANCH  27  28
ENDBRANCH  26  27
ENDBRANCH  25  26
ENDBRANCH  24  25
ENDBRANCH  23  24
ENDBRANCH  22  23
ENDBRANCH  21  22
ENDBRANCH  20  21
ENDBRANCH  19  20
ENDBRANCH  18  19
ENDBRANCH   1  18
TORSDOF 28
ENDMDL
