MODEL 1
REMARK VINA RESULT:    -4.314      0.000      0.000
REMARK INTER + INTRA:         -17.552
REMARK INTER:                 -11.376
REMARK INTRA:                  -6.176
REMARK UNBOUND:                -6.176
REMARK SMILES CCCCCCCCCCCCCCCCCCCCCCCCCCCCCC(=O)[O-]
REMARK SMILES IDX 16 1 17 2 18 3 19 4 20 5 21 6 22 7 23 8 24 9 25 10 26 11
REMARK SMILES IDX 27 12 28 13 29 14 30 15 31 16 32 17 15 18 14 19 13 20 12 21
REMARK SMILES IDX 11 22 10 23 9 24 8 25 7 26 6 27 5 28 4 29 3 30 2 31 1 32
REMARK H PARENT
REMARK Flexibility Score: inf
ROOT
ATOM      1  C   UNL     1      18.021  30.735  55.289  1.00  0.00     0.000 C 
ENDROOT
BRANCH   1   2
ATOM      2  C   UNL     1      18.810  30.415  54.002  1.00  0.00     0.000 C 
BRANCH   2   3
ATOM      3  C   UNL     1      18.826  28.923  53.610  1.00  0.00     0.000 C 
BRANCH   3   4
ATOM      4  C   UNL     1      18.409  28.630  52.153  1.00  0.00     0.000 C 
BRANCH   4   5
ATOM      5  C   UNL     1      18.591  27.165  51.709  1.00  0.00     0.000 C 
BRANCH   5   6
ATOM      6  C   UNL     1      19.402  26.334  52.716  1.00  0.00     0.000 C 
BRANCH   6   7
ATOM      7  C   UNL     1      19.782  24.968  52.128  1.00  0.00     0.000 C 
BRANCH   7   8
ATOM      8  C   UNL     1      19.659  24.929  50.593  1.00  0.00     0.000 C 
BRANCH   8   9
ATOM      9  C   UNL     1      20.996  25.028  49.827  1.00  0.00     0.000 C 
BRANCH   9  10
ATOM     10  C   UNL     1      22.255  25.123  50.711  1.00  0.00     0.000 C 
BRANCH  10  11
ATOM     11  C   UNL     1      22.799  26.555  50.831  1.00  0.00     0.000 C 
BRANCH  11  12
ATOM     12  C   UNL     1      21.940  27.591  50.081  1.00  0.00     0.000 C 
BRANCH  12  13
ATOM     13  C   UNL     1      21.908  29.003  50.702  1.00  0.00     0.006 C 
BRANCH  13  14
ATOM     14  C   UNL     1      22.273  29.053  52.193  1.00  0.00     0.053 C 
BRANCH  14  15
ATOM     15  C   UNL     1      23.532  29.825  52.440  1.00  0.00     0.041 C 
ATOM     16  O   UNL     1      23.539  30.779  53.265  1.00  0.00    -0.550 OA
ATOM     17  O   UNL     1      24.690  29.510  51.736  1.00  0.00    -0.550 OA
ENDBRANCH  14  15
ENDBRANCH  13  14
ENDBRANCH  12  13
ENDBRANCH  11  12
ENDBRANCH  10  11
ENDBRANCH   9  10
ENDBRANCH   8   9
ENDBRANCH   7   8
ENDBRANCH   6   7
ENDBRANCH   5   6
ENDBRANCH   4   5
ENDBRANCH   3   4
ENDBRANCH   2   3
ENDBRANCH   1   2
BRANCH   1  18
ATOM     18  C   UNL     1      16.487  30.612  55.170  1.00  0.00     0.000 C 
BRANCH  18  19
ATOM     19  C   UNL     1      15.881  29.338  55.792  1.00  0.00     0.000 C 
BRANCH  19  20
ATOM     20  C   UNL     1      15.634  28.228  54.755  1.00  0.00     0.000 C 
BRANCH  20  21
ATOM     21  C   UNL     1      16.293  26.893  55.142  1.00  0.00     0.000 C 
BRANCH  21  22
ATOM     22  C   UNL     1      16.032  25.774  54.119  1.00  0.00     0.000 C 
BRANCH  22  23
ATOM     23  C   UNL     1      15.126  26.234  52.960  1.00  0.00     0.000 C 
BRANCH  23  24
ATOM     24  C   UNL     1      14.731  25.128  51.959  1.00  0.00    -0.000 C 
BRANCH  24  25
ATOM     25  C   UNL     1      15.905  24.507  51.170  1.00  0.00    -0.000 C 
BRANCH  25  26
ATOM     26  C   UNL     1      16.102  25.056  49.740  1.00  0.00    -0.000 C 
BRANCH  26  27
ATOM     27  C   UNL     1      14.791  25.350  48.984  1.00  0.00    -0.000 C 
BRANCH  27  28
ATOM     28  C   UNL     1      14.491  26.857  48.894  1.00  0.00    -0.000 C 
BRANCH  28  29
ATOM     29  C   UNL     1      15.673  27.720  49.376  1.00  0.00    -0.000 C 
BRANCH  29  30
ATOM     30  C   UNL     1      15.242  29.173  49.668  1.00  0.00    -0.000 C 
BRANCH  30  31
ATOM     31  C   UNL     1      14.968  29.417  51.163  1.00  0.00    -0.003 C 
ATOM     32  C   UNL     1      15.384  30.815  51.622  1.00  0.00     0.004 C 
ENDBRANCH  30  31
ENDBRANCH  29  30
ENDBRANCH  28  29
ENDBRANCH  27  28
ENDBRANCH  26  27
ENDBRANCH  25  26
ENDBRANCH  24  25
ENDBRANCH  23  24
ENDBRANCH  22  23
ENDBRANCH  21  22
ENDBRANCH  20  21
ENDBRANCH  19  20
ENDBRANCH  18  19
ENDBRANCH   1  18
TORSDOF 28
ENDMDL
MODEL 2
REMARK VINA RESULT:    -4.242      3.331      8.015
REMARK INTER + INTRA:         -17.362
REMARK INTER:                 -11.553
REMARK INTRA:                  -5.809
REMARK UNBOUND:                -6.176
REMARK SMILES CCCCCCCCCCCCCCCCCCCCCCCCCCCCCC(=O)[O-]
REMARK SMILES IDX 16 1 17 2 18 3 19 4 20 5 21 6 22 7 23 8 24 9 25 10 26 11
REMARK SMILES IDX 27 12 28 13 29 14 30 15 31 16 32 17 15 18 14 19 13 20 12 21
REMARK SMILES IDX 11 22 10 23 9 24 8 25 7 26 6 27 5 28 4 29 3 30 2 31 1 32
REMARK H PARENT
REMARK Flexibility Score: inf
ROOT
ATOM      1  C   UNL     1      21.580  28.667  50.694  1.00  0.00     0.000 C 
ENDROOT
BRANCH   1   2
ATOM      2  C   UNL     1      21.773  27.577  51.769  1.00  0.00     0.000 C 
BRANCH   2   3
ATOM      3  C   UNL     1      20.583  27.405  52.734  1.00  0.00     0.000 C 
BRANCH   3   4
ATOM      4  C   UNL     1      19.204  27.747  52.133  1.00  0.00     0.000 C 
BRANCH   4   5
ATOM      5  C   UNL     1      18.181  26.594  52.161  1.00  0.00     0.000 C 
BRANCH   5   6
ATOM      6  C   UNL     1      17.661  26.294  53.576  1.00  0.00     0.000 C 
BRANCH   6   7
ATOM      7  C   UNL     1      16.126  26.266  53.607  1.00  0.00     0.000 C 
BRANCH   7   8
ATOM      8  C   UNL     1      15.535  27.324  54.558  1.00  0.00     0.000 C 
BRANCH   8   9
ATOM      9  C   UNL     1      16.526  28.410  55.027  1.00  0.00     0.000 C 
BRANCH   9  10
ATOM     10  C   UNL     1      16.209  29.841  54.549  1.00  0.00     0.000 C 
BRANCH  10  11
ATOM     11  C   UNL     1      16.643  30.100  53.097  1.00  0.00     0.000 C 
BRANCH  11  12
ATOM     12  C   UNL     1      15.510  30.668  52.222  1.00  0.00     0.000 C 
BRANCH  12  13
ATOM     13  C   UNL     1      14.664  29.621  51.468  1.00  0.00     0.006 C 
BRANCH  13  14
ATOM     14  C   UNL     1      15.481  28.582  50.687  1.00  0.00     0.053 C 
BRANCH  14  15
ATOM     15  C   UNL     1      15.264  28.688  49.209  1.00  0.00     0.041 C 
ATOM     16  O   UNL     1      14.742  29.726  48.718  1.00  0.00    -0.550 OA
ATOM     17  O   UNL     1      15.610  27.628  48.376  1.00  0.00    -0.550 OA
ENDBRANCH  14  15
ENDBRANCH  13  14
ENDBRANCH  12  13
ENDBRANCH  11  12
ENDBRANCH  10  11
ENDBRANCH   9  10
ENDBRANCH   8   9
ENDBRANCH   7   8
ENDBRANCH   6   7
ENDBRANCH   5   6
ENDBRANCH   4   5
ENDBRANCH   3   4
ENDBRANCH   2   3
ENDBRANCH   1   2
BRANCH   1  18
ATOM     18  C   UNL     1      22.743  29.673  50.558  1.00  0.00     0.000 C 
BRANCH  18  19
ATOM     19  C   UNL     1      24.016  29.315  51.350  1.00  0.00     0.000 C 
BRANCH  19  20
ATOM     20  C   UNL     1      24.318  30.315  52.479  1.00  0.00     0.000 C 
BRANCH  20  21
ATOM     21  C   UNL     1      23.764  29.863  53.841  1.00  0.00     0.000 C 
BRANCH  21  22
ATOM     22  C   UNL     1      23.765  30.985  54.894  1.00  0.00     0.000 C 
BRANCH  22  23
ATOM     23  C   UNL     1      22.348  31.322  55.398  1.00  0.00     0.000 C 
BRANCH  23  24
ATOM     24  C   UNL     1      21.273  30.259  55.088  1.00  0.00    -0.000 C 
BRANCH  24  25
ATOM     25  C   UNL     1      20.071  30.763  54.259  1.00  0.00    -0.000 C 
BRANCH  25  26
ATOM     26  C   UNL     1      20.433  31.438  52.917  1.00  0.00    -0.000 C 
BRANCH  26  27
ATOM     27  C   UNL     1      19.959  32.899  52.791  1.00  0.00    -0.000 C 
BRANCH  27  28
ATOM     28  C   UNL     1      21.112  33.864  52.461  1.00  0.00    -0.000 C 
BRANCH  28  29
ATOM     29  C   UNL     1      22.413  33.121  52.101  1.00  0.00    -0.000 C 
BRANCH  29  30
ATOM     30  C   UNL     1      23.598  34.093  51.920  1.00  0.00    -0.000 C 
BRANCH  30  31
ATOM     31  C   UNL     1      24.480  34.186  53.179  1.00  0.00    -0.003 C 
ATOM     32  C   UNL     1      25.878  33.603  52.968  1.00  0.00     0.004 C 
ENDBRANCH  30  31
ENDBRANCH  29  30
ENDBRANCH  28  29
ENDBRANCH  27  28
ENDBRANCH  26  27
ENDBRANCH  25  26
ENDBRANCH  24  25
ENDBRANCH  23  24
ENDBRANCH  22  23
ENDBRANCH  21  22
ENDBRANCH  20  21
ENDBRANCH  19  20
ENDBRANCH  18  19
ENDBRANCH   1  18
TORSDOF 28
ENDMDL
MODEL 3
REMARK VINA RESULT:    -4.216      1.063      2.620
REMARK INTER + INTRA:         -17.292
REMARK INTER:                 -11.986
REMARK INTRA:                  -5.306
REMARK UNBOUND:                -6.176
REMARK SMILES CCCCCCCCCCCCCCCCCCCCCCCCCCCCCC(=O)[O-]
REMARK SMILES IDX 16 1 17 2 18 3 19 4 20 5 21 6 22 7 23 8 24 9 25 10 26 11
REMARK SMILES IDX 27 12 28 13 29 14 30 15 31 16 32 17 15 18 14 19 13 20 12 21
REMARK SMILES IDX 11 22 10 23 9 24 8 25 7 26 6 27 5 28 4 29 3 30 2 31 1 32
REMARK H PARENT
REMARK Flexibility Score: inf
ROOT
ATOM      1  C   UNL     1      16.127  27.628  55.221  1.00  0.00     0.000 C 
ENDROOT
BRANCH   1   2
ATOM      2  C   UNL     1      16.449  28.990  54.572  1.00  0.00     0.000 C 
BRANCH   2   3
ATOM      3  C   UNL     1      17.901  29.140  54.073  1.00  0.00     0.000 C 
BRANCH   3   4
ATOM      4  C   UNL     1      18.067  29.120  52.539  1.00  0.00     0.000 C 
BRANCH   4   5
ATOM      5  C   UNL     1      18.751  27.858  51.978  1.00  0.00     0.000 C 
BRANCH   5   6
ATOM      6  C   UNL     1      19.780  27.257  52.948  1.00  0.00     0.000 C 
BRANCH   6   7
ATOM      7  C   UNL     1      19.578  25.742  53.099  1.00  0.00     0.000 C 
BRANCH   7   8
ATOM      8  C   UNL     1      19.427  25.027  51.744  1.00  0.00     0.000 C 
BRANCH   8   9
ATOM      9  C   UNL     1      20.710  24.970  50.887  1.00  0.00     0.000 C 
BRANCH   9  10
ATOM     10  C   UNL     1      20.551  25.453  49.432  1.00  0.00     0.000 C 
BRANCH  10  11
ATOM     11  C   UNL     1      21.194  26.827  49.181  1.00  0.00     0.000 C 
BRANCH  11  12
ATOM     12  C   UNL     1      22.339  27.144  50.160  1.00  0.00     0.000 C 
BRANCH  12  13
ATOM     13  C   UNL     1      22.807  28.614  50.182  1.00  0.00     0.006 C 
BRANCH  13  14
ATOM     14  C   UNL     1      22.595  29.333  51.522  1.00  0.00     0.053 C 
BRANCH  14  15
ATOM     15  C   UNL     1      23.891  29.691  52.181  1.00  0.00     0.041 C 
ATOM     16  O   UNL     1      24.926  29.878  51.485  1.00  0.00    -0.550 OA
ATOM     17  O   UNL     1      23.963  29.789  53.567  1.00  0.00    -0.550 OA
ENDBRANCH  14  15
ENDBRANCH  13  14
ENDBRANCH  12  13
ENDBRANCH  11  12
ENDBRANCH  10  11
ENDBRANCH   9  10
ENDBRANCH   8   9
ENDBRANCH   7   8
ENDBRANCH   6   7
ENDBRANCH   5   6
ENDBRANCH   4   5
ENDBRANCH   3   4
ENDBRANCH   2   3
ENDBRANCH   1   2
BRANCH   1  18
ATOM     18  C   UNL     1      15.391  26.621  54.311  1.00  0.00     0.000 C 
BRANCH  18  19
ATOM     19  C   UNL     1      16.280  25.522  53.696  1.00  0.00     0.000 C 
BRANCH  19  20
ATOM     20  C   UNL     1      15.508  24.224  53.402  1.00  0.00     0.000 C 
BRANCH  20  21
ATOM     21  C   UNL     1      15.394  23.925  51.898  1.00  0.00     0.000 C 
BRANCH  21  22
ATOM     22  C   UNL     1      14.353  24.806  51.186  1.00  0.00     0.000 C 
BRANCH  22  23
ATOM     23  C   UNL     1      14.507  24.777  49.652  1.00  0.00     0.000 C 
BRANCH  23  24
ATOM     24  C   UNL     1      15.943  25.002  49.134  1.00  0.00    -0.000 C 
BRANCH  24  25
ATOM     25  C   UNL     1      16.534  26.399  49.425  1.00  0.00    -0.000 C 
BRANCH  25  26
ATOM     26  C   UNL     1      16.037  27.531  48.498  1.00  0.00    -0.000 C 
BRANCH  26  27
ATOM     27  C   UNL     1      15.298  28.671  49.226  1.00  0.00    -0.000 C 
BRANCH  27  28
ATOM     28  C   UNL     1      15.038  28.351  50.709  1.00  0.00    -0.000 C 
BRANCH  28  29
ATOM     29  C   UNL     1      14.562  29.584  51.500  1.00  0.00    -0.000 C 
BRANCH  29  30
ATOM     30  C   UNL     1      14.914  30.901  50.777  1.00  0.00    -0.000 C 
BRANCH  30  31
ATOM     31  C   UNL     1      15.614  31.912  51.704  1.00  0.00    -0.003 C 
ATOM     32  C   UNL     1      14.878  33.249  51.787  1.00  0.00     0.004 C 
ENDBRANCH  30  31
ENDBRANCH  29  30
ENDBRANCH  28  29
ENDBRANCH  27  28
ENDBRANCH  26  27
ENDBRANCH  25  26
ENDBRANCH  24  25
ENDBRANCH  23  24
ENDBRANCH  22  23
ENDBRANCH  21  22
ENDBRANCH  20  21
ENDBRANCH  19  20
ENDBRANCH  18  19
ENDBRANCH   1  18
TORSDOF 28
ENDMDL
MODEL 4
REMARK VINA RESULT:    -4.191      2.336      7.170
REMARK INTER + INTRA:         -17.226
REMARK INTER:                 -11.134
REMARK INTRA:                  -6.092
REMARK UNBOUND:                -6.176
REMARK SMILES CCCCCCCCCCCCCCCCCCCCCCCCCCCCCC(=O)[O-]
REMARK SMILES IDX 16 1 17 2 18 3 19 4 20 5 21 6 22 7 23 8 24 9 25 10 26 11
REMARK SMILES IDX 27 12 28 13 29 14 30 15 31 16 32 17 15 18 14 19 13 20 12 21
REMARK SMILES IDX 11 22 10 23 9 24 8 25 7 26 6 27 5 28 4 29 3 30 2 31 1 32
REMARK H PARENT
REMARK Flexibility Score: inf
ROOT
ATOM      1  C   UNL     1      18.652  25.130  51.393  1.00  0.00     0.000 C 
ENDROOT
BRANCH   1   2
ATOM      2  C   UNL     1      18.094  25.993  50.242  1.00  0.00     0.000 C 
BRANCH   2   3
ATOM      3  C   UNL     1      17.271  27.218  50.694  1.00  0.00     0.000 C 
BRANCH   3   4
ATOM      4  C   UNL     1      16.143  27.634  49.729  1.00  0.00     0.000 C 
BRANCH   4   5
ATOM      5  C   UNL     1      14.730  27.184  50.151  1.00  0.00     0.000 C 
BRANCH   5   6
ATOM      6  C   UNL     1      14.213  25.996  49.325  1.00  0.00     0.000 C 
BRANCH   6   7
ATOM      7  C   UNL     1      14.397  24.673  50.084  1.00  0.00     0.000 C 
BRANCH   7   8
ATOM      8  C   UNL     1      14.197  24.829  51.603  1.00  0.00     0.000 C 
BRANCH   8   9
ATOM      9  C   UNL     1      15.167  24.007  52.479  1.00  0.00     0.000 C 
BRANCH   9  10
ATOM     10  C   UNL     1      15.833  24.785  53.630  1.00  0.00     0.000 C 
BRANCH  10  11
ATOM     11  C   UNL     1      15.365  26.247  53.718  1.00  0.00     0.000 C 
BRANCH  11  12
ATOM     12  C   UNL     1      15.475  26.830  55.140  1.00  0.00     0.000 C 
BRANCH  12  13
ATOM     13  C   UNL     1      16.121  28.227  55.236  1.00  0.00     0.006 C 
BRANCH  13  14
ATOM     14  C   UNL     1      16.950  28.635  54.009  1.00  0.00     0.053 C 
BRANCH  14  15
ATOM     15  C   UNL     1      16.427  29.881  53.364  1.00  0.00     0.041 C 
ATOM     16  O   UNL     1      16.900  31.006  53.682  1.00  0.00    -0.550 OA
ATOM     17  O   UNL     1      15.396  29.802  52.433  1.00  0.00    -0.550 OA
ENDBRANCH  14  15
ENDBRANCH  13  14
ENDBRANCH  12  13
ENDBRANCH  11  12
ENDBRANCH  10  11
ENDBRANCH   9  10
ENDBRANCH   8   9
ENDBRANCH   7   8
ENDBRANCH   6   7
ENDBRANCH   5   6
ENDBRANCH   4   5
ENDBRANCH   3   4
ENDBRANCH   2   3
ENDBRANCH   1   2
BRANCH   1  18
ATOM     18  C   UNL     1      19.192  25.917  52.606  1.00  0.00     0.000 C 
BRANCH  18  19
ATOM     19  C   UNL     1      20.529  25.404  53.178  1.00  0.00     0.000 C 
BRANCH  19  20
ATOM     20  C   UNL     1      21.327  24.562  52.167  1.00  0.00     0.000 C 
BRANCH  20  21
ATOM     21  C   UNL     1      22.350  25.393  51.375  1.00  0.00     0.000 C 
BRANCH  21  22
ATOM     22  C   UNL     1      21.915  25.660  49.923  1.00  0.00     0.000 C 
BRANCH  22  23
ATOM     23  C   UNL     1      21.724  27.162  49.632  1.00  0.00     0.000 C 
BRANCH  23  24
ATOM     24  C   UNL     1      22.399  28.115  50.640  1.00  0.00    -0.000 C 
BRANCH  24  25
ATOM     25  C   UNL     1      21.571  29.362  51.020  1.00  0.00    -0.000 C 
BRANCH  25  26
ATOM     26  C   UNL     1      20.473  29.126  52.080  1.00  0.00    -0.000 C 
BRANCH  26  27
ATOM     27  C   UNL     1      20.226  30.322  53.019  1.00  0.00    -0.000 C 
BRANCH  27  28
ATOM     28  C   UNL     1      20.460  29.965  54.499  1.00  0.00    -0.000 C 
BRANCH  28  29
ATOM     29  C   UNL     1      21.726  29.111  54.702  1.00  0.00    -0.000 C 
BRANCH  29  30
ATOM     30  C   UNL     1      22.959  29.980  55.030  1.00  0.00    -0.000 C 
BRANCH  30  31
ATOM     31  C   UNL     1      23.931  30.094  53.841  1.00  0.00    -0.003 C 
ATOM     32  C   UNL     1      23.859  31.453  53.144  1.00  0.00     0.004 C 
ENDBRANCH  30  31
ENDBRANCH  29  30
ENDBRANCH  28  29
ENDBRANCH  27  28
ENDBRANCH  26  27
ENDBRANCH  25  26
ENDBRANCH  24  25
ENDBRANCH  23  24
ENDBRANCH  22  23
ENDBRANCH  21  22
ENDBRANCH  20  21
ENDBRANCH  19  20
ENDBRANCH  18  19
ENDBRANCH   1  18
TORSDOF 28
ENDMDL
MODEL 5
REMARK VINA RESULT:    -4.174      2.529      6.589
REMARK INTER + INTRA:         -17.181
REMARK INTER:                 -11.178
REMARK INTRA:                  -6.003
REMARK UNBOUND:                -6.176
REMARK SMILES CCCCCCCCCCCCCCCCCCCCCCCCCCCCCC(=O)[O-]
REMARK SMILES IDX 16 1 17 2 18 3 19 4 20 5 21 6 22 7 23 8 24 9 25 10 26 11
REMARK SMILES IDX 27 12 28 13 29 14 30 15 31 16 32 17 15 18 14 19 13 20 12 21
REMARK SMILES IDX 11 22 10 23 9 24 8 25 7 26 6 27 5 28 4 29 3 30 2 31 1 32
REMARK H PARENT
REMARK Flexibility Score: inf
ROOT
ATOM      1  C   UNL     1      18.144  29.032  52.387  1.00  0.00     0.000 C 
ENDROOT
BRANCH   1   2
ATOM      2  C   UNL     1      17.985  29.196  53.913  1.00  0.00     0.000 C 
BRANCH   2   3
ATOM      3  C   UNL     1      16.538  29.436  54.389  1.00  0.00     0.000 C 
BRANCH   3   4
ATOM      4  C   UNL     1      15.903  28.258  55.157  1.00  0.00     0.000 C 
BRANCH   4   5
ATOM      5  C   UNL     1      16.454  26.868  54.780  1.00  0.00     0.000 C 
BRANCH   5   6
ATOM      6  C   UNL     1      15.420  25.996  54.052  1.00  0.00     0.000 C 
BRANCH   6   7
ATOM      7  C   UNL     1      16.063  25.237  52.881  1.00  0.00     0.000 C 
BRANCH   7   8
ATOM      8  C   UNL     1      15.371  25.528  51.537  1.00  0.00     0.000 C 
BRANCH   8   9
ATOM      9  C   UNL     1      16.307  25.541  50.308  1.00  0.00     0.000 C 
BRANCH   9  10
ATOM     10  C   UNL     1      16.436  26.901  49.595  1.00  0.00     0.000 C 
BRANCH  10  11
ATOM     11  C   UNL     1      15.407  27.934  50.078  1.00  0.00     0.000 C 
BRANCH  11  12
ATOM     12  C   UNL     1      15.077  29.000  49.016  1.00  0.00     0.000 C 
BRANCH  12  13
ATOM     13  C   UNL     1      14.707  30.393  49.565  1.00  0.00     0.006 C 
BRANCH  13  14
ATOM     14  C   UNL     1      15.122  30.637  51.023  1.00  0.00     0.053 C 
BRANCH  14  15
ATOM     15  C   UNL     1      15.355  32.088  51.308  1.00  0.00     0.041 C 
ATOM     16  O   UNL     1      15.675  32.873  50.375  1.00  0.00    -0.550 OA
ATOM     17  O   UNL     1      15.247  32.568  52.610  1.00  0.00    -0.550 OA
ENDBRANCH  14  15
ENDBRANCH  13  14
ENDBRANCH  12  13
ENDBRANCH  11  12
ENDBRANCH  10  11
ENDBRANCH   9  10
ENDBRANCH   8   9
ENDBRANCH   7   8
ENDBRANCH   6   7
ENDBRANCH   5   6
ENDBRANCH   4   5
ENDBRANCH   3   4
ENDBRANCH   2   3
ENDBRANCH   1   2
BRANCH   1  18
ATOM     18  C   UNL     1      19.042  27.859  51.939  1.00  0.00     0.000 C 
BRANCH  18  19
ATOM     19  C   UNL     1      19.769  27.119  53.079  1.00  0.00     0.000 C 
BRANCH  19  20
ATOM     20  C   UNL     1      19.839  25.598  52.853  1.00  0.00     0.000 C 
BRANCH  20  21
ATOM     21  C   UNL     1      19.579  25.199  51.391  1.00  0.00     0.000 C 
BRANCH  21  22
ATOM     22  C   UNL     1      20.871  24.992  50.583  1.00  0.00     0.000 C 
BRANCH  22  23
ATOM     23  C   UNL     1      20.936  25.892  49.333  1.00  0.00     0.000 C 
BRANCH  23  24
ATOM     24  C   UNL     1      21.798  27.163  49.486  1.00  0.00    -0.000 C 
BRANCH  24  25
ATOM     25  C   UNL     1      22.713  27.189  50.730  1.00  0.00    -0.000 C 
BRANCH  25  26
ATOM     26  C   UNL     1      22.874  28.571  51.401  1.00  0.00    -0.000 C 
BRANCH  26  27
ATOM     27  C   UNL     1      22.016  29.687  50.774  1.00  0.00    -0.000 C 
BRANCH  27  28
ATOM     28  C   UNL     1      22.138  31.020  51.535  1.00  0.00    -0.000 C 
BRANCH  28  29
ATOM     29  C   UNL     1      20.956  31.256  52.495  1.00  0.00    -0.000 C 
BRANCH  29  30
ATOM     30  C   UNL     1      21.419  31.356  53.964  1.00  0.00    -0.000 C 
BRANCH  30  31
ATOM     31  C   UNL     1      21.609  29.974  54.616  1.00  0.00    -0.003 C 
ATOM     32  C   UNL     1      23.050  29.721  55.061  1.00  0.00     0.004 C 
ENDBRANCH  30  31
ENDBRANCH  29  30
ENDBRANCH  28  29
ENDBRANCH  27  28
ENDBRANCH  26  27
ENDBRANCH  25  26
ENDBRANCH  24  25
ENDBRANCH  23  24
ENDBRANCH  22  23
ENDBRANCH  21  22
ENDBRANCH  20  21
ENDBRANCH  19  20
ENDBRANCH  18  19
ENDBRANCH   1  18
TORSDOF 28
ENDMDL
MODEL 6
REMARK VINA RESULT:    -4.156      1.756      2.655
REMARK INTER + INTRA:         -17.134
REMARK INTER:                 -11.992
REMARK INTRA:                  -5.141
REMARK UNBOUND:                -6.176
REMARK SMILES CCCCCCCCCCCCCCCCCCCCCCCCCCCCCC(=O)[O-]
REMARK SMILES IDX 16 1 17 2 18 3 19 4 20 5 21 6 22 7 23 8 24 9 25 10 26 11
REMARK SMILES IDX 27 12 28 13 29 14 30 15 31 16 32 17 15 18 14 19 13 20 12 21
REMARK SMILES IDX 11 22 10 23 9 24 8 25 7 26 6 27 5 28 4 29 3 30 2 31 1 32
REMARK H PARENT
REMARK Flexibility Score: inf
ROOT
ATOM      1  C   UNL     1      19.924  31.331  55.003  1.00  0.00     0.000 C 
ENDROOT
BRANCH   1   2
ATOM      2  C   UNL     1      20.991  30.223  55.123  1.00  0.00     0.000 C 
BRANCH   2   3
ATOM      3  C   UNL     1      21.230  29.415  53.831  1.00  0.00     0.000 C 
BRANCH   3   4
ATOM      4  C   UNL     1      20.108  29.526  52.778  1.00  0.00     0.000 C 
BRANCH   4   5
ATOM      5  C   UNL     1      19.533  28.179  52.298  1.00  0.00     0.000 C 
BRANCH   5   6
ATOM      6  C   UNL     1      20.239  26.971  52.933  1.00  0.00     0.000 C 
BRANCH   6   7
ATOM      7  C   UNL     1      20.935  26.113  51.866  1.00  0.00     0.000 C 
BRANCH   7   8
ATOM      8  C   UNL     1      21.006  26.814  50.497  1.00  0.00     0.000 C 
BRANCH   8   9
ATOM      9  C   UNL     1      22.419  27.257  50.060  1.00  0.00     0.000 C 
BRANCH   9  10
ATOM     10  C   UNL     1      23.247  27.976  51.143  1.00  0.00     0.000 C 
BRANCH  10  11
ATOM     11  C   UNL     1      23.388  29.485  50.890  1.00  0.00     0.000 C 
BRANCH  11  12
ATOM     12  C   UNL     1      24.575  30.114  51.643  1.00  0.00     0.000 C 
BRANCH  12  13
ATOM     13  C   UNL     1      24.209  31.212  52.663  1.00  0.00     0.006 C 
BRANCH  13  14
ATOM     14  C   UNL     1      23.158  32.217  52.170  1.00  0.00     0.053 C 
BRANCH  14  15
ATOM     15  C   UNL     1      23.663  33.626  52.214  1.00  0.00     0.041 C 
ATOM     16  O   UNL     1      23.409  34.420  51.267  1.00  0.00    -0.550 OA
ATOM     17  O   UNL     1      24.439  34.055  53.286  1.00  0.00    -0.550 OA
ENDBRANCH  14  15
ENDBRANCH  13  14
ENDBRANCH  12  13
ENDBRANCH  11  12
ENDBRANCH  10  11
ENDBRANCH   9  10
ENDBRANCH   8   9
ENDBRANCH   7   8
ENDBRANCH   6   7
ENDBRANCH   5   6
ENDBRANCH   4   5
ENDBRANCH   3   4
ENDBRANCH   2   3
ENDBRANCH   1   2
BRANCH   1  18
ATOM     18  C   UNL     1      19.080  31.573  56.272  1.00  0.00     0.000 C 
BRANCH  18  19
ATOM     19  C   UNL     1      17.587  31.210  56.146  1.00  0.00     0.000 C 
BRANCH  19  20
ATOM     20  C   UNL     1      17.271  30.420  54.864  1.00  0.00     0.000 C 
BRANCH  20  21
ATOM     21  C   UNL     1      16.190  29.347  55.075  1.00  0.00     0.000 C 
BRANCH  21  22
ATOM     22  C   UNL     1      16.547  27.996  54.431  1.00  0.00     0.000 C 
BRANCH  22  23
ATOM     23  C   UNL     1      15.563  26.877  54.824  1.00  0.00     0.000 C 
BRANCH  23  24
ATOM     24  C   UNL     1      15.712  25.564  54.026  1.00  0.00    -0.000 C 
BRANCH  24  25
ATOM     25  C   UNL     1      16.921  25.514  53.066  1.00  0.00    -0.000 C 
BRANCH  25  26
ATOM     26  C   UNL     1      16.616  24.980  51.650  1.00  0.00    -0.000 C 
BRANCH  26  27
ATOM     27  C   UNL     1      17.490  25.589  50.537  1.00  0.00    -0.000 C 
BRANCH  27  28
ATOM     28  C   UNL     1      16.663  26.035  49.318  1.00  0.00    -0.000 C 
BRANCH  28  29
ATOM     29  C   UNL     1      15.415  26.844  49.721  1.00  0.00    -0.000 C 
BRANCH  29  30
ATOM     30  C   UNL     1      15.660  28.365  49.625  1.00  0.00    -0.000 C 
BRANCH  30  31
ATOM     31  C   UNL     1      15.989  28.994  50.991  1.00  0.00    -0.003 C 
ATOM     32  C   UNL     1      14.815  29.776  51.582  1.00  0.00     0.004 C 
ENDBRANCH  30  31
ENDBRANCH  29  30
ENDBRANCH  28  29
ENDBRANCH  27  28
ENDBRANCH  26  27
ENDBRANCH  25  26
ENDBRANCH  24  25
ENDBRANCH  23  24
ENDBRANCH  22  23
ENDBRANCH  21  22
ENDBRANCH  20  21
ENDBRANCH  19  20
ENDBRANCH  18  19
ENDBRANCH   1  18
TORSDOF 28
ENDMDL
MODEL 7
REMARK VINA RESULT:    -4.147      2.811      6.910
REMARK INTER + INTRA:         -17.110
REMARK INTER:                 -12.063
REMARK INTRA:                  -5.046
REMARK UNBOUND:                -6.176
REMARK SMILES CCCCCCCCCCCCCCCCCCCCCCCCCCCCCC(=O)[O-]
REMARK SMILES IDX 16 1 17 2 18 3 19 4 20 5 21 6 22 7 23 8 24 9 25 10 26 11
REMARK SMILES IDX 27 12 28 13 29 14 30 15 31 16 32 17 15 18 14 19 13 20 12 21
REMARK SMILES IDX 11 22 10 23 9 24 8 25 7 26 6 27 5 28 4 29 3 30 2 31 1 32
REMARK H PARENT
REMARK Flexibility Score: inf
ROOT
ATOM      1  C   UNL     1      18.909  31.403  55.934  1.00  0.00     0.000 C 
ENDROOT
BRANCH   1   2
ATOM      2  C   UNL     1      17.840  30.642  55.123  1.00  0.00     0.000 C 
BRANCH   2   3
ATOM      3  C   UNL     1      16.432  30.637  55.755  1.00  0.00     0.000 C 
BRANCH   3   4
ATOM      4  C   UNL     1      15.724  29.266  55.750  1.00  0.00     0.000 C 
BRANCH   4   5
ATOM      5  C   UNL     1      16.335  28.224  54.792  1.00  0.00     0.000 C 
BRANCH   5   6
ATOM      6  C   UNL     1      15.768  26.813  55.007  1.00  0.00     0.000 C 
BRANCH   6   7
ATOM      7  C   UNL     1      16.144  25.882  53.845  1.00  0.00     0.000 C 
BRANCH   7   8
ATOM      8  C   UNL     1      14.989  25.688  52.845  1.00  0.00     0.000 C 
BRANCH   8   9
ATOM      9  C   UNL     1      15.422  25.468  51.379  1.00  0.00     0.000 C 
BRANCH   9  10
ATOM     10  C   UNL     1      15.529  26.746  50.525  1.00  0.00     0.000 C 
BRANCH  10  11
ATOM     11  C   UNL     1      14.837  27.959  51.169  1.00  0.00     0.000 C 
BRANCH  11  12
ATOM     12  C   UNL     1      15.749  29.196  51.257  1.00  0.00     0.000 C 
BRANCH  12  13
ATOM     13  C   UNL     1      15.022  30.556  51.304  1.00  0.00     0.006 C 
BRANCH  13  14
ATOM     14  C   UNL     1      15.741  31.637  52.125  1.00  0.00     0.053 C 
BRANCH  14  15
ATOM     15  C   UNL     1      15.267  33.015  51.779  1.00  0.00     0.041 C 
ATOM     16  O   UNL     1      14.309  33.533  52.415  1.00  0.00    -0.550 OA
ATOM     17  O   UNL     1      15.865  33.715  50.736  1.00  0.00    -0.550 OA
ENDBRANCH  14  15
ENDBRANCH  13  14
ENDBRANCH  12  13
ENDBRANCH  11  12
ENDBRANCH  10  11
ENDBRANCH   9  10
ENDBRANCH   8   9
ENDBRANCH   7   8
ENDBRANCH   6   7
ENDBRANCH   5   6
ENDBRANCH   4   5
ENDBRANCH   3   4
ENDBRANCH   2   3
ENDBRANCH   1   2
BRANCH   1  18
ATOM     18  C   UNL     1      20.352  31.284  55.401  1.00  0.00     0.000 C 
BRANCH  18  19
ATOM     19  C   UNL     1      20.903  32.548  54.712  1.00  0.00     0.000 C 
BRANCH  19  20
ATOM     20  C   UNL     1      20.390  32.715  53.271  1.00  0.00     0.000 C 
BRANCH  20  21
ATOM     21  C   UNL     1      21.229  33.708  52.449  1.00  0.00     0.000 C 
BRANCH  21  22
ATOM     22  C   UNL     1      22.606  33.149  52.053  1.00  0.00     0.000 C 
BRANCH  22  23
ATOM     23  C   UNL     1      22.539  31.672  51.615  1.00  0.00     0.000 C 
BRANCH  23  24
ATOM     24  C   UNL     1      23.417  30.705  52.438  1.00  0.00    -0.000 C 
BRANCH  24  25
ATOM     25  C   UNL     1      22.667  29.504  53.057  1.00  0.00    -0.000 C 
BRANCH  25  26
ATOM     26  C   UNL     1      21.369  29.091  52.328  1.00  0.00    -0.000 C 
BRANCH  26  27
ATOM     27  C   UNL     1      20.272  28.529  53.252  1.00  0.00    -0.000 C 
BRANCH  27  28
ATOM     28  C   UNL     1      19.007  28.115  52.477  1.00  0.00    -0.000 C 
BRANCH  28  29
ATOM     29  C   UNL     1      19.316  27.121  51.341  1.00  0.00    -0.000 C 
BRANCH  29  30
ATOM     30  C   UNL     1      19.036  25.663  51.762  1.00  0.00    -0.000 C 
BRANCH  30  31
ATOM     31  C   UNL     1      20.322  24.897  52.121  1.00  0.00    -0.003 C 
ATOM     32  C   UNL     1      20.563  24.817  53.629  1.00  0.00     0.004 C 
ENDBRANCH  30  31
ENDBRANCH  29  30
ENDBRANCH  28  29
ENDBRANCH  27  28
ENDBRANCH  26  27
ENDBRANCH  25  26
ENDBRANCH  24  25
ENDBRANCH  23  24
ENDBRANCH  22  23
ENDBRANCH  21  22
ENDBRANCH  20  21
ENDBRANCH  19  20
ENDBRANCH  18  19
ENDBRANCH   1  18
TORSDOF 28
ENDMDL
MODEL 8
REMARK VINA RESULT:    -4.124      2.906      6.948
REMARK INTER + INTRA:         -17.051
REMARK INTER:                 -11.640
REMARK INTRA:                  -5.411
REMARK UNBOUND:                -6.176
REMARK SMILES CCCCCCCCCCCCCCCCCCCCCCCCCCCCCC(=O)[O-]
REMARK SMILES IDX 16 1 17 2 18 3 19 4 20 5 21 6 22 7 23 8 24 9 25 10 26 11
REMARK SMILES IDX 27 12 28 13 29 14 30 15 31 16 32 17 15 18 14 19 13 20 12 21
REMARK SMILES IDX 11 22 10 23 9 24 8 25 7 26 6 27 5 28 4 29 3 30 2 31 1 32
REMARK H PARENT
REMARK Flexibility Score: inf
ROOT
ATOM      1  C   UNL     1      17.374  29.695  54.819  1.00  0.00     0.000 C 
ENDROOT
BRANCH   1   2
ATOM      2  C   UNL     1      16.015  28.965  54.848  1.00  0.00     0.000 C 
BRANCH   2   3
ATOM      3  C   UNL     1      16.092  27.473  55.234  1.00  0.00     0.000 C 
BRANCH   3   4
ATOM      4  C   UNL     1      15.442  26.506  54.223  1.00  0.00     0.000 C 
BRANCH   4   5
ATOM      5  C   UNL     1      16.382  25.414  53.674  1.00  0.00     0.000 C 
BRANCH   5   6
ATOM      6  C   UNL     1      15.662  24.413  52.759  1.00  0.00     0.000 C 
BRANCH   6   7
ATOM      7  C   UNL     1      16.276  24.408  51.351  1.00  0.00     0.000 C 
BRANCH   7   8
ATOM      8  C   UNL     1      17.633  25.134  51.295  1.00  0.00     0.000 C 
BRANCH   8   9
ATOM      9  C   UNL     1      17.706  26.309  50.297  1.00  0.00     0.000 C 
BRANCH   9  10
ATOM     10  C   UNL     1      16.380  27.059  50.065  1.00  0.00     0.000 C 
BRANCH  10  11
ATOM     11  C   UNL     1      16.179  28.239  51.029  1.00  0.00     0.000 C 
BRANCH  11  12
ATOM     12  C   UNL     1      14.934  29.083  50.698  1.00  0.00     0.000 C 
BRANCH  12  13
ATOM     13  C   UNL     1      14.831  30.433  51.436  1.00  0.00     0.006 C 
BRANCH  13  14
ATOM     14  C   UNL     1      15.235  31.654  50.596  1.00  0.00     0.053 C 
BRANCH  14  15
ATOM     15  C   UNL     1      15.072  32.937  51.350  1.00  0.00     0.041 C 
ATOM     16  O   UNL     1      15.634  33.989  50.940  1.00  0.00    -0.550 OA
ATOM     17  O   UNL     1      14.323  32.964  52.523  1.00  0.00    -0.550 OA
ENDBRANCH  14  15
ENDBRANCH  13  14
ENDBRANCH  12  13
ENDBRANCH  11  12
ENDBRANCH  10  11
ENDBRANCH   9  10
ENDBRANCH   8   9
ENDBRANCH   7   8
ENDBRANCH   6   7
ENDBRANCH   5   6
ENDBRANCH   4   5
ENDBRANCH   3   4
ENDBRANCH   2   3
ENDBRANCH   1   2
BRANCH   1  18
ATOM     18  C   UNL     1      17.819  30.207  53.433  1.00  0.00     0.000 C 
BRANCH  18  19
ATOM     19  C   UNL     1      19.096  29.551  52.871  1.00  0.00     0.000 C 
BRANCH  19  20
ATOM     20  C   UNL     1      19.203  28.057  53.221  1.00  0.00     0.000 C 
BRANCH  20  21
ATOM     21  C   UNL     1      20.646  27.529  53.148  1.00  0.00     0.000 C 
BRANCH  21  22
ATOM     22  C   UNL     1      21.059  27.100  51.729  1.00  0.00     0.000 C 
BRANCH  22  23
ATOM     23  C   UNL     1      22.268  27.898  51.201  1.00  0.00     0.000 C 
BRANCH  23  24
ATOM     24  C   UNL     1      22.458  29.293  51.833  1.00  0.00    -0.000 C 
BRANCH  24  25
ATOM     25  C   UNL     1      23.891  29.603  52.321  1.00  0.00    -0.000 C 
BRANCH  25  26
ATOM     26  C   UNL     1      23.980  30.490  53.582  1.00  0.00    -0.000 C 
BRANCH  26  27
ATOM     27  C   UNL     1      23.319  29.884  54.835  1.00  0.00    -0.000 C 
BRANCH  27  28
ATOM     28  C   UNL     1      21.927  30.481  55.110  1.00  0.00    -0.000 C 
BRANCH  28  29
ATOM     29  C   UNL     1      21.923  32.020  55.031  1.00  0.00    -0.000 C 
BRANCH  29  30
ATOM     30  C   UNL     1      20.617  32.560  54.409  1.00  0.00    -0.000 C 
BRANCH  30  31
ATOM     31  C   UNL     1      20.739  32.788  52.891  1.00  0.00    -0.003 C 
ATOM     32  C   UNL     1      22.080  33.403  52.490  1.00  0.00     0.004 C 
ENDBRANCH  30  31
ENDBRANCH  29  30
ENDBRANCH  28  29
ENDBRANCH  27  28
ENDBRANCH  26  27
ENDBRANCH  25  26
ENDBRANCH  24  25
ENDBRANCH  23  24
ENDBRANCH  22  23
ENDBRANCH  21  22
ENDBRANCH  20  21
ENDBRANCH  19  20
ENDBRANCH  18  19
ENDBRANCH   1  18
TORSDOF 28
ENDMDL
MODEL 9
REMARK VINA RESULT:    -4.111      3.126      7.792
REMARK INTER + INTRA:         -17.016
REMARK INTER:                 -11.723
REMARK INTRA:                  -5.292
REMARK UNBOUND:                -6.176
REMARK SMILES CCCCCCCCCCCCCCCCCCCCCCCCCCCCCC(=O)[O-]
REMARK SMILES IDX 16 1 17 2 18 3 19 4 20 5 21 6 22 7 23 8 24 9 25 10 26 11
REMARK SMILES IDX 27 12 28 13 29 14 30 15 31 16 32 17 15 18 14 19 13 20 12 21
REMARK SMILES IDX 11 22 10 23 9 24 8 25 7 26 6 27 5 28 4 29 3 30 2 31 1 32
REMARK H PARENT
REMARK Flexibility Score: inf
ROOT
ATOM      1  C   UNL     1      18.094  26.749  52.451  1.00  0.00     0.000 C 
ENDROOT
BRANCH   1   2
ATOM      2  C   UNL     1      17.743  25.701  53.529  1.00  0.00     0.000 C 
BRANCH   2   3
ATOM      3  C   UNL     1      16.241  25.362  53.634  1.00  0.00     0.000 C 
BRANCH   3   4
ATOM      4  C   UNL     1      15.376  26.449  54.305  1.00  0.00     0.000 C 
BRANCH   4   5
ATOM      5  C   UNL     1      16.088  27.254  55.411  1.00  0.00     0.000 C 
BRANCH   5   6
ATOM      6  C   UNL     1      15.746  28.751  55.372  1.00  0.00     0.000 C 
BRANCH   6   7
ATOM      7  C   UNL     1      16.885  29.563  54.741  1.00  0.00     0.000 C 
BRANCH   7   8
ATOM      8  C   UNL     1      16.396  30.492  53.614  1.00  0.00     0.000 C 
BRANCH   8   9
ATOM      9  C   UNL     1      16.575  29.938  52.184  1.00  0.00     0.000 C 
BRANCH   9  10
ATOM     10  C   UNL     1      15.277  29.804  51.364  1.00  0.00     0.000 C 
BRANCH  10  11
ATOM     11  C   UNL     1      14.615  28.425  51.506  1.00  0.00     0.000 C 
BRANCH  11  12
ATOM     12  C   UNL     1      15.084  27.418  50.439  1.00  0.00     0.000 C 
BRANCH  12  13
ATOM     13  C   UNL     1      15.678  28.037  49.157  1.00  0.00     0.006 C 
BRANCH  13  14
ATOM     14  C   UNL     1      15.141  27.437  47.849  1.00  0.00     0.053 C 
BRANCH  14  15
ATOM     15  C   UNL     1      15.041  25.945  47.913  1.00  0.00     0.041 C 
ATOM     16  O   UNL     1      13.912  25.387  47.982  1.00  0.00    -0.550 OA
ATOM     17  O   UNL     1      16.198  25.170  47.926  1.00  0.00    -0.550 OA
ENDBRANCH  14  15
ENDBRANCH  13  14
ENDBRANCH  12  13
ENDBRANCH  11  12
ENDBRANCH  10  11
ENDBRANCH   9  10
ENDBRANCH   8   9
ENDBRANCH   7   8
ENDBRANCH   6   7
ENDBRANCH   5   6
ENDBRANCH   4   5
ENDBRANCH   3   4
ENDBRANCH   2   3
ENDBRANCH   1   2
BRANCH   1  18
ATOM     18  C   UNL     1      19.456  27.451  52.633  1.00  0.00     0.000 C 
BRANCH  18  19
ATOM     19  C   UNL     1      20.633  26.518  52.978  1.00  0.00     0.000 C 
BRANCH  19  20
ATOM     20  C   UNL     1      21.192  25.782  51.748  1.00  0.00     0.000 C 
BRANCH  20  21
ATOM     21  C   UNL     1      22.304  26.570  51.035  1.00  0.00     0.000 C 
BRANCH  21  22
ATOM     22  C   UNL     1      21.826  27.246  49.739  1.00  0.00     0.000 C 
BRANCH  22  23
ATOM     23  C   UNL     1      22.240  28.729  49.660  1.00  0.00     0.000 C 
BRANCH  23  24
ATOM     24  C   UNL     1      22.244  29.480  51.009  1.00  0.00    -0.000 C 
BRANCH  24  25
ATOM     25  C   UNL     1      23.599  30.104  51.408  1.00  0.00    -0.000 C 
BRANCH  25  26
ATOM     26  C   UNL     1      24.033  29.856  52.870  1.00  0.00    -0.000 C 
BRANCH  26  27
ATOM     27  C   UNL     1      23.878  31.078  53.797  1.00  0.00    -0.000 C 
BRANCH  27  28
ATOM     28  C   UNL     1      23.099  30.744  55.082  1.00  0.00    -0.000 C 
BRANCH  28  29
ATOM     29  C   UNL     1      22.019  29.670  54.850  1.00  0.00    -0.000 C 
BRANCH  29  30
ATOM     30  C   UNL     1      20.596  30.269  54.883  1.00  0.00    -0.000 C 
BRANCH  30  31
ATOM     31  C   UNL     1      20.177  30.865  53.526  1.00  0.00    -0.003 C 
ATOM     32  C   UNL     1      20.114  32.392  53.543  1.00  0.00     0.004 C 
ENDBRANCH  30  31
ENDBRANCH  29  30
ENDBRANCH  28  29
ENDBRANCH  27  28
ENDBRANCH  26  27
ENDBRANCH  25  26
ENDBRANCH  24  25
ENDBRANCH  23  24
ENDBRANCH  22  23
ENDBRANCH  21  22
ENDBRANCH  20  21
ENDBRANCH  19  20
ENDBRANCH  18  19
ENDBRANCH   1  18
TORSDOF 28
ENDMDL
