MODEL 1
REMARK VINA RESULT:    -7.419      0.000      0.000
REMARK INTER + INTRA:          -9.061
REMARK INTER:                  -8.937
REMARK INTRA:                  -0.125
REMARK UNBOUND:                -0.125
REMARK SMILES O=c1c(O)c(-c2ccc(O)c(O)c2)oc2cc(O)cc(O)c12
REMARK SMILES IDX 5 1 3 2 2 3 1 4 22 5 20 6 19 7 17 8 16 9 15 10 14 11 6 12
REMARK SMILES IDX 7 13 8 14 9 15 13 16 11 17 10 18 12 20 4 22 21 24 18 26
REMARK H PARENT 10 19 12 21 4 23 21 25 18 27
REMARK Flexibility Score: inf
ROOT
ATOM      1  C   UNL     1      -5.387  -5.109   6.530  1.00  0.00     0.180 A 
ATOM      2  C   UNL     1      -5.059  -4.538   7.772  1.00  0.00     0.208 A 
ATOM      3  C   UNL     1      -5.655  -3.321   8.140  1.00  0.00     0.238 A 
ATOM      4  O   UNL     1      -5.316  -2.788   9.229  1.00  0.00    -0.285 OA
ATOM      5  C   UNL     1      -6.582  -2.699   7.269  1.00  0.00     0.111 A 
ATOM      6  C   UNL     1      -7.275  -1.485   7.558  1.00  0.00     0.134 A 
ATOM      7  C   UNL     1      -8.070  -0.892   6.569  1.00  0.00     0.093 A 
ATOM      8  C   UNL     1      -8.249  -1.501   5.328  1.00  0.00     0.123 A 
ATOM      9  C   UNL     1      -7.623  -2.718   5.057  1.00  0.00     0.094 A 
ATOM     10  C   UNL     1      -6.795  -3.316   6.009  1.00  0.00     0.146 A 
ATOM     11  O   UNL     1      -6.210  -4.469   5.708  1.00  0.00    -0.452 OA
ENDROOT
BRANCH   1  12
ATOM     12  C   UNL     1      -4.821  -6.402   6.083  1.00  0.00     0.025 A 
ATOM     13  C   UNL     1      -5.674  -7.501   5.890  1.00  0.00     0.016 A 
ATOM     14  C   UNL     1      -5.158  -8.736   5.489  1.00  0.00     0.051 A 
ATOM     15  C   UNL     1      -3.780  -8.894   5.290  1.00  0.00     0.157 A 
ATOM     16  C   UNL     1      -3.436  -6.572   5.901  1.00  0.00     0.062 A 
ATOM     17  C   UNL     1      -2.917  -7.812   5.500  1.00  0.00     0.158 A 
BRANCH  15  18
ATOM     18  O   UNL     1      -3.262 -10.124   4.887  1.00  0.00    -0.504 OA
ATOM     19  H   UNL     1      -3.866 -10.884   4.595  1.00  0.00     0.293 HD
ENDBRANCH  15  18
BRANCH  17  20
ATOM     20  O   UNL     1      -1.546  -7.977   5.315  1.00  0.00    -0.504 OA
ATOM     21  H   UNL     1      -1.152  -8.871   5.045  1.00  0.00     0.293 HD
ENDBRANCH  17  20
ENDBRANCH   1  12
BRANCH   2  22
ATOM     22  O   UNL     1      -4.125  -5.158   8.606  1.00  0.00    -0.502 OA
ATOM     23  H   UNL     1      -4.303  -5.332   9.588  1.00  0.00     0.293 HD
ENDBRANCH   2  22
BRANCH   6  24
ATOM     24  O   UNL     1      -7.239  -0.841   8.798  1.00  0.00    -0.507 OA
ATOM     25  H   UNL     1      -6.718   0.001   8.993  1.00  0.00     0.293 HD
ENDBRANCH   6  24
BRANCH   8  26
ATOM     26  O   UNL     1      -9.060  -0.890   4.374  1.00  0.00    -0.508 OA
ATOM     27  H   UNL     1     -10.032  -1.152   4.259  1.00  0.00     0.293 HD
ENDBRANCH   8  26
TORSDOF 6
ENDMDL
MODEL 2
REMARK VINA RESULT:    -7.399      2.203      7.177
REMARK INTER + INTRA:          -9.037
REMARK INTER:                  -8.729
REMARK INTRA:                  -0.308
REMARK UNBOUND:                -0.125
REMARK SMILES O=c1c(O)c(-c2ccc(O)c(O)c2)oc2cc(O)cc(O)c12
REMARK SMILES IDX 5 1 3 2 2 3 1 4 22 5 20 6 19 7 17 8 16 9 15 10 14 11 6 12
REMARK SMILES IDX 7 13 8 14 9 15 13 16 11 17 10 18 12 20 4 22 21 24 18 26
REMARK H PARENT 10 19 12 21 4 23 21 25 18 27
REMARK Flexibility Score: inf
ROOT
ATOM      1  C   UNL     1      -5.196  -6.224   6.644  1.00  0.00     0.180 A 
ATOM      2  C   UNL     1      -6.266  -6.835   5.968  1.00  0.00     0.208 A 
ATOM      3  C   UNL     1      -5.991  -7.841   5.027  1.00  0.00     0.238 A 
ATOM      4  O   UNL     1      -6.949  -8.346   4.386  1.00  0.00    -0.285 OA
ATOM      5  C   UNL     1      -4.652  -8.233   4.786  1.00  0.00     0.111 A 
ATOM      6  C   UNL     1      -4.261  -9.268   3.885  1.00  0.00     0.134 A 
ATOM      7  C   UNL     1      -2.902  -9.484   3.628  1.00  0.00     0.093 A 
ATOM      8  C   UNL     1      -1.919  -8.747   4.288  1.00  0.00     0.123 A 
ATOM      9  C   UNL     1      -2.289  -7.773   5.216  1.00  0.00     0.094 A 
ATOM     10  C   UNL     1      -3.638  -7.510   5.466  1.00  0.00     0.146 A 
ATOM     11  O   UNL     1      -3.948  -6.568   6.349  1.00  0.00    -0.452 OA
ENDROOT
BRANCH   1  12
ATOM     12  C   UNL     1      -5.407  -5.174   7.667  1.00  0.00     0.025 A 
ATOM     13  C   UNL     1      -5.480  -5.535   9.022  1.00  0.00     0.016 A 
ATOM     14  C   UNL     1      -5.700  -4.564  10.002  1.00  0.00     0.051 A 
ATOM     15  C   UNL     1      -5.864  -3.220   9.641  1.00  0.00     0.157 A 
ATOM     16  C   UNL     1      -5.593  -3.827   7.308  1.00  0.00     0.062 A 
ATOM     17  C   UNL     1      -5.814  -2.851   8.291  1.00  0.00     0.158 A 
BRANCH  15  18
ATOM     18  O   UNL     1      -6.080  -2.248  10.616  1.00  0.00    -0.504 OA
ATOM     19  H   UNL     1      -6.383  -1.312  10.375  1.00  0.00     0.293 HD
ENDBRANCH  15  18
BRANCH  17  20
ATOM     20  O   UNL     1      -5.992  -1.516   7.934  1.00  0.00    -0.504 OA
ATOM     21  H   UNL     1      -6.695  -0.938   8.380  1.00  0.00     0.293 HD
ENDBRANCH  17  20
ENDBRANCH   1  12
BRANCH   2  22
ATOM     22  O   UNL     1      -7.578  -6.416   6.204  1.00  0.00    -0.502 OA
ATOM     23  H   UNL     1      -7.799  -5.498   6.568  1.00  0.00     0.293 HD
ENDBRANCH   2  22
BRANCH   6  24
ATOM     24  O   UNL     1      -5.160 -10.125   3.242  1.00  0.00    -0.507 OA
ATOM     25  H   UNL     1      -5.119 -10.372   2.265  1.00  0.00     0.293 HD
ENDBRANCH   6  24
BRANCH   8  26
ATOM     26  O   UNL     1      -0.575  -8.999   4.020  1.00  0.00    -0.508 OA
ATOM     27  H   UNL     1      -0.090  -9.784   4.438  1.00  0.00     0.293 HD
ENDBRANCH   8  26
TORSDOF 6
ENDMDL
MODEL 3
REMARK VINA RESULT:    -7.186      0.586      1.442
REMARK INTER + INTRA:          -8.781
REMARK INTER:                  -8.591
REMARK INTRA:                  -0.190
REMARK UNBOUND:                -0.125
REMARK SMILES O=c1c(O)c(-c2ccc(O)c(O)c2)oc2cc(O)cc(O)c12
REMARK SMILES IDX 5 1 3 2 2 3 1 4 22 5 20 6 19 7 17 8 16 9 15 10 14 11 6 12
REMARK SMILES IDX 7 13 8 14 9 15 13 16 11 17 10 18 12 20 4 22 21 24 18 26
REMARK H PARENT 10 19 12 21 4 23 21 25 18 27
REMARK Flexibility Score: inf
ROOT
ATOM      1  C   UNL     1      -5.343  -5.223   6.632  1.00  0.00     0.180 A 
ATOM      2  C   UNL     1      -5.050  -4.635   7.874  1.00  0.00     0.208 A 
ATOM      3  C   UNL     1      -5.673  -3.424   8.217  1.00  0.00     0.238 A 
ATOM      4  O   UNL     1      -5.365  -2.874   9.308  1.00  0.00    -0.285 OA
ATOM      5  C   UNL     1      -6.591  -2.825   7.321  1.00  0.00     0.111 A 
ATOM      6  C   UNL     1      -7.309  -1.620   7.583  1.00  0.00     0.134 A 
ATOM      7  C   UNL     1      -8.093  -1.049   6.572  1.00  0.00     0.093 A 
ATOM      8  C   UNL     1      -8.236  -1.673   5.333  1.00  0.00     0.123 A 
ATOM      9  C   UNL     1      -7.585  -2.883   5.088  1.00  0.00     0.094 A 
ATOM     10  C   UNL     1      -6.767  -3.458   6.063  1.00  0.00     0.146 A 
ATOM     11  O   UNL     1      -6.158  -4.605   5.786  1.00  0.00    -0.452 OA
ENDROOT
BRANCH   1  12
ATOM     12  C   UNL     1      -4.746  -6.511   6.210  1.00  0.00     0.025 A 
ATOM     13  C   UNL     1      -3.377  -6.572   5.904  1.00  0.00     0.016 A 
ATOM     14  C   UNL     1      -2.798  -7.772   5.484  1.00  0.00     0.051 A 
ATOM     15  C   UNL     1      -3.582  -8.925   5.350  1.00  0.00     0.157 A 
ATOM     16  C   UNL     1      -5.533  -7.667   6.054  1.00  0.00     0.062 A 
ATOM     17  C   UNL     1      -4.953  -8.872   5.632  1.00  0.00     0.158 A 
BRANCH  15  18
ATOM     18  O   UNL     1      -3.007 -10.125   4.934  1.00  0.00    -0.504 OA
ATOM     19  H   UNL     1      -3.135 -10.984   5.456  1.00  0.00     0.293 HD
ENDBRANCH  15  18
BRANCH  17  20
ATOM     20  O   UNL     1      -5.732 -10.017   5.483  1.00  0.00    -0.504 OA
ATOM     21  H   UNL     1      -5.807 -10.496   4.593  1.00  0.00     0.293 HD
ENDBRANCH  17  20
ENDBRANCH   1  12
BRANCH   2  22
ATOM     22  O   UNL     1      -4.124  -5.231   8.734  1.00  0.00    -0.502 OA
ATOM     23  H   UNL     1      -3.775  -4.768   9.565  1.00  0.00     0.293 HD
ENDBRANCH   2  22
BRANCH   6  24
ATOM     24  O   UNL     1      -7.310  -0.963   8.817  1.00  0.00    -0.507 OA
ATOM     25  H   UNL     1      -6.852  -1.305   9.649  1.00  0.00     0.293 HD
ENDBRANCH   6  24
BRANCH   8  26
ATOM     26  O   UNL     1      -9.036  -1.085   4.356  1.00  0.00    -0.508 OA
ATOM     27  H   UNL     1      -8.929  -0.111   4.101  1.00  0.00     0.293 HD
ENDBRANCH   8  26
TORSDOF 6
ENDMDL
MODEL 4
REMARK VINA RESULT:    -7.156      1.318      2.914
REMARK INTER + INTRA:          -8.744
REMARK INTER:                  -8.628
REMARK INTRA:                  -0.116
REMARK UNBOUND:                -0.125
REMARK SMILES O=c1c(O)c(-c2ccc(O)c(O)c2)oc2cc(O)cc(O)c12
REMARK SMILES IDX 5 1 3 2 2 3 1 4 22 5 20 6 19 7 17 8 16 9 15 10 14 11 6 12
REMARK SMILES IDX 7 13 8 14 9 15 13 16 11 17 10 18 12 20 4 22 21 24 18 26
REMARK H PARENT 10 19 12 21 4 23 21 25 18 27
REMARK Flexibility Score: inf
ROOT
ATOM      1  C   UNL     1      -5.715  -5.364   6.210  1.00  0.00     0.180 A 
ATOM      2  C   UNL     1      -6.493  -4.659   5.276  1.00  0.00     0.208 A 
ATOM      3  C   UNL     1      -7.164  -3.496   5.689  1.00  0.00     0.238 A 
ATOM      4  O   UNL     1      -7.903  -2.900   4.862  1.00  0.00    -0.285 OA
ATOM      5  C   UNL     1      -7.035  -3.045   7.024  1.00  0.00     0.111 A 
ATOM      6  C   UNL     1      -7.638  -1.859   7.540  1.00  0.00     0.134 A 
ATOM      7  C   UNL     1      -7.551  -1.578   8.909  1.00  0.00     0.093 A 
ATOM      8  C   UNL     1      -6.829  -2.405   9.769  1.00  0.00     0.123 A 
ATOM      9  C   UNL     1      -6.186  -3.536   9.264  1.00  0.00     0.094 A 
ATOM     10  C   UNL     1      -6.285  -3.862   7.909  1.00  0.00     0.146 A 
ATOM     11  O   UNL     1      -5.666  -4.952   7.471  1.00  0.00    -0.452 OA
ENDROOT
BRANCH   1  12
ATOM     12  C   UNL     1      -4.958  -6.583   5.845  1.00  0.00     0.025 A 
ATOM     13  C   UNL     1      -5.652  -7.723   5.409  1.00  0.00     0.016 A 
ATOM     14  C   UNL     1      -4.959  -8.891   5.079  1.00  0.00     0.051 A 
ATOM     15  C   UNL     1      -3.564  -8.941   5.195  1.00  0.00     0.157 A 
ATOM     16  C   UNL     1      -3.559  -6.645   5.978  1.00  0.00     0.062 A 
ATOM     17  C   UNL     1      -2.863  -7.817   5.649  1.00  0.00     0.158 A 
BRANCH  15  18
ATOM     18  O   UNL     1      -2.870 -10.103   4.864  1.00  0.00    -0.504 OA
ATOM     19  H   UNL     1      -1.909 -10.074   4.542  1.00  0.00     0.293 HD
ENDBRANCH  15  18
BRANCH  17  20
ATOM     20  O   UNL     1      -1.476  -7.874   5.776  1.00  0.00    -0.504 OA
ATOM     21  H   UNL     1      -0.922  -7.037   5.910  1.00  0.00     0.293 HD
ENDBRANCH  17  20
ENDBRANCH   1  12
BRANCH   2  22
ATOM     22  O   UNL     1      -6.624  -5.135   3.968  1.00  0.00    -0.502 OA
ATOM     23  H   UNL     1      -7.488  -5.058   3.445  1.00  0.00     0.293 HD
ENDBRANCH   2  22
BRANCH   6  24
ATOM     24  O   UNL     1      -8.305  -0.915   6.752  1.00  0.00    -0.507 OA
ATOM     25  H   UNL     1      -8.804  -0.116   7.112  1.00  0.00     0.293 HD
ENDBRANCH   6  24
BRANCH   8  26
ATOM     26  O   UNL     1      -6.750  -2.087  11.123  1.00  0.00    -0.508 OA
ATOM     27  H   UNL     1      -6.346  -2.729  11.794  1.00  0.00     0.293 HD
ENDBRANCH   8  26
TORSDOF 6
ENDMDL
MODEL 5
REMARK VINA RESULT:    -7.012      1.611      7.237
REMARK INTER + INTRA:          -8.571
REMARK INTER:                  -8.542
REMARK INTRA:                  -0.029
REMARK UNBOUND:                -0.125
REMARK SMILES O=c1c(O)c(-c2ccc(O)c(O)c2)oc2cc(O)cc(O)c12
REMARK SMILES IDX 5 1 3 2 2 3 1 4 22 5 20 6 19 7 17 8 16 9 15 10 14 11 6 12
REMARK SMILES IDX 7 13 8 14 9 15 13 16 11 17 10 18 12 20 4 22 21 24 18 26
REMARK H PARENT 10 19 12 21 4 23 21 25 18 27
REMARK Flexibility Score: inf
ROOT
ATOM      1  C   UNL     1      -6.661  -4.765   5.760  1.00  0.00     0.180 A 
ATOM      2  C   UNL     1      -7.581  -5.808   5.556  1.00  0.00     0.208 A 
ATOM      3  C   UNL     1      -7.107  -7.127   5.472  1.00  0.00     0.238 A 
ATOM      4  O   UNL     1      -7.930  -8.050   5.235  1.00  0.00    -0.285 OA
ATOM      5  C   UNL     1      -5.723  -7.388   5.609  1.00  0.00     0.111 A 
ATOM      6  C   UNL     1      -5.138  -8.689   5.581  1.00  0.00     0.134 A 
ATOM      7  C   UNL     1      -3.744  -8.820   5.595  1.00  0.00     0.093 A 
ATOM      8  C   UNL     1      -2.916  -7.703   5.703  1.00  0.00     0.123 A 
ATOM      9  C   UNL     1      -3.481  -6.430   5.791  1.00  0.00     0.094 A 
ATOM     10  C   UNL     1      -4.867  -6.264   5.743  1.00  0.00     0.146 A 
ATOM     11  O   UNL     1      -5.363  -5.035   5.820  1.00  0.00    -0.452 OA
ENDROOT
BRANCH   1  12
ATOM     12  C   UNL     1      -7.086  -3.352   5.885  1.00  0.00     0.025 A 
ATOM     13  C   UNL     1      -6.737  -2.624   7.033  1.00  0.00     0.016 A 
ATOM     14  C   UNL     1      -7.146  -1.296   7.181  1.00  0.00     0.051 A 
ATOM     15  C   UNL     1      -7.921  -0.681   6.189  1.00  0.00     0.157 A 
ATOM     16  C   UNL     1      -7.882  -2.736   4.901  1.00  0.00     0.062 A 
ATOM     17  C   UNL     1      -8.294  -1.404   5.049  1.00  0.00     0.158 A 
BRANCH  15  18
ATOM     18  O   UNL     1      -8.328   0.644   6.332  1.00  0.00    -0.504 OA
ATOM     19  H   UNL     1      -8.414   1.078   7.244  1.00  0.00     0.293 HD
ENDBRANCH  15  18
BRANCH  17  20
ATOM     20  O   UNL     1      -9.077  -0.794   4.072  1.00  0.00    -0.504 OA
ATOM     21  H   UNL     1     -10.067  -0.629   4.213  1.00  0.00     0.293 HD
ENDBRANCH  17  20
ENDBRANCH   1  12
BRANCH   2  22
ATOM     22  O   UNL     1      -8.941  -5.525   5.401  1.00  0.00    -0.502 OA
ATOM     23  H   UNL     1      -9.332  -4.609   5.589  1.00  0.00     0.293 HD
ENDBRANCH   2  22
BRANCH   6  24
ATOM     24  O   UNL     1      -5.875  -9.877   5.567  1.00  0.00    -0.507 OA
ATOM     25  H   UNL     1      -6.362 -10.261   6.363  1.00  0.00     0.293 HD
ENDBRANCH   6  24
BRANCH   8  26
ATOM     26  O   UNL     1      -1.534  -7.872   5.731  1.00  0.00    -0.508 OA
ATOM     27  H   UNL     1      -0.903  -7.085   5.636  1.00  0.00     0.293 HD
ENDBRANCH   8  26
TORSDOF 6
ENDMDL
MODEL 6
REMARK VINA RESULT:    -6.985     12.351     13.893
REMARK INTER + INTRA:          -8.539
REMARK INTER:                  -8.485
REMARK INTRA:                  -0.054
REMARK UNBOUND:                -0.125
REMARK SMILES O=c1c(O)c(-c2ccc(O)c(O)c2)oc2cc(O)cc(O)c12
REMARK SMILES IDX 5 1 3 2 2 3 1 4 22 5 20 6 19 7 17 8 16 9 15 10 14 11 6 12
REMARK SMILES IDX 7 13 8 14 9 15 13 16 11 17 10 18 12 20 4 22 21 24 18 26
REMARK H PARENT 10 19 12 21 4 23 21 25 18 27
REMARK Flexibility Score: inf
ROOT
ATOM      1  C   UNL     1      -0.994  -4.916  -6.294  1.00  0.00     0.180 A 
ATOM      2  C   UNL     1      -1.599  -4.004  -7.176  1.00  0.00     0.208 A 
ATOM      3  C   UNL     1      -2.987  -3.804  -7.101  1.00  0.00     0.238 A 
ATOM      4  O   UNL     1      -3.530  -3.026  -7.930  1.00  0.00    -0.285 OA
ATOM      5  C   UNL     1      -3.749  -4.505  -6.137  1.00  0.00     0.111 A 
ATOM      6  C   UNL     1      -5.155  -4.350  -5.946  1.00  0.00     0.134 A 
ATOM      7  C   UNL     1      -5.828  -5.190  -5.051  1.00  0.00     0.093 A 
ATOM      8  C   UNL     1      -5.137  -6.134  -4.292  1.00  0.00     0.123 A 
ATOM      9  C   UNL     1      -3.754  -6.254  -4.428  1.00  0.00     0.094 A 
ATOM     10  C   UNL     1      -3.059  -5.455  -5.339  1.00  0.00     0.146 A 
ATOM     11  O   UNL     1      -1.745  -5.607  -5.445  1.00  0.00    -0.452 OA
ENDROOT
BRANCH   1  12
ATOM     12  C   UNL     1       0.466  -5.163  -6.295  1.00  0.00     0.025 A 
ATOM     13  C   UNL     1       1.205  -4.941  -5.122  1.00  0.00     0.016 A 
ATOM     14  C   UNL     1       2.587  -5.147  -5.106  1.00  0.00     0.051 A 
ATOM     15  C   UNL     1       3.252  -5.564  -6.266  1.00  0.00     0.157 A 
ATOM     16  C   UNL     1       1.142  -5.562  -7.463  1.00  0.00     0.062 A 
ATOM     17  C   UNL     1       2.529  -5.768  -7.448  1.00  0.00     0.158 A 
BRANCH  15  18
ATOM     18  O   UNL     1       4.630  -5.773  -6.253  1.00  0.00    -0.504 OA
ATOM     19  H   UNL     1       5.281  -5.010  -6.110  1.00  0.00     0.293 HD
ENDBRANCH  15  18
BRANCH  17  20
ATOM     20  O   UNL     1       3.196  -6.168  -8.604  1.00  0.00    -0.504 OA
ATOM     21  H   UNL     1       3.204  -7.137  -8.902  1.00  0.00     0.293 HD
ENDBRANCH  17  20
ENDBRANCH   1  12
BRANCH   2  22
ATOM     22  O   UNL     1      -0.831  -3.339  -8.136  1.00  0.00    -0.502 OA
ATOM     23  H   UNL     1      -1.224  -2.987  -9.000  1.00  0.00     0.293 HD
ENDBRANCH   2  22
BRANCH   6  24
ATOM     24  O   UNL     1      -5.927  -3.374  -6.586  1.00  0.00    -0.507 OA
ATOM     25  H   UNL     1      -5.799  -2.379  -6.478  1.00  0.00     0.293 HD
ENDBRANCH   6  24
BRANCH   8  26
ATOM     26  O   UNL     1      -5.837  -6.943  -3.399  1.00  0.00    -0.508 OA
ATOM     27  H   UNL     1      -6.030  -7.916  -3.605  1.00  0.00     0.293 HD
ENDBRANCH   8  26
TORSDOF 6
ENDMDL
MODEL 7
REMARK VINA RESULT:    -6.931      1.941      2.726
REMARK INTER + INTRA:          -8.473
REMARK INTER:                  -8.314
REMARK INTRA:                  -0.159
REMARK UNBOUND:                -0.125
REMARK SMILES O=c1c(O)c(-c2ccc(O)c(O)c2)oc2cc(O)cc(O)c12
REMARK SMILES IDX 5 1 3 2 2 3 1 4 22 5 20 6 19 7 17 8 16 9 15 10 14 11 6 12
REMARK SMILES IDX 7 13 8 14 9 15 13 16 11 17 10 18 12 20 4 22 21 24 18 26
REMARK H PARENT 10 19 12 21 4 23 21 25 18 27
REMARK Flexibility Score: inf
ROOT
ATOM      1  C   UNL     1      -6.929  -3.087   6.527  1.00  0.00     0.180 A 
ATOM      2  C   UNL     1      -6.942  -2.996   7.929  1.00  0.00     0.208 A 
ATOM      3  C   UNL     1      -7.380  -1.805   8.530  1.00  0.00     0.238 A 
ATOM      4  O   UNL     1      -7.338  -1.711   9.785  1.00  0.00    -0.285 OA
ATOM      5  C   UNL     1      -7.815  -0.727   7.722  1.00  0.00     0.111 A 
ATOM      6  C   UNL     1      -8.317   0.511   8.224  1.00  0.00     0.134 A 
ATOM      7  C   UNL     1      -8.595   1.555   7.335  1.00  0.00     0.093 A 
ATOM      8  C   UNL     1      -8.453   1.386   5.958  1.00  0.00     0.123 A 
ATOM      9  C   UNL     1      -8.020   0.159   5.452  1.00  0.00     0.094 A 
ATOM     10  C   UNL     1      -7.699  -0.890   6.317  1.00  0.00     0.146 A 
ATOM     11  O   UNL     1      -7.281  -2.037   5.796  1.00  0.00    -0.452 OA
ENDROOT
BRANCH   1  12
ATOM     12  C   UNL     1      -6.505  -4.318   5.821  1.00  0.00     0.025 A 
ATOM     13  C   UNL     1      -7.451  -5.060   5.095  1.00  0.00     0.016 A 
ATOM     14  C   UNL     1      -7.077  -6.235   4.439  1.00  0.00     0.051 A 
ATOM     15  C   UNL     1      -5.755  -6.694   4.511  1.00  0.00     0.157 A 
ATOM     16  C   UNL     1      -5.184  -4.794   5.906  1.00  0.00     0.062 A 
ATOM     17  C   UNL     1      -4.808  -5.975   5.249  1.00  0.00     0.158 A 
BRANCH  15  18
ATOM     18  O   UNL     1      -5.378  -7.865   3.855  1.00  0.00    -0.504 OA
ATOM     19  H   UNL     1      -4.413  -8.173   3.832  1.00  0.00     0.293 HD
ENDBRANCH  15  18
BRANCH  17  20
ATOM     20  O   UNL     1      -3.497  -6.441   5.330  1.00  0.00    -0.504 OA
ATOM     21  H   UNL     1      -2.706  -5.809   5.291  1.00  0.00     0.293 HD
ENDBRANCH  17  20
ENDBRANCH   1  12
BRANCH   2  22
ATOM     22  O   UNL     1      -6.487  -4.065   8.707  1.00  0.00    -0.502 OA
ATOM     23  H   UNL     1      -6.747  -4.179   9.679  1.00  0.00     0.293 HD
ENDBRANCH   2  22
BRANCH   6  24
ATOM     24  O   UNL     1      -8.583   0.755   9.575  1.00  0.00    -0.507 OA
ATOM     25  H   UNL     1      -8.431   0.091  10.319  1.00  0.00     0.293 HD
ENDBRANCH   6  24
BRANCH   8  26
ATOM     26  O   UNL     1      -8.755   2.442   5.101  1.00  0.00    -0.508 OA
ATOM     27  H   UNL     1      -8.830   3.394   5.440  1.00  0.00     0.293 HD
ENDBRANCH   8  26
TORSDOF 6
ENDMDL
MODEL 8
REMARK VINA RESULT:    -6.927      1.864      6.712
REMARK INTER + INTRA:          -8.469
REMARK INTER:                  -8.187
REMARK INTRA:                  -0.282
REMARK UNBOUND:                -0.125
REMARK SMILES O=c1c(O)c(-c2ccc(O)c(O)c2)oc2cc(O)cc(O)c12
REMARK SMILES IDX 5 1 3 2 2 3 1 4 22 5 20 6 19 7 17 8 16 9 15 10 14 11 6 12
REMARK SMILES IDX 7 13 8 14 9 15 13 16 11 17 10 18 12 20 4 22 21 24 18 26
REMARK H PARENT 10 19 12 21 4 23 21 25 18 27
REMARK Flexibility Score: inf
ROOT
ATOM      1  C   UNL     1      -5.696  -5.516   7.021  1.00  0.00     0.180 A 
ATOM      2  C   UNL     1      -4.327  -5.703   6.764  1.00  0.00     0.208 A 
ATOM      3  C   UNL     1      -3.930  -6.748   5.914  1.00  0.00     0.238 A 
ATOM      4  O   UNL     1      -2.700  -6.944   5.731  1.00  0.00    -0.285 OA
ATOM      5  C   UNL     1      -4.908  -7.582   5.319  1.00  0.00     0.111 A 
ATOM      6  C   UNL     1      -4.622  -8.645   4.412  1.00  0.00     0.134 A 
ATOM      7  C   UNL     1      -5.656  -9.488   3.987  1.00  0.00     0.093 A 
ATOM      8  C   UNL     1      -6.974  -9.268   4.385  1.00  0.00     0.123 A 
ATOM      9  C   UNL     1      -7.273  -8.194   5.225  1.00  0.00     0.094 A 
ATOM     10  C   UNL     1      -6.258  -7.358   5.695  1.00  0.00     0.146 A 
ATOM     11  O   UNL     1      -6.584  -6.354   6.500  1.00  0.00    -0.452 OA
ENDROOT
BRANCH   1  12
ATOM     12  C   UNL     1      -6.193  -4.421   7.885  1.00  0.00     0.025 A 
ATOM     13  C   UNL     1      -6.692  -4.721   9.162  1.00  0.00     0.016 A 
ATOM     14  C   UNL     1      -7.186  -3.706   9.986  1.00  0.00     0.051 A 
ATOM     15  C   UNL     1      -7.200  -2.378   9.539  1.00  0.00     0.157 A 
ATOM     16  C   UNL     1      -6.228  -3.089   7.433  1.00  0.00     0.062 A 
ATOM     17  C   UNL     1      -6.724  -2.070   8.259  1.00  0.00     0.158 A 
BRANCH  15  18
ATOM     18  O   UNL     1      -7.689  -1.363  10.359  1.00  0.00    -0.504 OA
ATOM     19  H   UNL     1      -8.649  -1.358  10.683  1.00  0.00     0.293 HD
ENDBRANCH  15  18
BRANCH  17  20
ATOM     20  O   UNL     1      -6.754  -0.750   7.812  1.00  0.00    -0.504 OA
ATOM     21  H   UNL     1      -6.800  -0.526   6.824  1.00  0.00     0.293 HD
ENDBRANCH  17  20
ENDBRANCH   1  12
BRANCH   2  22
ATOM     22  O   UNL     1      -3.377  -4.882   7.379  1.00  0.00    -0.502 OA
ATOM     23  H   UNL     1      -3.217  -4.889   8.379  1.00  0.00     0.293 HD
ENDBRANCH   2  22
BRANCH   6  24
ATOM     24  O   UNL     1      -3.353  -8.897   3.879  1.00  0.00    -0.507 OA
ATOM     25  H   UNL     1      -2.994  -8.483   3.032  1.00  0.00     0.293 HD
ENDBRANCH   6  24
BRANCH   8  26
ATOM     26  O   UNL     1      -7.980 -10.117   3.930  1.00  0.00    -0.508 OA
ATOM     27  H   UNL     1      -8.764  -9.768   3.390  1.00  0.00     0.293 HD
ENDBRANCH   8  26
TORSDOF 6
ENDMDL
MODEL 9
REMARK VINA RESULT:    -6.790      2.337      7.163
REMARK INTER + INTRA:          -8.304
REMARK INTER:                  -7.970
REMARK INTRA:                  -0.335
REMARK UNBOUND:                -0.125
REMARK SMILES O=c1c(O)c(-c2ccc(O)c(O)c2)oc2cc(O)cc(O)c12
REMARK SMILES IDX 5 1 3 2 2 3 1 4 22 5 20 6 19 7 17 8 16 9 15 10 14 11 6 12
REMARK SMILES IDX 7 13 8 14 9 15 13 16 11 17 10 18 12 20 4 22 21 24 18 26
REMARK H PARENT 10 19 12 21 4 23 21 25 18 27
REMARK Flexibility Score: inf
ROOT
ATOM      1  C   UNL     1      -7.476  -2.630   6.362  1.00  0.00     0.180 A 
ATOM      2  C   UNL     1      -6.195  -2.955   6.840  1.00  0.00     0.208 A 
ATOM      3  C   UNL     1      -5.658  -4.218   6.542  1.00  0.00     0.238 A 
ATOM      4  O   UNL     1      -4.533  -4.523   7.018  1.00  0.00    -0.285 OA
ATOM      5  C   UNL     1      -6.402  -5.133   5.759  1.00  0.00     0.111 A 
ATOM      6  C   UNL     1      -5.939  -6.424   5.363  1.00  0.00     0.134 A 
ATOM      7  C   UNL     1      -6.810  -7.297   4.700  1.00  0.00     0.093 A 
ATOM      8  C   UNL     1      -8.103  -6.902   4.358  1.00  0.00     0.123 A 
ATOM      9  C   UNL     1      -8.545  -5.620   4.688  1.00  0.00     0.094 A 
ATOM     10  C   UNL     1      -7.712  -4.740   5.383  1.00  0.00     0.146 A 
ATOM     11  O   UNL     1      -8.175  -3.533   5.685  1.00  0.00    -0.452 OA
ENDROOT
BRANCH   1  12
ATOM     12  C   UNL     1      -8.099  -1.310   6.612  1.00  0.00     0.025 A 
ATOM     13  C   UNL     1      -8.948  -1.145   7.718  1.00  0.00     0.016 A 
ATOM     14  C   UNL     1      -9.563   0.086   7.961  1.00  0.00     0.051 A 
ATOM     15  C   UNL     1      -9.349   1.166   7.094  1.00  0.00     0.157 A 
ATOM     16  C   UNL     1      -7.904  -0.229   5.734  1.00  0.00     0.062 A 
ATOM     17  C   UNL     1      -8.521   1.007   5.976  1.00  0.00     0.158 A 
BRANCH  15  18
ATOM     18  O   UNL     1      -9.958   2.396   7.335  1.00  0.00    -0.504 OA
ATOM     19  H   UNL     1     -10.789   2.473   7.910  1.00  0.00     0.293 HD
ENDBRANCH  15  18
BRANCH  17  20
ATOM     20  O   UNL     1      -8.322   2.078   5.108  1.00  0.00    -0.504 OA
ATOM     21  H   UNL     1      -7.673   2.825   5.328  1.00  0.00     0.293 HD
ENDBRANCH  17  20
ENDBRANCH   1  12
BRANCH   2  22
ATOM     22  O   UNL     1      -5.487  -2.045   7.630  1.00  0.00    -0.502 OA
ATOM     23  H   UNL     1      -4.785  -1.424   7.248  1.00  0.00     0.293 HD
ENDBRANCH   2  22
BRANCH   6  24
ATOM     24  O   UNL     1      -4.635  -6.884   5.573  1.00  0.00    -0.507 OA
ATOM     25  H   UNL     1      -4.389  -7.844   5.762  1.00  0.00     0.293 HD
ENDBRANCH   6  24
BRANCH   8  26
ATOM     26  O   UNL     1      -8.937  -7.791   3.684  1.00  0.00    -0.508 OA
ATOM     27  H   UNL     1      -9.310  -7.574   2.767  1.00  0.00     0.293 HD
ENDBRANCH   8  26
TORSDOF 6
ENDMDL
