MODEL 1
REMARK VINA RESULT:    -9.705      0.000      0.000
REMARK INTER + INTRA:         -13.300
REMARK INTER:                 -12.826
REMARK INTRA:                  -0.474
REMARK UNBOUND:                -0.474
REMARK SMILES CC[C@@H](C=C[C@@H](C)[C@@H]1CC[C@H]2[C@H]3CC=C4C[C@@H](O)CC[C@@]4(C)[C@@H]3CC[C@]21C)C(C)C
REMARK SMILES IDX 6 1 7 2 5 3 4 4 3 5 2 6 1 7 28 8 29 9 30 10 8 11 9 12 26 13
REMARK SMILES IDX 10 14 11 15 25 16 27 17 12 18 24 19 23 20 13 21 21 22 14 23
REMARK SMILES IDX 15 24 20 25 22 26 16 27 19 28 17 29 18 30
REMARK H PARENT 18 31
REMARK Flexibility Score: inf
ROOT
ATOM      1  C   UNL     1     136.014 121.781 140.244  1.00  0.00     0.012 C 
ATOM      2  C   UNL     1     137.274 122.557 140.660  1.00  0.00     0.012 C 
ENDROOT
BRANCH   1   3
ATOM      3  C   UNL     1     136.160 120.964 138.969  1.00  0.00    -0.028 C 
ATOM      4  C   UNL     1     136.552 119.676 138.925  1.00  0.00    -0.027 C 
BRANCH   4   5
ATOM      5  C   UNL     1     136.507 118.827 137.663  1.00  0.00     0.014 C 
BRANCH   5   6
ATOM      6  C   UNL     1     135.332 117.811 137.616  1.00  0.00     0.004 C 
ATOM      7  C   UNL     1     134.952 117.399 136.193  1.00  0.00     0.004 C 
ENDBRANCH   5   6
BRANCH   5   8
ATOM      8  C   UNL     1     137.905 118.191 137.379  1.00  0.00    -0.011 C 
ATOM      9  C   UNL     1     138.100 116.804 138.014  1.00  0.00     0.008 C 
ATOM     10  C   UNL     1     138.218 118.132 135.875  1.00  0.00     0.008 C 
ENDBRANCH   5   8
ENDBRANCH   4   5
ENDBRANCH   1   3
BRANCH   1  11
ATOM     11  C   UNL     1     134.691 122.602 140.385  1.00  0.00     0.002 C 
ATOM     12  C   UNL     1     133.452 121.792 140.009  1.00  0.00     0.005 C 
ATOM     13  C   UNL     1     134.499 124.007 139.703  1.00  0.00    -0.026 C 
ATOM     14  C   UNL     1     132.335 122.809 139.966  1.00  0.00     0.005 C 
ATOM     15  C   UNL     1     132.973 124.056 139.343  1.00  0.00    -0.001 C 
ATOM     16  C   UNL     1     134.898 125.166 140.673  1.00  0.00     0.007 C 
ATOM     17  C   UNL     1     135.308 124.179 138.398  1.00  0.00     0.012 C 
ATOM     18  C   UNL     1     132.290 125.400 139.712  1.00  0.00     0.000 C 
ATOM     19  C   UNL     1     133.854 125.439 141.768  1.00  0.00     0.005 C 
ATOM     20  C   UNL     1     132.440 125.775 141.208  1.00  0.00     0.003 C 
ATOM     21  C   UNL     1     130.807 125.431 139.322  1.00  0.00     0.031 C 
ATOM     22  C   UNL     1     131.942 127.248 141.471  1.00  0.00    -0.008 C 
ATOM     23  C   UNL     1     130.133 126.702 139.767  1.00  0.00    -0.027 C 
ATOM     24  C   UNL     1     130.576 127.471 140.791  1.00  0.00    -0.065 C 
ATOM     25  C   UNL     1     131.780 127.460 143.011  1.00  0.00     0.014 C 
ATOM     26  C   UNL     1     132.940 128.294 140.903  1.00  0.00     0.016 C 
ATOM     27  C   UNL     1     129.760 128.688 141.181  1.00  0.00     0.063 C 
ATOM     28  C   UNL     1     130.994 128.724 143.400  1.00  0.00     0.033 C 
ATOM     29  C   UNL     1     129.625 128.804 142.706  1.00  0.00     0.118 C 
BRANCH  29  30
ATOM     30  O   UNL     1     128.728 127.849 143.224  1.00  0.00    -0.393 OA
ATOM     31  H   UNL     1     128.730 127.060 142.624  1.00  0.00     0.210 HD
ENDBRANCH  29  30
ENDBRANCH   1  11
TORSDOF 6
ENDMDL
MODEL 2
REMARK VINA RESULT:    -9.318      4.701     10.948
REMARK INTER + INTRA:         -12.788
REMARK INTER:                 -11.451
REMARK INTRA:                  -1.337
REMARK UNBOUND:                -0.474
REMARK SMILES CC[C@@H](C=C[C@@H](C)[C@@H]1CC[C@H]2[C@H]3CC=C4C[C@@H](O)CC[C@@]4(C)[C@@H]3CC[C@]21C)C(C)C
REMARK SMILES IDX 6 1 7 2 5 3 4 4 3 5 2 6 1 7 28 8 29 9 30 10 8 11 9 12 26 13
REMARK SMILES IDX 10 14 11 15 25 16 27 17 12 18 24 19 23 20 13 21 21 22 14 23
REMARK SMILES IDX 15 24 20 25 22 26 16 27 19 28 17 29 18 30
REMARK H PARENT 18 31
REMARK Flexibility Score: inf
ROOT
ATOM      1  C   UNL     1     131.432 133.042 136.755  1.00  0.00     0.012 C 
ATOM      2  C   UNL     1     132.173 134.237 136.134  1.00  0.00     0.012 C 
ENDROOT
BRANCH   1   3
ATOM      3  C   UNL     1     130.593 133.378 137.978  1.00  0.00    -0.028 C 
ATOM      4  C   UNL     1     129.251 133.281 138.038  1.00  0.00    -0.027 C 
BRANCH   4   5
ATOM      5  C   UNL     1     128.454 133.438 139.325  1.00  0.00     0.014 C 
BRANCH   5   6
ATOM      6  C   UNL     1     128.779 134.730 140.125  1.00  0.00     0.004 C 
ATOM      7  C   UNL     1     128.559 136.008 139.316  1.00  0.00     0.004 C 
ENDBRANCH   5   6
BRANCH   5   8
ATOM      8  C   UNL     1     128.525 132.131 140.177  1.00  0.00    -0.011 C 
ATOM      9  C   UNL     1     129.621 132.148 141.256  1.00  0.00     0.008 C 
ATOM     10  C   UNL     1     127.168 131.780 140.809  1.00  0.00     0.008 C 
ENDBRANCH   5   8
ENDBRANCH   4   5
ENDBRANCH   1   3
BRANCH   1  11
ATOM     11  C   UNL     1     132.297 131.743 136.850  1.00  0.00     0.002 C 
ATOM     12  C   UNL     1     133.472 131.745 135.875  1.00  0.00     0.005 C 
ATOM     13  C   UNL     1     131.666 130.305 136.747  1.00  0.00    -0.026 C 
ATOM     14  C   UNL     1     134.019 130.337 135.940  1.00  0.00     0.005 C 
ATOM     15  C   UNL     1     132.776 129.447 136.045  1.00  0.00    -0.001 C 
ATOM     16  C   UNL     1     131.309 129.740 138.160  1.00  0.00     0.007 C 
ATOM     17  C   UNL     1     130.391 130.249 135.876  1.00  0.00     0.012 C 
ATOM     18  C   UNL     1     133.010 128.066 136.714  1.00  0.00     0.000 C 
ATOM     19  C   UNL     1     132.533 129.259 138.957  1.00  0.00     0.005 C 
ATOM     20  C   UNL     1     133.363 128.165 138.220  1.00  0.00     0.003 C 
ATOM     21  C   UNL     1     134.077 127.236 135.991  1.00  0.00     0.031 C 
ATOM     22  C   UNL     1     133.351 126.740 138.895  1.00  0.00    -0.008 C 
ATOM     23  C   UNL     1     134.361 125.939 136.702  1.00  0.00    -0.027 C 
ATOM     24  C   UNL     1     134.132 125.737 138.022  1.00  0.00    -0.065 C 
ATOM     25  C   UNL     1     134.042 126.837 140.294  1.00  0.00     0.014 C 
ATOM     26  C   UNL     1     131.903 126.205 139.066  1.00  0.00     0.016 C 
ATOM     27  C   UNL     1     134.531 124.405 138.625  1.00  0.00     0.063 C 
ATOM     28  C   UNL     1     134.400 125.479 140.922  1.00  0.00     0.033 C 
ATOM     29  C   UNL     1     135.229 124.593 139.980  1.00  0.00     0.118 C 
BRANCH  29  30
ATOM     30  O   UNL     1     136.540 125.088 139.827  1.00  0.00    -0.393 OA
ATOM     31  H   UNL     1     136.486 126.009 139.463  1.00  0.00     0.210 HD
ENDBRANCH  29  30
ENDBRANCH   1  11
TORSDOF 6
ENDMDL
MODEL 3
REMARK VINA RESULT:    -8.957      1.620      3.199
REMARK INTER + INTRA:         -12.311
REMARK INTER:                 -11.628
REMARK INTRA:                  -0.683
REMARK UNBOUND:                -0.474
REMARK SMILES CC[C@@H](C=C[C@@H](C)[C@@H]1CC[C@H]2[C@H]3CC=C4C[C@@H](O)CC[C@@]4(C)[C@@H]3CC[C@]21C)C(C)C
REMARK SMILES IDX 6 1 7 2 5 3 4 4 3 5 2 6 1 7 28 8 29 9 30 10 8 11 9 12 26 13
REMARK SMILES IDX 10 14 11 15 25 16 27 17 12 18 24 19 23 20 13 21 21 22 14 23
REMARK SMILES IDX 15 24 20 25 22 26 16 27 19 28 17 29 18 30
REMARK H PARENT 18 31
REMARK Flexibility Score: inf
ROOT
ATOM      1  C   UNL     1     135.692 124.394 139.423  1.00  0.00     0.012 C 
ATOM      2  C   UNL     1     135.689 124.636 137.905  1.00  0.00     0.012 C 
ENDROOT
BRANCH   1   3
ATOM      3  C   UNL     1     135.924 122.949 139.837  1.00  0.00    -0.028 C 
ATOM      4  C   UNL     1     135.934 121.901 138.991  1.00  0.00    -0.027 C 
BRANCH   4   5
ATOM      5  C   UNL     1     136.356 120.497 139.399  1.00  0.00     0.014 C 
BRANCH   5   6
ATOM      6  C   UNL     1     137.885 120.328 139.622  1.00  0.00     0.004 C 
ATOM      7  C   UNL     1     138.222 119.396 140.786  1.00  0.00     0.004 C 
ENDBRANCH   5   6
BRANCH   5   8
ATOM      8  C   UNL     1     135.737 119.437 138.434  1.00  0.00    -0.011 C 
ATOM      9  C   UNL     1     136.615 119.113 137.215  1.00  0.00     0.008 C 
ATOM     10  C   UNL     1     135.355 118.141 139.169  1.00  0.00     0.008 C 
ENDBRANCH   5   8
ENDBRANCH   4   5
ENDBRANCH   1   3
BRANCH   1  11
ATOM     11  C   UNL     1     134.558 125.154 140.186  1.00  0.00     0.002 C 
ATOM     12  C   UNL     1     134.660 124.997 141.701  1.00  0.00     0.005 C 
ATOM     13  C   UNL     1     133.035 124.951 139.843  1.00  0.00    -0.026 C 
ATOM     14  C   UNL     1     133.366 125.573 142.229  1.00  0.00     0.005 C 
ATOM     15  C   UNL     1     132.304 125.120 141.221  1.00  0.00    -0.001 C 
ATOM     16  C   UNL     1     132.545 126.006 138.798  1.00  0.00     0.007 C 
ATOM     17  C   UNL     1     132.705 123.546 139.292  1.00  0.00     0.012 C 
ATOM     18  C   UNL     1     131.040 126.018 141.148  1.00  0.00     0.000 C 
ATOM     19  C   UNL     1     132.332 127.408 139.393  1.00  0.00     0.005 C 
ATOM     20  C   UNL     1     131.322 127.432 140.580  1.00  0.00     0.003 C 
ATOM     21  C   UNL     1     130.328 126.141 142.500  1.00  0.00     0.031 C 
ATOM     22  C   UNL     1     129.977 128.206 140.306  1.00  0.00    -0.008 C 
ATOM     23  C   UNL     1     129.157 127.086 142.438  1.00  0.00    -0.027 C 
ATOM     24  C   UNL     1     129.037 128.077 141.522  1.00  0.00    -0.065 C 
ATOM     25  C   UNL     1     130.301 129.719 140.076  1.00  0.00     0.014 C 
ATOM     26  C   UNL     1     129.237 127.638 139.063  1.00  0.00     0.016 C 
ATOM     27  C   UNL     1     127.841 129.003 141.618  1.00  0.00     0.063 C 
ATOM     28  C   UNL     1     129.075 130.646 140.126  1.00  0.00     0.033 C 
ATOM     29  C   UNL     1     128.251 130.469 141.411  1.00  0.00     0.118 C 
BRANCH  29  30
ATOM     30  O   UNL     1     128.931 130.983 142.534  1.00  0.00    -0.393 OA
ATOM     31  H   UNL     1     128.995 131.967 142.438  1.00  0.00     0.210 HD
ENDBRANCH  29  30
ENDBRANCH   1  11
TORSDOF 6
ENDMDL
MODEL 4
REMARK VINA RESULT:    -8.821      4.260      9.354
REMARK INTER + INTRA:         -12.132
REMARK INTER:                 -11.344
REMARK INTRA:                  -0.787
REMARK UNBOUND:                -0.474
REMARK SMILES CC[C@@H](C=C[C@@H](C)[C@@H]1CC[C@H]2[C@H]3CC=C4C[C@@H](O)CC[C@@]4(C)[C@@H]3CC[C@]21C)C(C)C
REMARK SMILES IDX 6 1 7 2 5 3 4 4 3 5 2 6 1 7 28 8 29 9 30 10 8 11 9 12 26 13
REMARK SMILES IDX 10 14 11 15 25 16 27 17 12 18 24 19 23 20 13 21 21 22 14 23
REMARK SMILES IDX 15 24 20 25 22 26 16 27 19 28 17 29 18 30
REMARK H PARENT 18 31
REMARK Flexibility Score: inf
ROOT
ATOM      1  C   UNL     1     134.992 128.718 136.791  1.00  0.00     0.012 C 
ATOM      2  C   UNL     1     136.114 129.358 137.624  1.00  0.00     0.012 C 
ENDROOT
BRANCH   1   3
ATOM      3  C   UNL     1     133.772 129.601 136.579  1.00  0.00    -0.028 C 
ATOM      4  C   UNL     1     133.664 130.874 137.005  1.00  0.00    -0.027 C 
BRANCH   4   5
ATOM      5  C   UNL     1     132.516 131.795 136.617  1.00  0.00     0.014 C 
BRANCH   5   6
ATOM      6  C   UNL     1     131.346 131.084 135.882  1.00  0.00     0.004 C 
ATOM      7  C   UNL     1     130.126 130.858 136.776  1.00  0.00     0.004 C 
ENDBRANCH   5   6
BRANCH   5   8
ATOM      8  C   UNL     1     133.054 133.059 135.875  1.00  0.00    -0.011 C 
ATOM      9  C   UNL     1     132.091 134.258 135.906  1.00  0.00     0.008 C 
ATOM     10  C   UNL     1     134.441 133.483 136.387  1.00  0.00     0.008 C 
ENDBRANCH   5   8
ENDBRANCH   4   5
ENDBRANCH   1   3
BRANCH   1  11
ATOM     11  C   UNL     1     134.704 127.226 137.161  1.00  0.00     0.002 C 
ATOM     12  C   UNL     1     133.549 126.632 136.358  1.00  0.00     0.005 C 
ATOM     13  C   UNL     1     134.468 126.760 138.646  1.00  0.00    -0.026 C 
ATOM     14  C   UNL     1     133.269 125.304 137.024  1.00  0.00     0.005 C 
ATOM     15  C   UNL     1     133.440 125.582 138.521  1.00  0.00    -0.001 C 
ATOM     16  C   UNL     1     135.803 126.292 139.311  1.00  0.00     0.007 C 
ATOM     17  C   UNL     1     133.844 127.850 139.546  1.00  0.00     0.012 C 
ATOM     18  C   UNL     1     133.808 124.343 139.383  1.00  0.00     0.000 C 
ATOM     19  C   UNL     1     136.271 124.905 138.841  1.00  0.00     0.005 C 
ATOM     20  C   UNL     1     135.219 123.781 139.079  1.00  0.00     0.003 C 
ATOM     21  C   UNL     1     132.772 123.218 139.266  1.00  0.00     0.031 C 
ATOM     22  C   UNL     1     135.629 122.687 140.139  1.00  0.00    -0.008 C 
ATOM     23  C   UNL     1     133.184 121.989 140.032  1.00  0.00    -0.027 C 
ATOM     24  C   UNL     1     134.469 121.691 140.343  1.00  0.00    -0.065 C 
ATOM     25  C   UNL     1     136.876 121.909 139.608  1.00  0.00     0.014 C 
ATOM     26  C   UNL     1     135.961 123.327 141.515  1.00  0.00     0.016 C 
ATOM     27  C   UNL     1     134.751 120.384 141.056  1.00  0.00     0.063 C 
ATOM     28  C   UNL     1     137.185 120.608 140.368  1.00  0.00     0.033 C 
ATOM     29  C   UNL     1     135.970 119.671 140.453  1.00  0.00     0.118 C 
BRANCH  29  30
ATOM     30  O   UNL     1     135.672 119.098 139.200  1.00  0.00    -0.393 OA
ATOM     31  H   UNL     1     134.986 119.659 138.755  1.00  0.00     0.210 HD
ENDBRANCH  29  30
ENDBRANCH   1  11
TORSDOF 6
ENDMDL
MODEL 5
REMARK VINA RESULT:    -8.783      4.012      6.872
REMARK INTER + INTRA:         -12.080
REMARK INTER:                 -10.708
REMARK INTRA:                  -1.372
REMARK UNBOUND:                -0.474
REMARK SMILES CC[C@@H](C=C[C@@H](C)[C@@H]1CC[C@H]2[C@H]3CC=C4C[C@@H](O)CC[C@@]4(C)[C@@H]3CC[C@]21C)C(C)C
REMARK SMILES IDX 6 1 7 2 5 3 4 4 3 5 2 6 1 7 28 8 29 9 30 10 8 11 9 12 26 13
REMARK SMILES IDX 10 14 11 15 25 16 27 17 12 18 24 19 23 20 13 21 21 22 14 23
REMARK SMILES IDX 15 24 20 25 22 26 16 27 19 28 17 29 18 30
REMARK H PARENT 18 31
REMARK Flexibility Score: inf
ROOT
ATOM      1  C   UNL     1     131.339 126.245 141.586  1.00  0.00     0.012 C 
ATOM      2  C   UNL     1     130.666 126.117 142.962  1.00  0.00     0.012 C 
ENDROOT
BRANCH   1   3
ATOM      3  C   UNL     1     132.670 125.521 141.457  1.00  0.00    -0.028 C 
ATOM      4  C   UNL     1     133.110 124.918 140.336  1.00  0.00    -0.027 C 
BRANCH   4   5
ATOM      5  C   UNL     1     134.520 124.369 140.176  1.00  0.00     0.014 C 
BRANCH   5   6
ATOM      6  C   UNL     1     135.457 125.254 139.307  1.00  0.00     0.004 C 
ATOM      7  C   UNL     1     135.382 124.924 137.816  1.00  0.00     0.004 C 
ENDBRANCH   5   6
BRANCH   5   8
ATOM      8  C   UNL     1     134.479 122.871 139.737  1.00  0.00    -0.011 C 
ATOM      9  C   UNL     1     135.593 122.009 140.354  1.00  0.00     0.008 C 
ATOM     10  C   UNL     1     133.107 122.229 140.000  1.00  0.00     0.008 C 
ENDBRANCH   5   8
ENDBRANCH   4   5
ENDBRANCH   1   3
BRANCH   1  11
ATOM     11  C   UNL     1     131.281 127.688 140.986  1.00  0.00     0.002 C 
ATOM     12  C   UNL     1     130.387 128.625 141.794  1.00  0.00     0.005 C 
ATOM     13  C   UNL     1     130.919 127.955 139.478  1.00  0.00    -0.026 C 
ATOM     14  C   UNL     1     130.262 129.862 140.934  1.00  0.00     0.005 C 
ATOM     15  C   UNL     1     130.156 129.327 139.502  1.00  0.00    -0.001 C 
ATOM     16  C   UNL     1     132.204 128.027 138.592  1.00  0.00     0.007 C 
ATOM     17  C   UNL     1     129.978 126.892 138.868  1.00  0.00     0.012 C 
ATOM     18  C   UNL     1     130.616 130.312 138.395  1.00  0.00     0.000 C 
ATOM     19  C   UNL     1     132.985 129.342 138.746  1.00  0.00     0.005 C 
ATOM     20  C   UNL     1     132.136 130.610 138.428  1.00  0.00     0.003 C 
ATOM     21  C   UNL     1     129.835 131.632 138.422  1.00  0.00     0.031 C 
ATOM     22  C   UNL     1     132.580 131.416 137.148  1.00  0.00    -0.008 C 
ATOM     23  C   UNL     1     130.350 132.614 137.404  1.00  0.00    -0.027 C 
ATOM     24  C   UNL     1     131.607 132.587 136.900  1.00  0.00    -0.065 C 
ATOM     25  C   UNL     1     134.014 131.992 137.384  1.00  0.00     0.014 C 
ATOM     26  C   UNL     1     132.582 130.515 135.882  1.00  0.00     0.016 C 
ATOM     27  C   UNL     1     132.018 133.681 135.934  1.00  0.00     0.063 C 
ATOM     28  C   UNL     1     134.443 133.066 136.370  1.00  0.00     0.033 C 
ATOM     29  C   UNL     1     133.424 134.210 136.255  1.00  0.00     0.118 C 
BRANCH  29  30
ATOM     30  O   UNL     1     133.425 135.019 137.409  1.00  0.00    -0.393 OA
ATOM     31  H   UNL     1     134.294 135.495 137.458  1.00  0.00     0.210 HD
ENDBRANCH  29  30
ENDBRANCH   1  11
TORSDOF 6
ENDMDL
MODEL 6
REMARK VINA RESULT:    -8.767      4.018      6.742
REMARK INTER + INTRA:         -12.060
REMARK INTER:                 -10.758
REMARK INTRA:                  -1.302
REMARK UNBOUND:                -0.474
REMARK SMILES CC[C@@H](C=C[C@@H](C)[C@@H]1CC[C@H]2[C@H]3CC=C4C[C@@H](O)CC[C@@]4(C)[C@@H]3CC[C@]21C)C(C)C
REMARK SMILES IDX 6 1 7 2 5 3 4 4 3 5 2 6 1 7 28 8 29 9 30 10 8 11 9 12 26 13
REMARK SMILES IDX 10 14 11 15 25 16 27 17 12 18 24 19 23 20 13 21 21 22 14 23
REMARK SMILES IDX 15 24 20 25 22 26 16 27 19 28 17 29 18 30
REMARK H PARENT 18 31
REMARK Flexibility Score: inf
ROOT
ATOM      1  C   UNL     1     131.585 126.129 141.439  1.00  0.00     0.012 C 
ATOM      2  C   UNL     1     131.247 125.971 142.931  1.00  0.00     0.012 C 
ENDROOT
BRANCH   1   3
ATOM      3  C   UNL     1     132.803 125.343 140.976  1.00  0.00    -0.028 C 
ATOM      4  C   UNL     1     132.762 124.289 140.139  1.00  0.00    -0.027 C 
BRANCH   4   5
ATOM      5  C   UNL     1     134.003 123.643 139.542  1.00  0.00     0.014 C 
BRANCH   5   6
ATOM      6  C   UNL     1     134.516 122.400 140.322  1.00  0.00     0.004 C 
ATOM      7  C   UNL     1     133.507 121.252 140.352  1.00  0.00     0.004 C 
ENDBRANCH   5   6
BRANCH   5   8
ATOM      8  C   UNL     1     135.104 124.716 139.268  1.00  0.00    -0.011 C 
ATOM      9  C   UNL     1     136.421 124.465 140.021  1.00  0.00     0.008 C 
ATOM     10  C   UNL     1     135.380 124.890 137.766  1.00  0.00     0.008 C 
ENDBRANCH   5   8
ENDBRANCH   4   5
ENDBRANCH   1   3
BRANCH   1  11
ATOM     11  C   UNL     1     131.478 127.599 140.919  1.00  0.00     0.002 C 
ATOM     12  C   UNL     1     130.650 128.491 141.842  1.00  0.00     0.005 C 
ATOM     13  C   UNL     1     130.996 127.940 139.460  1.00  0.00    -0.026 C 
ATOM     14  C   UNL     1     130.456 129.769 141.057  1.00  0.00     0.005 C 
ATOM     15  C   UNL     1     130.236 129.304 139.614  1.00  0.00    -0.001 C 
ATOM     16  C   UNL     1     132.206 128.062 138.478  1.00  0.00     0.007 C 
ATOM     17  C   UNL     1     130.010 126.903 138.875  1.00  0.00     0.012 C 
ATOM     18  C   UNL     1     130.604 130.346 138.523  1.00  0.00     0.000 C 
ATOM     19  C   UNL     1     132.995 129.372 138.635  1.00  0.00     0.005 C 
ATOM     20  C   UNL     1     132.122 130.649 138.450  1.00  0.00     0.003 C 
ATOM     21  C   UNL     1     129.826 131.658 138.679  1.00  0.00     0.031 C 
ATOM     22  C   UNL     1     132.461 131.520 137.180  1.00  0.00    -0.008 C 
ATOM     23  C   UNL     1     130.257 132.693 137.673  1.00  0.00    -0.027 C 
ATOM     24  C   UNL     1     131.470 132.697 137.069  1.00  0.00    -0.065 C 
ATOM     25  C   UNL     1     133.908 132.091 137.329  1.00  0.00     0.014 C 
ATOM     26  C   UNL     1     132.362 130.683 135.875  1.00  0.00     0.016 C 
ATOM     27  C   UNL     1     131.801 133.839 136.130  1.00  0.00     0.063 C 
ATOM     28  C   UNL     1     134.253 133.216 136.339  1.00  0.00     0.033 C 
ATOM     29  C   UNL     1     133.227 134.360 136.363  1.00  0.00     0.118 C 
BRANCH  29  30
ATOM     30  O   UNL     1     133.320 135.110 137.552  1.00  0.00    -0.393 OA
ATOM     31  H   UNL     1     133.673 134.522 138.267  1.00  0.00     0.210 HD
ENDBRANCH  29  30
ENDBRANCH   1  11
TORSDOF 6
ENDMDL
MODEL 7
REMARK VINA RESULT:    -8.572      4.626      9.166
REMARK INTER + INTRA:         -11.802
REMARK INTER:                 -10.366
REMARK INTRA:                  -1.436
REMARK UNBOUND:                -0.474
REMARK SMILES CC[C@@H](C=C[C@@H](C)[C@@H]1CC[C@H]2[C@H]3CC=C4C[C@@H](O)CC[C@@]4(C)[C@@H]3CC[C@]21C)C(C)C
REMARK SMILES IDX 6 1 7 2 5 3 4 4 3 5 2 6 1 7 28 8 29 9 30 10 8 11 9 12 26 13
REMARK SMILES IDX 10 14 11 15 25 16 27 17 12 18 24 19 23 20 13 21 21 22 14 23
REMARK SMILES IDX 15 24 20 25 22 26 16 27 19 28 17 29 18 30
REMARK H PARENT 18 31
REMARK Flexibility Score: inf
ROOT
ATOM      1  C   UNL     1     134.755 130.233 136.618  1.00  0.00     0.012 C 
ATOM      2  C   UNL     1     136.113 130.883 136.931  1.00  0.00     0.012 C 
ENDROOT
BRANCH   1   3
ATOM      3  C   UNL     1     133.690 131.195 136.114  1.00  0.00    -0.028 C 
ATOM      4  C   UNL     1     132.771 131.799 136.893  1.00  0.00    -0.027 C 
BRANCH   4   5
ATOM      5  C   UNL     1     131.843 132.898 136.399  1.00  0.00     0.014 C 
BRANCH   5   6
ATOM      6  C   UNL     1     132.552 134.249 136.103  1.00  0.00     0.004 C 
ATOM      7  C   UNL     1     133.521 134.673 137.207  1.00  0.00     0.004 C 
ENDBRANCH   5   6
BRANCH   5   8
ATOM      8  C   UNL     1     130.600 133.028 137.336  1.00  0.00    -0.011 C 
ATOM      9  C   UNL     1     129.740 134.274 137.062  1.00  0.00     0.008 C 
ATOM     10  C   UNL     1     129.723 131.766 137.310  1.00  0.00     0.008 C 
ENDBRANCH   5   8
ENDBRANCH   4   5
ENDBRANCH   1   3
BRANCH   1  11
ATOM     11  C   UNL     1     134.290 129.193 137.689  1.00  0.00     0.002 C 
ATOM     12  C   UNL     1     135.458 128.576 138.455  1.00  0.00     0.005 C 
ATOM     13  C   UNL     1     133.336 127.993 137.334  1.00  0.00    -0.026 C 
ATOM     14  C   UNL     1     134.836 127.443 139.241  1.00  0.00     0.005 C 
ATOM     15  C   UNL     1     133.801 126.837 138.288  1.00  0.00    -0.001 C 
ATOM     16  C   UNL     1     131.838 128.370 137.574  1.00  0.00     0.007 C 
ATOM     17  C   UNL     1     133.476 127.500 135.876  1.00  0.00     0.012 C 
ATOM     18  C   UNL     1     132.627 126.092 138.979  1.00  0.00     0.000 C 
ATOM     19  C   UNL     1     131.438 128.385 139.058  1.00  0.00     0.005 C 
ATOM     20  C   UNL     1     131.692 127.030 139.784  1.00  0.00     0.003 C 
ATOM     21  C   UNL     1     133.106 124.949 139.881  1.00  0.00     0.031 C 
ATOM     22  C   UNL     1     130.398 126.264 140.257  1.00  0.00    -0.008 C 
ATOM     23  C   UNL     1     131.967 124.294 140.616  1.00  0.00    -0.027 C 
ATOM     24  C   UNL     1     130.787 124.906 140.876  1.00  0.00    -0.065 C 
ATOM     25  C   UNL     1     129.669 127.124 141.341  1.00  0.00     0.014 C 
ATOM     26  C   UNL     1     129.433 125.994 139.070  1.00  0.00     0.016 C 
ATOM     27  C   UNL     1     129.751 124.156 141.690  1.00  0.00     0.063 C 
ATOM     28  C   UNL     1     128.585 126.368 142.128  1.00  0.00     0.033 C 
ATOM     29  C   UNL     1     129.107 125.062 142.748  1.00  0.00     0.118 C 
BRANCH  29  30
ATOM     30  O   UNL     1     129.986 125.317 143.821  1.00  0.00    -0.393 OA
ATOM     31  H   UNL     1     130.825 125.697 143.454  1.00  0.00     0.210 HD
ENDBRANCH  29  30
ENDBRANCH   1  11
TORSDOF 6
ENDMDL
MODEL 8
REMARK VINA RESULT:    -8.540      6.319      9.254
REMARK INTER + INTRA:         -11.760
REMARK INTER:                 -10.210
REMARK INTRA:                  -1.550
REMARK UNBOUND:                -0.474
REMARK SMILES CC[C@@H](C=C[C@@H](C)[C@@H]1CC[C@H]2[C@H]3CC=C4C[C@@H](O)CC[C@@]4(C)[C@@H]3CC[C@]21C)C(C)C
REMARK SMILES IDX 6 1 7 2 5 3 4 4 3 5 2 6 1 7 28 8 29 9 30 10 8 11 9 12 26 13
REMARK SMILES IDX 10 14 11 15 25 16 27 17 12 18 24 19 23 20 13 21 21 22 14 23
REMARK SMILES IDX 15 24 20 25 22 26 16 27 19 28 17 29 18 30
REMARK H PARENT 18 31
REMARK Flexibility Score: inf
ROOT
ATOM      1  C   UNL     1     129.377 129.439 141.735  1.00  0.00     0.012 C 
ATOM      2  C   UNL     1     128.314 130.545 141.623  1.00  0.00     0.012 C 
ENDROOT
BRANCH   1   3
ATOM      3  C   UNL     1     128.843 128.024 141.577  1.00  0.00    -0.028 C 
ATOM      4  C   UNL     1     128.685 127.147 142.586  1.00  0.00    -0.027 C 
BRANCH   4   5
ATOM      5  C   UNL     1     127.974 125.810 142.434  1.00  0.00     0.014 C 
BRANCH   5   6
ATOM      6  C   UNL     1     126.682 125.671 143.288  1.00  0.00     0.004 C 
ATOM      7  C   UNL     1     126.420 124.237 143.749  1.00  0.00     0.004 C 
ENDBRANCH   5   6
BRANCH   5   8
ATOM      8  C   UNL     1     128.980 124.629 142.612  1.00  0.00    -0.011 C 
ATOM      9  C   UNL     1     129.701 124.223 141.317  1.00  0.00     0.008 C 
ATOM     10  C   UNL     1     130.006 124.908 143.723  1.00  0.00     0.008 C 
ENDBRANCH   5   8
ENDBRANCH   4   5
ENDBRANCH   1   3
BRANCH   1  11
ATOM     11  C   UNL     1     130.399 129.662 142.898  1.00  0.00     0.002 C 
ATOM     12  C   UNL     1     130.393 131.097 143.420  1.00  0.00     0.005 C 
ATOM     13  C   UNL     1     131.917 129.267 142.767  1.00  0.00    -0.026 C 
ATOM     14  C   UNL     1     131.593 131.169 144.336  1.00  0.00     0.005 C 
ATOM     15  C   UNL     1     132.670 130.341 143.627  1.00  0.00    -0.001 C 
ATOM     16  C   UNL     1     132.173 127.820 143.301  1.00  0.00     0.007 C 
ATOM     17  C   UNL     1     132.455 129.343 141.320  1.00  0.00     0.012 C 
ATOM     18  C   UNL     1     133.759 129.741 144.556  1.00  0.00     0.000 C 
ATOM     19  C   UNL     1     132.171 127.721 144.835  1.00  0.00     0.005 C 
ATOM     20  C   UNL     1     133.215 128.655 145.518  1.00  0.00     0.003 C 
ATOM     21  C   UNL     1     134.500 130.815 145.362  1.00  0.00     0.031 C 
ATOM     22  C   UNL     1     134.395 127.919 146.260  1.00  0.00    -0.008 C 
ATOM     23  C   UNL     1     135.489 130.216 146.326  1.00  0.00    -0.027 C 
ATOM     24  C   UNL     1     135.398 128.954 146.811  1.00  0.00    -0.065 C 
ATOM     25  C   UNL     1     133.809 127.097 147.454  1.00  0.00     0.014 C 
ATOM     26  C   UNL     1     135.164 126.968 145.301  1.00  0.00     0.016 C 
ATOM     27  C   UNL     1     136.422 128.501 147.833  1.00  0.00     0.063 C 
ATOM     28  C   UNL     1     134.861 126.599 148.460  1.00  0.00     0.033 C 
ATOM     29  C   UNL     1     135.760 127.730 148.984  1.00  0.00     0.118 C 
BRANCH  29  30
ATOM     30  O   UNL     1     135.054 128.590 149.849  1.00  0.00    -0.393 OA
ATOM     31  H   UNL     1     135.697 128.984 150.493  1.00  0.00     0.210 HD
ENDBRANCH  29  30
ENDBRANCH   1  11
TORSDOF 6
ENDMDL
MODEL 9
REMARK VINA RESULT:    -8.524      3.148      6.300
REMARK INTER + INTRA:         -11.738
REMARK INTER:                 -10.613
REMARK INTRA:                  -1.126
REMARK UNBOUND:                -0.474
REMARK SMILES CC[C@@H](C=C[C@@H](C)[C@@H]1CC[C@H]2[C@H]3CC=C4C[C@@H](O)CC[C@@]4(C)[C@@H]3CC[C@]21C)C(C)C
REMARK SMILES IDX 6 1 7 2 5 3 4 4 3 5 2 6 1 7 28 8 29 9 30 10 8 11 9 12 26 13
REMARK SMILES IDX 10 14 11 15 25 16 27 17 12 18 24 19 23 20 13 21 21 22 14 23
REMARK SMILES IDX 15 24 20 25 22 26 16 27 19 28 17 29 18 30
REMARK H PARENT 18 31
REMARK Flexibility Score: inf
ROOT
ATOM      1  C   UNL     1     130.260 125.082 141.113  1.00  0.00     0.012 C 
ATOM      2  C   UNL     1     129.470 123.999 141.865  1.00  0.00     0.012 C 
ENDROOT
BRANCH   1   3
ATOM      3  C   UNL     1     131.763 124.855 141.062  1.00  0.00    -0.028 C 
ATOM      4  C   UNL     1     132.398 124.130 140.121  1.00  0.00    -0.027 C 
BRANCH   4   5
ATOM      5  C   UNL     1     133.912 124.074 139.981  1.00  0.00     0.014 C 
BRANCH   5   6
ATOM      6  C   UNL     1     134.508 125.161 139.044  1.00  0.00     0.004 C 
ATOM      7  C   UNL     1     133.767 125.276 137.712  1.00  0.00     0.004 C 
ENDBRANCH   5   6
BRANCH   5   8
ATOM      8  C   UNL     1     134.379 122.623 139.645  1.00  0.00    -0.011 C 
ATOM      9  C   UNL     1     135.849 122.342 140.001  1.00  0.00     0.008 C 
ATOM     10  C   UNL     1     133.469 121.561 140.283  1.00  0.00     0.008 C 
ENDBRANCH   5   8
ENDBRANCH   4   5
ENDBRANCH   1   3
BRANCH   1  11
ATOM     11  C   UNL     1     129.797 126.540 141.437  1.00  0.00     0.002 C 
ATOM     12  C   UNL     1     128.457 126.584 142.167  1.00  0.00     0.005 C 
ATOM     13  C   UNL     1     129.712 127.658 140.332  1.00  0.00    -0.026 C 
ATOM     14  C   UNL     1     128.071 128.046 142.161  1.00  0.00     0.005 C 
ATOM     15  C   UNL     1     128.503 128.552 140.780  1.00  0.00    -0.001 C 
ATOM     16  C   UNL     1     131.039 128.481 140.256  1.00  0.00     0.007 C 
ATOM     17  C   UNL     1     129.409 127.111 138.919  1.00  0.00     0.012 C 
ATOM     18  C   UNL     1     128.792 130.074 140.698  1.00  0.00     0.000 C 
ATOM     19  C   UNL     1     131.206 129.486 141.407  1.00  0.00     0.005 C 
ATOM     20  C   UNL     1     130.036 130.509 141.513  1.00  0.00     0.003 C 
ATOM     21  C   UNL     1     127.585 130.925 141.113  1.00  0.00     0.031 C 
ATOM     22  C   UNL     1     130.418 132.006 141.201  1.00  0.00    -0.008 C 
ATOM     23  C   UNL     1     127.905 132.396 141.117  1.00  0.00    -0.027 C 
ATOM     24  C   UNL     1     129.158 132.894 141.254  1.00  0.00    -0.065 C 
ATOM     25  C   UNL     1     131.434 132.505 142.280  1.00  0.00     0.014 C 
ATOM     26  C   UNL     1     131.048 132.149 139.788  1.00  0.00     0.016 C 
ATOM     27  C   UNL     1     129.331 134.398 141.315  1.00  0.00     0.063 C 
ATOM     28  C   UNL     1     131.641 134.030 142.302  1.00  0.00     0.033 C 
ATOM     29  C   UNL     1     130.318 134.804 142.418  1.00  0.00     0.118 C 
BRANCH  29  30
ATOM     30  O   UNL     1     129.752 134.665 143.701  1.00  0.00    -0.393 OA
ATOM     31  H   UNL     1     130.088 135.402 144.274  1.00  0.00     0.210 HD
ENDBRANCH  29  30
ENDBRANCH   1  11
TORSDOF 6
ENDMDL
