MODEL 1
REMARK VINA RESULT:    -0.281      0.000      0.000
REMARK INTER + INTRA:          -0.595
REMARK INTER:                  -0.338
REMARK INTRA:                  -0.257
REMARK UNBOUND:                -0.257
REMARK SMILES O=c1c(O)c(-c2ccc(O)c(O)c2)oc2cc(O)cc(O)c12
REMARK SMILES IDX 5 1 3 2 2 3 1 4 22 5 20 6 19 7 17 8 16 9 15 10 14 11 6 12
REMARK SMILES IDX 7 13 8 14 9 15 13 16 11 17 10 18 12 20 4 22 21 24 18 26
REMARK H PARENT 10 19 12 21 4 23 21 25 18 27
REMARK Flexibility Score: inf
ROOT
ATOM      1  C   UNL     1      16.237  -4.650  26.155  1.00  0.00     0.180 A 
ATOM      2  C   UNL     1      15.345  -3.605  26.454  1.00  0.00     0.208 A 
ATOM      3  C   UNL     1      15.801  -2.518  27.217  1.00  0.00     0.238 A 
ATOM      4  O   UNL     1      15.015  -1.560  27.435  1.00  0.00    -0.285 OA
ATOM      5  C   UNL     1      17.137  -2.499  27.687  1.00  0.00     0.111 A 
ATOM      6  C   UNL     1      17.694  -1.468  28.502  1.00  0.00     0.134 A 
ATOM      7  C   UNL     1      19.063  -1.486  28.798  1.00  0.00     0.093 A 
ATOM      8  C   UNL     1      19.880  -2.532  28.364  1.00  0.00     0.123 A 
ATOM      9  C   UNL     1      19.333  -3.573  27.618  1.00  0.00     0.094 A 
ATOM     10  C   UNL     1      17.979  -3.564  27.275  1.00  0.00     0.146 A 
ATOM     11  O   UNL     1      17.501  -4.571  26.554  1.00  0.00    -0.452 OA
ENDROOT
BRANCH   1  12
ATOM     12  C   UNL     1      15.823  -5.840  25.376  1.00  0.00     0.025 A 
ATOM     13  C   UNL     1      15.567  -7.048  26.043  1.00  0.00     0.016 A 
ATOM     14  C   UNL     1      15.156  -8.177  25.330  1.00  0.00     0.051 A 
ATOM     15  C   UNL     1      14.981  -8.114  23.945  1.00  0.00     0.157 A 
ATOM     16  C   UNL     1      15.626  -5.771  23.985  1.00  0.00     0.062 A 
ATOM     17  C   UNL     1      15.212  -6.904  23.269  1.00  0.00     0.158 A 
BRANCH  15  18
ATOM     18  O   UNL     1      14.572  -9.257  23.260  1.00  0.00    -0.504 OA
ATOM     19  H   UNL     1      13.802  -9.830  23.581  1.00  0.00     0.293 HD
ENDBRANCH  15  18
BRANCH  17  20
ATOM     20  O   UNL     1      15.026  -6.830  21.889  1.00  0.00    -0.504 OA
ATOM     21  H   UNL     1      14.193  -7.197  21.443  1.00  0.00     0.293 HD
ENDBRANCH  17  20
ENDBRANCH   1  12
BRANCH   2  22
ATOM     22  O   UNL     1      14.038  -3.635  25.962  1.00  0.00    -0.502 OA
ATOM     23  H   UNL     1      13.710  -2.996  25.248  1.00  0.00     0.293 HD
ENDBRANCH   2  22
BRANCH   6  24
ATOM     24  O   UNL     1      16.947  -0.428  29.064  1.00  0.00    -0.507 OA
ATOM     25  H   UNL     1      16.907   0.512  28.701  1.00  0.00     0.293 HD
ENDBRANCH   6  24
BRANCH   8  26
ATOM     26  O   UNL     1      21.238  -2.550  28.676  1.00  0.00    -0.508 OA
ATOM     27  H   UNL     1      21.925  -2.930  28.034  1.00  0.00     0.293 HD
ENDBRANCH   8  26
TORSDOF 6
ENDMDL
MODEL 2
REMARK VINA RESULT:    -0.061      8.564     10.143
REMARK INTER + INTRA:          -0.330
REMARK INTER:                  -0.218
REMARK INTRA:                  -0.112
REMARK UNBOUND:                -0.257
REMARK SMILES O=c1c(O)c(-c2ccc(O)c(O)c2)oc2cc(O)cc(O)c12
REMARK SMILES IDX 5 1 3 2 2 3 1 4 22 5 20 6 19 7 17 8 16 9 15 10 14 11 6 12
REMARK SMILES IDX 7 13 8 14 9 15 13 16 11 17 10 18 12 20 4 22 21 24 18 26
REMARK H PARENT 10 19 12 21 4 23 21 25 18 27
REMARK Flexibility Score: inf
ROOT
ATOM      1  C   UNL     1      13.221 -13.195  28.294  1.00  0.00     0.180 A 
ATOM      2  C   UNL     1      11.918 -13.066  27.784  1.00  0.00     0.208 A 
ATOM      3  C   UNL     1      11.080 -12.065  28.302  1.00  0.00     0.238 A 
ATOM      4  O   UNL     1       9.933 -11.920  27.803  1.00  0.00    -0.285 OA
ATOM      5  C   UNL     1      11.549 -11.219  29.335  1.00  0.00     0.111 A 
ATOM      6  C   UNL     1      10.772 -10.198  29.962  1.00  0.00     0.134 A 
ATOM      7  C   UNL     1      11.380  -9.334  30.881  1.00  0.00     0.093 A 
ATOM      8  C   UNL     1      12.719  -9.496  31.245  1.00  0.00     0.123 A 
ATOM      9  C   UNL     1      13.469 -10.526  30.683  1.00  0.00     0.094 A 
ATOM     10  C   UNL     1      12.901 -11.381  29.735  1.00  0.00     0.146 A 
ATOM     11  O   UNL     1      13.654 -12.343  29.217  1.00  0.00    -0.452 OA
ENDROOT
BRANCH   1  12
ATOM     12  C   UNL     1      14.155 -14.240  27.816  1.00  0.00     0.025 A 
ATOM     13  C   UNL     1      14.564 -14.240  26.474  1.00  0.00     0.016 A 
ATOM     14  C   UNL     1      15.461 -15.205  26.007  1.00  0.00     0.051 A 
ATOM     15  C   UNL     1      15.973 -16.174  26.875  1.00  0.00     0.157 A 
ATOM     16  C   UNL     1      14.687 -15.202  28.694  1.00  0.00     0.062 A 
ATOM     17  C   UNL     1      15.589 -16.170  28.227  1.00  0.00     0.158 A 
BRANCH  15  18
ATOM     18  O   UNL     1      16.864 -17.125  26.381  1.00  0.00    -0.504 OA
ATOM     19  H   UNL     1      17.540 -16.906  25.660  1.00  0.00     0.293 HD
ENDBRANCH  15  18
BRANCH  17  20
ATOM     20  O   UNL     1      16.106 -17.125  29.102  1.00  0.00    -0.504 OA
ATOM     21  H   UNL     1      15.776 -17.205  30.056  1.00  0.00     0.293 HD
ENDBRANCH  17  20
ENDBRANCH   1  12
BRANCH   2  22
ATOM     22  O   UNL     1      11.483 -13.899  26.749  1.00  0.00    -0.502 OA
ATOM     23  H   UNL     1      10.507 -13.981  26.492  1.00  0.00     0.293 HD
ENDBRANCH   2  22
BRANCH   6  24
ATOM     24  O   UNL     1       9.405 -10.011  29.739  1.00  0.00    -0.507 OA
ATOM     25  H   UNL     1       8.794  -9.471  30.334  1.00  0.00     0.293 HD
ENDBRANCH   6  24
BRANCH   8  26
ATOM     26  O   UNL     1      13.312  -8.642  32.172  1.00  0.00    -0.508 OA
ATOM     27  H   UNL     1      13.282  -7.634  32.060  1.00  0.00     0.293 HD
ENDBRANCH   8  26
TORSDOF 6
ENDMDL
MODEL 3
REMARK VINA RESULT:     0.018      3.139      4.819
REMARK INTER + INTRA:          -0.236
REMARK INTER:                  -0.149
REMARK INTRA:                  -0.087
REMARK UNBOUND:                -0.257
REMARK SMILES O=c1c(O)c(-c2ccc(O)c(O)c2)oc2cc(O)cc(O)c12
REMARK SMILES IDX 5 1 3 2 2 3 1 4 22 5 20 6 19 7 17 8 16 9 15 10 14 11 6 12
REMARK SMILES IDX 7 13 8 14 9 15 13 16 11 17 10 18 12 20 4 22 21 24 18 26
REMARK H PARENT 10 19 12 21 4 23 21 25 18 27
REMARK Flexibility Score: inf
ROOT
ATOM      1  C   UNL     1      15.958  -1.764  26.901  1.00  0.00     0.180 A 
ATOM      2  C   UNL     1      16.021  -1.232  28.200  1.00  0.00     0.208 A 
ATOM      3  C   UNL     1      15.752   0.133  28.390  1.00  0.00     0.238 A 
ATOM      4  O   UNL     1      15.757   0.592  29.562  1.00  0.00    -0.285 OA
ATOM      5  C   UNL     1      15.440   0.951  27.278  1.00  0.00     0.111 A 
ATOM      6  C   UNL     1      15.190   2.355  27.348  1.00  0.00     0.134 A 
ATOM      7  C   UNL     1      14.762   3.038  26.204  1.00  0.00     0.093 A 
ATOM      8  C   UNL     1      14.639   2.382  24.976  1.00  0.00     0.123 A 
ATOM      9  C   UNL     1      14.939   1.025  24.885  1.00  0.00     0.094 A 
ATOM     10  C   UNL     1      15.333   0.308  26.017  1.00  0.00     0.146 A 
ATOM     11  O   UNL     1      15.599  -0.986  25.887  1.00  0.00    -0.452 OA
ENDROOT
BRANCH   1  12
ATOM     12  C   UNL     1      16.253  -3.188  26.618  1.00  0.00     0.025 A 
ATOM     13  C   UNL     1      17.499  -3.722  26.979  1.00  0.00     0.016 A 
ATOM     14  C   UNL     1      17.790  -5.067  26.740  1.00  0.00     0.051 A 
ATOM     15  C   UNL     1      16.837  -5.903  26.151  1.00  0.00     0.157 A 
ATOM     16  C   UNL     1      15.286  -4.035  26.045  1.00  0.00     0.062 A 
ATOM     17  C   UNL     1      15.576  -5.387  25.806  1.00  0.00     0.158 A 
BRANCH  15  18
ATOM     18  O   UNL     1      17.156  -7.241  25.923  1.00  0.00    -0.504 OA
ATOM     19  H   UNL     1      17.164  -7.927  26.668  1.00  0.00     0.293 HD
ENDBRANCH  15  18
BRANCH  17  20
ATOM     20  O   UNL     1      14.616  -6.218  25.231  1.00  0.00    -0.504 OA
ATOM     21  H   UNL     1      14.080  -6.875  25.786  1.00  0.00     0.293 HD
ENDBRANCH  17  20
ENDBRANCH   1  12
BRANCH   2  22
ATOM     22  O   UNL     1      16.310  -2.062  29.287  1.00  0.00    -0.502 OA
ATOM     23  H   UNL     1      16.277  -1.735  30.245  1.00  0.00     0.293 HD
ENDBRANCH   2  22
BRANCH   6  24
ATOM     24  O   UNL     1      15.371   3.122  28.503  1.00  0.00    -0.507 OA
ATOM     25  H   UNL     1      16.093   3.817  28.623  1.00  0.00     0.293 HD
ENDBRANCH   6  24
BRANCH   8  26
ATOM     26  O   UNL     1      14.228   3.073  23.839  1.00  0.00    -0.508 OA
ATOM     27  H   UNL     1      14.046   4.071  23.861  1.00  0.00     0.293 HD
ENDBRANCH   8  26
TORSDOF 6
ENDMDL
MODEL 4
REMARK VINA RESULT:     0.612      8.839     10.332
REMARK INTER + INTRA:           0.480
REMARK INTER:                   0.469
REMARK INTRA:                   0.012
REMARK UNBOUND:                -0.257
REMARK SMILES O=c1c(O)c(-c2ccc(O)c(O)c2)oc2cc(O)cc(O)c12
REMARK SMILES IDX 5 1 3 2 2 3 1 4 22 5 20 6 19 7 17 8 16 9 15 10 14 11 6 12
REMARK SMILES IDX 7 13 8 14 9 15 13 16 11 17 10 18 12 20 4 22 21 24 18 26
REMARK H PARENT 10 19 12 21 4 23 21 25 18 27
REMARK Flexibility Score: inf
ROOT
ATOM      1  C   UNL     1      13.776 -12.944  28.905  1.00  0.00     0.180 A 
ATOM      2  C   UNL     1      14.430 -12.194  29.897  1.00  0.00     0.208 A 
ATOM      3  C   UNL     1      13.740 -11.140  30.519  1.00  0.00     0.238 A 
ATOM      4  O   UNL     1      14.311 -10.507  31.445  1.00  0.00    -0.285 OA
ATOM      5  C   UNL     1      12.413 -10.840  30.128  1.00  0.00     0.111 A 
ATOM      6  C   UNL     1      11.633  -9.769  30.662  1.00  0.00     0.134 A 
ATOM      7  C   UNL     1      10.287  -9.647  30.297  1.00  0.00     0.093 A 
ATOM      8  C   UNL     1       9.711 -10.516  29.368  1.00  0.00     0.123 A 
ATOM      9  C   UNL     1      10.480 -11.527  28.796  1.00  0.00     0.094 A 
ATOM     10  C   UNL     1      11.816 -11.698  29.168  1.00  0.00     0.146 A 
ATOM     11  O   UNL     1      12.509 -12.680  28.607  1.00  0.00    -0.452 OA
ENDROOT
BRANCH   1  12
ATOM     12  C   UNL     1      14.445 -14.055  28.187  1.00  0.00     0.025 A 
ATOM     13  C   UNL     1      14.465 -14.057  26.784  1.00  0.00     0.016 A 
ATOM     14  C   UNL     1      15.109 -15.084  26.088  1.00  0.00     0.051 A 
ATOM     15  C   UNL     1      15.753 -16.113  26.780  1.00  0.00     0.157 A 
ATOM     16  C   UNL     1      15.111 -15.079  28.884  1.00  0.00     0.062 A 
ATOM     17  C   UNL     1      15.759 -16.109  28.186  1.00  0.00     0.158 A 
BRANCH  15  18
ATOM     18  O   UNL     1      16.385 -17.125  26.059  1.00  0.00    -0.504 OA
ATOM     19  H   UNL     1      16.162 -17.314  25.090  1.00  0.00     0.293 HD
ENDBRANCH  15  18
BRANCH  17  20
ATOM     20  O   UNL     1      16.411 -17.125  28.884  1.00  0.00    -0.504 OA
ATOM     21  H   UNL     1      16.973 -16.931  29.705  1.00  0.00     0.293 HD
ENDBRANCH  17  20
ENDBRANCH   1  12
BRANCH   2  22
ATOM     22  O   UNL     1      15.732 -12.522  30.282  1.00  0.00    -0.502 OA
ATOM     23  H   UNL     1      16.349 -13.074  29.699  1.00  0.00     0.293 HD
ENDBRANCH   2  22
BRANCH   6  24
ATOM     24  O   UNL     1      12.138  -8.793  31.525  1.00  0.00    -0.507 OA
ATOM     25  H   UNL     1      12.909  -8.930  32.162  1.00  0.00     0.293 HD
ENDBRANCH   6  24
BRANCH   8  26
ATOM     26  O   UNL     1       8.375 -10.377  28.998  1.00  0.00    -0.508 OA
ATOM     27  H   UNL     1       7.997 -10.851  28.185  1.00  0.00     0.293 HD
ENDBRANCH   8  26
TORSDOF 6
ENDMDL
MODEL 5
REMARK VINA RESULT:     0.900      4.751      5.875
REMARK INTER + INTRA:           0.827
REMARK INTER:                   0.979
REMARK INTRA:                  -0.152
REMARK UNBOUND:                -0.257
REMARK SMILES O=c1c(O)c(-c2ccc(O)c(O)c2)oc2cc(O)cc(O)c12
REMARK SMILES IDX 5 1 3 2 2 3 1 4 22 5 20 6 19 7 17 8 16 9 15 10 14 11 6 12
REMARK SMILES IDX 7 13 8 14 9 15 13 16 11 17 10 18 12 20 4 22 21 24 18 26
REMARK H PARENT 10 19 12 21 4 23 21 25 18 27
REMARK Flexibility Score: inf
ROOT
ATOM      1  C   UNL     1      16.302  -0.413  27.076  1.00  0.00     0.180 A 
ATOM      2  C   UNL     1      15.704  -0.774  28.295  1.00  0.00     0.208 A 
ATOM      3  C   UNL     1      16.389  -1.647  29.156  1.00  0.00     0.238 A 
ATOM      4  O   UNL     1      15.874  -1.923  30.271  1.00  0.00    -0.285 OA
ATOM      5  C   UNL     1      17.653  -2.160  28.779  1.00  0.00     0.111 A 
ATOM      6  C   UNL     1      18.418  -3.083  29.555  1.00  0.00     0.134 A 
ATOM      7  C   UNL     1      19.713  -3.421  29.147  1.00  0.00     0.093 A 
ATOM      8  C   UNL     1      20.247  -2.922  27.956  1.00  0.00     0.123 A 
ATOM      9  C   UNL     1      19.486  -2.068  27.161  1.00  0.00     0.094 A 
ATOM     10  C   UNL     1      18.204  -1.683  27.561  1.00  0.00     0.146 A 
ATOM     11  O   UNL     1      17.517  -0.859  26.780  1.00  0.00    -0.452 OA
ENDROOT
BRANCH   1  12
ATOM     12  C   UNL     1      15.631   0.483  26.104  1.00  0.00     0.025 A 
ATOM     13  C   UNL     1      15.403   1.825  26.445  1.00  0.00     0.016 A 
ATOM     14  C   UNL     1      14.791   2.692  25.536  1.00  0.00     0.051 A 
ATOM     15  C   UNL     1      14.412   2.237  24.270  1.00  0.00     0.157 A 
ATOM     16  C   UNL     1      15.269   0.031  24.822  1.00  0.00     0.062 A 
ATOM     17  C   UNL     1      14.656   0.902  23.908  1.00  0.00     0.158 A 
BRANCH  15  18
ATOM     18  O   UNL     1      13.801   3.124  23.385  1.00  0.00    -0.504 OA
ATOM     19  H   UNL     1      13.949   3.074  22.385  1.00  0.00     0.293 HD
ENDBRANCH  15  18
BRANCH  17  20
ATOM     20  O   UNL     1      14.293   0.444  22.642  1.00  0.00    -0.504 OA
ATOM     21  H   UNL     1      13.482  -0.147  22.503  1.00  0.00     0.293 HD
ENDBRANCH  17  20
ENDBRANCH   1  12
BRANCH   2  22
ATOM     22  O   UNL     1      14.465  -0.239  28.657  1.00  0.00    -0.502 OA
ATOM     23  H   UNL     1      14.377   0.559  29.275  1.00  0.00     0.293 HD
ENDBRANCH   2  22
BRANCH   6  24
ATOM     24  O   UNL     1      17.944  -3.710  30.711  1.00  0.00    -0.507 OA
ATOM     25  H   UNL     1      16.970  -3.793  30.962  1.00  0.00     0.293 HD
ENDBRANCH   6  24
BRANCH   8  26
ATOM     26  O   UNL     1      21.531  -3.276  27.549  1.00  0.00    -0.508 OA
ATOM     27  H   UNL     1      22.333  -3.154  28.157  1.00  0.00     0.293 HD
ENDBRANCH   8  26
TORSDOF 6
ENDMDL
MODEL 6
REMARK VINA RESULT:     1.195      4.790      8.439
REMARK INTER + INTRA:           1.182
REMARK INTER:                   1.491
REMARK INTRA:                  -0.309
REMARK UNBOUND:                -0.257
REMARK SMILES O=c1c(O)c(-c2ccc(O)c(O)c2)oc2cc(O)cc(O)c12
REMARK SMILES IDX 5 1 3 2 2 3 1 4 22 5 20 6 19 7 17 8 16 9 15 10 14 11 6 12
REMARK SMILES IDX 7 13 8 14 9 15 13 16 11 17 10 18 12 20 4 22 21 24 18 26
REMARK H PARENT 10 19 12 21 4 23 21 25 18 27
REMARK Flexibility Score: inf
ROOT
ATOM      1  C   UNL     1      14.180  -9.608  26.985  1.00  0.00     0.180 A 
ATOM      2  C   UNL     1      15.036 -10.579  27.532  1.00  0.00     0.208 A 
ATOM      3  C   UNL     1      14.556 -11.410  28.558  1.00  0.00     0.238 A 
ATOM      4  O   UNL     1      15.308 -12.313  29.006  1.00  0.00    -0.285 OA
ATOM      5  C   UNL     1      13.232 -11.247  29.034  1.00  0.00     0.111 A 
ATOM      6  C   UNL     1      12.654 -12.006  30.096  1.00  0.00     0.134 A 
ATOM      7  C   UNL     1      11.295 -11.851  30.395  1.00  0.00     0.093 A 
ATOM      8  C   UNL     1      10.510 -10.917  29.715  1.00  0.00     0.123 A 
ATOM      9  C   UNL     1      11.080 -10.129  28.717  1.00  0.00     0.094 A 
ATOM     10  C   UNL     1      12.424 -10.288  28.371  1.00  0.00     0.146 A 
ATOM     11  O   UNL     1      12.924  -9.524  27.407  1.00  0.00    -0.452 OA
ENDROOT
BRANCH   1  12
ATOM     12  C   UNL     1      14.622  -8.679  25.918  1.00  0.00     0.025 A 
ATOM     13  C   UNL     1      15.119  -7.414  26.266  1.00  0.00     0.016 A 
ATOM     14  C   UNL     1      15.560  -6.531  25.277  1.00  0.00     0.051 A 
ATOM     15  C   UNL     1      15.525  -6.902  23.930  1.00  0.00     0.157 A 
ATOM     16  C   UNL     1      14.607  -9.060  24.564  1.00  0.00     0.062 A 
ATOM     17  C   UNL     1      15.052  -8.175  23.571  1.00  0.00     0.158 A 
BRANCH  15  18
ATOM     18  O   UNL     1      15.970  -5.999  22.966  1.00  0.00    -0.504 OA
ATOM     19  H   UNL     1      15.387  -5.707  22.192  1.00  0.00     0.293 HD
ENDBRANCH  15  18
BRANCH  17  20
ATOM     20  O   UNL     1      15.027  -8.558  22.231  1.00  0.00    -0.504 OA
ATOM     21  H   UNL     1      14.171  -8.540  21.688  1.00  0.00     0.293 HD
ENDBRANCH  17  20
ENDBRANCH   1  12
BRANCH   2  22
ATOM     22  O   UNL     1      16.331 -10.736  27.033  1.00  0.00    -0.502 OA
ATOM     23  H   UNL     1      16.960 -11.456  27.368  1.00  0.00     0.293 HD
ENDBRANCH   2  22
BRANCH   6  24
ATOM     24  O   UNL     1      13.372 -12.898  30.898  1.00  0.00    -0.507 OA
ATOM     25  H   UNL     1      14.377 -12.905  30.993  1.00  0.00     0.293 HD
ENDBRANCH   6  24
BRANCH   8  26
ATOM     26  O   UNL     1       9.162 -10.758  30.030  1.00  0.00    -0.508 OA
ATOM     27  H   UNL     1       8.863 -10.498  30.964  1.00  0.00     0.293 HD
ENDBRANCH   8  26
TORSDOF 6
ENDMDL
MODEL 7
REMARK VINA RESULT:     1.213      6.235     10.004
REMARK INTER + INTRA:           1.204
REMARK INTER:                   1.337
REMARK INTRA:                  -0.133
REMARK UNBOUND:                -0.257
REMARK SMILES O=c1c(O)c(-c2ccc(O)c(O)c2)oc2cc(O)cc(O)c12
REMARK SMILES IDX 5 1 3 2 2 3 1 4 22 5 20 6 19 7 17 8 16 9 15 10 14 11 6 12
REMARK SMILES IDX 7 13 8 14 9 15 13 16 11 17 10 18 12 20 4 22 21 24 18 26
REMARK H PARENT 10 19 12 21 4 23 21 25 18 27
REMARK Flexibility Score: inf
ROOT
ATOM      1  C   UNL     1      14.429 -11.568  28.164  1.00  0.00     0.180 A 
ATOM      2  C   UNL     1      14.217 -11.728  29.545  1.00  0.00     0.208 A 
ATOM      3  C   UNL     1      14.371 -13.003  30.113  1.00  0.00     0.238 A 
ATOM      4  O   UNL     1      14.234 -13.130  31.358  1.00  0.00    -0.285 OA
ATOM      5  C   UNL     1      14.716 -14.103  29.292  1.00  0.00     0.111 A 
ATOM      6  C   UNL     1      14.859 -15.446  29.754  1.00  0.00     0.134 A 
ATOM      7  C   UNL     1      15.332 -16.431  28.879  1.00  0.00     0.093 A 
ATOM      8  C   UNL     1      15.605 -16.135  27.541  1.00  0.00     0.123 A 
ATOM      9  C   UNL     1      15.412 -14.840  27.066  1.00  0.00     0.094 A 
ATOM     10  C   UNL     1      14.976 -13.828  27.924  1.00  0.00     0.146 A 
ATOM     11  O   UNL     1      14.816 -12.605  27.433  1.00  0.00    -0.452 OA
ENDROOT
BRANCH   1  12
ATOM     12  C   UNL     1      14.262 -10.260  27.488  1.00  0.00     0.025 A 
ATOM     13  C   UNL     1      13.009  -9.628  27.505  1.00  0.00     0.016 A 
ATOM     14  C   UNL     1      12.836  -8.384  26.892  1.00  0.00     0.051 A 
ATOM     15  C   UNL     1      13.911  -7.748  26.266  1.00  0.00     0.157 A 
ATOM     16  C   UNL     1      15.349  -9.609  26.877  1.00  0.00     0.062 A 
ATOM     17  C   UNL     1      15.176  -8.360  26.262  1.00  0.00     0.158 A 
BRANCH  15  18
ATOM     18  O   UNL     1      13.707  -6.509  25.660  1.00  0.00    -0.504 OA
ATOM     19  H   UNL     1      14.125  -6.270  24.770  1.00  0.00     0.293 HD
ENDBRANCH  15  18
BRANCH  17  20
ATOM     20  O   UNL     1      16.257  -7.725  25.652  1.00  0.00    -0.504 OA
ATOM     21  H   UNL     1      16.687  -8.095  24.813  1.00  0.00     0.293 HD
ENDBRANCH  17  20
ENDBRANCH   1  12
BRANCH   2  22
ATOM     22  O   UNL     1      13.898 -10.624  30.340  1.00  0.00    -0.502 OA
ATOM     23  H   UNL     1      14.238 -10.520  31.288  1.00  0.00     0.293 HD
ENDBRANCH   2  22
BRANCH   6  24
ATOM     24  O   UNL     1      14.525 -15.866  31.045  1.00  0.00    -0.507 OA
ATOM     25  H   UNL     1      13.956 -16.671  31.259  1.00  0.00     0.293 HD
ENDBRANCH   6  24
BRANCH   8  26
ATOM     26  O   UNL     1      16.060 -17.125  26.673  1.00  0.00    -0.508 OA
ATOM     27  H   UNL     1      15.775 -17.149  25.700  1.00  0.00     0.293 HD
ENDBRANCH   8  26
TORSDOF 6
ENDMDL
MODEL 8
REMARK VINA RESULT:     1.263      8.735     11.744
REMARK INTER + INTRA:           1.264
REMARK INTER:                   1.355
REMARK INTRA:                  -0.091
REMARK UNBOUND:                -0.257
REMARK SMILES O=c1c(O)c(-c2ccc(O)c(O)c2)oc2cc(O)cc(O)c12
REMARK SMILES IDX 5 1 3 2 2 3 1 4 22 5 20 6 19 7 17 8 16 9 15 10 14 11 6 12
REMARK SMILES IDX 7 13 8 14 9 15 13 16 11 17 10 18 12 20 4 22 21 24 18 26
REMARK H PARENT 10 19 12 21 4 23 21 25 18 27
REMARK Flexibility Score: inf
ROOT
ATOM      1  C   UNL     1      13.271 -13.140  29.531  1.00  0.00     0.180 A 
ATOM      2  C   UNL     1      13.420 -13.674  28.239  1.00  0.00     0.208 A 
ATOM      3  C   UNL     1      14.214 -14.819  28.064  1.00  0.00     0.238 A 
ATOM      4  O   UNL     1      14.299 -15.325  26.915  1.00  0.00    -0.285 OA
ATOM      5  C   UNL     1      14.862 -15.404  29.179  1.00  0.00     0.111 A 
ATOM      6  C   UNL     1      15.722 -16.542  29.112  1.00  0.00     0.134 A 
ATOM      7  C   UNL     1      16.203 -17.114  30.295  1.00  0.00     0.093 A 
ATOM      8  C   UNL     1      15.909 -16.551  31.539  1.00  0.00     0.123 A 
ATOM      9  C   UNL     1      15.120 -15.406  31.611  1.00  0.00     0.094 A 
ATOM     10  C   UNL     1      14.594 -14.834  30.450  1.00  0.00     0.146 A 
ATOM     11  O   UNL     1      13.838 -13.749  30.565  1.00  0.00    -0.452 OA
ENDROOT
BRANCH   1  12
ATOM     12  C   UNL     1      12.471 -11.920  29.791  1.00  0.00     0.025 A 
ATOM     13  C   UNL     1      13.095 -10.785  30.330  1.00  0.00     0.016 A 
ATOM     14  C   UNL     1      12.363  -9.618  30.564  1.00  0.00     0.051 A 
ATOM     15  C   UNL     1      11.002  -9.562  30.251  1.00  0.00     0.157 A 
ATOM     16  C   UNL     1      11.106 -11.856  29.456  1.00  0.00     0.062 A 
ATOM     17  C   UNL     1      10.370 -10.684  29.689  1.00  0.00     0.158 A 
BRANCH  15  18
ATOM     18  O   UNL     1      10.297  -8.385  30.497  1.00  0.00    -0.504 OA
ATOM     19  H   UNL     1      10.010  -7.764  29.751  1.00  0.00     0.293 HD
ENDBRANCH  15  18
BRANCH  17  20
ATOM     20  O   UNL     1       9.016 -10.632  29.361  1.00  0.00    -0.504 OA
ATOM     21  H   UNL     1       8.412 -11.438  29.466  1.00  0.00     0.293 HD
ENDBRANCH  17  20
ENDBRANCH   1  12
BRANCH   2  22
ATOM     22  O   UNL     1      12.755 -13.093  27.157  1.00  0.00    -0.502 OA
ATOM     23  H   UNL     1      12.543 -12.103  27.116  1.00  0.00     0.293 HD
ENDBRANCH   2  22
BRANCH   6  24
ATOM     24  O   UNL     1      16.151 -17.125  27.916  1.00  0.00    -0.507 OA
ATOM     25  H   UNL     1      16.331 -18.110  27.788  1.00  0.00     0.293 HD
ENDBRANCH   6  24
BRANCH   8  26
ATOM     26  O   UNL     1      16.405 -17.119  32.711  1.00  0.00    -0.508 OA
ATOM     27  H   UNL     1      17.390 -17.338  32.818  1.00  0.00     0.293 HD
ENDBRANCH   8  26
TORSDOF 6
ENDMDL
MODEL 9
REMARK VINA RESULT:     1.509      1.247      2.892
REMARK INTER + INTRA:           1.560
REMARK INTER:                   1.877
REMARK INTRA:                  -0.316
REMARK UNBOUND:                -0.257
REMARK SMILES O=c1c(O)c(-c2ccc(O)c(O)c2)oc2cc(O)cc(O)c12
REMARK SMILES IDX 5 1 3 2 2 3 1 4 22 5 20 6 19 7 17 8 16 9 15 10 14 11 6 12
REMARK SMILES IDX 7 13 8 14 9 15 13 16 11 17 10 18 12 20 4 22 21 24 18 26
REMARK H PARENT 10 19 12 21 4 23 21 25 18 27
REMARK Flexibility Score: inf
ROOT
ATOM      1  C   UNL     1      16.592  -4.593  26.333  1.00  0.00     0.180 A 
ATOM      2  C   UNL     1      17.958  -4.522  26.656  1.00  0.00     0.208 A 
ATOM      3  C   UNL     1      18.426  -3.425  27.397  1.00  0.00     0.238 A 
ATOM      4  O   UNL     1      19.640  -3.395  27.730  1.00  0.00    -0.285 OA
ATOM      5  C   UNL     1      17.527  -2.405  27.790  1.00  0.00     0.111 A 
ATOM      6  C   UNL     1      17.899  -1.229  28.509  1.00  0.00     0.134 A 
ATOM      7  C   UNL     1      16.904  -0.352  28.960  1.00  0.00     0.093 A 
ATOM      8  C   UNL     1      15.558  -0.575  28.661  1.00  0.00     0.123 A 
ATOM      9  C   UNL     1      15.191  -1.688  27.909  1.00  0.00     0.094 A 
ATOM     10  C   UNL     1      16.157  -2.601  27.477  1.00  0.00     0.146 A 
ATOM     11  O   UNL     1      15.762  -3.654  26.772  1.00  0.00    -0.452 OA
ENDROOT
BRANCH   1  12
ATOM     12  C   UNL     1      16.028  -5.705  25.533  1.00  0.00     0.025 A 
ATOM     13  C   UNL     1      15.621  -6.883  26.178  1.00  0.00     0.016 A 
ATOM     14  C   UNL     1      15.067  -7.936  25.446  1.00  0.00     0.051 A 
ATOM     15  C   UNL     1      14.898  -7.824  24.063  1.00  0.00     0.157 A 
ATOM     16  C   UNL     1      15.838  -5.585  24.144  1.00  0.00     0.062 A 
ATOM     17  C   UNL     1      15.280  -6.641  23.409  1.00  0.00     0.158 A 
BRANCH  15  18
ATOM     18  O   UNL     1      14.345  -8.892  23.359  1.00  0.00    -0.504 OA
ATOM     19  H   UNL     1      13.664  -8.756  22.621  1.00  0.00     0.293 HD
ENDBRANCH  15  18
BRANCH  17  20
ATOM     20  O   UNL     1      15.102  -6.517  22.031  1.00  0.00    -0.504 OA
ATOM     21  H   UNL     1      15.648  -7.060  21.373  1.00  0.00     0.293 HD
ENDBRANCH  17  20
ENDBRANCH   1  12
BRANCH   2  22
ATOM     22  O   UNL     1      18.825  -5.551  26.276  1.00  0.00    -0.502 OA
ATOM     23  H   UNL     1      18.525  -6.331  25.703  1.00  0.00     0.293 HD
ENDBRANCH   2  22
BRANCH   6  24
ATOM     24  O   UNL     1      19.221  -0.866  28.780  1.00  0.00    -0.507 OA
ATOM     25  H   UNL     1      19.672  -0.964  29.677  1.00  0.00     0.293 HD
ENDBRANCH   6  24
BRANCH   8  26
ATOM     26  O   UNL     1      14.577   0.312  29.100  1.00  0.00    -0.508 OA
ATOM     27  H   UNL     1      14.525   0.608  30.068  1.00  0.00     0.293 HD
ENDBRANCH   8  26
TORSDOF 6
ENDMDL
