MODEL 1
REMARK VINA RESULT:    -2.722      0.000      0.000
REMARK INTER + INTRA:          -2.732
REMARK INTER:                  -2.961
REMARK INTRA:                   0.229
REMARK UNBOUND:                 0.229
REMARK SMILES C[C@@H]1[C@H](C)CC[C@]2(C(=O)[O-])CC[C@]3(C)C(=CC[C@H]4[C@@]5(C)CC[C@@H](O)C(C)(C)[C@H]5CC[C@]43C)[C@@H]12
REMARK SMILES IDX 7 1 6 2 11 3 33 4 5 5 12 6 15 7 2 8 3 9 13 10 16 11 1 12
REMARK SMILES IDX 4 13 14 14 31 15 17 16 18 17 30 18 32 19 19 20 29 21 28 22
REMARK SMILES IDX 21 23 20 24 25 25 22 26 23 27 26 28 27 29 8 30 9 31 10 32
REMARK SMILES IDX 24 33
REMARK H PARENT 24 34
REMARK Flexibility Score: inf
ROOT
ATOM      1  C   UNL     1      27.288  16.840  27.002  1.00  0.00     0.017 C 
ATOM      2  C   UNL     1      27.383  15.674  28.023  1.00  0.00     0.014 C 
ATOM      3  C   UNL     1      27.679  18.216  27.651  1.00  0.00     0.014 C 
ATOM      4  C   UNL     1      25.795  16.885  26.532  1.00  0.00     0.030 C 
ATOM      5  C   UNL     1      26.974  14.330  27.376  1.00  0.00     0.004 C 
ATOM      6  C   UNL     1      26.475  19.091  28.070  1.00  0.00     0.013 C 
ATOM      7  C   UNL     1      25.516  18.249  25.907  1.00  0.00    -0.063 C 
ATOM      8  C   UNL     1      25.333  15.584  25.819  1.00  0.00    -0.003 C 
ATOM      9  C   UNL     1      25.550  14.347  26.760  1.00  0.00    -0.011 C 
ATOM     10  C   UNL     1      25.432  19.430  26.896  1.00  0.00    -0.006 C 
ATOM     11  C   UNL     1      25.759  18.412  24.606  1.00  0.00    -0.027 C 
ATOM     12  C   UNL     1      23.875  15.686  25.331  1.00  0.00     0.008 C 
ATOM     13  C   UNL     1      24.486  14.194  27.869  1.00  0.00     0.008 C 
ATOM     14  C   UNL     1      24.010  19.354  27.540  1.00  0.00     0.017 C 
ATOM     15  C   UNL     1      25.626  20.899  26.194  1.00  0.00    -0.020 C 
ATOM     16  C   UNL     1      26.132  19.706  23.988  1.00  0.00     0.032 C 
ATOM     17  C   UNL     1      26.618  20.808  24.964  1.00  0.00     0.006 C 
ATOM     18  C   UNL     1      24.291  21.486  25.617  1.00  0.00     0.008 C 
ATOM     19  C   UNL     1      26.107  21.887  27.306  1.00  0.00     0.012 C 
ATOM     20  C   UNL     1      26.882  22.170  24.156  1.00  0.00    -0.025 C 
ATOM     21  C   UNL     1      24.428  22.842  24.880  1.00  0.00     0.005 C 
ATOM     22  C   UNL     1      25.533  22.946  23.782  1.00  0.00     0.003 C 
ATOM     23  C   UNL     1      27.799  21.909  22.895  1.00  0.00     0.010 C 
ATOM     24  C   UNL     1      27.765  23.116  25.045  1.00  0.00     0.012 C 
ATOM     25  C   UNL     1      24.965  22.917  22.284  1.00  0.00    -0.006 C 
ATOM     26  C   UNL     1      27.083  21.689  21.564  1.00  0.00     0.033 C 
ATOM     27  C   UNL     1      26.135  22.848  21.263  1.00  0.00     0.120 C 
ATOM     28  C   UNL     1      24.219  24.261  22.010  1.00  0.00     0.014 C 
ATOM     29  C   UNL     1      23.932  21.781  21.991  1.00  0.00     0.014 C 
ENDROOT
BRANCH   1  30
ATOM     30  C   UNL     1      28.317  16.577  25.896  1.00  0.00     0.048 C 
ATOM     31  O   UNL     1      29.490  17.020  26.025  1.00  0.00    -0.550 OA
ATOM     32  O   UNL     1      27.992  15.927  24.715  1.00  0.00    -0.550 OA
ENDBRANCH   1  30
BRANCH  27  33
ATOM     33  O   UNL     1      25.636  22.715  19.953  1.00  0.00    -0.393 OA
ATOM     34  H   UNL     1      25.971  23.493  19.434  1.00  0.00     0.210 HD
ENDBRANCH  27  33
TORSDOF 2
ENDMDL
MODEL 2
REMARK VINA RESULT:    -2.636      2.272      3.921
REMARK INTER + INTRA:          -2.638
REMARK INTER:                  -3.174
REMARK INTRA:                   0.535
REMARK UNBOUND:                 0.229
REMARK SMILES C[C@@H]1[C@H](C)CC[C@]2(C(=O)[O-])CC[C@]3(C)C(=CC[C@H]4[C@@]5(C)CC[C@@H](O)C(C)(C)[C@H]5CC[C@]43C)[C@@H]12
REMARK SMILES IDX 7 1 6 2 11 3 33 4 5 5 12 6 15 7 2 8 3 9 13 10 16 11 1 12
REMARK SMILES IDX 4 13 14 14 31 15 17 16 18 17 30 18 32 19 19 20 29 21 28 22
REMARK SMILES IDX 21 23 20 24 25 25 22 26 23 27 26 28 27 29 8 30 9 31 10 32
REMARK SMILES IDX 24 33
REMARK H PARENT 24 34
REMARK Flexibility Score: inf
ROOT
ATOM      1  C   UNL     1      26.039  15.554  23.917  1.00  0.00     0.017 C 
ATOM      2  C   UNL     1      26.157  14.030  23.645  1.00  0.00     0.014 C 
ATOM      3  C   UNL     1      27.399  16.299  23.663  1.00  0.00     0.014 C 
ATOM      4  C   UNL     1      25.633  15.696  25.422  1.00  0.00     0.030 C 
ATOM      5  C   UNL     1      24.817  13.307  23.920  1.00  0.00     0.004 C 
ATOM      6  C   UNL     1      28.213  16.598  24.944  1.00  0.00     0.013 C 
ATOM      7  C   UNL     1      25.942  17.118  25.884  1.00  0.00    -0.063 C 
ATOM      8  C   UNL     1      24.264  15.041  25.757  1.00  0.00    -0.003 C 
ATOM      9  C   UNL     1      24.282  13.523  25.360  1.00  0.00    -0.011 C 
ATOM     10  C   UNL     1      27.438  17.448  26.066  1.00  0.00    -0.006 C 
ATOM     11  C   UNL     1      25.011  18.057  25.714  1.00  0.00    -0.027 C 
ATOM     12  C   UNL     1      23.880  15.243  27.236  1.00  0.00     0.008 C 
ATOM     13  C   UNL     1      25.034  12.612  26.353  1.00  0.00     0.008 C 
ATOM     14  C   UNL     1      27.853  16.834  27.442  1.00  0.00     0.017 C 
ATOM     15  C   UNL     1      27.769  19.054  26.074  1.00  0.00    -0.020 C 
ATOM     16  C   UNL     1      25.309  19.495  25.520  1.00  0.00     0.032 C 
ATOM     17  C   UNL     1      26.769  19.837  25.128  1.00  0.00     0.006 C 
ATOM     18  C   UNL     1      27.609  19.708  27.490  1.00  0.00     0.008 C 
ATOM     19  C   UNL     1      29.268  19.224  25.666  1.00  0.00     0.012 C 
ATOM     20  C   UNL     1      26.952  21.432  25.058  1.00  0.00    -0.025 C 
ATOM     21  C   UNL     1      27.840  21.239  27.542  1.00  0.00     0.005 C 
ATOM     22  C   UNL     1      27.068  22.111  26.502  1.00  0.00     0.003 C 
ATOM     23  C   UNL     1      25.824  22.090  24.168  1.00  0.00     0.010 C 
ATOM     24  C   UNL     1      28.265  21.749  24.256  1.00  0.00     0.012 C 
ATOM     25  C   UNL     1      25.833  22.920  27.123  1.00  0.00    -0.006 C 
ATOM     26  C   UNL     1      24.601  22.631  24.906  1.00  0.00     0.033 C 
ATOM     27  C   UNL     1      25.021  23.617  25.994  1.00  0.00     0.120 C 
ATOM     28  C   UNL     1      26.392  24.060  28.031  1.00  0.00     0.014 C 
ATOM     29  C   UNL     1      24.877  22.077  28.026  1.00  0.00     0.014 C 
ENDROOT
BRANCH   1  30
ATOM     30  C   UNL     1      25.037  16.131  22.909  1.00  0.00     0.048 C 
ATOM     31  O   UNL     1      24.199  15.364  22.363  1.00  0.00    -0.550 OA
ATOM     32  O   UNL     1      25.058  17.460  22.515  1.00  0.00    -0.550 OA
ENDBRANCH   1  30
BRANCH  27  33
ATOM     33  O   UNL     1      23.876  24.240  26.526  1.00  0.00    -0.393 OA
ATOM     34  H   UNL     1      23.180  23.538  26.618  1.00  0.00     0.210 HD
ENDBRANCH  27  33
TORSDOF 2
ENDMDL
MODEL 3
REMARK VINA RESULT:    -2.633      1.977      7.109
REMARK INTER + INTRA:          -2.635
REMARK INTER:                  -2.855
REMARK INTRA:                   0.220
REMARK UNBOUND:                 0.229
REMARK SMILES C[C@@H]1[C@H](C)CC[C@]2(C(=O)[O-])CC[C@]3(C)C(=CC[C@H]4[C@@]5(C)CC[C@@H](O)C(C)(C)[C@H]5CC[C@]43C)[C@@H]12
REMARK SMILES IDX 7 1 6 2 11 3 33 4 5 5 12 6 15 7 2 8 3 9 13 10 16 11 1 12
REMARK SMILES IDX 4 13 14 14 31 15 17 16 18 17 30 18 32 19 19 20 29 21 28 22
REMARK SMILES IDX 21 23 20 24 25 25 22 26 23 27 26 28 27 29 8 30 9 31 10 32
REMARK SMILES IDX 24 33
REMARK H PARENT 24 34
REMARK Flexibility Score: inf
ROOT
ATOM      1  C   UNL     1      25.474  22.572  24.661  1.00  0.00     0.017 C 
ATOM      2  C   UNL     1      24.782  23.951  24.833  1.00  0.00     0.014 C 
ATOM      3  C   UNL     1      24.492  21.497  24.069  1.00  0.00     0.014 C 
ATOM      4  C   UNL     1      25.931  22.134  26.093  1.00  0.00     0.030 C 
ATOM      5  C   UNL     1      25.754  24.992  25.436  1.00  0.00     0.004 C 
ATOM      6  C   UNL     1      23.876  20.545  25.120  1.00  0.00     0.013 C 
ATOM      7  C   UNL     1      26.191  20.630  26.089  1.00  0.00    -0.063 C 
ATOM      8  C   UNL     1      26.956  23.108  26.737  1.00  0.00    -0.003 C 
ATOM      9  C   UNL     1      26.359  24.557  26.797  1.00  0.00    -0.011 C 
ATOM     10  C   UNL     1      24.935  19.738  26.018  1.00  0.00    -0.006 C 
ATOM     11  C   UNL     1      27.405  20.197  25.748  1.00  0.00    -0.027 C 
ATOM     12  C   UNL     1      27.417  22.618  28.124  1.00  0.00     0.008 C 
ATOM     13  C   UNL     1      25.336  24.780  27.933  1.00  0.00     0.008 C 
ATOM     14  C   UNL     1      24.345  19.705  27.464  1.00  0.00     0.017 C 
ATOM     15  C   UNL     1      25.237  18.202  25.527  1.00  0.00    -0.020 C 
ATOM     16  C   UNL     1      27.669  18.883  25.116  1.00  0.00     0.032 C 
ATOM     17  C   UNL     1      26.440  18.169  24.498  1.00  0.00     0.006 C 
ATOM     18  C   UNL     1      25.659  17.252  26.701  1.00  0.00     0.008 C 
ATOM     19  C   UNL     1      23.906  17.630  24.941  1.00  0.00     0.012 C 
ATOM     20  C   UNL     1      26.873  16.722  23.951  1.00  0.00    -0.025 C 
ATOM     21  C   UNL     1      26.025  15.806  26.283  1.00  0.00     0.005 C 
ATOM     22  C   UNL     1      27.050  15.640  25.116  1.00  0.00     0.003 C 
ATOM     23  C   UNL     1      28.149  16.828  23.024  1.00  0.00     0.010 C 
ATOM     24  C   UNL     1      25.763  16.209  22.965  1.00  0.00     0.012 C 
ATOM     25  C   UNL     1      28.511  15.190  25.595  1.00  0.00    -0.006 C 
ATOM     26  C   UNL     1      29.500  16.573  23.691  1.00  0.00     0.033 C 
ATOM     27  C   UNL     1      29.504  15.219  24.400  1.00  0.00     0.120 C 
ATOM     28  C   UNL     1      28.441  13.706  26.074  1.00  0.00     0.014 C 
ATOM     29  C   UNL     1      29.094  16.004  26.795  1.00  0.00     0.014 C 
ENDROOT
BRANCH   1  30
ATOM     30  C   UNL     1      26.600  22.739  23.634  1.00  0.00     0.048 C 
ATOM     31  O   UNL     1      26.332  22.658  22.404  1.00  0.00    -0.550 OA
ATOM     32  O   UNL     1      27.926  22.906  24.002  1.00  0.00    -0.550 OA
ENDBRANCH   1  30
BRANCH  27  33
ATOM     33  O   UNL     1      30.810  14.928  24.839  1.00  0.00    -0.393 OA
ATOM     34  H   UNL     1      30.744  14.672  25.797  1.00  0.00     0.210 HD
ENDBRANCH  27  33
TORSDOF 2
ENDMDL
MODEL 4
REMARK VINA RESULT:    -2.538      2.405      7.316
REMARK INTER + INTRA:          -2.531
REMARK INTER:                  -2.755
REMARK INTRA:                   0.223
REMARK UNBOUND:                 0.229
REMARK SMILES C[C@@H]1[C@H](C)CC[C@]2(C(=O)[O-])CC[C@]3(C)C(=CC[C@H]4[C@@]5(C)CC[C@@H](O)C(C)(C)[C@H]5CC[C@]43C)[C@@H]12
REMARK SMILES IDX 7 1 6 2 11 3 33 4 5 5 12 6 15 7 2 8 3 9 13 10 16 11 1 12
REMARK SMILES IDX 4 13 14 14 31 15 17 16 18 17 30 18 32 19 19 20 29 21 28 22
REMARK SMILES IDX 21 23 20 24 25 25 22 26 23 27 26 28 27 29 8 30 9 31 10 32
REMARK SMILES IDX 24 33
REMARK H PARENT 24 34
REMARK Flexibility Score: inf
ROOT
ATOM      1  C   UNL     1      26.216  22.379  25.435  1.00  0.00     0.017 C 
ATOM      2  C   UNL     1      26.367  23.899  25.162  1.00  0.00     0.014 C 
ATOM      3  C   UNL     1      27.550  21.747  25.973  1.00  0.00     0.014 C 
ATOM      4  C   UNL     1      25.840  21.727  24.062  1.00  0.00     0.030 C 
ATOM      5  C   UNL     1      25.053  24.503  24.613  1.00  0.00     0.004 C 
ATOM      6  C   UNL     1      28.384  21.007  24.901  1.00  0.00     0.013 C 
ATOM      7  C   UNL     1      26.123  20.229  24.134  1.00  0.00    -0.063 C 
ATOM      8  C   UNL     1      24.496  22.246  23.480  1.00  0.00    -0.003 C 
ATOM      9  C   UNL     1      24.544  23.807  23.324  1.00  0.00    -0.011 C 
ATOM     10  C   UNL     1      27.613  19.831  24.124  1.00  0.00    -0.006 C 
ATOM     11  C   UNL     1      25.164  19.423  24.593  1.00  0.00    -0.027 C 
ATOM     12  C   UNL     1      24.139  21.547  22.154  1.00  0.00     0.008 C 
ATOM     13  C   UNL     1      25.341  24.302  22.098  1.00  0.00     0.008 C 
ATOM     14  C   UNL     1      28.074  19.919  22.633  1.00  0.00     0.017 C 
ATOM     15  C   UNL     1      27.902  18.318  24.686  1.00  0.00    -0.020 C 
ATOM     16  C   UNL     1      25.421  18.139  25.285  1.00  0.00     0.032 C 
ATOM     17  C   UNL     1      26.863  17.931  25.815  1.00  0.00     0.006 C 
ATOM     18  C   UNL     1      27.757  17.213  23.582  1.00  0.00     0.008 C 
ATOM     19  C   UNL     1      29.388  18.277  25.171  1.00  0.00     0.012 C 
ATOM     20  C   UNL     1      27.003  16.459  26.442  1.00  0.00    -0.025 C 
ATOM     21  C   UNL     1      27.950  15.757  24.074  1.00  0.00     0.005 C 
ATOM     22  C   UNL     1      27.133  15.316  25.330  1.00  0.00     0.003 C 
ATOM     23  C   UNL     1      25.839  16.171  27.472  1.00  0.00     0.010 C 
ATOM     24  C   UNL     1      28.289  16.420  27.343  1.00  0.00     0.012 C 
ATOM     25  C   UNL     1      25.891  14.361  24.994  1.00  0.00    -0.006 C 
ATOM     26  C   UNL     1      24.619  15.427  26.933  1.00  0.00     0.033 C 
ATOM     27  C   UNL     1      25.037  14.115  26.269  1.00  0.00     0.120 C 
ATOM     28  C   UNL     1      26.441  12.967  24.556  1.00  0.00     0.014 C 
ATOM     29  C   UNL     1      24.977  14.852  23.825  1.00  0.00     0.014 C 
ENDROOT
BRANCH   1  30
ATOM     30  C   UNL     1      25.177  22.206  26.551  1.00  0.00     0.048 C 
ATOM     31  O   UNL     1      25.526  22.372  27.751  1.00  0.00    -0.550 OA
ATOM     32  O   UNL     1      23.875  21.803  26.300  1.00  0.00    -0.550 OA
ENDBRANCH   1  30
BRANCH  27  33
ATOM     33  O   UNL     1      23.889  13.365  25.954  1.00  0.00    -0.393 OA
ATOM     34  H   UNL     1      23.108  13.968  26.067  1.00  0.00     0.210 HD
ENDBRANCH  27  33
TORSDOF 2
ENDMDL
MODEL 5
REMARK VINA RESULT:    -2.514      2.866      5.353
REMARK INTER + INTRA:          -2.506
REMARK INTER:                  -2.761
REMARK INTRA:                   0.255
REMARK UNBOUND:                 0.229
REMARK SMILES C[C@@H]1[C@H](C)CC[C@]2(C(=O)[O-])CC[C@]3(C)C(=CC[C@H]4[C@@]5(C)CC[C@@H](O)C(C)(C)[C@H]5CC[C@]43C)[C@@H]12
REMARK SMILES IDX 7 1 6 2 11 3 33 4 5 5 12 6 15 7 2 8 3 9 13 10 16 11 1 12
REMARK SMILES IDX 4 13 14 14 31 15 17 16 18 17 30 18 32 19 19 20 29 21 28 22
REMARK SMILES IDX 21 23 20 24 25 25 22 26 23 27 26 28 27 29 8 30 9 31 10 32
REMARK SMILES IDX 24 33
REMARK H PARENT 24 34
REMARK Flexibility Score: inf
ROOT
ATOM      1  C   UNL     1      27.455  17.448  22.213  1.00  0.00     0.017 C 
ATOM      2  C   UNL     1      27.507  16.419  21.052  1.00  0.00     0.014 C 
ATOM      3  C   UNL     1      26.541  16.952  23.391  1.00  0.00     0.014 C 
ATOM      4  C   UNL     1      26.861  18.761  21.603  1.00  0.00     0.030 C 
ATOM      5  C   UNL     1      28.393  16.930  19.891  1.00  0.00     0.004 C 
ATOM      6  C   UNL     1      25.119  17.560  23.396  1.00  0.00     0.013 C 
ATOM      7  C   UNL     1      26.352  19.646  22.737  1.00  0.00    -0.063 C 
ATOM      8  C   UNL     1      27.733  19.363  20.467  1.00  0.00    -0.003 C 
ATOM      9  C   UNL     1      27.943  18.303  19.328  1.00  0.00    -0.011 C 
ATOM     10  C   UNL     1      25.060  19.165  23.428  1.00  0.00    -0.006 C 
ATOM     11  C   UNL     1      27.205  20.494  23.312  1.00  0.00    -0.027 C 
ATOM     12  C   UNL     1      27.140  20.678  19.925  1.00  0.00     0.008 C 
ATOM     13  C   UNL     1      26.729  18.126  18.390  1.00  0.00     0.008 C 
ATOM     14  C   UNL     1      23.885  19.577  22.484  1.00  0.00     0.017 C 
ATOM     15  C   UNL     1      24.814  19.824  24.910  1.00  0.00    -0.020 C 
ATOM     16  C   UNL     1      27.106  20.944  24.719  1.00  0.00     0.032 C 
ATOM     17  C   UNL     1      26.192  20.096  25.639  1.00  0.00     0.006 C 
ATOM     18  C   UNL     1      24.085  21.212  24.853  1.00  0.00     0.008 C 
ATOM     19  C   UNL     1      23.875  18.855  25.701  1.00  0.00     0.012 C 
ATOM     20  C   UNL     1      26.110  20.771  27.095  1.00  0.00    -0.025 C 
ATOM     21  C   UNL     1      23.889  21.913  26.221  1.00  0.00     0.005 C 
ATOM     22  C   UNL     1      25.147  22.048  27.137  1.00  0.00     0.003 C 
ATOM     23  C   UNL     1      27.555  21.084  27.653  1.00  0.00     0.010 C 
ATOM     24  C   UNL     1      25.562  19.705  28.109  1.00  0.00     0.012 C 
ATOM     25  C   UNL     1      25.758  23.528  27.186  1.00  0.00    -0.006 C 
ATOM     26  C   UNL     1      28.082  22.500  27.429  1.00  0.00     0.033 C 
ATOM     27  C   UNL     1      27.098  23.534  27.975  1.00  0.00     0.120 C 
ATOM     28  C   UNL     1      24.775  24.445  27.981  1.00  0.00     0.014 C 
ATOM     29  C   UNL     1      25.954  24.209  25.794  1.00  0.00     0.014 C 
ENDROOT
BRANCH   1  30
ATOM     30  C   UNL     1      28.871  17.573  22.790  1.00  0.00     0.048 C 
ATOM     31  O   UNL     1      29.333  16.640  23.500  1.00  0.00    -0.550 OA
ATOM     32  O   UNL     1      29.645  18.710  22.621  1.00  0.00    -0.550 OA
ENDBRANCH   1  30
BRANCH  27  33
ATOM     33  O   UNL     1      27.689  24.810  27.929  1.00  0.00    -0.393 OA
ATOM     34  H   UNL     1      27.823  25.034  26.971  1.00  0.00     0.210 HD
ENDBRANCH  27  33
TORSDOF 2
ENDMDL
MODEL 6
REMARK VINA RESULT:    -2.485      2.614      4.943
REMARK INTER + INTRA:          -2.474
REMARK INTER:                  -2.742
REMARK INTRA:                   0.267
REMARK UNBOUND:                 0.229
REMARK SMILES C[C@@H]1[C@H](C)CC[C@]2(C(=O)[O-])CC[C@]3(C)C(=CC[C@H]4[C@@]5(C)CC[C@@H](O)C(C)(C)[C@H]5CC[C@]43C)[C@@H]12
REMARK SMILES IDX 7 1 6 2 11 3 33 4 5 5 12 6 15 7 2 8 3 9 13 10 16 11 1 12
REMARK SMILES IDX 4 13 14 14 31 15 17 16 18 17 30 18 32 19 19 20 29 21 28 22
REMARK SMILES IDX 21 23 20 24 25 25 22 26 23 27 26 28 27 29 8 30 9 31 10 32
REMARK SMILES IDX 24 33
REMARK H PARENT 24 34
REMARK Flexibility Score: inf
ROOT
ATOM      1  C   UNL     1      24.766  17.458  24.078  1.00  0.00     0.017 C 
ATOM      2  C   UNL     1      23.939  16.410  23.285  1.00  0.00     0.014 C 
ATOM      3  C   UNL     1      23.876  18.662  24.556  1.00  0.00     0.014 C 
ATOM      4  C   UNL     1      25.868  17.976  23.094  1.00  0.00     0.030 C 
ATOM      5  C   UNL     1      24.832  15.242  22.803  1.00  0.00     0.004 C 
ATOM      6  C   UNL     1      23.980  19.925  23.670  1.00  0.00     0.013 C 
ATOM      7  C   UNL     1      26.413  19.302  23.618  1.00  0.00    -0.063 C 
ATOM      8  C   UNL     1      26.839  16.862  22.615  1.00  0.00    -0.003 C 
ATOM      9  C   UNL     1      26.033  15.700  21.934  1.00  0.00    -0.011 C 
ATOM     10  C   UNL     1      25.464  20.511  23.482  1.00  0.00    -0.006 C 
ATOM     11  C   UNL     1      27.428  19.274  24.481  1.00  0.00    -0.027 C 
ATOM     12  C   UNL     1      27.936  17.419  21.686  1.00  0.00     0.008 C 
ATOM     13  C   UNL     1      25.567  16.004  20.494  1.00  0.00     0.008 C 
ATOM     14  C   UNL     1      25.565  20.975  21.994  1.00  0.00     0.017 C 
ATOM     15  C   UNL     1      25.846  21.769  24.463  1.00  0.00    -0.020 C 
ATOM     16  C   UNL     1      27.670  20.312  25.511  1.00  0.00     0.032 C 
ATOM     17  C   UNL     1      26.477  21.251  25.819  1.00  0.00     0.006 C 
ATOM     18  C   UNL     1      26.915  22.732  23.841  1.00  0.00     0.008 C 
ATOM     19  C   UNL     1      24.545  22.612  24.667  1.00  0.00     0.012 C 
ATOM     20  C   UNL     1      26.930  22.376  26.872  1.00  0.00    -0.025 C 
ATOM     21  C   UNL     1      27.365  23.899  24.754  1.00  0.00     0.005 C 
ATOM     22  C   UNL     1      27.808  23.536  26.207  1.00  0.00     0.003 C 
ATOM     23  C   UNL     1      27.639  21.723  28.125  1.00  0.00     0.010 C 
ATOM     24  C   UNL     1      25.643  23.026  27.494  1.00  0.00     0.012 C 
ATOM     25  C   UNL     1      29.393  23.591  26.435  1.00  0.00    -0.006 C 
ATOM     26  C   UNL     1      29.165  21.662  28.091  1.00  0.00     0.033 C 
ATOM     27  C   UNL     1      29.755  23.050  27.847  1.00  0.00     0.120 C 
ATOM     28  C   UNL     1      29.848  25.085  26.406  1.00  0.00     0.014 C 
ATOM     29  C   UNL     1      30.244  22.859  25.347  1.00  0.00     0.014 C 
ENDROOT
BRANCH   1  30
ATOM     30  C   UNL     1      25.287  16.776  25.349  1.00  0.00     0.048 C 
ATOM     31  O   UNL     1      24.482  16.508  26.281  1.00  0.00    -0.550 OA
ATOM     32  O   UNL     1      26.631  16.504  25.550  1.00  0.00    -0.550 OA
ENDBRANCH   1  30
BRANCH  27  33
ATOM     33  O   UNL     1      31.153  22.998  28.009  1.00  0.00    -0.393 OA
ATOM     34  H   UNL     1      31.339  23.149  28.972  1.00  0.00     0.210 HD
ENDBRANCH  27  33
TORSDOF 2
ENDMDL
MODEL 7
REMARK VINA RESULT:    -2.404      3.130      6.308
REMARK INTER + INTRA:          -2.386
REMARK INTER:                  -2.632
REMARK INTRA:                   0.247
REMARK UNBOUND:                 0.229
REMARK SMILES C[C@@H]1[C@H](C)CC[C@]2(C(=O)[O-])CC[C@]3(C)C(=CC[C@H]4[C@@]5(C)CC[C@@H](O)C(C)(C)[C@H]5CC[C@]43C)[C@@H]12
REMARK SMILES IDX 7 1 6 2 11 3 33 4 5 5 12 6 15 7 2 8 3 9 13 10 16 11 1 12
REMARK SMILES IDX 4 13 14 14 31 15 17 16 18 17 30 18 32 19 19 20 29 21 28 22
REMARK SMILES IDX 21 23 20 24 25 25 22 26 23 27 26 28 27 29 8 30 9 31 10 32
REMARK SMILES IDX 24 33
REMARK H PARENT 24 34
REMARK Flexibility Score: inf
ROOT
ATOM      1  C   UNL     1      28.012  23.160  25.571  1.00  0.00     0.017 C 
ATOM      2  C   UNL     1      28.286  24.499  26.308  1.00  0.00     0.014 C 
ATOM      3  C   UNL     1      28.301  23.272  24.031  1.00  0.00     0.014 C 
ATOM      4  C   UNL     1      26.497  22.840  25.801  1.00  0.00     0.030 C 
ATOM      5  C   UNL     1      27.977  24.379  27.819  1.00  0.00     0.004 C 
ATOM      6  C   UNL     1      27.042  23.482  23.158  1.00  0.00     0.013 C 
ATOM      7  C   UNL     1      26.043  21.823  24.758  1.00  0.00    -0.063 C 
ATOM      8  C   UNL     1      26.126  22.649  27.298  1.00  0.00    -0.003 C 
ATOM      9  C   UNL     1      26.523  23.926  28.119  1.00  0.00    -0.011 C 
ATOM     10  C   UNL     1      25.901  22.363  23.320  1.00  0.00    -0.006 C 
ATOM     11  C   UNL     1      26.189  20.526  25.030  1.00  0.00    -0.027 C 
ATOM     12  C   UNL     1      24.638  22.291  27.478  1.00  0.00     0.008 C 
ATOM     13  C   UNL     1      25.549  25.114  27.963  1.00  0.00     0.008 C 
ATOM     14  C   UNL     1      24.536  23.122  23.276  1.00  0.00     0.017 C 
ATOM     15  C   UNL     1      25.902  21.196  22.168  1.00  0.00    -0.020 C 
ATOM     16  C   UNL     1      26.392  19.480  24.002  1.00  0.00     0.032 C 
ATOM     17  C   UNL     1      26.822  19.982  22.600  1.00  0.00     0.006 C 
ATOM     18  C   UNL     1      24.482  20.580  21.914  1.00  0.00     0.008 C 
ATOM     19  C   UNL     1      26.348  21.864  20.827  1.00  0.00     0.012 C 
ATOM     20  C   UNL     1      26.897  18.744  21.579  1.00  0.00    -0.025 C 
ATOM     21  C   UNL     1      24.437  19.423  20.886  1.00  0.00     0.005 C 
ATOM     22  C   UNL     1      25.457  18.257  21.081  1.00  0.00     0.003 C 
ATOM     23  C   UNL     1      27.758  17.565  22.186  1.00  0.00     0.010 C 
ATOM     24  C   UNL     1      27.733  19.181  20.324  1.00  0.00     0.012 C 
ATOM     25  C   UNL     1      24.805  16.914  21.662  1.00  0.00    -0.006 C 
ATOM     26  C   UNL     1      26.989  16.455  22.901  1.00  0.00     0.033 C 
ATOM     27  C   UNL     1      25.912  15.872  21.988  1.00  0.00     0.120 C 
ATOM     28  C   UNL     1      23.912  16.275  20.552  1.00  0.00     0.014 C 
ATOM     29  C   UNL     1      23.876  17.113  22.903  1.00  0.00     0.014 C 
ENDROOT
BRANCH   1  30
ATOM     30  C   UNL     1      28.994  22.116  26.119  1.00  0.00     0.048 C 
ATOM     31  O   UNL     1      30.100  21.945  25.539  1.00  0.00    -0.550 OA
ATOM     32  O   UNL     1      28.686  21.295  27.192  1.00  0.00    -0.550 OA
ENDBRANCH   1  30
BRANCH  27  33
ATOM     33  O   UNL     1      25.351  14.734  22.597  1.00  0.00    -0.393 OA
ATOM     34  H   UNL     1      25.717  13.941  22.124  1.00  0.00     0.210 HD
ENDBRANCH  27  33
TORSDOF 2
ENDMDL
