MODEL 1
REMARK VINA RESULT:    -4.142      0.000      0.000
REMARK INTER + INTRA:          -8.121
REMARK INTER:                  -7.048
REMARK INTRA:                  -1.074
REMARK UNBOUND:                -1.074
REMARK SMILES CCCCCCCCCCCCCC(=O)[O-]
REMARK SMILES IDX 8 1 9 2 10 3 11 4 12 5 13 6 14 7 15 8 16 9 7 10 6 11 5 12
REMARK SMILES IDX 4 13 3 14 2 15 1 16
REMARK H PARENT
REMARK Flexibility Score: inf
ROOT
ATOM      1  C   UNL     1      44.647  26.225   3.942  1.00  0.00     0.000 C 
ENDROOT
BRANCH   1   2
ATOM      2  C   UNL     1      44.202  26.961   2.669  1.00  0.00     0.000 C 
BRANCH   2   3
ATOM      3  C   UNL     1      44.254  28.481   2.868  1.00  0.00     0.000 C 
BRANCH   3   4
ATOM      4  C   UNL     1      45.345  29.113   1.990  1.00  0.00     0.000 C 
BRANCH   4   5
ATOM      5  C   UNL     1      45.929  28.126   0.962  1.00  0.00     0.006 C 
BRANCH   5   6
ATOM      6  C   UNL     1      46.143  28.723  -0.439  1.00  0.00     0.053 C 
BRANCH   6   7
ATOM      7  C   UNL     1      45.305  28.040  -1.475  1.00  0.00     0.041 C 
ATOM      8  O   UNL     1      44.979  26.832  -1.331  1.00  0.00    -0.550 OA
ATOM      9  O   UNL     1      44.913  28.726  -2.617  1.00  0.00    -0.550 OA
ENDBRANCH   6   7
ENDBRANCH   5   6
ENDBRANCH   4   5
ENDBRANCH   3   4
ENDBRANCH   2   3
ENDBRANCH   1   2
BRANCH   1  10
ATOM     10  C   UNL     1      46.170  26.029   4.014  1.00  0.00     0.000 C 
BRANCH  10  11
ATOM     11  C   UNL     1      46.754  26.439   5.377  1.00  0.00    -0.000 C 
BRANCH  11  12
ATOM     12  C   UNL     1      46.314  27.848   5.813  1.00  0.00    -0.000 C 
BRANCH  12  13
ATOM     13  C   UNL     1      46.087  28.022   7.327  1.00  0.00    -0.000 C 
BRANCH  13  14
ATOM     14  C   UNL     1      45.622  26.734   8.040  1.00  0.00    -0.000 C 
BRANCH  14  15
ATOM     15  C   UNL     1      45.258  26.982   9.511  1.00  0.00    -0.003 C 
ATOM     16  C   UNL     1      44.827  28.428   9.737  1.00  0.00     0.004 C 
ENDBRANCH  14  15
ENDBRANCH  13  14
ENDBRANCH  12  13
ENDBRANCH  11  12
ENDBRANCH  10  11
ENDBRANCH   1  10
TORSDOF 12
ENDMDL
MODEL 2
REMARK VINA RESULT:    -3.896      4.222      8.028
REMARK INTER + INTRA:          -7.703
REMARK INTER:                  -6.857
REMARK INTRA:                  -0.846
REMARK UNBOUND:                -1.074
REMARK SMILES CCCCCCCCCCCCCC(=O)[O-]
REMARK SMILES IDX 8 1 9 2 10 3 11 4 12 5 13 6 14 7 15 8 16 9 7 10 6 11 5 12
REMARK SMILES IDX 4 13 3 14 2 15 1 16
REMARK H PARENT
REMARK Flexibility Score: inf
ROOT
ATOM      1  C   UNL     1      44.875  25.989   4.061  1.00  0.00     0.000 C 
ENDROOT
BRANCH   1   2
ATOM      2  C   UNL     1      46.408  25.989   3.965  1.00  0.00     0.000 C 
BRANCH   2   3
ATOM      3  C   UNL     1      47.042  26.416   5.295  1.00  0.00     0.000 C 
BRANCH   3   4
ATOM      4  C   UNL     1      45.963  26.774   6.328  1.00  0.00     0.000 C 
BRANCH   4   5
ATOM      5  C   UNL     1      46.489  27.693   7.446  1.00  0.00     0.006 C 
BRANCH   5   6
ATOM      6  C   UNL     1      45.405  28.543   8.129  1.00  0.00     0.053 C 
BRANCH   6   7
ATOM      7  C   UNL     1      44.969  27.955   9.436  1.00  0.00     0.041 C 
ATOM      8  O   UNL     1      44.411  28.679  10.302  1.00  0.00    -0.550 OA
ATOM      9  O   UNL     1      45.210  26.615   9.710  1.00  0.00    -0.550 OA
ENDBRANCH   6   7
ENDBRANCH   5   6
ENDBRANCH   4   5
ENDBRANCH   3   4
ENDBRANCH   2   3
ENDBRANCH   1   2
BRANCH   1  10
ATOM     10  C   UNL     1      44.209  26.811   2.946  1.00  0.00     0.000 C 
BRANCH  10  11
ATOM     11  C   UNL     1      44.485  28.319   3.080  1.00  0.00    -0.000 C 
BRANCH  11  12
ATOM     12  C   UNL     1      45.345  28.871   1.929  1.00  0.00    -0.000 C 
BRANCH  12  13
ATOM     13  C   UNL     1      45.443  27.958   0.692  1.00  0.00    -0.000 C 
BRANCH  13  14
ATOM     14  C   UNL     1      45.605  28.725  -0.638  1.00  0.00    -0.000 C 
BRANCH  14  15
ATOM     15  C   UNL     1      45.611  27.787  -1.854  1.00  0.00    -0.003 C 
ATOM     16  C   UNL     1      44.576  28.218  -2.888  1.00  0.00     0.004 C 
ENDBRANCH  14  15
ENDBRANCH  13  14
ENDBRANCH  12  13
ENDBRANCH  11  12
ENDBRANCH  10  11
ENDBRANCH   1  10
TORSDOF 12
ENDMDL
MODEL 3
REMARK VINA RESULT:    -3.848      1.136      2.199
REMARK INTER + INTRA:          -7.622
REMARK INTER:                  -6.852
REMARK INTRA:                  -0.769
REMARK UNBOUND:                -1.074
REMARK SMILES CCCCCCCCCCCCCC(=O)[O-]
REMARK SMILES IDX 8 1 9 2 10 3 11 4 12 5 13 6 14 7 15 8 16 9 7 10 6 11 5 12
REMARK SMILES IDX 4 13 3 14 2 15 1 16
REMARK H PARENT
REMARK Flexibility Score: inf
ROOT
ATOM      1  C   UNL     1      44.490  28.349   3.162  1.00  0.00     0.000 C 
ENDROOT
BRANCH   1   2
ATOM      2  C   UNL     1      45.203  28.958   1.945  1.00  0.00     0.000 C 
BRANCH   2   3
ATOM      3  C   UNL     1      45.585  27.871   0.931  1.00  0.00     0.000 C 
BRANCH   3   4
ATOM      4  C   UNL     1      46.662  28.379  -0.039  1.00  0.00     0.000 C 
BRANCH   4   5
ATOM      5  C   UNL     1      46.189  28.389  -1.504  1.00  0.00     0.006 C 
BRANCH   5   6
ATOM      6  C   UNL     1      45.007  27.447  -1.794  1.00  0.00     0.053 C 
BRANCH   6   7
ATOM      7  C   UNL     1      44.596  27.490  -3.233  1.00  0.00     0.041 C 
ATOM      8  O   UNL     1      45.132  28.312  -4.022  1.00  0.00    -0.550 OA
ATOM      9  O   UNL     1      43.597  26.643  -3.697  1.00  0.00    -0.550 OA
ENDBRANCH   6   7
ENDBRANCH   5   6
ENDBRANCH   4   5
ENDBRANCH   3   4
ENDBRANCH   2   3
ENDBRANCH   1   2
BRANCH   1  10
ATOM     10  C   UNL     1      44.290  26.831   3.036  1.00  0.00     0.000 C 
BRANCH  10  11
ATOM     11  C   UNL     1      44.977  26.049   4.169  1.00  0.00    -0.000 C 
BRANCH  11  12
ATOM     12  C   UNL     1      46.036  26.884   4.911  1.00  0.00    -0.000 C 
BRANCH  12  13
ATOM     13  C   UNL     1      45.956  26.823   6.448  1.00  0.00    -0.000 C 
BRANCH  13  14
ATOM     14  C   UNL     1      45.930  28.209   7.127  1.00  0.00    -0.000 C 
BRANCH  14  15
ATOM     15  C   UNL     1      45.276  28.165   8.516  1.00  0.00    -0.003 C 
ATOM     16  C   UNL     1      45.387  26.775   9.135  1.00  0.00     0.004 C 
ENDBRANCH  14  15
ENDBRANCH  13  14
ENDBRANCH  12  13
ENDBRANCH  11  12
ENDBRANCH  10  11
ENDBRANCH   1  10
TORSDOF 12
ENDMDL
MODEL 4
REMARK VINA RESULT:    -3.781      4.148      8.301
REMARK INTER + INTRA:          -7.507
REMARK INTER:                  -6.792
REMARK INTRA:                  -0.715
REMARK UNBOUND:                -1.074
REMARK SMILES CCCCCCCCCCCCCC(=O)[O-]
REMARK SMILES IDX 8 1 9 2 10 3 11 4 12 5 13 6 14 7 15 8 16 9 7 10 6 11 5 12
REMARK SMILES IDX 4 13 3 14 2 15 1 16
REMARK H PARENT
REMARK Flexibility Score: inf
ROOT
ATOM      1  C   UNL     1      44.376  26.874   2.817  1.00  0.00     0.000 C 
ENDROOT
BRANCH   1   2
ATOM      2  C   UNL     1      44.759  26.238   4.162  1.00  0.00     0.000 C 
BRANCH   2   3
ATOM      3  C   UNL     1      46.276  26.304   4.387  1.00  0.00     0.000 C 
BRANCH   3   4
ATOM      4  C   UNL     1      46.620  27.276   5.526  1.00  0.00     0.000 C 
BRANCH   4   5
ATOM      5  C   UNL     1      45.990  26.866   6.870  1.00  0.00     0.006 C 
BRANCH   5   6
ATOM      6  C   UNL     1      45.593  28.049   7.770  1.00  0.00     0.053 C 
BRANCH   6   7
ATOM      7  C   UNL     1      45.293  27.614   9.171  1.00  0.00     0.041 C 
ATOM      8  O   UNL     1      45.192  28.467  10.092  1.00  0.00    -0.550 OA
ATOM      9  O   UNL     1      45.158  26.263   9.466  1.00  0.00    -0.550 OA
ENDBRANCH   6   7
ENDBRANCH   5   6
ENDBRANCH   4   5
ENDBRANCH   3   4
ENDBRANCH   2   3
ENDBRANCH   1   2
BRANCH   1  10
ATOM     10  C   UNL     1      44.310  28.408   2.881  1.00  0.00     0.000 C 
BRANCH  10  11
ATOM     11  C   UNL     1      45.162  29.081   1.791  1.00  0.00    -0.000 C 
BRANCH  11  12
ATOM     12  C   UNL     1      45.546  28.116   0.655  1.00  0.00    -0.000 C 
BRANCH  12  13
ATOM     13  C   UNL     1      45.625  28.754  -0.745  1.00  0.00    -0.000 C 
BRANCH  13  14
ATOM     14  C   UNL     1      45.473  27.743  -1.901  1.00  0.00    -0.000 C 
BRANCH  14  15
ATOM     15  C   UNL     1      44.418  28.183  -2.926  1.00  0.00    -0.003 C 
ATOM     16  C   UNL     1      43.836  26.985  -3.670  1.00  0.00     0.004 C 
ENDBRANCH  14  15
ENDBRANCH  13  14
ENDBRANCH  12  13
ENDBRANCH  11  12
ENDBRANCH  10  11
ENDBRANCH   1  10
TORSDOF 12
ENDMDL
MODEL 5
REMARK VINA RESULT:    -3.480      2.439      5.293
REMARK INTER + INTRA:          -6.996
REMARK INTER:                  -6.185
REMARK INTRA:                  -0.810
REMARK UNBOUND:                -1.074
REMARK SMILES CCCCCCCCCCCCCC(=O)[O-]
REMARK SMILES IDX 8 1 9 2 10 3 11 4 12 5 13 6 14 7 15 8 16 9 7 10 6 11 5 12
REMARK SMILES IDX 4 13 3 14 2 15 1 16
REMARK H PARENT
REMARK Flexibility Score: inf
ROOT
ATOM      1  C   UNL     1      45.474  27.850  -1.621  1.00  0.00     0.000 C 
ENDROOT
BRANCH   1   2
ATOM      2  C   UNL     1      46.784  27.897  -2.421  1.00  0.00     0.000 C 
BRANCH   2   3
ATOM      3  C   UNL     1      46.563  27.428  -3.865  1.00  0.00     0.000 C 
BRANCH   3   4
ATOM      4  C   UNL     1      46.330  28.624  -4.800  1.00  0.00     0.000 C 
BRANCH   4   5
ATOM      5  C   UNL     1      44.845  29.017  -4.909  1.00  0.00     0.006 C 
BRANCH   5   6
ATOM      6  C   UNL     1      43.929  27.891  -5.418  1.00  0.00     0.053 C 
BRANCH   6   7
ATOM      7  C   UNL     1      42.916  27.485  -4.392  1.00  0.00     0.041 C 
ATOM      8  O   UNL     1      41.882  28.180  -4.213  1.00  0.00    -0.550 OA
ATOM      9  O   UNL     1      43.130  26.356  -3.611  1.00  0.00    -0.550 OA
ENDBRANCH   6   7
ENDBRANCH   5   6
ENDBRANCH   4   5
ENDBRANCH   3   4
ENDBRANCH   2   3
ENDBRANCH   1   2
BRANCH   1  10
ATOM     10  C   UNL     1      45.580  28.561  -0.263  1.00  0.00     0.000 C 
BRANCH  10  11
ATOM     11  C   UNL     1      46.842  28.154   0.519  1.00  0.00    -0.000 C 
BRANCH  11  12
ATOM     12  C   UNL     1      46.521  27.591   1.915  1.00  0.00    -0.000 C 
BRANCH  12  13
ATOM     13  C   UNL     1      45.134  27.970   2.469  1.00  0.00    -0.000 C 
BRANCH  13  14
ATOM     14  C   UNL     1      44.431  26.824   3.228  1.00  0.00    -0.000 C 
BRANCH  14  15
ATOM     15  C   UNL     1      45.420  25.962   4.027  1.00  0.00    -0.003 C 
ATOM     16  C   UNL     1      45.792  26.627   5.348  1.00  0.00     0.004 C 
ENDBRANCH  14  15
ENDBRANCH  13  14
ENDBRANCH  12  13
ENDBRANCH  11  12
ENDBRANCH  10  11
ENDBRANCH   1  10
TORSDOF 12
ENDMDL
MODEL 6
REMARK VINA RESULT:    -3.463      3.574      8.938
REMARK INTER + INTRA:          -6.967
REMARK INTER:                  -5.922
REMARK INTRA:                  -1.045
REMARK UNBOUND:                -1.074
REMARK SMILES CCCCCCCCCCCCCC(=O)[O-]
REMARK SMILES IDX 8 1 9 2 10 3 11 4 12 5 13 6 14 7 15 8 16 9 7 10 6 11 5 12
REMARK SMILES IDX 4 13 3 14 2 15 1 16
REMARK H PARENT
REMARK Flexibility Score: inf
ROOT
ATOM      1  C   UNL     1      45.314  27.901  -1.983  1.00  0.00     0.000 C 
ENDROOT
BRANCH   1   2
ATOM      2  C   UNL     1      45.169  29.168  -1.126  1.00  0.00     0.000 C 
BRANCH   2   3
ATOM      3  C   UNL     1      46.131  29.136   0.068  1.00  0.00     0.000 C 
BRANCH   3   4
ATOM      4  C   UNL     1      45.814  27.955   0.998  1.00  0.00     0.000 C 
BRANCH   4   5
ATOM      5  C   UNL     1      44.858  28.338   2.142  1.00  0.00     0.006 C 
BRANCH   5   6
ATOM      6  C   UNL     1      44.183  27.139   2.830  1.00  0.00     0.053 C 
BRANCH   6   7
ATOM      7  C   UNL     1      45.078  26.496   3.844  1.00  0.00     0.041 C 
ATOM      8  O   UNL     1      45.243  25.247   3.843  1.00  0.00    -0.550 OA
ATOM      9  O   UNL     1      45.705  27.271   4.811  1.00  0.00    -0.550 OA
ENDBRANCH   6   7
ENDBRANCH   5   6
ENDBRANCH   4   5
ENDBRANCH   3   4
ENDBRANCH   2   3
ENDBRANCH   1   2
BRANCH   1  10
ATOM     10  C   UNL     1      46.665  27.826  -2.711  1.00  0.00     0.000 C 
BRANCH  10  11
ATOM     11  C   UNL     1      46.550  27.175  -4.101  1.00  0.00    -0.000 C 
BRANCH  11  12
ATOM     12  C   UNL     1      46.815  28.168  -5.247  1.00  0.00    -0.000 C 
BRANCH  12  13
ATOM     13  C   UNL     1      45.637  28.373  -6.218  1.00  0.00    -0.000 C 
BRANCH  13  14
ATOM     14  C   UNL     1      44.359  28.915  -5.543  1.00  0.00    -0.000 C 
BRANCH  14  15
ATOM     15  C   UNL     1      43.252  27.854  -5.455  1.00  0.00    -0.003 C 
ATOM     16  C   UNL     1      42.330  28.115  -4.268  1.00  0.00     0.004 C 
ENDBRANCH  14  15
ENDBRANCH  13  14
ENDBRANCH  12  13
ENDBRANCH  11  12
ENDBRANCH  10  11
ENDBRANCH   1  10
TORSDOF 12
ENDMDL
MODEL 7
REMARK VINA RESULT:    -3.433      1.888      3.572
REMARK INTER + INTRA:          -6.914
REMARK INTER:                  -6.321
REMARK INTRA:                  -0.594
REMARK UNBOUND:                -1.074
REMARK SMILES CCCCCCCCCCCCCC(=O)[O-]
REMARK SMILES IDX 8 1 9 2 10 3 11 4 12 5 13 6 14 7 15 8 16 9 7 10 6 11 5 12
REMARK SMILES IDX 4 13 3 14 2 15 1 16
REMARK H PARENT
REMARK Flexibility Score: inf
ROOT
ATOM      1  C   UNL     1      45.206  28.403   1.032  1.00  0.00     0.000 C 
ENDROOT
BRANCH   1   2
ATOM      2  C   UNL     1      45.895  28.205  -0.326  1.00  0.00     0.000 C 
BRANCH   2   3
ATOM      3  C   UNL     1      46.323  29.551  -0.926  1.00  0.00     0.000 C 
BRANCH   3   4
ATOM      4  C   UNL     1      45.954  29.631  -2.415  1.00  0.00     0.000 C 
BRANCH   4   5
ATOM      5  C   UNL     1      44.944  28.549  -2.838  1.00  0.00     0.006 C 
BRANCH   5   6
ATOM      6  C   UNL     1      43.637  29.100  -3.433  1.00  0.00     0.053 C 
BRANCH   6   7
ATOM      7  C   UNL     1      42.827  28.030  -4.098  1.00  0.00     0.041 C 
ATOM      8  O   UNL     1      41.816  28.335  -4.784  1.00  0.00    -0.550 OA
ATOM      9  O   UNL     1      43.169  26.694  -3.932  1.00  0.00    -0.550 OA
ENDBRANCH   6   7
ENDBRANCH   5   6
ENDBRANCH   4   5
ENDBRANCH   3   4
ENDBRANCH   2   3
ENDBRANCH   1   2
BRANCH   1  10
ATOM     10  C   UNL     1      45.749  27.462   2.118  1.00  0.00     0.000 C 
BRANCH  10  11
ATOM     11  C   UNL     1      44.680  27.079   3.157  1.00  0.00    -0.000 C 
BRANCH  11  12
ATOM     12  C   UNL     1      45.140  25.949   4.095  1.00  0.00    -0.000 C 
BRANCH  12  13
ATOM     13  C   UNL     1      46.655  25.905   4.370  1.00  0.00    -0.000 C 
BRANCH  13  14
ATOM     14  C   UNL     1      47.043  26.345   5.798  1.00  0.00    -0.000 C 
BRANCH  14  15
ATOM     15  C   UNL     1      45.859  26.961   6.560  1.00  0.00    -0.003 C 
ATOM     16  C   UNL     1      45.993  26.736   8.062  1.00  0.00     0.004 C 
ENDBRANCH  14  15
ENDBRANCH  13  14
ENDBRANCH  12  13
ENDBRANCH  11  12
ENDBRANCH  10  11
ENDBRANCH   1  10
TORSDOF 12
ENDMDL
MODEL 8
REMARK VINA RESULT:    -3.388      1.302      2.584
REMARK INTER + INTRA:          -6.838
REMARK INTER:                  -5.975
REMARK INTRA:                  -0.863
REMARK UNBOUND:                -1.074
REMARK SMILES CCCCCCCCCCCCCC(=O)[O-]
REMARK SMILES IDX 8 1 9 2 10 3 11 4 12 5 13 6 14 7 15 8 16 9 7 10 6 11 5 12
REMARK SMILES IDX 4 13 3 14 2 15 1 16
REMARK H PARENT
REMARK Flexibility Score: inf
ROOT
ATOM      1  C   UNL     1      46.230  27.063   5.463  1.00  0.00     0.000 C 
ENDROOT
BRANCH   1   2
ATOM      2  C   UNL     1      46.005  28.576   5.323  1.00  0.00     0.000 C 
BRANCH   2   3
ATOM      3  C   UNL     1      45.804  28.968   3.853  1.00  0.00     0.000 C 
BRANCH   3   4
ATOM      4  C   UNL     1      44.463  28.441   3.322  1.00  0.00     0.000 C 
BRANCH   4   5
ATOM      5  C   UNL     1      44.629  27.472   2.137  1.00  0.00     0.006 C 
BRANCH   5   6
ATOM      6  C   UNL     1      45.886  27.723   1.286  1.00  0.00     0.053 C 
BRANCH   6   7
ATOM      7  C   UNL     1      45.544  28.178  -0.099  1.00  0.00     0.041 C 
ATOM      8  O   UNL     1      45.356  29.401  -0.336  1.00  0.00    -0.550 OA
ATOM      9  O   UNL     1      45.401  27.250  -1.122  1.00  0.00    -0.550 OA
ENDBRANCH   6   7
ENDBRANCH   5   6
ENDBRANCH   4   5
ENDBRANCH   3   4
ENDBRANCH   2   3
ENDBRANCH   1   2
BRANCH   1  10
ATOM     10  C   UNL     1      46.670  26.656   6.878  1.00  0.00     0.000 C 
BRANCH  10  11
ATOM     11  C   UNL     1      45.523  26.743   7.901  1.00  0.00    -0.000 C 
BRANCH  11  12
ATOM     12  C   UNL     1      46.014  26.636   9.356  1.00  0.00    -0.000 C 
BRANCH  12  13
ATOM     13  C   UNL     1      46.046  27.966  10.133  1.00  0.00    -0.000 C 
BRANCH  13  14
ATOM     14  C   UNL     1      46.015  29.217   9.230  1.00  0.00    -0.000 C 
BRANCH  14  15
ATOM     15  C   UNL     1      44.718  30.022   9.395  1.00  0.00    -0.003 C 
ATOM     16  C   UNL     1      44.185  29.925  10.821  1.00  0.00     0.004 C 
ENDBRANCH  14  15
ENDBRANCH  13  14
ENDBRANCH  12  13
ENDBRANCH  11  12
ENDBRANCH  10  11
ENDBRANCH   1  10
TORSDOF 12
ENDMDL
MODEL 9
REMARK VINA RESULT:    -3.215      4.133      9.607
REMARK INTER + INTRA:          -6.545
REMARK INTER:                  -5.094
REMARK INTRA:                  -1.450
REMARK UNBOUND:                -1.074
REMARK SMILES CCCCCCCCCCCCCC(=O)[O-]
REMARK SMILES IDX 8 1 9 2 10 3 11 4 12 5 13 6 14 7 15 8 16 9 7 10 6 11 5 12
REMARK SMILES IDX 4 13 3 14 2 15 1 16
REMARK H PARENT
REMARK Flexibility Score: inf
ROOT
ATOM      1  C   UNL     1      44.558  27.431  -2.967  1.00  0.00     0.000 C 
ENDROOT
BRANCH   1   2
ATOM      2  C   UNL     1      44.586  28.943  -2.696  1.00  0.00     0.000 C 
BRANCH   2   3
ATOM      3  C   UNL     1      45.936  29.370  -2.106  1.00  0.00     0.000 C 
BRANCH   3   4
ATOM      4  C   UNL     1      46.544  28.245  -1.254  1.00  0.00     0.000 C 
BRANCH   4   5
ATOM      5  C   UNL     1      46.637  28.612   0.239  1.00  0.00     0.006 C 
BRANCH   5   6
ATOM      6  C   UNL     1      45.304  28.512   1.000  1.00  0.00     0.053 C 
BRANCH   6   7
ATOM      7  C   UNL     1      45.361  27.500   2.102  1.00  0.00     0.041 C 
ATOM      8  O   UNL     1      44.418  27.415   2.933  1.00  0.00    -0.550 OA
ATOM      9  O   UNL     1      46.470  26.675   2.233  1.00  0.00    -0.550 OA
ENDBRANCH   6   7
ENDBRANCH   5   6
ENDBRANCH   4   5
ENDBRANCH   3   4
ENDBRANCH   2   3
ENDBRANCH   1   2
BRANCH   1  10
ATOM     10  C   UNL     1      43.441  27.022  -3.940  1.00  0.00     0.000 C 
BRANCH  10  11
ATOM     11  C   UNL     1      42.435  28.158  -4.195  1.00  0.00    -0.000 C 
BRANCH  11  12
ATOM     12  C   UNL     1      42.376  28.581  -5.674  1.00  0.00    -0.000 C 
BRANCH  12  13
ATOM     13  C   UNL     1      43.073  29.916  -5.998  1.00  0.00    -0.000 C 
BRANCH  13  14
ATOM     14  C   UNL     1      44.287  29.774  -6.941  1.00  0.00    -0.000 C 
BRANCH  14  15
ATOM     15  C   UNL     1      45.488  29.112  -6.248  1.00  0.00    -0.003 C 
ATOM     16  C   UNL     1      45.767  27.729  -6.828  1.00  0.00     0.004 C 
ENDBRANCH  14  15
ENDBRANCH  13  14
ENDBRANCH  12  13
ENDBRANCH  11  12
ENDBRANCH  10  11
ENDBRANCH   1  10
TORSDOF 12
ENDMDL
