MODEL 1
REMARK VINA RESULT:   -10.211      0.000      0.000
REMARK INTER + INTRA:         -10.321
REMARK INTER:                 -11.107
REMARK INTRA:                   0.786
REMARK UNBOUND:                 0.786
REMARK SMILES C[C@H]1[C@H]2C3=CC[C@@H]4[C@@]5(C)CC[C@H](O)C(C)(C)[C@H]5CC[C@@]4(C)[C@]3(C)CC[C@]2(C(=O)[O-])CC[C@@H]1C
REMARK SMILES IDX 26 1 30 2 25 3 3 4 31 5 24 6 4 7 2 8 32 9 22 10 5 11 1 12
REMARK SMILES IDX 33 13 23 14 20 15 6 16 7 17 19 18 21 19 8 20 18 21 17 22
REMARK SMILES IDX 10 23 9 24 14 25 11 26 12 27 15 28 16 29 27 30 28 31 29 32
REMARK SMILES IDX 13 33
REMARK H PARENT 13 34
REMARK Flexibility Score: inf
ROOT
ATOM      1  C   UNL     1     -16.150  27.764 -24.849  1.00  0.00     0.017 C 
ATOM      2  C   UNL     1     -15.296  26.522 -24.444  1.00  0.00     0.014 C 
ATOM      3  C   UNL     1     -17.640  27.487 -24.433  1.00  0.00     0.014 C 
ATOM      4  C   UNL     1     -15.563  29.011 -24.096  1.00  0.00     0.030 C 
ATOM      5  C   UNL     1     -13.797  26.697 -24.724  1.00  0.00     0.004 C 
ATOM      6  C   UNL     1     -18.298  28.559 -23.541  1.00  0.00     0.013 C 
ATOM      7  C   UNL     1     -16.485  30.240 -24.183  1.00  0.00    -0.063 C 
ATOM      8  C   UNL     1     -14.023  29.229 -24.342  1.00  0.00    -0.003 C 
ATOM      9  C   UNL     1     -13.204  27.943 -24.033  1.00  0.00    -0.011 C 
ATOM     10  C   UNL     1     -17.990  30.038 -23.954  1.00  0.00    -0.006 C 
ATOM     11  C   UNL     1     -15.998  31.511 -24.169  1.00  0.00    -0.027 C 
ATOM     12  C   UNL     1     -13.651  29.768 -25.743  1.00  0.00     0.008 C 
ATOM     13  C   UNL     1     -13.018  27.716 -22.521  1.00  0.00     0.008 C 
ATOM     14  C   UNL     1     -18.706  30.287 -25.325  1.00  0.00     0.017 C 
ATOM     15  C   UNL     1     -18.440  31.072 -22.803  1.00  0.00    -0.020 C 
ATOM     16  C   UNL     1     -16.857  32.753 -24.007  1.00  0.00     0.032 C 
ATOM     17  C   UNL     1     -18.275  32.521 -23.385  1.00  0.00     0.006 C 
ATOM     18  C   UNL     1     -19.929  30.857 -22.393  1.00  0.00     0.008 C 
ATOM     19  C   UNL     1     -17.531  30.891 -21.529  1.00  0.00     0.012 C 
ATOM     20  C   UNL     1     -18.841  33.723 -22.522  1.00  0.00    -0.025 C 
ATOM     21  C   UNL     1     -20.531  31.988 -21.541  1.00  0.00     0.005 C 
ATOM     22  C   UNL     1     -20.336  33.440 -22.081  1.00  0.00     0.003 C 
ATOM     23  C   UNL     1     -18.766  35.028 -23.387  1.00  0.00     0.010 C 
ATOM     24  C   UNL     1     -17.996  33.983 -21.235  1.00  0.00     0.012 C 
ATOM     25  C   UNL     1     -21.464  34.019 -23.039  1.00  0.00    -0.006 C 
ATOM     26  C   UNL     1     -19.813  36.067 -22.989  1.00  0.00     0.033 C 
ATOM     27  C   UNL     1     -21.263  35.581 -23.211  1.00  0.00     0.120 C 
ATOM     28  C   UNL     1     -21.487  33.361 -24.444  1.00  0.00     0.014 C 
ATOM     29  C   UNL     1     -22.874  33.756 -22.431  1.00  0.00     0.014 C 
ENDROOT
BRANCH   1  30
ATOM     30  C   UNL     1     -16.120  27.938 -26.367  1.00  0.00     0.048 C 
ATOM     31  O   UNL     1     -16.256  26.941 -27.125  1.00  0.00    -0.550 OA
ATOM     32  O   UNL     1     -16.057  29.201 -26.943  1.00  0.00    -0.550 OA
ENDBRANCH   1  30
BRANCH  27  33
ATOM     33  O   UNL     1     -22.094  36.301 -22.329  1.00  0.00    -0.393 OA
ATOM     34  H   UNL     1     -22.980  35.851 -22.325  1.00  0.00     0.210 HD
ENDBRANCH  27  33
TORSDOF 2
ENDMDL
MODEL 2
REMARK VINA RESULT:    -8.686      1.852      7.929
REMARK INTER + INTRA:          -8.662
REMARK INTER:                  -9.658
REMARK INTRA:                   0.996
REMARK UNBOUND:                 0.786
REMARK SMILES C[C@H]1[C@H]2C3=CC[C@@H]4[C@@]5(C)CC[C@H](O)C(C)(C)[C@H]5CC[C@@]4(C)[C@]3(C)CC[C@]2(C(=O)[O-])CC[C@@H]1C
REMARK SMILES IDX 26 1 30 2 25 3 3 4 31 5 24 6 4 7 2 8 32 9 22 10 5 11 1 12
REMARK SMILES IDX 33 13 23 14 20 15 6 16 7 17 19 18 21 19 8 20 18 21 17 22
REMARK SMILES IDX 10 23 9 24 14 25 11 26 12 27 15 28 16 29 27 30 28 31 29 32
REMARK SMILES IDX 13 33
REMARK H PARENT 13 34
REMARK Flexibility Score: inf
ROOT
ATOM      1  C   UNL     1     -19.986  32.314 -22.202  1.00  0.00     0.017 C 
ATOM      2  C   UNL     1     -21.439  32.304 -21.633  1.00  0.00     0.014 C 
ATOM      3  C   UNL     1     -19.046  31.624 -21.149  1.00  0.00     0.014 C 
ATOM      4  C   UNL     1     -20.003  31.529 -23.563  1.00  0.00     0.030 C 
ATOM      5  C   UNL     1     -22.478  32.881 -22.605  1.00  0.00     0.004 C 
ATOM      6  C   UNL     1     -18.191  30.455 -21.678  1.00  0.00     0.013 C 
ATOM      7  C   UNL     1     -18.588  31.219 -24.082  1.00  0.00    -0.063 C 
ATOM      8  C   UNL     1     -21.060  32.076 -24.593  1.00  0.00    -0.003 C 
ATOM      9  C   UNL     1     -22.483  32.158 -23.968  1.00  0.00    -0.011 C 
ATOM     10  C   UNL     1     -17.545  30.695 -23.085  1.00  0.00    -0.006 C 
ATOM     11  C   UNL     1     -18.312  31.120 -25.411  1.00  0.00    -0.027 C 
ATOM     12  C   UNL     1     -20.697  33.425 -25.255  1.00  0.00     0.008 C 
ATOM     13  C   UNL     1     -23.161  30.778 -23.873  1.00  0.00     0.008 C 
ATOM     14  C   UNL     1     -16.467  31.818 -22.906  1.00  0.00     0.017 C 
ATOM     15  C   UNL     1     -16.947  29.328 -23.695  1.00  0.00    -0.020 C 
ATOM     16  C   UNL     1     -17.008  30.584 -25.976  1.00  0.00     0.032 C 
ATOM     17  C   UNL     1     -16.158  29.704 -24.998  1.00  0.00     0.006 C 
ATOM     18  C   UNL     1     -15.974  28.634 -22.694  1.00  0.00     0.008 C 
ATOM     19  C   UNL     1     -18.119  28.332 -24.037  1.00  0.00     0.012 C 
ATOM     20  C   UNL     1     -15.299  28.563 -25.687  1.00  0.00    -0.025 C 
ATOM     21  C   UNL     1     -15.122  27.507 -23.303  1.00  0.00     0.005 C 
ATOM     22  C   UNL     1     -14.366  27.849 -24.625  1.00  0.00     0.003 C 
ATOM     23  C   UNL     1     -14.437  29.213 -26.822  1.00  0.00     0.010 C 
ATOM     24  C   UNL     1     -16.190  27.472 -26.362  1.00  0.00     0.012 C 
ATOM     25  C   UNL     1     -12.892  28.431 -24.494  1.00  0.00    -0.006 C 
ATOM     26  C   UNL     1     -13.153  28.439 -27.112  1.00  0.00     0.033 C 
ATOM     27  C   UNL     1     -12.182  28.403 -25.910  1.00  0.00     0.120 C 
ATOM     28  C   UNL     1     -12.842  29.880 -23.939  1.00  0.00     0.014 C 
ATOM     29  C   UNL     1     -12.061  27.572 -23.495  1.00  0.00     0.014 C 
ENDROOT
BRANCH   1  30
ATOM     30  C   UNL     1     -19.508  33.756 -22.373  1.00  0.00     0.048 C 
ATOM     31  O   UNL     1     -20.336  34.677 -22.606  1.00  0.00    -0.550 OA
ATOM     32  O   UNL     1     -18.179  34.101 -22.163  1.00  0.00    -0.550 OA
ENDBRANCH   1  30
BRANCH  27  33
ATOM     33  O   UNL     1     -11.372  27.259 -26.049  1.00  0.00    -0.393 OA
ATOM     34  H   UNL     1     -10.964  27.076 -25.162  1.00  0.00     0.210 HD
ENDBRANCH  27  33
TORSDOF 2
ENDMDL
MODEL 3
REMARK VINA RESULT:    -8.096      1.688      7.936
REMARK INTER + INTRA:          -8.021
REMARK INTER:                  -8.810
REMARK INTRA:                   0.790
REMARK UNBOUND:                 0.786
REMARK SMILES C[C@H]1[C@H]2C3=CC[C@@H]4[C@@]5(C)CC[C@H](O)C(C)(C)[C@H]5CC[C@@]4(C)[C@]3(C)CC[C@]2(C(=O)[O-])CC[C@@H]1C
REMARK SMILES IDX 26 1 30 2 25 3 3 4 31 5 24 6 4 7 2 8 32 9 22 10 5 11 1 12
REMARK SMILES IDX 33 13 23 14 20 15 6 16 7 17 19 18 21 19 8 20 18 21 17 22
REMARK SMILES IDX 10 23 9 24 14 25 11 26 12 27 15 28 16 29 27 30 28 31 29 32
REMARK SMILES IDX 13 33
REMARK H PARENT 13 34
REMARK Flexibility Score: inf
ROOT
ATOM      1  C   UNL     1     -20.456  33.661 -22.761  1.00  0.00     0.017 C 
ATOM      2  C   UNL     1     -21.537  34.199 -21.772  1.00  0.00     0.014 C 
ATOM      3  C   UNL     1     -19.042  33.973 -22.153  1.00  0.00     0.014 C 
ATOM      4  C   UNL     1     -20.687  32.116 -22.922  1.00  0.00     0.030 C 
ATOM      5  C   UNL     1     -22.974  33.885 -22.211  1.00  0.00     0.004 C 
ATOM      6  C   UNL     1     -18.093  32.766 -22.008  1.00  0.00     0.013 C 
ATOM      7  C   UNL     1     -19.519  31.417 -23.642  1.00  0.00    -0.063 C 
ATOM      8  C   UNL     1     -22.151  31.739 -23.363  1.00  0.00    -0.003 C 
ATOM      9  C   UNL     1     -23.216  32.376 -22.422  1.00  0.00    -0.011 C 
ATOM     10  C   UNL     1     -18.087  31.783 -23.228  1.00  0.00    -0.006 C 
ATOM     11  C   UNL     1     -19.703  30.307 -24.408  1.00  0.00    -0.027 C 
ATOM     12  C   UNL     1     -22.495  32.051 -24.837  1.00  0.00     0.008 C 
ATOM     13  C   UNL     1     -23.334  31.628 -21.081  1.00  0.00     0.008 C 
ATOM     14  C   UNL     1     -17.438  32.552 -24.430  1.00  0.00     0.017 C 
ATOM     15  C   UNL     1     -17.329  30.408 -22.867  1.00  0.00    -0.020 C 
ATOM     16  C   UNL     1     -18.576  29.440 -24.939  1.00  0.00     0.032 C 
ATOM     17  C   UNL     1     -17.204  29.581 -24.195  1.00  0.00     0.006 C 
ATOM     18  C   UNL     1     -15.901  30.675 -22.300  1.00  0.00     0.008 C 
ATOM     19  C   UNL     1     -18.157  29.599 -21.798  1.00  0.00     0.012 C 
ATOM     20  C   UNL     1     -16.316  28.268 -24.157  1.00  0.00    -0.025 C 
ATOM     21  C   UNL     1     -14.996  29.433 -22.226  1.00  0.00     0.005 C 
ATOM     22  C   UNL     1     -14.897  28.571 -23.524  1.00  0.00     0.003 C 
ATOM     23  C   UNL     1     -16.159  27.737 -25.623  1.00  0.00     0.010 C 
ATOM     24  C   UNL     1     -16.982  27.122 -23.330  1.00  0.00     0.012 C 
ATOM     25  C   UNL     1     -13.741  28.935 -24.554  1.00  0.00    -0.006 C 
ATOM     26  C   UNL     1     -14.877  26.933 -25.831  1.00  0.00     0.033 C 
ATOM     27  C   UNL     1     -13.595  27.771 -25.620  1.00  0.00     0.120 C 
ATOM     28  C   UNL     1     -13.975  30.273 -25.305  1.00  0.00     0.014 C 
ATOM     29  C   UNL     1     -12.386  29.106 -23.805  1.00  0.00     0.014 C 
ENDROOT
BRANCH   1  30
ATOM     30  C   UNL     1     -20.561  34.404 -24.093  1.00  0.00     0.048 C 
ATOM     31  O   UNL     1     -20.706  35.655 -24.114  1.00  0.00    -0.550 OA
ATOM     32  O   UNL     1     -20.384  33.739 -25.300  1.00  0.00    -0.550 OA
ENDBRANCH   1  30
BRANCH  27  33
ATOM     33  O   UNL     1     -12.559  26.885 -25.264  1.00  0.00    -0.393 OA
ATOM     34  H   UNL     1     -11.889  27.405 -24.748  1.00  0.00     0.210 HD
ENDBRANCH  27  33
TORSDOF 2
ENDMDL
