MODEL 1
REMARK VINA RESULT:    -4.559      0.000      0.000
REMARK INTER + INTRA:         -16.683
REMARK INTER:                 -12.022
REMARK INTRA:                  -4.661
REMARK UNBOUND:                -4.661
REMARK SMILES CCCCCCCCCCCCCCCCCCCCCCCCCCCCCC(=O)[O-]
REMARK SMILES IDX 16 1 17 2 18 3 19 4 20 5 21 6 22 7 23 8 24 9 25 10 26 11
REMARK SMILES IDX 27 12 28 13 29 14 30 15 31 16 32 17 15 18 14 19 13 20 12 21
REMARK SMILES IDX 11 22 10 23 9 24 8 25 7 26 6 27 5 28 4 29 3 30 2 31 1 32
REMARK H PARENT
REMARK Flexibility Score: inf
ROOT
ATOM      1  C   UNL     1     -50.343  24.888 -14.791  1.00  0.00     0.000 C 
ENDROOT
BRANCH   1   2
ATOM      2  C   UNL     1     -48.842  24.999 -15.118  1.00  0.00     0.000 C 
BRANCH   2   3
ATOM      3  C   UNL     1     -48.530  24.789 -16.609  1.00  0.00     0.000 C 
BRANCH   3   4
ATOM      4  C   UNL     1     -47.976  26.059 -17.278  1.00  0.00     0.000 C 
BRANCH   4   5
ATOM      5  C   UNL     1     -49.015  26.895 -18.045  1.00  0.00     0.000 C 
BRANCH   5   6
ATOM      6  C   UNL     1     -49.149  28.323 -17.491  1.00  0.00     0.000 C 
BRANCH   6   7
ATOM      7  C   UNL     1     -48.175  28.596 -16.327  1.00  0.00     0.000 C 
BRANCH   7   8
ATOM      8  C   UNL     1     -48.872  28.848 -14.977  1.00  0.00     0.000 C 
BRANCH   8   9
ATOM      9  C   UNL     1     -48.094  28.250 -13.796  1.00  0.00     0.000 C 
BRANCH   9  10
ATOM     10  C   UNL     1     -46.741  28.954 -13.611  1.00  0.00     0.000 C 
BRANCH  10  11
ATOM     11  C   UNL     1     -45.578  27.950 -13.470  1.00  0.00     0.000 C 
BRANCH  11  12
ATOM     12  C   UNL     1     -45.709  26.715 -14.383  1.00  0.00     0.000 C 
BRANCH  12  13
ATOM     13  C   UNL     1     -44.668  26.627 -15.518  1.00  0.00     0.006 C 
BRANCH  13  14
ATOM     14  C   UNL     1     -44.734  27.788 -16.523  1.00  0.00     0.053 C 
BRANCH  14  15
ATOM     15  C   UNL     1     -44.474  27.328 -17.925  1.00  0.00     0.041 C 
ATOM     16  O   UNL     1     -44.615  26.115 -18.233  1.00  0.00    -0.550 OA
ATOM     17  O   UNL     1     -44.134  28.253 -18.905  1.00  0.00    -0.550 OA
ENDBRANCH  14  15
ENDBRANCH  13  14
ENDBRANCH  12  13
ENDBRANCH  11  12
ENDBRANCH  10  11
ENDBRANCH   9  10
ENDBRANCH   8   9
ENDBRANCH   7   8
ENDBRANCH   6   7
ENDBRANCH   5   6
ENDBRANCH   4   5
ENDBRANCH   3   4
ENDBRANCH   2   3
ENDBRANCH   1   2
BRANCH   1  18
ATOM     18  C   UNL     1     -51.276  25.801 -15.619  1.00  0.00     0.000 C 
BRANCH  18  19
ATOM     19  C   UNL     1     -52.108  26.810 -14.806  1.00  0.00     0.000 C 
BRANCH  19  20
ATOM     20  C   UNL     1     -52.294  28.159 -15.519  1.00  0.00     0.000 C 
BRANCH  20  21
ATOM     21  C   UNL     1     -53.611  28.844 -15.128  1.00  0.00     0.000 C 
BRANCH  21  22
ATOM     22  C   UNL     1     -54.088  28.453 -13.720  1.00  0.00     0.000 C 
BRANCH  22  23
ATOM     23  C   UNL     1     -55.582  28.746 -13.492  1.00  0.00     0.000 C 
BRANCH  23  24
ATOM     24  C   UNL     1     -56.222  27.925 -12.349  1.00  0.00    -0.000 C 
BRANCH  24  25
ATOM     25  C   UNL     1     -55.483  27.995 -10.993  1.00  0.00    -0.000 C 
BRANCH  25  26
ATOM     26  C   UNL     1     -55.538  26.700 -10.163  1.00  0.00    -0.000 C 
BRANCH  26  27
ATOM     27  C   UNL     1     -56.410  25.594 -10.799  1.00  0.00    -0.000 C 
BRANCH  27  28
ATOM     28  C   UNL     1     -56.158  24.217 -10.164  1.00  0.00    -0.000 C 
BRANCH  28  29
ATOM     29  C   UNL     1     -55.480  23.251 -11.150  1.00  0.00    -0.000 C 
BRANCH  29  30
ATOM     30  C   UNL     1     -53.957  23.246 -10.960  1.00  0.00    -0.000 C 
BRANCH  30  31
ATOM     31  C   UNL     1     -53.201  23.494 -12.275  1.00  0.00    -0.003 C 
ATOM     32  C   UNL     1     -54.038  24.247 -13.310  1.00  0.00     0.004 C 
ENDBRANCH  30  31
ENDBRANCH  29  30
ENDBRANCH  28  29
ENDBRANCH  27  28
ENDBRANCH  26  27
ENDBRANCH  25  26
ENDBRANCH  24  25
ENDBRANCH  23  24
ENDBRANCH  22  23
ENDBRANCH  21  22
ENDBRANCH  20  21
ENDBRANCH  19  20
ENDBRANCH  18  19
ENDBRANCH   1  18
TORSDOF 28
ENDMDL
MODEL 2
REMARK VINA RESULT:    -4.220      1.130      3.264
REMARK INTER + INTRA:         -15.788
REMARK INTER:                 -12.101
REMARK INTRA:                  -3.686
REMARK UNBOUND:                -4.661
REMARK SMILES CCCCCCCCCCCCCCCCCCCCCCCCCCCCCC(=O)[O-]
REMARK SMILES IDX 16 1 17 2 18 3 19 4 20 5 21 6 22 7 23 8 24 9 25 10 26 11
REMARK SMILES IDX 27 12 28 13 29 14 30 15 31 16 32 17 15 18 14 19 13 20 12 21
REMARK SMILES IDX 11 22 10 23 9 24 8 25 7 26 6 27 5 28 4 29 3 30 2 31 1 32
REMARK H PARENT
REMARK Flexibility Score: inf
ROOT
ATOM      1  C   UNL     1     -50.095  24.451 -15.084  1.00  0.00     0.000 C 
ENDROOT
BRANCH   1   2
ATOM      2  C   UNL     1     -48.752  25.163 -15.334  1.00  0.00     0.000 C 
BRANCH   2   3
ATOM      3  C   UNL     1     -48.377  25.241 -16.824  1.00  0.00     0.000 C 
BRANCH   3   4
ATOM      4  C   UNL     1     -48.339  26.689 -17.344  1.00  0.00     0.000 C 
BRANCH   4   5
ATOM      5  C   UNL     1     -49.713  27.371 -17.464  1.00  0.00     0.000 C 
BRANCH   5   6
ATOM      6  C   UNL     1     -49.816  28.646 -16.609  1.00  0.00     0.000 C 
BRANCH   6   7
ATOM      7  C   UNL     1     -48.504  28.960 -15.862  1.00  0.00     0.000 C 
BRANCH   7   8
ATOM      8  C   UNL     1     -48.596  28.769 -14.336  1.00  0.00     0.000 C 
BRANCH   8   9
ATOM      9  C   UNL     1     -47.456  27.900 -13.785  1.00  0.00     0.000 C 
BRANCH   9  10
ATOM     10  C   UNL     1     -46.118  28.655 -13.819  1.00  0.00     0.000 C 
BRANCH  10  11
ATOM     11  C   UNL     1     -45.339  28.402 -15.126  1.00  0.00     0.000 C 
BRANCH  11  12
ATOM     12  C   UNL     1     -45.043  26.913 -15.395  1.00  0.00     0.000 C 
BRANCH  12  13
ATOM     13  C   UNL     1     -44.781  26.553 -16.871  1.00  0.00     0.006 C 
BRANCH  13  14
ATOM     14  C   UNL     1     -44.471  27.763 -17.767  1.00  0.00     0.053 C 
BRANCH  14  15
ATOM     15  C   UNL     1     -43.848  27.350 -19.066  1.00  0.00     0.041 C 
ATOM     16  O   UNL     1     -42.624  27.556 -19.279  1.00  0.00    -0.550 OA
ATOM     17  O   UNL     1     -44.610  26.681 -20.017  1.00  0.00    -0.550 OA
ENDBRANCH  14  15
ENDBRANCH  13  14
ENDBRANCH  12  13
ENDBRANCH  11  12
ENDBRANCH  10  11
ENDBRANCH   9  10
ENDBRANCH   8   9
ENDBRANCH   7   8
ENDBRANCH   6   7
ENDBRANCH   5   6
ENDBRANCH   4   5
ENDBRANCH   3   4
ENDBRANCH   2   3
ENDBRANCH   1   2
BRANCH   1  18
ATOM     18  C   UNL     1     -51.355  25.336 -15.219  1.00  0.00     0.000 C 
BRANCH  18  19
ATOM     19  C   UNL     1     -52.524  24.970 -14.286  1.00  0.00     0.000 C 
BRANCH  19  20
ATOM     20  C   UNL     1     -52.628  23.462 -14.002  1.00  0.00     0.000 C 
BRANCH  20  21
ATOM     21  C   UNL     1     -52.515  23.146 -12.504  1.00  0.00     0.000 C 
BRANCH  21  22
ATOM     22  C   UNL     1     -53.877  22.847 -11.857  1.00  0.00     0.000 C 
BRANCH  22  23
ATOM     23  C   UNL     1     -54.345  23.963 -10.905  1.00  0.00     0.000 C 
BRANCH  23  24
ATOM     24  C   UNL     1     -55.276  25.008 -11.561  1.00  0.00    -0.000 C 
BRANCH  24  25
ATOM     25  C   UNL     1     -56.789  24.738 -11.397  1.00  0.00    -0.000 C 
BRANCH  25  26
ATOM     26  C   UNL     1     -57.663  26.002 -11.311  1.00  0.00    -0.000 C 
BRANCH  26  27
ATOM     27  C   UNL     1     -56.867  27.316 -11.480  1.00  0.00    -0.000 C 
BRANCH  27  28
ATOM     28  C   UNL     1     -57.145  27.996 -12.831  1.00  0.00    -0.000 C 
BRANCH  28  29
ATOM     29  C   UNL     1     -56.143  29.125 -13.116  1.00  0.00    -0.000 C 
BRANCH  29  30
ATOM     30  C   UNL     1     -54.697  28.639 -12.940  1.00  0.00    -0.000 C 
BRANCH  30  31
ATOM     31  C   UNL     1     -54.003  28.363 -14.283  1.00  0.00    -0.003 C 
ATOM     32  C   UNL     1     -52.529  28.772 -14.285  1.00  0.00     0.004 C 
ENDBRANCH  30  31
ENDBRANCH  29  30
ENDBRANCH  28  29
ENDBRANCH  27  28
ENDBRANCH  26  27
ENDBRANCH  25  26
ENDBRANCH  24  25
ENDBRANCH  23  24
ENDBRANCH  22  23
ENDBRANCH  21  22
ENDBRANCH  20  21
ENDBRANCH  19  20
ENDBRANCH  18  19
ENDBRANCH   1  18
TORSDOF 28
ENDMDL
MODEL 3
REMARK VINA RESULT:    -3.970      2.805      5.174
REMARK INTER + INTRA:         -15.130
REMARK INTER:                 -11.559
REMARK INTRA:                  -3.571
REMARK UNBOUND:                -4.661
REMARK SMILES CCCCCCCCCCCCCCCCCCCCCCCCCCCCCC(=O)[O-]
REMARK SMILES IDX 16 1 17 2 18 3 19 4 20 5 21 6 22 7 23 8 24 9 25 10 26 11
REMARK SMILES IDX 27 12 28 13 29 14 30 15 31 16 32 17 15 18 14 19 13 20 12 21
REMARK SMILES IDX 11 22 10 23 9 24 8 25 7 26 6 27 5 28 4 29 3 30 2 31 1 32
REMARK H PARENT
REMARK Flexibility Score: inf
ROOT
ATOM      1  C   UNL     1     -46.795  27.283 -13.471  1.00  0.00     0.000 C 
ENDROOT
BRANCH   1   2
ATOM      2  C   UNL     1     -45.375  27.228 -14.065  1.00  0.00     0.000 C 
BRANCH   2   3
ATOM      3  C   UNL     1     -44.654  28.586 -14.033  1.00  0.00     0.000 C 
BRANCH   3   4
ATOM      4  C   UNL     1     -43.759  28.805 -15.265  1.00  0.00     0.000 C 
BRANCH   4   5
ATOM      5  C   UNL     1     -44.515  28.976 -16.594  1.00  0.00     0.000 C 
BRANCH   5   6
ATOM      6  C   UNL     1     -43.726  28.430 -17.796  1.00  0.00     0.000 C 
BRANCH   6   7
ATOM      7  C   UNL     1     -44.283  27.085 -18.304  1.00  0.00     0.000 C 
BRANCH   7   8
ATOM      8  C   UNL     1     -45.482  26.561 -17.491  1.00  0.00     0.000 C 
BRANCH   8   9
ATOM      9  C   UNL     1     -46.742  26.385 -18.352  1.00  0.00     0.000 C 
BRANCH   9  10
ATOM     10  C   UNL     1     -47.653  25.287 -17.783  1.00  0.00     0.000 C 
BRANCH  10  11
ATOM     11  C   UNL     1     -48.375  25.738 -16.496  1.00  0.00     0.000 C 
BRANCH  11  12
ATOM     12  C   UNL     1     -48.569  24.610 -15.464  1.00  0.00     0.000 C 
BRANCH  12  13
ATOM     13  C   UNL     1     -49.785  24.778 -14.531  1.00  0.00     0.006 C 
BRANCH  13  14
ATOM     14  C   UNL     1     -51.110  24.278 -15.130  1.00  0.00     0.053 C 
BRANCH  14  15
ATOM     15  C   UNL     1     -52.101  23.916 -14.066  1.00  0.00     0.041 C 
ATOM     16  O   UNL     1     -51.767  23.161 -13.114  1.00  0.00    -0.550 OA
ATOM     17  O   UNL     1     -53.378  24.465 -14.093  1.00  0.00    -0.550 OA
ENDBRANCH  14  15
ENDBRANCH  13  14
ENDBRANCH  12  13
ENDBRANCH  11  12
ENDBRANCH  10  11
ENDBRANCH   9  10
ENDBRANCH   8   9
ENDBRANCH   7   8
ENDBRANCH   6   7
ENDBRANCH   5   6
ENDBRANCH   4   5
ENDBRANCH   3   4
ENDBRANCH   2   3
ENDBRANCH   1   2
BRANCH   1  18
ATOM     18  C   UNL     1     -47.683  28.447 -13.967  1.00  0.00     0.000 C 
BRANCH  18  19
ATOM     19  C   UNL     1     -48.852  28.829 -13.041  1.00  0.00     0.000 C 
BRANCH  19  20
ATOM     20  C   UNL     1     -50.211  28.862 -13.759  1.00  0.00     0.000 C 
BRANCH  20  21
ATOM     21  C   UNL     1     -50.090  28.494 -15.245  1.00  0.00     0.000 C 
BRANCH  21  22
ATOM     22  C   UNL     1     -51.396  27.927 -15.824  1.00  0.00     0.000 C 
BRANCH  22  23
ATOM     23  C   UNL     1     -52.625  28.789 -15.486  1.00  0.00     0.000 C 
BRANCH  23  24
ATOM     24  C   UNL     1     -53.626  28.117 -14.517  1.00  0.00    -0.000 C 
BRANCH  24  25
ATOM     25  C   UNL     1     -54.575  29.085 -13.775  1.00  0.00    -0.000 C 
BRANCH  25  26
ATOM     26  C   UNL     1     -54.419  29.091 -12.243  1.00  0.00    -0.000 C 
BRANCH  26  27
ATOM     27  C   UNL     1     -55.563  28.362 -11.503  1.00  0.00    -0.000 C 
BRANCH  27  28
ATOM     28  C   UNL     1     -56.207  27.264 -12.365  1.00  0.00    -0.000 C 
BRANCH  28  29
ATOM     29  C   UNL     1     -56.897  26.195 -11.503  1.00  0.00    -0.000 C 
BRANCH  29  30
ATOM     30  C   UNL     1     -55.959  25.686 -10.399  1.00  0.00    -0.000 C 
BRANCH  30  31
ATOM     31  C   UNL     1     -55.844  24.153 -10.387  1.00  0.00    -0.003 C 
ATOM     32  C   UNL     1     -54.464  23.657 -10.823  1.00  0.00     0.004 C 
ENDBRANCH  30  31
ENDBRANCH  29  30
ENDBRANCH  28  29
ENDBRANCH  27  28
ENDBRANCH  26  27
ENDBRANCH  25  26
ENDBRANCH  24  25
ENDBRANCH  23  24
ENDBRANCH  22  23
ENDBRANCH  21  22
ENDBRANCH  20  21
ENDBRANCH  19  20
ENDBRANCH  18  19
ENDBRANCH   1  18
TORSDOF 28
ENDMDL
MODEL 4
REMARK VINA RESULT:    -3.793     15.164     17.939
REMARK INTER + INTRA:         -14.663
REMARK INTER:                  -9.888
REMARK INTRA:                  -4.775
REMARK UNBOUND:                -4.661
REMARK SMILES CCCCCCCCCCCCCCCCCCCCCCCCCCCCCC(=O)[O-]
REMARK SMILES IDX 16 1 17 2 18 3 19 4 20 5 21 6 22 7 23 8 24 9 25 10 26 11
REMARK SMILES IDX 27 12 28 13 29 14 30 15 31 16 32 17 15 18 14 19 13 20 12 21
REMARK SMILES IDX 11 22 10 23 9 24 8 25 7 26 6 27 5 28 4 29 3 30 2 31 1 32
REMARK H PARENT
REMARK Flexibility Score: inf
ROOT
ATOM      1  C   UNL     1     -46.947  13.405 -25.157  1.00  0.00     0.000 C 
ENDROOT
BRANCH   1   2
ATOM      2  C   UNL     1     -47.299  14.904 -25.118  1.00  0.00     0.000 C 
BRANCH   2   3
ATOM      3  C   UNL     1     -48.506  15.266 -25.998  1.00  0.00     0.000 C 
BRANCH   3   4
ATOM      4  C   UNL     1     -48.681  16.786 -26.160  1.00  0.00     0.000 C 
BRANCH   4   5
ATOM      5  C   UNL     1     -49.910  17.214 -26.982  1.00  0.00     0.000 C 
BRANCH   5   6
ATOM      6  C   UNL     1     -49.530  18.032 -28.228  1.00  0.00     0.000 C 
BRANCH   6   7
ATOM      7  C   UNL     1     -48.052  17.849 -28.624  1.00  0.00     0.000 C 
BRANCH   7   8
ATOM      8  C   UNL     1     -47.853  17.214 -30.014  1.00  0.00     0.000 C 
BRANCH   8   9
ATOM      9  C   UNL     1     -46.645  16.267 -30.058  1.00  0.00     0.000 C 
BRANCH   9  10
ATOM     10  C   UNL     1     -45.992  16.137 -28.673  1.00  0.00     0.000 C 
BRANCH  10  11
ATOM     11  C   UNL     1     -45.593  14.682 -28.352  1.00  0.00     0.000 C 
BRANCH  11  12
ATOM     12  C   UNL     1     -46.617  13.636 -28.835  1.00  0.00     0.000 C 
BRANCH  12  13
ATOM     13  C   UNL     1     -46.108  12.180 -28.854  1.00  0.00     0.006 C 
BRANCH  13  14
ATOM     14  C   UNL     1     -44.758  11.978 -28.147  1.00  0.00     0.053 C 
BRANCH  14  15
ATOM     15  C   UNL     1     -44.885  11.088 -26.948  1.00  0.00     0.041 C 
ATOM     16  O   UNL     1     -45.833  10.263 -26.865  1.00  0.00    -0.550 OA
ATOM     17  O   UNL     1     -43.917  11.128 -25.951  1.00  0.00    -0.550 OA
ENDBRANCH  14  15
ENDBRANCH  13  14
ENDBRANCH  12  13
ENDBRANCH  11  12
ENDBRANCH  10  11
ENDBRANCH   9  10
ENDBRANCH   8   9
ENDBRANCH   7   8
ENDBRANCH   6   7
ENDBRANCH   5   6
ENDBRANCH   4   5
ENDBRANCH   3   4
ENDBRANCH   2   3
ENDBRANCH   1   2
BRANCH   1  18
ATOM     18  C   UNL     1     -47.437  12.572 -23.952  1.00  0.00     0.000 C 
BRANCH  18  19
ATOM     19  C   UNL     1     -46.481  11.459 -23.484  1.00  0.00     0.000 C 
BRANCH  19  20
ATOM     20  C   UNL     1     -47.154  10.080 -23.385  1.00  0.00     0.000 C 
BRANCH  20  21
ATOM     21  C   UNL     1     -47.017   9.467 -21.984  1.00  0.00     0.000 C 
BRANCH  21  22
ATOM     22  C   UNL     1     -48.375   9.141 -21.343  1.00  0.00     0.000 C 
BRANCH  22  23
ATOM     23  C   UNL     1     -48.654   9.971 -20.077  1.00  0.00     0.000 C 
BRANCH  23  24
ATOM     24  C   UNL     1     -47.439  10.781 -19.569  1.00  0.00    -0.000 C 
BRANCH  24  25
ATOM     25  C   UNL     1     -47.706  12.284 -19.323  1.00  0.00    -0.000 C 
BRANCH  25  26
ATOM     26  C   UNL     1     -48.391  13.015 -20.492  1.00  0.00    -0.000 C 
BRANCH  26  27
ATOM     27  C   UNL     1     -49.661  13.791 -20.076  1.00  0.00    -0.000 C 
BRANCH  27  28
ATOM     28  C   UNL     1     -50.919  12.908 -20.110  1.00  0.00    -0.000 C 
BRANCH  28  29
ATOM     29  C   UNL     1     -51.679  13.053 -21.439  1.00  0.00    -0.000 C 
BRANCH  29  30
ATOM     30  C   UNL     1     -51.871  11.689 -22.117  1.00  0.00    -0.000 C 
BRANCH  30  31
ATOM     31  C   UNL     1     -50.751  11.369 -23.119  1.00  0.00    -0.003 C 
ATOM     32  C   UNL     1     -51.028  11.923 -24.518  1.00  0.00     0.004 C 
ENDBRANCH  30  31
ENDBRANCH  29  30
ENDBRANCH  28  29
ENDBRANCH  27  28
ENDBRANCH  26  27
ENDBRANCH  25  26
ENDBRANCH  24  25
ENDBRANCH  23  24
ENDBRANCH  22  23
ENDBRANCH  21  22
ENDBRANCH  20  21
ENDBRANCH  19  20
ENDBRANCH  18  19
ENDBRANCH   1  18
TORSDOF 28
ENDMDL
MODEL 5
REMARK VINA RESULT:    -3.779     15.658     19.264
REMARK INTER + INTRA:         -14.626
REMARK INTER:                 -10.158
REMARK INTRA:                  -4.468
REMARK UNBOUND:                -4.661
REMARK SMILES CCCCCCCCCCCCCCCCCCCCCCCCCCCCCC(=O)[O-]
REMARK SMILES IDX 16 1 17 2 18 3 19 4 20 5 21 6 22 7 23 8 24 9 25 10 26 11
REMARK SMILES IDX 27 12 28 13 29 14 30 15 31 16 32 17 15 18 14 19 13 20 12 21
REMARK SMILES IDX 11 22 10 23 9 24 8 25 7 26 6 27 5 28 4 29 3 30 2 31 1 32
REMARK H PARENT
REMARK Flexibility Score: inf
ROOT
ATOM      1  C   UNL     1     -47.631  14.596 -24.956  1.00  0.00     0.000 C 
ENDROOT
BRANCH   1   2
ATOM      2  C   UNL     1     -46.902  13.300 -25.355  1.00  0.00     0.000 C 
BRANCH   2   3
ATOM      3  C   UNL     1     -46.623  12.371 -24.161  1.00  0.00     0.000 C 
BRANCH   3   4
ATOM      4  C   UNL     1     -47.154  10.946 -24.389  1.00  0.00     0.000 C 
BRANCH   4   5
ATOM      5  C   UNL     1     -48.124  10.797 -25.574  1.00  0.00     0.000 C 
BRANCH   5   6
ATOM      6  C   UNL     1     -49.231   9.763 -25.304  1.00  0.00     0.000 C 
BRANCH   6   7
ATOM      7  C   UNL     1     -50.638  10.394 -25.303  1.00  0.00     0.000 C 
BRANCH   7   8
ATOM      8  C   UNL     1     -50.688  11.803 -24.682  1.00  0.00     0.000 C 
BRANCH   8   9
ATOM      9  C   UNL     1     -52.072  12.453 -24.819  1.00  0.00     0.000 C 
BRANCH   9  10
ATOM     10  C   UNL     1     -52.657  12.805 -23.442  1.00  0.00     0.000 C 
BRANCH  10  11
ATOM     11  C   UNL     1     -52.101  11.899 -22.325  1.00  0.00     0.000 C 
BRANCH  11  12
ATOM     12  C   UNL     1     -51.324  12.663 -21.234  1.00  0.00     0.000 C 
BRANCH  12  13
ATOM     13  C   UNL     1     -50.044  11.966 -20.731  1.00  0.00     0.006 C 
BRANCH  13  14
ATOM     14  C   UNL     1     -48.913  12.933 -20.343  1.00  0.00     0.053 C 
BRANCH  14  15
ATOM     15  C   UNL     1     -47.704  12.203 -19.844  1.00  0.00     0.041 C 
ATOM     16  O   UNL     1     -47.145  11.332 -20.561  1.00  0.00    -0.550 OA
ATOM     17  O   UNL     1     -47.157  12.532 -18.609  1.00  0.00    -0.550 OA
ENDBRANCH  14  15
ENDBRANCH  13  14
ENDBRANCH  12  13
ENDBRANCH  11  12
ENDBRANCH  10  11
ENDBRANCH   9  10
ENDBRANCH   8   9
ENDBRANCH   7   8
ENDBRANCH   6   7
ENDBRANCH   5   6
ENDBRANCH   4   5
ENDBRANCH   3   4
ENDBRANCH   2   3
ENDBRANCH   1   2
BRANCH   1  18
ATOM     18  C   UNL     1     -48.608  15.165 -26.010  1.00  0.00     0.000 C 
BRANCH  18  19
ATOM     19  C   UNL     1     -48.602  16.698 -26.159  1.00  0.00     0.000 C 
BRANCH  19  20
ATOM     20  C   UNL     1     -49.861  17.246 -26.852  1.00  0.00     0.000 C 
BRANCH  20  21
ATOM     21  C   UNL     1     -49.541  17.895 -28.206  1.00  0.00     0.000 C 
BRANCH  21  22
ATOM     22  C   UNL     1     -48.043  17.843 -28.550  1.00  0.00     0.000 C 
BRANCH  22  23
ATOM     23  C   UNL     1     -47.766  17.196 -29.918  1.00  0.00     0.000 C 
BRANCH  23  24
ATOM     24  C   UNL     1     -46.457  16.374 -29.978  1.00  0.00    -0.000 C 
BRANCH  24  25
ATOM     25  C   UNL     1     -45.990  15.780 -28.630  1.00  0.00    -0.000 C 
BRANCH  25  26
ATOM     26  C   UNL     1     -45.695  14.270 -28.660  1.00  0.00    -0.000 C 
BRANCH  26  27
ATOM     27  C   UNL     1     -46.840  13.428 -29.267  1.00  0.00    -0.000 C 
BRANCH  27  28
ATOM     28  C   UNL     1     -46.708  11.935 -28.924  1.00  0.00    -0.000 C 
BRANCH  28  29
ATOM     29  C   UNL     1     -45.463  11.656 -28.067  1.00  0.00    -0.000 C 
BRANCH  29  30
ATOM     30  C   UNL     1     -45.155  10.153 -28.012  1.00  0.00    -0.000 C 
BRANCH  30  31
ATOM     31  C   UNL     1     -44.473   9.742 -26.697  1.00  0.00    -0.003 C 
ATOM     32  C   UNL     1     -43.704  10.890 -26.041  1.00  0.00     0.004 C 
ENDBRANCH  30  31
ENDBRANCH  29  30
ENDBRANCH  28  29
ENDBRANCH  27  28
ENDBRANCH  26  27
ENDBRANCH  25  26
ENDBRANCH  24  25
ENDBRANCH  23  24
ENDBRANCH  22  23
ENDBRANCH  21  22
ENDBRANCH  20  21
ENDBRANCH  19  20
ENDBRANCH  18  19
ENDBRANCH   1  18
TORSDOF 28
ENDMDL
MODEL 6
REMARK VINA RESULT:    -3.767     15.011     17.214
REMARK INTER + INTRA:         -14.593
REMARK INTER:                 -11.830
REMARK INTRA:                  -2.763
REMARK UNBOUND:                -4.661
REMARK SMILES CCCCCCCCCCCCCCCCCCCCCCCCCCCCCC(=O)[O-]
REMARK SMILES IDX 16 1 17 2 18 3 19 4 20 5 21 6 22 7 23 8 24 9 25 10 26 11
REMARK SMILES IDX 27 12 28 13 29 14 30 15 31 16 32 17 15 18 14 19 13 20 12 21
REMARK SMILES IDX 11 22 10 23 9 24 8 25 7 26 6 27 5 28 4 29 3 30 2 31 1 32
REMARK H PARENT
REMARK Flexibility Score: inf
ROOT
ATOM      1  C   UNL     1     -52.538  12.640 -23.093  1.00  0.00     0.000 C 
ENDROOT
BRANCH   1   2
ATOM      2  C   UNL     1     -52.126  12.160 -24.497  1.00  0.00     0.000 C 
BRANCH   2   3
ATOM      3  C   UNL     1     -50.813  11.358 -24.500  1.00  0.00     0.000 C 
BRANCH   3   4
ATOM      4  C   UNL     1     -49.592  12.231 -24.839  1.00  0.00     0.000 C 
BRANCH   4   5
ATOM      5  C   UNL     1     -48.234  11.629 -24.438  1.00  0.00     0.000 C 
BRANCH   5   6
ATOM      6  C   UNL     1     -47.197  12.706 -24.072  1.00  0.00     0.000 C 
BRANCH   6   7
ATOM      7  C   UNL     1     -46.617  13.410 -25.315  1.00  0.00     0.000 C 
BRANCH   7   8
ATOM      8  C   UNL     1     -45.738  12.499 -26.193  1.00  0.00     0.000 C 
BRANCH   8   9
ATOM      9  C   UNL     1     -46.024  12.676 -27.691  1.00  0.00     0.000 C 
BRANCH   9  10
ATOM     10  C   UNL     1     -46.783  13.985 -27.959  1.00  0.00     0.000 C 
BRANCH  10  11
ATOM     11  C   UNL     1     -45.865  15.082 -28.536  1.00  0.00     0.000 C 
BRANCH  11  12
ATOM     12  C   UNL     1     -46.600  16.105 -29.424  1.00  0.00     0.000 C 
BRANCH  12  13
ATOM     13  C   UNL     1     -46.959  17.436 -28.733  1.00  0.00     0.006 C 
BRANCH  13  14
ATOM     14  C   UNL     1     -48.469  17.685 -28.593  1.00  0.00     0.053 C 
BRANCH  14  15
ATOM     15  C   UNL     1     -48.872  17.873 -27.162  1.00  0.00     0.041 C 
ATOM     16  O   UNL     1     -49.118  19.025 -26.717  1.00  0.00    -0.550 OA
ATOM     17  O   UNL     1     -49.036  16.767 -26.337  1.00  0.00    -0.550 OA
ENDBRANCH  14  15
ENDBRANCH  13  14
ENDBRANCH  12  13
ENDBRANCH  11  12
ENDBRANCH  10  11
ENDBRANCH   9  10
ENDBRANCH   8   9
ENDBRANCH   7   8
ENDBRANCH   6   7
ENDBRANCH   5   6
ENDBRANCH   4   5
ENDBRANCH   3   4
ENDBRANCH   2   3
ENDBRANCH   1   2
BRANCH   1  18
ATOM     18  C   UNL     1     -51.745  12.028 -21.917  1.00  0.00     0.000 C 
BRANCH  18  19
ATOM     19  C   UNL     1     -51.315  13.019 -20.820  1.00  0.00     0.000 C 
BRANCH  19  20
ATOM     20  C   UNL     1     -50.119  12.526 -19.989  1.00  0.00     0.000 C 
BRANCH  20  21
ATOM     21  C   UNL     1     -49.124  11.715 -20.831  1.00  0.00     0.000 C 
BRANCH  21  22
ATOM     22  C   UNL     1     -48.945  10.277 -20.317  1.00  0.00     0.000 C 
BRANCH  22  23
ATOM     23  C   UNL     1     -48.554  10.218 -18.830  1.00  0.00     0.000 C 
BRANCH  23  24
ATOM     24  C   UNL     1     -49.621   9.569 -17.917  1.00  0.00    -0.000 C 
BRANCH  24  25
ATOM     25  C   UNL     1     -49.093   9.025 -16.571  1.00  0.00    -0.000 C 
BRANCH  25  26
ATOM     26  C   UNL     1     -49.171  10.021 -15.399  1.00  0.00    -0.000 C 
BRANCH  26  27
ATOM     27  C   UNL     1     -48.789   9.403 -14.036  1.00  0.00    -0.000 C 
BRANCH  27  28
ATOM     28  C   UNL     1     -47.656  10.179 -13.343  1.00  0.00    -0.000 C 
BRANCH  28  29
ATOM     29  C   UNL     1     -46.519  10.518 -14.320  1.00  0.00    -0.000 C 
BRANCH  29  30
ATOM     30  C   UNL     1     -45.932  11.905 -14.026  1.00  0.00    -0.000 C 
BRANCH  30  31
ATOM     31  C   UNL     1     -45.993  12.839 -15.245  1.00  0.00    -0.003 C 
ATOM     32  C   UNL     1     -46.421  12.119 -16.525  1.00  0.00     0.004 C 
ENDBRANCH  30  31
ENDBRANCH  29  30
ENDBRANCH  28  29
ENDBRANCH  27  28
ENDBRANCH  26  27
ENDBRANCH  25  26
ENDBRANCH  24  25
ENDBRANCH  23  24
ENDBRANCH  22  23
ENDBRANCH  21  22
ENDBRANCH  20  21
ENDBRANCH  19  20
ENDBRANCH  18  19
ENDBRANCH   1  18
TORSDOF 28
ENDMDL
MODEL 7
REMARK VINA RESULT:    -3.739     15.080     17.923
REMARK INTER + INTRA:         -14.521
REMARK INTER:                  -9.740
REMARK INTRA:                  -4.780
REMARK UNBOUND:                -4.661
REMARK SMILES CCCCCCCCCCCCCCCCCCCCCCCCCCCCCC(=O)[O-]
REMARK SMILES IDX 16 1 17 2 18 3 19 4 20 5 21 6 22 7 23 8 24 9 25 10 26 11
REMARK SMILES IDX 27 12 28 13 29 14 30 15 31 16 32 17 15 18 14 19 13 20 12 21
REMARK SMILES IDX 11 22 10 23 9 24 8 25 7 26 6 27 5 28 4 29 3 30 2 31 1 32
REMARK H PARENT
REMARK Flexibility Score: inf
ROOT
ATOM      1  C   UNL     1     -49.842  10.275 -25.207  1.00  0.00     0.000 C 
ENDROOT
BRANCH   1   2
ATOM      2  C   UNL     1     -49.277   9.317 -24.142  1.00  0.00     0.000 C 
BRANCH   2   3
ATOM      3  C   UNL     1     -48.382  10.020 -23.109  1.00  0.00     0.000 C 
BRANCH   3   4
ATOM      4  C   UNL     1     -47.776  11.327 -23.649  1.00  0.00     0.000 C 
BRANCH   4   5
ATOM      5  C   UNL     1     -46.252  11.453 -23.482  1.00  0.00     0.000 C 
BRANCH   5   6
ATOM      6  C   UNL     1     -45.527  10.107 -23.648  1.00  0.00     0.000 C 
BRANCH   6   7
ATOM      7  C   UNL     1     -45.152   9.817 -25.115  1.00  0.00     0.000 C 
BRANCH   7   8
ATOM      8  C   UNL     1     -44.632  11.050 -25.879  1.00  0.00     0.000 C 
BRANCH   8   9
ATOM      9  C   UNL     1     -45.268  11.187 -27.270  1.00  0.00     0.000 C 
BRANCH   9  10
ATOM     10  C   UNL     1     -46.802  11.168 -27.183  1.00  0.00     0.000 C 
BRANCH  10  11
ATOM     11  C   UNL     1     -47.419  12.549 -27.488  1.00  0.00     0.000 C 
BRANCH  11  12
ATOM     12  C   UNL     1     -47.002  13.649 -26.491  1.00  0.00     0.000 C 
BRANCH  12  13
ATOM     13  C   UNL     1     -46.160  14.793 -27.093  1.00  0.00     0.006 C 
BRANCH  13  14
ATOM     14  C   UNL     1     -46.531  15.151 -28.541  1.00  0.00     0.053 C 
BRANCH  14  15
ATOM     15  C   UNL     1     -46.909  16.594 -28.679  1.00  0.00     0.041 C 
ATOM     16  O   UNL     1     -47.856  17.072 -28.001  1.00  0.00    -0.550 OA
ATOM     17  O   UNL     1     -46.172  17.426 -29.514  1.00  0.00    -0.550 OA
ENDBRANCH  14  15
ENDBRANCH  13  14
ENDBRANCH  12  13
ENDBRANCH  11  12
ENDBRANCH  10  11
ENDBRANCH   9  10
ENDBRANCH   8   9
ENDBRANCH   7   8
ENDBRANCH   6   7
ENDBRANCH   5   6
ENDBRANCH   4   5
ENDBRANCH   3   4
ENDBRANCH   2   3
ENDBRANCH   1   2
BRANCH   1  18
ATOM     18  C   UNL     1     -51.299  10.738 -24.985  1.00  0.00     0.000 C 
BRANCH  18  19
ATOM     19  C   UNL     1     -51.462  12.094 -24.274  1.00  0.00     0.000 C 
BRANCH  19  20
ATOM     20  C   UNL     1     -52.063  11.974 -22.864  1.00  0.00     0.000 C 
BRANCH  20  21
ATOM     21  C   UNL     1     -50.986  11.993 -21.771  1.00  0.00     0.000 C 
BRANCH  21  22
ATOM     22  C   UNL     1     -51.273  13.029 -20.672  1.00  0.00     0.000 C 
BRANCH  22  23
ATOM     23  C   UNL     1     -49.992  13.593 -20.032  1.00  0.00     0.000 C 
BRANCH  23  24
ATOM     24  C   UNL     1     -48.682  13.069 -20.665  1.00  0.00    -0.000 C 
BRANCH  24  25
ATOM     25  C   UNL     1     -47.651  12.497 -19.665  1.00  0.00    -0.000 C 
BRANCH  25  26
ATOM     26  C   UNL     1     -47.586  10.960 -19.617  1.00  0.00    -0.000 C 
BRANCH  26  27
ATOM     27  C   UNL     1     -48.895  10.301 -19.124  1.00  0.00    -0.000 C 
BRANCH  27  28
ATOM     28  C   UNL     1     -48.872  10.024 -17.612  1.00  0.00    -0.000 C 
BRANCH  28  29
ATOM     29  C   UNL     1     -47.439   9.819 -17.094  1.00  0.00    -0.000 C 
BRANCH  29  30
ATOM     30  C   UNL     1     -47.240  10.503 -15.734  1.00  0.00    -0.000 C 
BRANCH  30  31
ATOM     31  C   UNL     1     -46.046  11.471 -15.734  1.00  0.00    -0.003 C 
ATOM     32  C   UNL     1     -46.359  12.802 -16.419  1.00  0.00     0.004 C 
ENDBRANCH  30  31
ENDBRANCH  29  30
ENDBRANCH  28  29
ENDBRANCH  27  28
ENDBRANCH  26  27
ENDBRANCH  25  26
ENDBRANCH  24  25
ENDBRANCH  23  24
ENDBRANCH  22  23
ENDBRANCH  21  22
ENDBRANCH  20  21
ENDBRANCH  19  20
ENDBRANCH  18  19
ENDBRANCH   1  18
TORSDOF 28
ENDMDL
MODEL 8
REMARK VINA RESULT:    -3.709     15.241     17.701
REMARK INTER + INTRA:         -14.442
REMARK INTER:                 -10.180
REMARK INTRA:                  -4.261
REMARK UNBOUND:                -4.661
REMARK SMILES CCCCCCCCCCCCCCCCCCCCCCCCCCCCCC(=O)[O-]
REMARK SMILES IDX 16 1 17 2 18 3 19 4 20 5 21 6 22 7 23 8 24 9 25 10 26 11
REMARK SMILES IDX 27 12 28 13 29 14 30 15 31 16 32 17 15 18 14 19 13 20 12 21
REMARK SMILES IDX 11 22 10 23 9 24 8 25 7 26 6 27 5 28 4 29 3 30 2 31 1 32
REMARK H PARENT
REMARK Flexibility Score: inf
ROOT
ATOM      1  C   UNL     1     -51.914  12.073 -23.124  1.00  0.00     0.000 C 
ENDROOT
BRANCH   1   2
ATOM      2  C   UNL     1     -51.530  11.348 -24.427  1.00  0.00     0.000 C 
BRANCH   2   3
ATOM      3  C   UNL     1     -51.062   9.901 -24.198  1.00  0.00     0.000 C 
BRANCH   3   4
ATOM      4  C   UNL     1     -49.652   9.645 -24.758  1.00  0.00     0.000 C 
BRANCH   4   5
ATOM      5  C   UNL     1     -49.081  10.782 -25.624  1.00  0.00     0.000 C 
BRANCH   5   6
ATOM      6  C   UNL     1     -47.570  10.978 -25.418  1.00  0.00     0.000 C 
BRANCH   6   7
ATOM      7  C   UNL     1     -46.970  12.002 -26.402  1.00  0.00     0.000 C 
BRANCH   7   8
ATOM      8  C   UNL     1     -46.487  13.302 -25.730  1.00  0.00     0.000 C 
BRANCH   8   9
ATOM      9  C   UNL     1     -46.341  14.459 -26.730  1.00  0.00     0.000 C 
BRANCH   9  10
ATOM     10  C   UNL     1     -46.610  13.986 -28.167  1.00  0.00     0.000 C 
BRANCH  10  11
ATOM     11  C   UNL     1     -46.435  15.123 -29.196  1.00  0.00     0.000 C 
BRANCH  11  12
ATOM     12  C   UNL     1     -45.772  16.388 -28.616  1.00  0.00     0.000 C 
BRANCH  12  13
ATOM     13  C   UNL     1     -46.660  17.649 -28.611  1.00  0.00     0.006 C 
BRANCH  13  14
ATOM     14  C   UNL     1     -48.169  17.354 -28.590  1.00  0.00     0.053 C 
BRANCH  14  15
ATOM     15  C   UNL     1     -48.788  17.710 -27.273  1.00  0.00     0.041 C 
ATOM     16  O   UNL     1     -48.799  16.877 -26.329  1.00  0.00    -0.550 OA
ATOM     17  O   UNL     1     -49.298  18.987 -27.070  1.00  0.00    -0.550 OA
ENDBRANCH  14  15
ENDBRANCH  13  14
ENDBRANCH  12  13
ENDBRANCH  11  12
ENDBRANCH  10  11
ENDBRANCH   9  10
ENDBRANCH   8   9
ENDBRANCH   7   8
ENDBRANCH   6   7
ENDBRANCH   5   6
ENDBRANCH   4   5
ENDBRANCH   3   4
ENDBRANCH   2   3
ENDBRANCH   1   2
BRANCH   1  18
ATOM     18  C   UNL     1     -51.204  11.572 -21.846  1.00  0.00     0.000 C 
BRANCH  18  19
ATOM     19  C   UNL     1     -50.834  12.661 -20.822  1.00  0.00     0.000 C 
BRANCH  19  20
ATOM     20  C   UNL     1     -49.325  12.949 -20.759  1.00  0.00     0.000 C 
BRANCH  20  21
ATOM     21  C   UNL     1     -48.569  12.345 -21.950  1.00  0.00     0.000 C 
BRANCH  21  22
ATOM     22  C   UNL     1     -47.205  11.759 -21.553  1.00  0.00     0.000 C 
BRANCH  22  23
ATOM     23  C   UNL     1     -47.001  10.320 -22.058  1.00  0.00     0.000 C 
BRANCH  23  24
ATOM     24  C   UNL     1     -47.926   9.276 -21.390  1.00  0.00    -0.000 C 
BRANCH  24  25
ATOM     25  C   UNL     1     -47.842   9.213 -19.848  1.00  0.00    -0.000 C 
BRANCH  25  26
ATOM     26  C   UNL     1     -49.127   9.640 -19.116  1.00  0.00    -0.000 C 
BRANCH  26  27
ATOM     27  C   UNL     1     -48.864  10.446 -17.824  1.00  0.00    -0.000 C 
BRANCH  27  28
ATOM     28  C   UNL     1     -47.363  10.582 -17.520  1.00  0.00    -0.000 C 
BRANCH  28  29
ATOM     29  C   UNL     1     -46.844  11.993 -17.841  1.00  0.00    -0.000 C 
BRANCH  29  30
ATOM     30  C   UNL     1     -46.458  12.745 -16.560  1.00  0.00    -0.000 C 
BRANCH  30  31
ATOM     31  C   UNL     1     -46.649  11.890 -15.297  1.00  0.00    -0.003 C 
ATOM     32  C   UNL     1     -45.344  11.659 -14.532  1.00  0.00     0.004 C 
ENDBRANCH  30  31
ENDBRANCH  29  30
ENDBRANCH  28  29
ENDBRANCH  27  28
ENDBRANCH  26  27
ENDBRANCH  25  26
ENDBRANCH  24  25
ENDBRANCH  23  24
ENDBRANCH  22  23
ENDBRANCH  21  22
ENDBRANCH  20  21
ENDBRANCH  19  20
ENDBRANCH  18  19
ENDBRANCH   1  18
TORSDOF 28
ENDMDL
MODEL 9
REMARK VINA RESULT:    -3.639     15.066     17.594
REMARK INTER + INTRA:         -14.256
REMARK INTER:                 -10.427
REMARK INTRA:                  -3.829
REMARK UNBOUND:                -4.661
REMARK SMILES CCCCCCCCCCCCCCCCCCCCCCCCCCCCCC(=O)[O-]
REMARK SMILES IDX 16 1 17 2 18 3 19 4 20 5 21 6 22 7 23 8 24 9 25 10 26 11
REMARK SMILES IDX 27 12 28 13 29 14 30 15 31 16 32 17 15 18 14 19 13 20 12 21
REMARK SMILES IDX 11 22 10 23 9 24 8 25 7 26 6 27 5 28 4 29 3 30 2 31 1 32
REMARK H PARENT
REMARK Flexibility Score: inf
ROOT
ATOM      1  C   UNL     1     -48.045  10.418 -23.096  1.00  0.00     0.000 C 
ENDROOT
BRANCH   1   2
ATOM      2  C   UNL     1     -46.561  10.829 -23.047  1.00  0.00     0.000 C 
BRANCH   2   3
ATOM      3  C   UNL     1     -45.604   9.629 -22.956  1.00  0.00     0.000 C 
BRANCH   3   4
ATOM      4  C   UNL     1     -44.577   9.608 -24.102  1.00  0.00     0.000 C 
BRANCH   4   5
ATOM      5  C   UNL     1     -44.724  10.749 -25.124  1.00  0.00     0.000 C 
BRANCH   5   6
ATOM      6  C   UNL     1     -45.586  10.349 -26.334  1.00  0.00     0.000 C 
BRANCH   6   7
ATOM      7  C   UNL     1     -46.524  11.485 -26.788  1.00  0.00     0.000 C 
BRANCH   7   8
ATOM      8  C   UNL     1     -46.191  12.854 -26.166  1.00  0.00     0.000 C 
BRANCH   8   9
ATOM      9  C   UNL     1     -46.726  14.025 -27.003  1.00  0.00     0.000 C 
BRANCH   9  10
ATOM     10  C   UNL     1     -46.026  14.094 -28.369  1.00  0.00     0.000 C 
BRANCH  10  11
ATOM     11  C   UNL     1     -46.481  15.315 -29.195  1.00  0.00     0.000 C 
BRANCH  11  12
ATOM     12  C   UNL     1     -45.823  16.640 -28.760  1.00  0.00     0.000 C 
BRANCH  12  13
ATOM     13  C   UNL     1     -46.779  17.847 -28.672  1.00  0.00     0.006 C 
BRANCH  13  14
ATOM     14  C   UNL     1     -48.263  17.467 -28.554  1.00  0.00     0.053 C 
BRANCH  14  15
ATOM     15  C   UNL     1     -48.807  17.759 -27.189  1.00  0.00     0.041 C 
ATOM     16  O   UNL     1     -49.125  18.935 -26.869  1.00  0.00    -0.550 OA
ATOM     17  O   UNL     1     -49.019  16.720 -26.291  1.00  0.00    -0.550 OA
ENDBRANCH  14  15
ENDBRANCH  13  14
ENDBRANCH  12  13
ENDBRANCH  11  12
ENDBRANCH  10  11
ENDBRANCH   9  10
ENDBRANCH   8   9
ENDBRANCH   7   8
ENDBRANCH   6   7
ENDBRANCH   5   6
ENDBRANCH   4   5
ENDBRANCH   3   4
ENDBRANCH   2   3
ENDBRANCH   1   2
BRANCH   1  18
ATOM     18  C   UNL     1     -48.969  11.346 -23.916  1.00  0.00     0.000 C 
BRANCH  18  19
ATOM     19  C   UNL     1     -50.271  11.773 -23.214  1.00  0.00     0.000 C 
BRANCH  19  20
ATOM     20  C   UNL     1     -50.282  11.459 -21.709  1.00  0.00     0.000 C 
BRANCH  20  21
ATOM     21  C   UNL     1     -50.886  12.604 -20.883  1.00  0.00     0.000 C 
BRANCH  21  22
ATOM     22  C   UNL     1     -49.837  13.345 -20.039  1.00  0.00     0.000 C 
BRANCH  22  23
ATOM     23  C   UNL     1     -48.396  12.910 -20.360  1.00  0.00     0.000 C 
BRANCH  23  24
ATOM     24  C   UNL     1     -47.688  12.156 -19.210  1.00  0.00    -0.000 C 
BRANCH  24  25
ATOM     25  C   UNL     1     -47.237  10.717 -19.546  1.00  0.00    -0.000 C 
BRANCH  25  26
ATOM     26  C   UNL     1     -47.800   9.631 -18.610  1.00  0.00    -0.000 C 
BRANCH  26  27
ATOM     27  C   UNL     1     -49.227   9.933 -18.102  1.00  0.00    -0.000 C 
BRANCH  27  28
ATOM     28  C   UNL     1     -49.307   9.945 -16.567  1.00  0.00    -0.000 C 
BRANCH  28  29
ATOM     29  C   UNL     1     -47.916   9.822 -15.924  1.00  0.00    -0.000 C 
BRANCH  29  30
ATOM     30  C   UNL     1     -47.635  11.002 -14.984  1.00  0.00    -0.000 C 
BRANCH  30  31
ATOM     31  C   UNL     1     -46.362  11.771 -15.371  1.00  0.00    -0.003 C 
ATOM     32  C   UNL     1     -45.409  11.978 -14.192  1.00  0.00     0.004 C 
ENDBRANCH  30  31
ENDBRANCH  29  30
ENDBRANCH  28  29
ENDBRANCH  27  28
ENDBRANCH  26  27
ENDBRANCH  25  26
ENDBRANCH  24  25
ENDBRANCH  23  24
ENDBRANCH  22  23
ENDBRANCH  21  22
ENDBRANCH  20  21
ENDBRANCH  19  20
ENDBRANCH  18  19
ENDBRANCH   1  18
TORSDOF 28
ENDMDL
