MODEL 1
REMARK VINA RESULT:    -7.808      0.000      0.000
REMARK INTER + INTRA:          -9.489
REMARK INTER:                  -9.178
REMARK INTRA:                  -0.311
REMARK UNBOUND:                -0.311
REMARK SMILES O=c1cc(-c2ccc(O)c(O)c2)oc2cc(O)cc(O)c12
REMARK SMILES IDX 4 1 3 2 2 3 1 4 21 5 19 6 18 7 16 8 15 9 14 10 13 11 5 12
REMARK SMILES IDX 6 13 7 14 8 15 12 16 10 17 9 18 11 20 20 22 17 24
REMARK H PARENT 9 19 11 21 20 23 17 25
REMARK Flexibility Score: inf
ROOT
ATOM      1  C   UNL     1      38.514 -12.630   8.313  1.00  0.00     0.138 A 
ATOM      2  C   UNL     1      38.544 -11.395   8.976  1.00  0.00     0.100 A 
ATOM      3  C   UNL     1      39.635 -11.072   9.783  1.00  0.00     0.197 A 
ATOM      4  O   UNL     1      39.606  -9.984  10.413  1.00  0.00    -0.289 OA
ATOM      5  C   UNL     1      40.715 -11.979   9.901  1.00  0.00     0.107 A 
ATOM      6  C   UNL     1      41.897 -11.739  10.664  1.00  0.00     0.134 A 
ATOM      7  C   UNL     1      42.848 -12.758  10.802  1.00  0.00     0.093 A 
ATOM      8  C   UNL     1      42.689 -13.984  10.157  1.00  0.00     0.123 A 
ATOM      9  C   UNL     1      41.562 -14.210   9.366  1.00  0.00     0.094 A 
ATOM     10  C   UNL     1      40.580 -13.226   9.237  1.00  0.00     0.146 A 
ATOM     11  O   UNL     1      39.514 -13.486   8.485  1.00  0.00    -0.456 OA
ENDROOT
BRANCH   1  12
ATOM     12  C   UNL     1      37.377 -13.024   7.442  1.00  0.00     0.021 A 
ATOM     13  C   UNL     1      36.126 -12.407   7.616  1.00  0.00     0.016 A 
ATOM     14  C   UNL     1      35.039 -12.765   6.816  1.00  0.00     0.051 A 
ATOM     15  C   UNL     1      35.181 -13.752   5.834  1.00  0.00     0.157 A 
ATOM     16  C   UNL     1      37.508 -14.027   6.461  1.00  0.00     0.062 A 
ATOM     17  C   UNL     1      36.416 -14.387   5.659  1.00  0.00     0.158 A 
BRANCH  15  18
ATOM     18  O   UNL     1      34.098 -14.112   5.032  1.00  0.00    -0.504 OA
ATOM     19  H   UNL     1      33.147 -13.873   5.288  1.00  0.00     0.293 HD
ENDBRANCH  15  18
BRANCH  17  20
ATOM     20  O   UNL     1      36.550 -15.378   4.687  1.00  0.00    -0.504 OA
ATOM     21  H   UNL     1      35.745 -15.869   4.316  1.00  0.00     0.293 HD
ENDBRANCH  17  20
ENDBRANCH   1  12
BRANCH   6  22
ATOM     22  O   UNL     1      42.196 -10.519  11.280  1.00  0.00    -0.507 OA
ATOM     23  H   UNL     1      41.594 -10.041  11.933  1.00  0.00     0.293 HD
ENDBRANCH   6  22
BRANCH   8  24
ATOM     24  O   UNL     1      43.663 -14.969  10.305  1.00  0.00    -0.508 OA
ATOM     25  H   UNL     1      44.436 -14.857  10.950  1.00  0.00     0.293 HD
ENDBRANCH   8  24
TORSDOF 5
ENDMDL
MODEL 2
REMARK VINA RESULT:    -7.482      2.003      7.223
REMARK INTER + INTRA:          -9.106
REMARK INTER:                  -8.817
REMARK INTRA:                  -0.288
REMARK UNBOUND:                -0.311
REMARK SMILES O=c1cc(-c2ccc(O)c(O)c2)oc2cc(O)cc(O)c12
REMARK SMILES IDX 4 1 3 2 2 3 1 4 21 5 19 6 18 7 16 8 15 9 14 10 13 11 5 12
REMARK SMILES IDX 6 13 7 14 8 15 12 16 10 17 9 18 11 20 20 22 17 24
REMARK H PARENT 9 19 11 21 20 23 17 25
REMARK Flexibility Score: inf
ROOT
ATOM      1  C   UNL     1      39.301 -12.768   8.046  1.00  0.00     0.138 A 
ATOM      2  C   UNL     1      38.645 -13.985   7.811  1.00  0.00     0.100 A 
ATOM      3  C   UNL     1      37.605 -14.041   6.883  1.00  0.00     0.197 A 
ATOM      4  O   UNL     1      36.995 -15.131   6.739  1.00  0.00    -0.289 OA
ATOM      5  C   UNL     1      37.242 -12.877   6.164  1.00  0.00     0.107 A 
ATOM      6  C   UNL     1      36.226 -12.824   5.164  1.00  0.00     0.134 A 
ATOM      7  C   UNL     1      35.873 -11.591   4.601  1.00  0.00     0.093 A 
ATOM      8  C   UNL     1      36.541 -10.420   4.957  1.00  0.00     0.123 A 
ATOM      9  C   UNL     1      37.574 -10.468   5.895  1.00  0.00     0.094 A 
ATOM     10  C   UNL     1      37.924 -11.677   6.499  1.00  0.00     0.146 A 
ATOM     11  O   UNL     1      38.904 -11.679   7.398  1.00  0.00    -0.456 OA
ENDROOT
BRANCH   1  12
ATOM     12  C   UNL     1      40.414 -12.654   9.023  1.00  0.00     0.021 A 
ATOM     13  C   UNL     1      40.639 -11.428   9.674  1.00  0.00     0.016 A 
ATOM     14  C   UNL     1      41.684 -11.292  10.591  1.00  0.00     0.051 A 
ATOM     15  C   UNL     1      42.528 -12.374  10.865  1.00  0.00     0.157 A 
ATOM     16  C   UNL     1      41.276 -13.734   9.294  1.00  0.00     0.062 A 
ATOM     17  C   UNL     1      42.326 -13.596  10.213  1.00  0.00     0.158 A 
BRANCH  15  18
ATOM     18  O   UNL     1      43.572 -12.242  11.780  1.00  0.00    -0.504 OA
ATOM     19  H   UNL     1      44.453 -12.724  11.650  1.00  0.00     0.293 HD
ENDBRANCH  15  18
BRANCH  17  20
ATOM     20  O   UNL     1      43.176 -14.669  10.480  1.00  0.00    -0.504 OA
ATOM     21  H   UNL     1      43.109 -15.196  11.343  1.00  0.00     0.293 HD
ENDBRANCH  17  20
ENDBRANCH   1  12
BRANCH   6  22
ATOM     22  O   UNL     1      35.553 -13.948   4.673  1.00  0.00    -0.507 OA
ATOM     23  H   UNL     1      34.836 -13.926   3.963  1.00  0.00     0.293 HD
ENDBRANCH   6  22
BRANCH   8  24
ATOM     24  O   UNL     1      36.174  -9.213   4.367  1.00  0.00    -0.508 OA
ATOM     25  H   UNL     1      35.206  -8.919   4.319  1.00  0.00     0.293 HD
ENDBRANCH   8  24
TORSDOF 5
ENDMDL
MODEL 3
REMARK VINA RESULT:    -7.411      4.944     11.121
REMARK INTER + INTRA:          -9.022
REMARK INTER:                  -8.709
REMARK INTRA:                  -0.313
REMARK UNBOUND:                -0.311
REMARK SMILES O=c1cc(-c2ccc(O)c(O)c2)oc2cc(O)cc(O)c12
REMARK SMILES IDX 4 1 3 2 2 3 1 4 21 5 19 6 18 7 16 8 15 9 14 10 13 11 5 12
REMARK SMILES IDX 6 13 7 14 8 15 12 16 10 17 9 18 11 20 20 22 17 24
REMARK H PARENT 9 19 11 21 20 23 17 25
REMARK Flexibility Score: inf
ROOT
ATOM      1  C   UNL     1      33.433 -14.754   3.132  1.00  0.00     0.138 A 
ATOM      2  C   UNL     1      33.836 -15.192   1.863  1.00  0.00     0.100 A 
ATOM      3  C   UNL     1      32.876 -15.439   0.881  1.00  0.00     0.197 A 
ATOM      4  O   UNL     1      33.262 -15.889  -0.227  1.00  0.00    -0.289 OA
ATOM      5  C   UNL     1      31.507 -15.217   1.165  1.00  0.00     0.107 A 
ATOM      6  C   UNL     1      30.444 -15.396   0.230  1.00  0.00     0.134 A 
ATOM      7  C   UNL     1      29.118 -15.258   0.658  1.00  0.00     0.093 A 
ATOM      8  C   UNL     1      28.818 -14.888   1.968  1.00  0.00     0.123 A 
ATOM      9  C   UNL     1      29.852 -14.658   2.877  1.00  0.00     0.094 A 
ATOM     10  C   UNL     1      31.184 -14.822   2.490  1.00  0.00     0.146 A 
ATOM     11  O   UNL     1      32.138 -14.606   3.390  1.00  0.00    -0.456 OA
ENDROOT
BRANCH   1  12
ATOM     12  C   UNL     1      34.413 -14.476   4.213  1.00  0.00     0.021 A 
ATOM     13  C   UNL     1      35.716 -14.998   4.116  1.00  0.00     0.016 A 
ATOM     14  C   UNL     1      36.654 -14.758   5.122  1.00  0.00     0.051 A 
ATOM     15  C   UNL     1      36.304 -14.001   6.247  1.00  0.00     0.157 A 
ATOM     16  C   UNL     1      34.065 -13.727   5.355  1.00  0.00     0.062 A 
ATOM     17  C   UNL     1      35.008 -13.488   6.365  1.00  0.00     0.158 A 
BRANCH  15  18
ATOM     18  O   UNL     1      37.239 -13.759   7.254  1.00  0.00    -0.504 OA
ATOM     19  H   UNL     1      37.065 -13.081   7.985  1.00  0.00     0.293 HD
ENDBRANCH  15  18
BRANCH  17  20
ATOM     20  O   UNL     1      34.660 -12.745   7.493  1.00  0.00    -0.504 OA
ATOM     21  H   UNL     1      34.096 -11.906   7.422  1.00  0.00     0.293 HD
ENDBRANCH  17  20
ENDBRANCH   1  12
BRANCH   6  22
ATOM     22  O   UNL     1      30.635 -15.684  -1.125  1.00  0.00    -0.507 OA
ATOM     23  H   UNL     1      30.164 -16.419  -1.630  1.00  0.00     0.293 HD
ENDBRANCH   6  22
BRANCH   8  24
ATOM     24  O   UNL     1      27.488 -14.746   2.355  1.00  0.00    -0.508 OA
ATOM     25  H   UNL     1      26.933 -15.541   2.650  1.00  0.00     0.293 HD
ENDBRANCH   8  24
TORSDOF 5
ENDMDL
MODEL 4
REMARK VINA RESULT:    -7.203      3.169      9.045
REMARK INTER + INTRA:          -8.777
REMARK INTER:                  -8.501
REMARK INTRA:                  -0.276
REMARK UNBOUND:                -0.311
REMARK SMILES O=c1cc(-c2ccc(O)c(O)c2)oc2cc(O)cc(O)c12
REMARK SMILES IDX 4 1 3 2 2 3 1 4 21 5 19 6 18 7 16 8 15 9 14 10 13 11 5 12
REMARK SMILES IDX 6 13 7 14 8 15 12 16 10 17 9 18 11 20 20 22 17 24
REMARK H PARENT 9 19 11 21 20 23 17 25
REMARK Flexibility Score: inf
ROOT
ATOM      1  C   UNL     1      35.619 -14.008   4.731  1.00  0.00     0.138 A 
ATOM      2  C   UNL     1      36.389 -14.264   3.588  1.00  0.00     0.100 A 
ATOM      3  C   UNL     1      35.762 -14.681   2.413  1.00  0.00     0.197 A 
ATOM      4  O   UNL     1      36.484 -14.963   1.422  1.00  0.00    -0.289 OA
ATOM      5  C   UNL     1      34.353 -14.811   2.376  1.00  0.00     0.107 A 
ATOM      6  C   UNL     1      33.603 -15.190   1.222  1.00  0.00     0.134 A 
ATOM      7  C   UNL     1      32.223 -15.400   1.335  1.00  0.00     0.093 A 
ATOM      8  C   UNL     1      31.558 -15.187   2.542  1.00  0.00     0.123 A 
ATOM      9  C   UNL     1      32.274 -14.765   3.663  1.00  0.00     0.094 A 
ATOM     10  C   UNL     1      33.657 -14.580   3.591  1.00  0.00     0.146 A 
ATOM     11  O   UNL     1      34.304 -14.192   4.685  1.00  0.00    -0.456 OA
ENDROOT
BRANCH   1  12
ATOM     12  C   UNL     1      36.235 -13.562   6.007  1.00  0.00     0.021 A 
ATOM     13  C   UNL     1      35.671 -12.480   6.706  1.00  0.00     0.016 A 
ATOM     14  C   UNL     1      36.236 -12.036   7.903  1.00  0.00     0.051 A 
ATOM     15  C   UNL     1      37.380 -12.659   8.418  1.00  0.00     0.157 A 
ATOM     16  C   UNL     1      37.394 -14.174   6.523  1.00  0.00     0.062 A 
ATOM     17  C   UNL     1      37.961 -13.727   7.725  1.00  0.00     0.158 A 
BRANCH  15  18
ATOM     18  O   UNL     1      37.946 -12.218   9.613  1.00  0.00    -0.504 OA
ATOM     19  H   UNL     1      37.818 -12.727  10.479  1.00  0.00     0.293 HD
ENDBRANCH  15  18
BRANCH  17  20
ATOM     20  O   UNL     1      39.107 -14.336   8.235  1.00  0.00    -0.504 OA
ATOM     21  H   UNL     1      39.132 -15.327   8.446  1.00  0.00     0.293 HD
ENDBRANCH  17  20
ENDBRANCH   1  12
BRANCH   6  22
ATOM     22  O   UNL     1      34.156 -15.347  -0.053  1.00  0.00    -0.507 OA
ATOM     23  H   UNL     1      33.997 -14.724  -0.831  1.00  0.00     0.293 HD
ENDBRANCH   6  22
BRANCH   8  24
ATOM     24  O   UNL     1      30.182 -15.391   2.613  1.00  0.00    -0.508 OA
ATOM     25  H   UNL     1      29.565 -15.111   1.860  1.00  0.00     0.293 HD
ENDBRANCH   8  24
TORSDOF 5
ENDMDL
MODEL 5
REMARK VINA RESULT:    -7.132      5.531      8.565
REMARK INTER + INTRA:          -8.694
REMARK INTER:                  -8.401
REMARK INTRA:                  -0.293
REMARK UNBOUND:                -0.311
REMARK SMILES O=c1cc(-c2ccc(O)c(O)c2)oc2cc(O)cc(O)c12
REMARK SMILES IDX 4 1 3 2 2 3 1 4 21 5 19 6 18 7 16 8 15 9 14 10 13 11 5 12
REMARK SMILES IDX 6 13 7 14 8 15 12 16 10 17 9 18 11 20 20 22 17 24
REMARK H PARENT 9 19 11 21 20 23 17 25
REMARK Flexibility Score: inf
ROOT
ATOM      1  C   UNL     1      32.892 -14.448   2.565  1.00  0.00     0.138 A 
ATOM      2  C   UNL     1      32.799 -14.598   3.956  1.00  0.00     0.100 A 
ATOM      3  C   UNL     1      33.913 -14.333   4.754  1.00  0.00     0.197 A 
ATOM      4  O   UNL     1      33.818 -14.536   5.992  1.00  0.00    -0.289 OA
ATOM      5  C   UNL     1      35.116 -13.887   4.157  1.00  0.00     0.107 A 
ATOM      6  C   UNL     1      36.301 -13.548   4.875  1.00  0.00     0.134 A 
ATOM      7  C   UNL     1      37.468 -13.230   4.169  1.00  0.00     0.093 A 
ATOM      8  C   UNL     1      37.476 -13.178   2.775  1.00  0.00     0.123 A 
ATOM      9  C   UNL     1      36.307 -13.456   2.065  1.00  0.00     0.094 A 
ATOM     10  C   UNL     1      35.137 -13.810   2.739  1.00  0.00     0.146 A 
ATOM     11  O   UNL     1      34.049 -14.081   2.026  1.00  0.00    -0.456 OA
ENDROOT
BRANCH   1  12
ATOM     12  C   UNL     1      31.738 -14.716   1.670  1.00  0.00     0.021 A 
ATOM     13  C   UNL     1      31.962 -14.933   0.299  1.00  0.00     0.016 A 
ATOM     14  C   UNL     1      30.893 -15.178  -0.566  1.00  0.00     0.051 A 
ATOM     15  C   UNL     1      29.581 -15.201  -0.078  1.00  0.00     0.157 A 
ATOM     16  C   UNL     1      30.413 -14.726   2.151  1.00  0.00     0.062 A 
ATOM     17  C   UNL     1      29.341 -14.971   1.282  1.00  0.00     0.158 A 
BRANCH  15  18
ATOM     18  O   UNL     1      28.511 -15.446  -0.938  1.00  0.00    -0.504 OA
ATOM     19  H   UNL     1      28.059 -14.696  -1.448  1.00  0.00     0.293 HD
ENDBRANCH  15  18
BRANCH  17  20
ATOM     20  O   UNL     1      28.032 -14.983   1.762  1.00  0.00    -0.504 OA
ATOM     21  H   UNL     1      27.479 -14.135   1.818  1.00  0.00     0.293 HD
ENDBRANCH  17  20
ENDBRANCH   1  12
BRANCH   6  22
ATOM     22  O   UNL     1      36.380 -13.485   6.269  1.00  0.00    -0.507 OA
ATOM     23  H   UNL     1      37.062 -12.949   6.785  1.00  0.00     0.293 HD
ENDBRANCH   6  22
BRANCH   8  24
ATOM     24  O   UNL     1      38.651 -12.844   2.107  1.00  0.00    -0.508 OA
ATOM     25  H   UNL     1      39.171 -13.530   1.572  1.00  0.00     0.293 HD
ENDBRANCH   8  24
TORSDOF 5
ENDMDL
MODEL 6
REMARK VINA RESULT:    -7.035      5.774      9.173
REMARK INTER + INTRA:          -8.580
REMARK INTER:                  -8.294
REMARK INTRA:                  -0.286
REMARK UNBOUND:                -0.311
REMARK SMILES O=c1cc(-c2ccc(O)c(O)c2)oc2cc(O)cc(O)c12
REMARK SMILES IDX 4 1 3 2 2 3 1 4 21 5 19 6 18 7 16 8 15 9 14 10 13 11 5 12
REMARK SMILES IDX 6 13 7 14 8 15 12 16 10 17 9 18 11 20 20 22 17 24
REMARK H PARENT 9 19 11 21 20 23 17 25
REMARK Flexibility Score: inf
ROOT
ATOM      1  C   UNL     1      32.801 -13.888   1.354  1.00  0.00     0.138 A 
ATOM      2  C   UNL     1      33.527 -12.873   0.715  1.00  0.00     0.100 A 
ATOM      3  C   UNL     1      34.704 -12.397   1.294  1.00  0.00     0.197 A 
ATOM      4  O   UNL     1      35.300 -11.444   0.730  1.00  0.00    -0.289 OA
ATOM      5  C   UNL     1      35.171 -12.965   2.504  1.00  0.00     0.107 A 
ATOM      6  C   UNL     1      36.378 -12.587   3.164  1.00  0.00     0.134 A 
ATOM      7  C   UNL     1      36.681 -13.136   4.417  1.00  0.00     0.093 A 
ATOM      8  C   UNL     1      35.852 -14.091   5.004  1.00  0.00     0.123 A 
ATOM      9  C   UNL     1      34.695 -14.506   4.342  1.00  0.00     0.094 A 
ATOM     10  C   UNL     1      34.349 -13.952   3.107  1.00  0.00     0.146 A 
ATOM     11  O   UNL     1      33.232 -14.365   2.516  1.00  0.00    -0.456 OA
ENDROOT
BRANCH   1  12
ATOM     12  C   UNL     1      31.543 -14.431   0.781  1.00  0.00     0.021 A 
ATOM     13  C   UNL     1      31.524 -14.868  -0.556  1.00  0.00     0.016 A 
ATOM     14  C   UNL     1      30.351 -15.375  -1.121  1.00  0.00     0.051 A 
ATOM     15  C   UNL     1      29.176 -15.444  -0.364  1.00  0.00     0.157 A 
ATOM     16  C   UNL     1      30.352 -14.491   1.531  1.00  0.00     0.062 A 
ATOM     17  C   UNL     1      29.175 -14.998   0.962  1.00  0.00     0.158 A 
BRANCH  15  18
ATOM     18  O   UNL     1      28.003 -15.949  -0.925  1.00  0.00    -0.504 OA
ATOM     19  H   UNL     1      27.241 -16.282  -0.348  1.00  0.00     0.293 HD
ENDBRANCH  15  18
BRANCH  17  20
ATOM     20  O   UNL     1      27.999 -15.058   1.709  1.00  0.00    -0.504 OA
ATOM     21  H   UNL     1      27.320 -14.306   1.691  1.00  0.00     0.293 HD
ENDBRANCH  17  20
ENDBRANCH   1  12
BRANCH   6  22
ATOM     22  O   UNL     1      37.321 -11.704   2.627  1.00  0.00    -0.507 OA
ATOM     23  H   UNL     1      37.163 -11.109   1.827  1.00  0.00     0.293 HD
ENDBRANCH   6  22
BRANCH   8  24
ATOM     24  O   UNL     1      36.191 -14.626   6.244  1.00  0.00    -0.508 OA
ATOM     25  H   UNL     1      36.799 -14.132   6.886  1.00  0.00     0.293 HD
ENDBRANCH   8  24
TORSDOF 5
ENDMDL
MODEL 7
REMARK VINA RESULT:    -6.986      1.893      3.384
REMARK INTER + INTRA:          -8.522
REMARK INTER:                  -8.259
REMARK INTRA:                  -0.264
REMARK UNBOUND:                -0.311
REMARK SMILES O=c1cc(-c2ccc(O)c(O)c2)oc2cc(O)cc(O)c12
REMARK SMILES IDX 4 1 3 2 2 3 1 4 21 5 19 6 18 7 16 8 15 9 14 10 13 11 5 12
REMARK SMILES IDX 6 13 7 14 8 15 12 16 10 17 9 18 11 20 20 22 17 24
REMARK H PARENT 9 19 11 21 20 23 17 25
REMARK Flexibility Score: inf
ROOT
ATOM      1  C   UNL     1      37.454 -13.102   7.017  1.00  0.00     0.138 A 
ATOM      2  C   UNL     1      38.344 -13.983   7.647  1.00  0.00     0.100 A 
ATOM      3  C   UNL     1      39.352 -13.475   8.467  1.00  0.00     0.197 A 
ATOM      4  O   UNL     1      40.174 -14.285   8.969  1.00  0.00    -0.289 OA
ATOM      5  C   UNL     1      39.448 -12.079   8.681  1.00  0.00     0.107 A 
ATOM      6  C   UNL     1      40.410 -11.452   9.528  1.00  0.00     0.134 A 
ATOM      7  C   UNL     1      40.484 -10.054   9.571  1.00  0.00     0.093 A 
ATOM      8  C   UNL     1      39.594  -9.262   8.846  1.00  0.00     0.123 A 
ATOM      9  C   UNL     1      38.615  -9.866   8.056  1.00  0.00     0.094 A 
ATOM     10  C   UNL     1      38.538 -11.258   7.965  1.00  0.00     0.146 A 
ATOM     11  O   UNL     1      37.600 -11.794   7.190  1.00  0.00    -0.456 OA
ENDROOT
BRANCH   1  12
ATOM     12  C   UNL     1      36.363 -13.590   6.134  1.00  0.00     0.021 A 
ATOM     13  C   UNL     1      35.024 -13.383   6.512  1.00  0.00     0.016 A 
ATOM     14  C   UNL     1      33.980 -13.839   5.704  1.00  0.00     0.051 A 
ATOM     15  C   UNL     1      34.256 -14.518   4.511  1.00  0.00     0.157 A 
ATOM     16  C   UNL     1      36.632 -14.286   4.939  1.00  0.00     0.062 A 
ATOM     17  C   UNL     1      35.583 -14.745   4.130  1.00  0.00     0.158 A 
BRANCH  15  18
ATOM     18  O   UNL     1      33.215 -14.974   3.702  1.00  0.00    -0.504 OA
ATOM     19  H   UNL     1      33.036 -14.568   2.791  1.00  0.00     0.293 HD
ENDBRANCH  15  18
BRANCH  17  20
ATOM     20  O   UNL     1      35.853 -15.431   2.946  1.00  0.00    -0.504 OA
ATOM     21  H   UNL     1      36.786 -15.463   2.553  1.00  0.00     0.293 HD
ENDBRANCH  17  20
ENDBRANCH   1  12
BRANCH   6  22
ATOM     22  O   UNL     1      41.292 -12.149  10.360  1.00  0.00    -0.507 OA
ATOM     23  H   UNL     1      41.024 -12.648  11.195  1.00  0.00     0.293 HD
ENDBRANCH   6  22
BRANCH   8  24
ATOM     24  O   UNL     1      39.687  -7.875   8.925  1.00  0.00    -0.508 OA
ATOM     25  H   UNL     1      39.840  -7.307   8.100  1.00  0.00     0.293 HD
ENDBRANCH   8  24
TORSDOF 5
ENDMDL
MODEL 8
REMARK VINA RESULT:    -6.964      1.709      2.444
REMARK INTER + INTRA:          -8.497
REMARK INTER:                  -8.229
REMARK INTRA:                  -0.268
REMARK UNBOUND:                -0.311
REMARK SMILES O=c1cc(-c2ccc(O)c(O)c2)oc2cc(O)cc(O)c12
REMARK SMILES IDX 4 1 3 2 2 3 1 4 21 5 19 6 18 7 16 8 15 9 14 10 13 11 5 12
REMARK SMILES IDX 6 13 7 14 8 15 12 16 10 17 9 18 11 20 20 22 17 24
REMARK H PARENT 9 19 11 21 20 23 17 25
REMARK Flexibility Score: inf
ROOT
ATOM      1  C   UNL     1      37.074 -12.970   6.480  1.00  0.00     0.138 A 
ATOM      2  C   UNL     1      37.133 -11.579   6.644  1.00  0.00     0.100 A 
ATOM      3  C   UNL     1      38.096 -11.024   7.488  1.00  0.00     0.197 A 
ATOM      4  O   UNL     1      38.086  -9.779   7.664  1.00  0.00    -0.289 OA
ATOM      5  C   UNL     1      39.024 -11.868   8.145  1.00  0.00     0.107 A 
ATOM      6  C   UNL     1      40.075 -11.411   8.996  1.00  0.00     0.134 A 
ATOM      7  C   UNL     1      40.860 -12.344   9.685  1.00  0.00     0.093 A 
ATOM      8  C   UNL     1      40.672 -13.714   9.508  1.00  0.00     0.123 A 
ATOM      9  C   UNL     1      39.682 -14.171   8.636  1.00  0.00     0.094 A 
ATOM     10  C   UNL     1      38.861 -13.266   7.961  1.00  0.00     0.146 A 
ATOM     11  O   UNL     1      37.921 -13.742   7.151  1.00  0.00    -0.456 OA
ENDROOT
BRANCH   1  12
ATOM     12  C   UNL     1      36.069 -13.612   5.594  1.00  0.00     0.021 A 
ATOM     13  C   UNL     1      34.720 -13.643   5.988  1.00  0.00     0.016 A 
ATOM     14  C   UNL     1      33.756 -14.248   5.177  1.00  0.00     0.051 A 
ATOM     15  C   UNL     1      34.126 -14.840   3.964  1.00  0.00     0.157 A 
ATOM     16  C   UNL     1      36.435 -14.222   4.378  1.00  0.00     0.062 A 
ATOM     17  C   UNL     1      35.468 -14.831   3.566  1.00  0.00     0.158 A 
BRANCH  15  18
ATOM     18  O   UNL     1      33.167 -15.445   3.152  1.00  0.00    -0.504 OA
ATOM     19  H   UNL     1      32.866 -16.399   3.309  1.00  0.00     0.293 HD
ENDBRANCH  15  18
BRANCH  17  20
ATOM     20  O   UNL     1      35.834 -15.432   2.362  1.00  0.00    -0.504 OA
ATOM     21  H   UNL     1      35.944 -14.892   1.511  1.00  0.00     0.293 HD
ENDBRANCH  17  20
ENDBRANCH   1  12
BRANCH   6  22
ATOM     22  O   UNL     1      40.403 -10.064   9.179  1.00  0.00    -0.507 OA
ATOM     23  H   UNL     1      41.092  -9.722   9.833  1.00  0.00     0.293 HD
ENDBRANCH   6  22
BRANCH   8  24
ATOM     24  O   UNL     1      41.481 -14.614  10.198  1.00  0.00    -0.508 OA
ATOM     25  H   UNL     1      41.762 -14.445  11.157  1.00  0.00     0.293 HD
ENDBRANCH   8  24
TORSDOF 5
ENDMDL
MODEL 9
REMARK VINA RESULT:    -6.913      6.735      9.574
REMARK INTER + INTRA:          -8.437
REMARK INTER:                  -8.171
REMARK INTRA:                  -0.265
REMARK UNBOUND:                -0.311
REMARK SMILES O=c1cc(-c2ccc(O)c(O)c2)oc2cc(O)cc(O)c12
REMARK SMILES IDX 4 1 3 2 2 3 1 4 21 5 19 6 18 7 16 8 15 9 14 10 13 11 5 12
REMARK SMILES IDX 6 13 7 14 8 15 12 16 10 17 9 18 11 20 20 22 17 24
REMARK H PARENT 9 19 11 21 20 23 17 25
REMARK Flexibility Score: inf
ROOT
ATOM      1  C   UNL     1      33.161 -14.114   1.294  1.00  0.00     0.138 A 
ATOM      2  C   UNL     1      33.952 -14.987   2.054  1.00  0.00     0.100 A 
ATOM      3  C   UNL     1      35.158 -14.535   2.591  1.00  0.00     0.197 A 
ATOM      4  O   UNL     1      35.876 -15.358   3.215  1.00  0.00    -0.289 OA
ATOM      5  C   UNL     1      35.556 -13.191   2.392  1.00  0.00     0.107 A 
ATOM      6  C   UNL     1      36.744 -12.609   2.926  1.00  0.00     0.134 A 
ATOM      7  C   UNL     1      37.094 -11.301   2.566  1.00  0.00     0.093 A 
ATOM      8  C   UNL     1      36.270 -10.536   1.742  1.00  0.00     0.123 A 
ATOM      9  C   UNL     1      35.079 -11.078   1.257  1.00  0.00     0.094 A 
ATOM     10  C   UNL     1      34.720 -12.391   1.570  1.00  0.00     0.146 A 
ATOM     11  O   UNL     1      33.584 -12.874   1.076  1.00  0.00    -0.456 OA
ENDROOT
BRANCH   1  12
ATOM     12  C   UNL     1      31.869 -14.544   0.700  1.00  0.00     0.021 A 
ATOM     13  C   UNL     1      31.865 -15.205  -0.541  1.00  0.00     0.016 A 
ATOM     14  C   UNL     1      30.664 -15.612  -1.125  1.00  0.00     0.051 A 
ATOM     15  C   UNL     1      29.445 -15.356  -0.485  1.00  0.00     0.157 A 
ATOM     16  C   UNL     1      30.638 -14.277   1.331  1.00  0.00     0.062 A 
ATOM     17  C   UNL     1      29.432 -14.685   0.743  1.00  0.00     0.158 A 
BRANCH  15  18
ATOM     18  O   UNL     1      28.244 -15.762  -1.065  1.00  0.00    -0.504 OA
ATOM     19  H   UNL     1      27.489 -16.144  -0.508  1.00  0.00     0.293 HD
ENDBRANCH  15  18
BRANCH  17  20
ATOM     20  O   UNL     1      28.216 -14.422   1.372  1.00  0.00    -0.504 OA
ATOM     21  H   UNL     1      27.700 -15.149   1.854  1.00  0.00     0.293 HD
ENDBRANCH  17  20
ENDBRANCH   1  12
BRANCH   6  22
ATOM     22  O   UNL     1      37.595 -13.256   3.827  1.00  0.00    -0.507 OA
ATOM     23  H   UNL     1      37.755 -14.252   3.855  1.00  0.00     0.293 HD
ENDBRANCH   6  22
BRANCH   8  24
ATOM     24  O   UNL     1      36.643  -9.234   1.417  1.00  0.00    -0.508 OA
ATOM     25  H   UNL     1      35.954  -8.500   1.296  1.00  0.00     0.293 HD
ENDBRANCH   8  24
TORSDOF 5
ENDMDL
