MODEL 1
REMARK VINA RESULT:    -4.755      0.000      0.000
REMARK INTER + INTRA:         -17.165
REMARK INTER:                 -12.538
REMARK INTRA:                  -4.626
REMARK UNBOUND:                -4.626
REMARK SMILES CCCCCCCCCCCCCCCCCCCCCCCCCCCCCC(=O)[O-]
REMARK SMILES IDX 16 1 17 2 18 3 19 4 20 5 21 6 22 7 23 8 24 9 25 10 26 11
REMARK SMILES IDX 27 12 28 13 29 14 30 15 31 16 32 17 15 18 14 19 13 20 12 21
REMARK SMILES IDX 11 22 10 23 9 24 8 25 7 26 6 27 5 28 4 29 3 30 2 31 1 32
REMARK H PARENT
REMARK Flexibility Score: inf
ROOT
ATOM      1  C   UNL     1       6.442   7.024  18.204  1.00  0.00     0.000 C 
ENDROOT
BRANCH   1   2
ATOM      2  C   UNL     1       6.301   5.684  18.952  1.00  0.00     0.000 C 
BRANCH   2   3
ATOM      3  C   UNL     1       7.635   4.932  19.144  1.00  0.00     0.000 C 
BRANCH   3   4
ATOM      4  C   UNL     1       7.438   3.438  19.458  1.00  0.00     0.000 C 
BRANCH   4   5
ATOM      5  C   UNL     1       5.951   3.072  19.604  1.00  0.00     0.000 C 
BRANCH   5   6
ATOM      6  C   UNL     1       5.535   2.897  21.074  1.00  0.00     0.000 C 
BRANCH   6   7
ATOM      7  C   UNL     1       4.410   3.854  21.499  1.00  0.00     0.000 C 
BRANCH   7   8
ATOM      8  C   UNL     1       4.871   4.972  22.460  1.00  0.00     0.000 C 
BRANCH   8   9
ATOM      9  C   UNL     1       6.386   4.918  22.723  1.00  0.00     0.000 C 
BRANCH   9  10
ATOM     10  C   UNL     1       7.053   6.302  22.681  1.00  0.00     0.000 C 
BRANCH  10  11
ATOM     11  C   UNL     1       6.137   7.381  22.076  1.00  0.00     0.000 C 
BRANCH  11  12
ATOM     12  C   UNL     1       6.928   8.533  21.435  1.00  0.00     0.000 C 
BRANCH  12  13
ATOM     13  C   UNL     1       7.352   9.599  22.462  1.00  0.00     0.006 C 
BRANCH  13  14
ATOM     14  C   UNL     1       7.402  11.006  21.854  1.00  0.00     0.053 C 
BRANCH  14  15
ATOM     15  C   UNL     1       6.418  11.931  22.504  1.00  0.00     0.041 C 
ATOM     16  O   UNL     1       6.027  12.965  21.901  1.00  0.00    -0.550 OA
ATOM     17  O   UNL     1       5.952  11.663  23.785  1.00  0.00    -0.550 OA
ENDBRANCH  14  15
ENDBRANCH  13  14
ENDBRANCH  12  13
ENDBRANCH  11  12
ENDBRANCH  10  11
ENDBRANCH   9  10
ENDBRANCH   8   9
ENDBRANCH   7   8
ENDBRANCH   6   7
ENDBRANCH   5   6
ENDBRANCH   4   5
ENDBRANCH   3   4
ENDBRANCH   2   3
ENDBRANCH   1   2
BRANCH   1  18
ATOM     18  C   UNL     1       6.361   6.932  16.669  1.00  0.00     0.000 C 
BRANCH  18  19
ATOM     19  C   UNL     1       5.656   5.674  16.127  1.00  0.00     0.000 C 
BRANCH  19  20
ATOM     20  C   UNL     1       6.508   4.902  15.110  1.00  0.00     0.000 C 
BRANCH  20  21
ATOM     21  C   UNL     1       8.005   5.017  15.444  1.00  0.00     0.000 C 
BRANCH  21  22
ATOM     22  C   UNL     1       8.846   3.930  14.757  1.00  0.00     0.000 C 
BRANCH  22  23
ATOM     23  C   UNL     1       8.399   3.663  13.312  1.00  0.00     0.000 C 
BRANCH  23  24
ATOM     24  C   UNL     1       9.437   4.185  12.313  1.00  0.00    -0.000 C 
BRANCH  24  25
ATOM     25  C   UNL     1       9.231   5.681  12.028  1.00  0.00    -0.000 C 
BRANCH  25  26
ATOM     26  C   UNL     1      10.432   6.541  12.481  1.00  0.00    -0.000 C 
BRANCH  26  27
ATOM     27  C   UNL     1      11.691   5.723  12.833  1.00  0.00    -0.000 C 
BRANCH  27  28
ATOM     28  C   UNL     1      12.054   5.698  14.328  1.00  0.00    -0.000 C 
BRANCH  28  29
ATOM     29  C   UNL     1      11.264   6.736  15.148  1.00  0.00    -0.000 C 
BRANCH  29  30
ATOM     30  C   UNL     1      11.635   6.709  16.640  1.00  0.00    -0.000 C 
BRANCH  30  31
ATOM     31  C   UNL     1      11.115   5.450  17.352  1.00  0.00    -0.003 C 
ATOM     32  C   UNL     1      11.281   5.565  18.865  1.00  0.00     0.004 C 
ENDBRANCH  30  31
ENDBRANCH  29  30
ENDBRANCH  28  29
ENDBRANCH  27  28
ENDBRANCH  26  27
ENDBRANCH  25  26
ENDBRANCH  24  25
ENDBRANCH  23  24
ENDBRANCH  22  23
ENDBRANCH  21  22
ENDBRANCH  20  21
ENDBRANCH  19  20
ENDBRANCH  18  19
ENDBRANCH   1  18
TORSDOF 28
ENDMDL
MODEL 2
REMARK VINA RESULT:    -4.715      1.186      2.937
REMARK INTER + INTRA:         -17.059
REMARK INTER:                 -11.284
REMARK INTRA:                  -5.775
REMARK UNBOUND:                -4.626
REMARK SMILES CCCCCCCCCCCCCCCCCCCCCCCCCCCCCC(=O)[O-]
REMARK SMILES IDX 16 1 17 2 18 3 19 4 20 5 21 6 22 7 23 8 24 9 25 10 26 11
REMARK SMILES IDX 27 12 28 13 29 14 30 15 31 16 32 17 15 18 14 19 13 20 12 21
REMARK SMILES IDX 11 22 10 23 9 24 8 25 7 26 6 27 5 28 4 29 3 30 2 31 1 32
REMARK H PARENT
REMARK Flexibility Score: inf
ROOT
ATOM      1  C   UNL     1       6.382   6.326  18.616  1.00  0.00     0.000 C 
ENDROOT
BRANCH   1   2
ATOM      2  C   UNL     1       7.635   5.615  19.165  1.00  0.00     0.000 C 
BRANCH   2   3
ATOM      3  C   UNL     1       7.496   4.080  19.251  1.00  0.00     0.000 C 
BRANCH   3   4
ATOM      4  C   UNL     1       6.029   3.613  19.261  1.00  0.00     0.000 C 
BRANCH   4   5
ATOM      5  C   UNL     1       5.586   3.140  20.657  1.00  0.00     0.000 C 
BRANCH   5   6
ATOM      6  C   UNL     1       4.464   4.015  21.239  1.00  0.00     0.000 C 
BRANCH   6   7
ATOM      7  C   UNL     1       4.828   4.635  22.598  1.00  0.00     0.000 C 
BRANCH   7   8
ATOM      8  C   UNL     1       5.687   5.914  22.491  1.00  0.00     0.000 C 
BRANCH   8   9
ATOM      9  C   UNL     1       6.922   5.858  23.408  1.00  0.00     0.000 C 
BRANCH   9  10
ATOM     10  C   UNL     1       8.204   5.455  22.662  1.00  0.00     0.000 C 
BRANCH  10  11
ATOM     11  C   UNL     1       9.312   6.517  22.777  1.00  0.00     0.000 C 
BRANCH  11  12
ATOM     12  C   UNL     1       9.206   7.599  21.692  1.00  0.00     0.000 C 
BRANCH  12  13
ATOM     13  C   UNL     1       8.707   8.945  22.248  1.00  0.00     0.006 C 
BRANCH  13  14
ATOM     14  C   UNL     1       7.256   9.241  21.845  1.00  0.00     0.053 C 
BRANCH  14  15
ATOM     15  C   UNL     1       6.402   9.568  23.031  1.00  0.00     0.041 C 
ATOM     16  O   UNL     1       6.810   9.313  24.194  1.00  0.00    -0.550 OA
ATOM     17  O   UNL     1       5.145  10.132  22.850  1.00  0.00    -0.550 OA
ENDBRANCH  14  15
ENDBRANCH  13  14
ENDBRANCH  12  13
ENDBRANCH  11  12
ENDBRANCH  10  11
ENDBRANCH   9  10
ENDBRANCH   8   9
ENDBRANCH   7   8
ENDBRANCH   6   7
ENDBRANCH   5   6
ENDBRANCH   4   5
ENDBRANCH   3   4
ENDBRANCH   2   3
ENDBRANCH   1   2
BRANCH   1  18
ATOM     18  C   UNL     1       6.437   6.696  17.122  1.00  0.00     0.000 C 
BRANCH  18  19
ATOM     19  C   UNL     1       5.651   5.757  16.188  1.00  0.00     0.000 C 
BRANCH  19  20
ATOM     20  C   UNL     1       6.555   4.982  15.218  1.00  0.00     0.000 C 
BRANCH  20  21
ATOM     21  C   UNL     1       8.034   5.345  15.435  1.00  0.00     0.000 C 
BRANCH  21  22
ATOM     22  C   UNL     1       8.880   4.134  15.860  1.00  0.00     0.000 C 
BRANCH  22  23
ATOM     23  C   UNL     1      10.314   4.523  16.248  1.00  0.00     0.000 C 
BRANCH  23  24
ATOM     24  C   UNL     1      10.403   6.016  16.584  1.00  0.00    -0.000 C 
BRANCH  24  25
ATOM     25  C   UNL     1      11.396   6.735  15.658  1.00  0.00    -0.000 C 
BRANCH  25  26
ATOM     26  C   UNL     1      12.145   5.760  14.723  1.00  0.00    -0.000 C 
BRANCH  26  27
ATOM     27  C   UNL     1      11.796   5.929  13.230  1.00  0.00    -0.000 C 
BRANCH  27  28
ATOM     28  C   UNL     1      10.541   6.772  12.946  1.00  0.00    -0.000 C 
BRANCH  28  29
ATOM     29  C   UNL     1       9.514   6.031  12.069  1.00  0.00    -0.000 C 
BRANCH  29  30
ATOM     30  C   UNL     1       9.637   4.503  12.184  1.00  0.00    -0.000 C 
BRANCH  30  31
ATOM     31  C   UNL     1       8.290   3.789  11.994  1.00  0.00    -0.003 C 
ATOM     32  C   UNL     1       8.268   2.451  12.728  1.00  0.00     0.004 C 
ENDBRANCH  30  31
ENDBRANCH  29  30
ENDBRANCH  28  29
ENDBRANCH  27  28
ENDBRANCH  26  27
ENDBRANCH  25  26
ENDBRANCH  24  25
ENDBRANCH  23  24
ENDBRANCH  22  23
ENDBRANCH  21  22
ENDBRANCH  20  21
ENDBRANCH  19  20
ENDBRANCH  18  19
ENDBRANCH   1  18
TORSDOF 28
ENDMDL
MODEL 3
REMARK VINA RESULT:    -4.704      1.506      2.869
REMARK INTER + INTRA:         -17.031
REMARK INTER:                 -11.838
REMARK INTRA:                  -5.193
REMARK UNBOUND:                -4.626
REMARK SMILES CCCCCCCCCCCCCCCCCCCCCCCCCCCCCC(=O)[O-]
REMARK SMILES IDX 16 1 17 2 18 3 19 4 20 5 21 6 22 7 23 8 24 9 25 10 26 11
REMARK SMILES IDX 27 12 28 13 29 14 30 15 31 16 32 17 15 18 14 19 13 20 12 21
REMARK SMILES IDX 11 22 10 23 9 24 8 25 7 26 6 27 5 28 4 29 3 30 2 31 1 32
REMARK H PARENT
REMARK Flexibility Score: inf
ROOT
ATOM      1  C   UNL     1       6.348   7.539  18.501  1.00  0.00     0.000 C 
ENDROOT
BRANCH   1   2
ATOM      2  C   UNL     1       6.282   6.201  19.261  1.00  0.00     0.000 C 
BRANCH   2   3
ATOM      3  C   UNL     1       7.661   5.549  19.500  1.00  0.00     0.000 C 
BRANCH   3   4
ATOM      4  C   UNL     1       7.624   4.015  19.384  1.00  0.00     0.000 C 
BRANCH   4   5
ATOM      5  C   UNL     1       6.186   3.483  19.238  1.00  0.00     0.000 C 
BRANCH   5   6
ATOM      6  C   UNL     1       5.944   2.221  20.082  1.00  0.00     0.000 C 
BRANCH   6   7
ATOM      7  C   UNL     1       5.392   2.531  21.484  1.00  0.00     0.000 C 
BRANCH   7   8
ATOM      8  C   UNL     1       4.535   3.814  21.548  1.00  0.00     0.000 C 
BRANCH   8   9
ATOM      9  C   UNL     1       4.774   4.604  22.846  1.00  0.00     0.000 C 
BRANCH   9  10
ATOM     10  C   UNL     1       6.135   5.317  22.872  1.00  0.00     0.000 C 
BRANCH  10  11
ATOM     11  C   UNL     1       6.028   6.778  23.345  1.00  0.00     0.000 C 
BRANCH  11  12
ATOM     12  C   UNL     1       5.687   7.744  22.200  1.00  0.00     0.000 C 
BRANCH  12  13
ATOM     13  C   UNL     1       6.734   8.861  22.041  1.00  0.00     0.006 C 
BRANCH  13  14
ATOM     14  C   UNL     1       8.057   8.524  22.741  1.00  0.00     0.053 C 
BRANCH  14  15
ATOM     15  C   UNL     1       8.737   9.749  23.272  1.00  0.00     0.041 C 
ATOM     16  O   UNL     1       8.929  10.741  22.521  1.00  0.00    -0.550 OA
ATOM     17  O   UNL     1       9.181   9.784  24.588  1.00  0.00    -0.550 OA
ENDBRANCH  14  15
ENDBRANCH  13  14
ENDBRANCH  12  13
ENDBRANCH  11  12
ENDBRANCH  10  11
ENDBRANCH   9  10
ENDBRANCH   8   9
ENDBRANCH   7   8
ENDBRANCH   6   7
ENDBRANCH   5   6
ENDBRANCH   4   5
ENDBRANCH   3   4
ENDBRANCH   2   3
ENDBRANCH   1   2
BRANCH   1  18
ATOM     18  C   UNL     1       6.316   7.425  16.965  1.00  0.00     0.000 C 
BRANCH  18  19
ATOM     19  C   UNL     1       5.878   6.052  16.422  1.00  0.00     0.000 C 
BRANCH  19  20
ATOM     20  C   UNL     1       7.018   5.291  15.730  1.00  0.00     0.000 C 
BRANCH  20  21
ATOM     21  C   UNL     1       8.311   6.123  15.720  1.00  0.00     0.000 C 
BRANCH  21  22
ATOM     22  C   UNL     1       9.527   5.325  16.217  1.00  0.00     0.000 C 
BRANCH  22  23
ATOM     23  C   UNL     1      10.859   5.922  15.740  1.00  0.00     0.000 C 
BRANCH  23  24
ATOM     24  C   UNL     1      10.675   6.687  14.424  1.00  0.00    -0.000 C 
BRANCH  24  25
ATOM     25  C   UNL     1      11.599   6.134  13.327  1.00  0.00    -0.000 C 
BRANCH  25  26
ATOM     26  C   UNL     1      10.849   5.865  12.004  1.00  0.00    -0.000 C 
BRANCH  26  27
ATOM     27  C   UNL     1       9.316   5.785  12.155  1.00  0.00    -0.000 C 
BRANCH  27  28
ATOM     28  C   UNL     1       8.691   4.441  11.747  1.00  0.00    -0.000 C 
BRANCH  28  29
ATOM     29  C   UNL     1       8.086   3.680  12.942  1.00  0.00    -0.000 C 
BRANCH  29  30
ATOM     30  C   UNL     1       8.685   2.274  13.107  1.00  0.00    -0.000 C 
BRANCH  30  31
ATOM     31  C   UNL     1      10.207   2.256  12.894  1.00  0.00    -0.003 C 
ATOM     32  C   UNL     1      10.949   2.503  14.205  1.00  0.00     0.004 C 
ENDBRANCH  30  31
ENDBRANCH  29  30
ENDBRANCH  28  29
ENDBRANCH  27  28
ENDBRANCH  26  27
ENDBRANCH  25  26
ENDBRANCH  24  25
ENDBRANCH  23  24
ENDBRANCH  22  23
ENDBRANCH  21  22
ENDBRANCH  20  21
ENDBRANCH  19  20
ENDBRANCH  18  19
ENDBRANCH   1  18
TORSDOF 28
ENDMDL
MODEL 4
REMARK VINA RESULT:    -4.596      2.462      8.280
REMARK INTER + INTRA:         -16.744
REMARK INTER:                 -11.946
REMARK INTRA:                  -4.798
REMARK UNBOUND:                -4.626
REMARK SMILES CCCCCCCCCCCCCCCCCCCCCCCCCCCCCC(=O)[O-]
REMARK SMILES IDX 16 1 17 2 18 3 19 4 20 5 21 6 22 7 23 8 24 9 25 10 26 11
REMARK SMILES IDX 27 12 28 13 29 14 30 15 31 16 32 17 15 18 14 19 13 20 12 21
REMARK SMILES IDX 11 22 10 23 9 24 8 25 7 26 6 27 5 28 4 29 3 30 2 31 1 32
REMARK H PARENT
REMARK Flexibility Score: inf
ROOT
ATOM      1  C   UNL     1       6.381   6.168  18.001  1.00  0.00     0.000 C 
ENDROOT
BRANCH   1   2
ATOM      2  C   UNL     1       6.128   6.307  16.487  1.00  0.00     0.000 C 
BRANCH   2   3
ATOM      3  C   UNL     1       6.482   5.043  15.675  1.00  0.00     0.000 C 
BRANCH   3   4
ATOM      4  C   UNL     1       7.869   5.127  15.014  1.00  0.00     0.000 C 
BRANCH   4   5
ATOM      5  C   UNL     1       8.300   3.780  14.408  1.00  0.00     0.000 C 
BRANCH   5   6
ATOM      6  C   UNL     1       9.291   3.954  13.246  1.00  0.00     0.000 C 
BRANCH   6   7
ATOM      7  C   UNL     1       8.902   5.094  12.290  1.00  0.00     0.000 C 
BRANCH   7   8
ATOM      8  C   UNL     1      10.023   6.133  12.069  1.00  0.00     0.000 C 
BRANCH   8   9
ATOM      9  C   UNL     1      11.016   6.169  13.243  1.00  0.00     0.000 C 
BRANCH   9  10
ATOM     10  C   UNL     1      10.630   7.187  14.327  1.00  0.00     0.000 C 
BRANCH  10  11
ATOM     11  C   UNL     1      11.165   6.804  15.717  1.00  0.00     0.000 C 
BRANCH  11  12
ATOM     12  C   UNL     1      11.730   5.375  15.757  1.00  0.00     0.000 C 
BRANCH  12  13
ATOM     13  C   UNL     1      11.107   4.526  16.880  1.00  0.00     0.006 C 
BRANCH  13  14
ATOM     14  C   UNL     1      10.321   5.377  17.887  1.00  0.00     0.053 C 
BRANCH  14  15
ATOM     15  C   UNL     1      10.999   5.432  19.221  1.00  0.00     0.041 C 
ATOM     16  O   UNL     1      11.620   6.470  19.574  1.00  0.00    -0.550 OA
ATOM     17  O   UNL     1      10.968   4.329  20.065  1.00  0.00    -0.550 OA
ENDBRANCH  14  15
ENDBRANCH  13  14
ENDBRANCH  12  13
ENDBRANCH  11  12
ENDBRANCH  10  11
ENDBRANCH   9  10
ENDBRANCH   8   9
ENDBRANCH   7   8
ENDBRANCH   6   7
ENDBRANCH   5   6
ENDBRANCH   4   5
ENDBRANCH   3   4
ENDBRANCH   2   3
ENDBRANCH   1   2
BRANCH   1  18
ATOM     18  C   UNL     1       6.278   4.735  18.556  1.00  0.00     0.000 C 
BRANCH  18  19
ATOM     19  C   UNL     1       7.387   4.338  19.549  1.00  0.00     0.000 C 
BRANCH  19  20
ATOM     20  C   UNL     1       7.299   2.869  19.988  1.00  0.00     0.000 C 
BRANCH  20  21
ATOM     21  C   UNL     1       5.835   2.414  20.098  1.00  0.00     0.000 C 
BRANCH  21  22
ATOM     22  C   UNL     1       5.365   2.294  21.557  1.00  0.00     0.000 C 
BRANCH  22  23
ATOM     23  C   UNL     1       4.570   3.521  22.024  1.00  0.00     0.000 C 
BRANCH  23  24
ATOM     24  C   UNL     1       5.251   4.191  23.223  1.00  0.00    -0.000 C 
BRANCH  24  25
ATOM     25  C   UNL     1       5.747   5.600  22.864  1.00  0.00    -0.000 C 
BRANCH  25  26
ATOM     26  C   UNL     1       5.031   6.181  21.625  1.00  0.00    -0.000 C 
BRANCH  26  27
ATOM     27  C   UNL     1       5.384   7.653  21.327  1.00  0.00    -0.000 C 
BRANCH  27  28
ATOM     28  C   UNL     1       6.883   7.935  21.129  1.00  0.00    -0.000 C 
BRANCH  28  29
ATOM     29  C   UNL     1       7.479   8.800  22.256  1.00  0.00    -0.000 C 
BRANCH  29  30
ATOM     30  C   UNL     1       6.401   9.560  23.045  1.00  0.00    -0.000 C 
BRANCH  30  31
ATOM     31  C   UNL     1       6.364  11.056  22.700  1.00  0.00    -0.003 C 
ATOM     32  C   UNL     1       7.710  11.529  22.157  1.00  0.00     0.004 C 
ENDBRANCH  30  31
ENDBRANCH  29  30
ENDBRANCH  28  29
ENDBRANCH  27  28
ENDBRANCH  26  27
ENDBRANCH  25  26
ENDBRANCH  24  25
ENDBRANCH  23  24
ENDBRANCH  22  23
ENDBRANCH  21  22
ENDBRANCH  20  21
ENDBRANCH  19  20
ENDBRANCH  18  19
ENDBRANCH   1  18
TORSDOF 28
ENDMDL
MODEL 5
REMARK VINA RESULT:    -4.592      1.960      4.801
REMARK INTER + INTRA:         -16.734
REMARK INTER:                 -10.707
REMARK INTRA:                  -6.027
REMARK UNBOUND:                -4.626
REMARK SMILES CCCCCCCCCCCCCCCCCCCCCCCCCCCCCC(=O)[O-]
REMARK SMILES IDX 16 1 17 2 18 3 19 4 20 5 21 6 22 7 23 8 24 9 25 10 26 11
REMARK SMILES IDX 27 12 28 13 29 14 30 15 31 16 32 17 15 18 14 19 13 20 12 21
REMARK SMILES IDX 11 22 10 23 9 24 8 25 7 26 6 27 5 28 4 29 3 30 2 31 1 32
REMARK H PARENT
REMARK Flexibility Score: inf
ROOT
ATOM      1  C   UNL     1       5.538   5.113  23.365  1.00  0.00     0.000 C 
ENDROOT
BRANCH   1   2
ATOM      2  C   UNL     1       4.686   3.862  23.076  1.00  0.00     0.000 C 
BRANCH   2   3
ATOM      3  C   UNL     1       4.542   3.536  21.574  1.00  0.00     0.000 C 
BRANCH   3   4
ATOM      4  C   UNL     1       5.503   2.428  21.109  1.00  0.00     0.000 C 
BRANCH   4   5
ATOM      5  C   UNL     1       6.139   2.752  19.745  1.00  0.00     0.000 C 
BRANCH   5   6
ATOM      6  C   UNL     1       6.059   4.249  19.406  1.00  0.00     0.000 C 
BRANCH   6   7
ATOM      7  C   UNL     1       7.424   4.955  19.473  1.00  0.00     0.000 C 
BRANCH   7   8
ATOM      8  C   UNL     1       7.355   6.398  20.019  1.00  0.00     0.000 C 
BRANCH   8   9
ATOM      9  C   UNL     1       5.913   6.818  20.359  1.00  0.00     0.000 C 
BRANCH   9  10
ATOM     10  C   UNL     1       5.848   8.037  21.291  1.00  0.00     0.000 C 
BRANCH  10  11
ATOM     11  C   UNL     1       7.169   8.279  22.042  1.00  0.00     0.000 C 
BRANCH  11  12
ATOM     12  C   UNL     1       7.861   9.583  21.612  1.00  0.00     0.000 C 
BRANCH  12  13
ATOM     13  C   UNL     1       7.724  10.698  22.665  1.00  0.00     0.006 C 
BRANCH  13  14
ATOM     14  C   UNL     1       6.420  11.492  22.507  1.00  0.00     0.053 C 
BRANCH  14  15
ATOM     15  C   UNL     1       5.481  11.257  23.650  1.00  0.00     0.041 C 
ATOM     16  O   UNL     1       5.727  11.751  24.783  1.00  0.00    -0.550 OA
ATOM     17  O   UNL     1       4.349  10.472  23.472  1.00  0.00    -0.550 OA
ENDBRANCH  14  15
ENDBRANCH  13  14
ENDBRANCH  12  13
ENDBRANCH  11  12
ENDBRANCH  10  11
ENDBRANCH   9  10
ENDBRANCH   8   9
ENDBRANCH   7   8
ENDBRANCH   6   7
ENDBRANCH   5   6
ENDBRANCH   4   5
ENDBRANCH   3   4
ENDBRANCH   2   3
ENDBRANCH   1   2
BRANCH   1  18
ATOM     18  C   UNL     1       6.902   4.841  24.028  1.00  0.00     0.000 C 
BRANCH  18  19
ATOM     19  C   UNL     1       8.023   4.414  23.062  1.00  0.00     0.000 C 
BRANCH  19  20
ATOM     20  C   UNL     1       8.404   2.934  23.204  1.00  0.00     0.000 C 
BRANCH  20  21
ATOM     21  C   UNL     1       9.155   2.435  21.959  1.00  0.00     0.000 C 
BRANCH  21  22
ATOM     22  C   UNL     1      10.119   3.490  21.392  1.00  0.00     0.000 C 
BRANCH  22  23
ATOM     23  C   UNL     1      10.745   3.061  20.057  1.00  0.00     0.000 C 
BRANCH  23  24
ATOM     24  C   UNL     1       9.786   2.160  19.268  1.00  0.00    -0.000 C 
BRANCH  24  25
ATOM     25  C   UNL     1       9.647   2.636  17.814  1.00  0.00    -0.000 C 
BRANCH  25  26
ATOM     26  C   UNL     1      10.505   3.886  17.516  1.00  0.00    -0.000 C 
BRANCH  26  27
ATOM     27  C   UNL     1      10.007   4.718  16.316  1.00  0.00    -0.000 C 
BRANCH  27  28
ATOM     28  C   UNL     1       9.057   3.977  15.360  1.00  0.00    -0.000 C 
BRANCH  28  29
ATOM     29  C   UNL     1       7.728   4.725  15.145  1.00  0.00    -0.000 C 
BRANCH  29  30
ATOM     30  C   UNL     1       7.682   6.067  15.892  1.00  0.00    -0.000 C 
BRANCH  30  31
ATOM     31  C   UNL     1       6.262   6.438  16.349  1.00  0.00    -0.003 C 
ATOM     32  C   UNL     1       6.197   7.887  16.821  1.00  0.00     0.004 C 
ENDBRANCH  30  31
ENDBRANCH  29  30
ENDBRANCH  28  29
ENDBRANCH  27  28
ENDBRANCH  26  27
ENDBRANCH  25  26
ENDBRANCH  24  25
ENDBRANCH  23  24
ENDBRANCH  22  23
ENDBRANCH  21  22
ENDBRANCH  20  21
ENDBRANCH  19  20
ENDBRANCH  18  19
ENDBRANCH   1  18
TORSDOF 28
ENDMDL
MODEL 6
REMARK VINA RESULT:    -4.585      1.642      4.072
REMARK INTER + INTRA:         -16.716
REMARK INTER:                 -11.099
REMARK INTRA:                  -5.617
REMARK UNBOUND:                -4.626
REMARK SMILES CCCCCCCCCCCCCCCCCCCCCCCCCCCCCC(=O)[O-]
REMARK SMILES IDX 16 1 17 2 18 3 19 4 20 5 21 6 22 7 23 8 24 9 25 10 26 11
REMARK SMILES IDX 27 12 28 13 29 14 30 15 31 16 32 17 15 18 14 19 13 20 12 21
REMARK SMILES IDX 11 22 10 23 9 24 8 25 7 26 6 27 5 28 4 29 3 30 2 31 1 32
REMARK H PARENT
REMARK Flexibility Score: inf
ROOT
ATOM      1  C   UNL     1       6.266   2.118  20.309  1.00  0.00     0.000 C 
ENDROOT
BRANCH   1   2
ATOM      2  C   UNL     1       5.225   2.373  21.416  1.00  0.00     0.000 C 
BRANCH   2   3
ATOM      3  C   UNL     1       4.577   3.772  21.356  1.00  0.00     0.000 C 
BRANCH   3   4
ATOM      4  C   UNL     1       4.628   4.513  22.704  1.00  0.00     0.000 C 
BRANCH   4   5
ATOM      5  C   UNL     1       4.319   3.577  23.886  1.00  0.00     0.000 C 
BRANCH   5   6
ATOM      6  C   UNL     1       5.192   3.882  25.114  1.00  0.00     0.000 C 
BRANCH   6   7
ATOM      7  C   UNL     1       6.153   2.736  25.469  1.00  0.00     0.000 C 
BRANCH   7   8
ATOM      8  C   UNL     1       7.630   3.031  25.126  1.00  0.00     0.000 C 
BRANCH   8   9
ATOM      9  C   UNL     1       7.937   2.785  23.638  1.00  0.00     0.000 C 
BRANCH   9  10
ATOM     10  C   UNL     1       8.520   4.019  22.934  1.00  0.00     0.000 C 
BRANCH  10  11
ATOM     11  C   UNL     1       8.236   5.325  23.698  1.00  0.00     0.000 C 
BRANCH  11  12
ATOM     12  C   UNL     1       8.322   6.566  22.796  1.00  0.00     0.000 C 
BRANCH  12  13
ATOM     13  C   UNL     1       6.942   7.193  22.523  1.00  0.00     0.006 C 
BRANCH  13  14
ATOM     14  C   UNL     1       7.046   8.520  21.759  1.00  0.00     0.053 C 
BRANCH  14  15
ATOM     15  C   UNL     1       7.785   9.560  22.544  1.00  0.00     0.041 C 
ATOM     16  O   UNL     1       8.853  10.052  22.094  1.00  0.00    -0.550 OA
ATOM     17  O   UNL     1       7.309   9.966  23.785  1.00  0.00    -0.550 OA
ENDBRANCH  14  15
ENDBRANCH  13  14
ENDBRANCH  12  13
ENDBRANCH  11  12
ENDBRANCH  10  11
ENDBRANCH   9  10
ENDBRANCH   8   9
ENDBRANCH   7   8
ENDBRANCH   6   7
ENDBRANCH   5   6
ENDBRANCH   4   5
ENDBRANCH   3   4
ENDBRANCH   2   3
ENDBRANCH   1   2
BRANCH   1  18
ATOM     18  C   UNL     1       6.528   3.307  19.366  1.00  0.00     0.000 C 
BRANCH  18  19
ATOM     19  C   UNL     1       7.900   3.985  19.536  1.00  0.00     0.000 C 
BRANCH  19  20
ATOM     20  C   UNL     1       7.840   5.509  19.357  1.00  0.00     0.000 C 
BRANCH  20  21
ATOM     21  C   UNL     1       6.439   5.957  18.910  1.00  0.00     0.000 C 
BRANCH  21  22
ATOM     22  C   UNL     1       6.445   7.354  18.268  1.00  0.00     0.000 C 
BRANCH  22  23
ATOM     23  C   UNL     1       6.297   7.303  16.741  1.00  0.00     0.000 C 
BRANCH  23  24
ATOM     24  C   UNL     1       6.309   5.854  16.239  1.00  0.00    -0.000 C 
BRANCH  24  25
ATOM     25  C   UNL     1       7.530   5.585  15.346  1.00  0.00    -0.000 C 
BRANCH  25  26
ATOM     26  C   UNL     1       8.392   4.411  15.860  1.00  0.00    -0.000 C 
BRANCH  26  27
ATOM     27  C   UNL     1       9.910   4.678  15.812  1.00  0.00    -0.000 C 
BRANCH  27  28
ATOM     28  C   UNL     1      10.353   6.026  16.405  1.00  0.00    -0.000 C 
BRANCH  28  29
ATOM     29  C   UNL     1      10.773   7.041  15.325  1.00  0.00    -0.000 C 
BRANCH  29  30
ATOM     30  C   UNL     1      11.151   6.363  13.997  1.00  0.00    -0.000 C 
BRANCH  30  31
ATOM     31  C   UNL     1      10.305   6.869  12.818  1.00  0.00    -0.003 C 
ATOM     32  C   UNL     1       9.567   5.720  12.137  1.00  0.00     0.004 C 
ENDBRANCH  30  31
ENDBRANCH  29  30
ENDBRANCH  28  29
ENDBRANCH  27  28
ENDBRANCH  26  27
ENDBRANCH  25  26
ENDBRANCH  24  25
ENDBRANCH  23  24
ENDBRANCH  22  23
ENDBRANCH  21  22
ENDBRANCH  20  21
ENDBRANCH  19  20
ENDBRANCH  18  19
ENDBRANCH   1  18
TORSDOF 28
ENDMDL
MODEL 7
REMARK VINA RESULT:    -4.575      1.130      2.929
REMARK INTER + INTRA:         -16.691
REMARK INTER:                 -11.873
REMARK INTRA:                  -4.817
REMARK UNBOUND:                -4.626
REMARK SMILES CCCCCCCCCCCCCCCCCCCCCCCCCCCCCC(=O)[O-]
REMARK SMILES IDX 16 1 17 2 18 3 19 4 20 5 21 6 22 7 23 8 24 9 25 10 26 11
REMARK SMILES IDX 27 12 28 13 29 14 30 15 31 16 32 17 15 18 14 19 13 20 12 21
REMARK SMILES IDX 11 22 10 23 9 24 8 25 7 26 6 27 5 28 4 29 3 30 2 31 1 32
REMARK H PARENT
REMARK Flexibility Score: inf
ROOT
ATOM      1  C   UNL     1       7.550   5.191  19.616  1.00  0.00     0.000 C 
ENDROOT
BRANCH   1   2
ATOM      2  C   UNL     1       7.598   3.668  19.849  1.00  0.00     0.000 C 
BRANCH   2   3
ATOM      3  C   UNL     1       6.239   2.963  19.650  1.00  0.00     0.000 C 
BRANCH   3   4
ATOM      4  C   UNL     1       5.636   2.447  20.968  1.00  0.00     0.000 C 
BRANCH   4   5
ATOM      5  C   UNL     1       4.554   3.395  21.515  1.00  0.00     0.000 C 
BRANCH   5   6
ATOM      6  C   UNL     1       4.620   3.534  23.045  1.00  0.00     0.000 C 
BRANCH   6   7
ATOM      7  C   UNL     1       6.014   3.940  23.552  1.00  0.00     0.000 C 
BRANCH   7   8
ATOM      8  C   UNL     1       6.068   5.357  24.164  1.00  0.00     0.000 C 
BRANCH   8   9
ATOM      9  C   UNL     1       6.640   6.390  23.176  1.00  0.00     0.000 C 
BRANCH   9  10
ATOM     10  C   UNL     1       5.598   6.895  22.166  1.00  0.00     0.000 C 
BRANCH  10  11
ATOM     11  C   UNL     1       5.922   8.303  21.637  1.00  0.00     0.000 C 
BRANCH  11  12
ATOM     12  C   UNL     1       7.400   8.678  21.827  1.00  0.00     0.000 C 
BRANCH  12  13
ATOM     13  C   UNL     1       7.645  10.193  21.697  1.00  0.00     0.006 C 
BRANCH  13  14
ATOM     14  C   UNL     1       7.238  10.959  22.963  1.00  0.00     0.053 C 
BRANCH  14  15
ATOM     15  C   UNL     1       6.028  11.812  22.734  1.00  0.00     0.041 C 
ATOM     16  O   UNL     1       6.080  12.782  21.933  1.00  0.00    -0.550 OA
ATOM     17  O   UNL     1       4.851  11.552  23.425  1.00  0.00    -0.550 OA
ENDBRANCH  14  15
ENDBRANCH  13  14
ENDBRANCH  12  13
ENDBRANCH  11  12
ENDBRANCH  10  11
ENDBRANCH   9  10
ENDBRANCH   8   9
ENDBRANCH   7   8
ENDBRANCH   6   7
ENDBRANCH   5   6
ENDBRANCH   4   5
ENDBRANCH   3   4
ENDBRANCH   2   3
ENDBRANCH   1   2
BRANCH   1  18
ATOM     18  C   UNL     1       6.253   5.718  18.974  1.00  0.00     0.000 C 
BRANCH  18  19
ATOM     19  C   UNL     1       6.371   7.102  18.307  1.00  0.00     0.000 C 
BRANCH  19  20
ATOM     20  C   UNL     1       6.171   7.051  16.785  1.00  0.00     0.000 C 
BRANCH  20  21
ATOM     21  C   UNL     1       6.005   5.602  16.299  1.00  0.00     0.000 C 
BRANCH  21  22
ATOM     22  C   UNL     1       7.171   5.142  15.410  1.00  0.00     0.000 C 
BRANCH  22  23
ATOM     23  C   UNL     1       8.424   6.014  15.581  1.00  0.00     0.000 C 
BRANCH  23  24
ATOM     24  C   UNL     1       9.446   5.328  16.495  1.00  0.00    -0.000 C 
BRANCH  24  25
ATOM     25  C   UNL     1       9.596   3.840  16.141  1.00  0.00    -0.000 C 
BRANCH  25  26
ATOM     26  C   UNL     1      10.957   3.523  15.484  1.00  0.00    -0.000 C 
BRANCH  26  27
ATOM     27  C   UNL     1      11.860   4.757  15.282  1.00  0.00    -0.000 C 
BRANCH  27  28
ATOM     28  C   UNL     1      12.066   5.181  13.818  1.00  0.00    -0.000 C 
BRANCH  28  29
ATOM     29  C   UNL     1      11.184   6.379  13.416  1.00  0.00    -0.000 C 
BRANCH  29  30
ATOM     30  C   UNL     1      10.288   6.067  12.207  1.00  0.00    -0.000 C 
BRANCH  30  31
ATOM     31  C   UNL     1      10.026   4.562  12.040  1.00  0.00    -0.003 C 
ATOM     32  C   UNL     1       8.543   4.240  12.202  1.00  0.00     0.004 C 
ENDBRANCH  30  31
ENDBRANCH  29  30
ENDBRANCH  28  29
ENDBRANCH  27  28
ENDBRANCH  26  27
ENDBRANCH  25  26
ENDBRANCH  24  25
ENDBRANCH  23  24
ENDBRANCH  22  23
ENDBRANCH  21  22
ENDBRANCH  20  21
ENDBRANCH  19  20
ENDBRANCH  18  19
ENDBRANCH   1  18
TORSDOF 28
ENDMDL
MODEL 8
REMARK VINA RESULT:    -4.566      1.265      2.946
REMARK INTER + INTRA:         -16.667
REMARK INTER:                 -11.731
REMARK INTRA:                  -4.935
REMARK UNBOUND:                -4.626
REMARK SMILES CCCCCCCCCCCCCCCCCCCCCCCCCCCCCC(=O)[O-]
REMARK SMILES IDX 16 1 17 2 18 3 19 4 20 5 21 6 22 7 23 8 24 9 25 10 26 11
REMARK SMILES IDX 27 12 28 13 29 14 30 15 31 16 32 17 15 18 14 19 13 20 12 21
REMARK SMILES IDX 11 22 10 23 9 24 8 25 7 26 6 27 5 28 4 29 3 30 2 31 1 32
REMARK H PARENT
REMARK Flexibility Score: inf
ROOT
ATOM      1  C   UNL     1       8.249   5.163  19.786  1.00  0.00     0.000 C 
ENDROOT
BRANCH   1   2
ATOM      2  C   UNL     1       8.450   4.351  21.081  1.00  0.00     0.000 C 
BRANCH   2   3
ATOM      3  C   UNL     1       8.146   2.846  20.929  1.00  0.00     0.000 C 
BRANCH   3   4
ATOM      4  C   UNL     1       6.921   2.571  20.039  1.00  0.00     0.000 C 
BRANCH   4   5
ATOM      5  C   UNL     1       5.620   2.489  20.858  1.00  0.00     0.000 C 
BRANCH   5   6
ATOM      6  C   UNL     1       4.799   3.786  20.778  1.00  0.00     0.000 C 
BRANCH   6   7
ATOM      7  C   UNL     1       4.508   4.400  22.157  1.00  0.00     0.000 C 
BRANCH   7   8
ATOM      8  C   UNL     1       5.113   3.605  23.335  1.00  0.00     0.000 C 
BRANCH   8   9
ATOM      9  C   UNL     1       6.212   4.399  24.063  1.00  0.00     0.000 C 
BRANCH   9  10
ATOM     10  C   UNL     1       5.984   5.917  24.020  1.00  0.00     0.000 C 
BRANCH  10  11
ATOM     11  C   UNL     1       7.257   6.696  23.644  1.00  0.00     0.000 C 
BRANCH  11  12
ATOM     12  C   UNL     1       7.080   8.217  23.779  1.00  0.00     0.000 C 
BRANCH  12  13
ATOM     13  C   UNL     1       6.417   8.845  22.540  1.00  0.00     0.006 C 
BRANCH  13  14
ATOM     14  C   UNL     1       6.962  10.248  22.236  1.00  0.00     0.053 C 
BRANCH  14  15
ATOM     15  C   UNL     1       6.020  11.322  22.687  1.00  0.00     0.041 C 
ATOM     16  O   UNL     1       4.952  11.019  23.281  1.00  0.00    -0.550 OA
ATOM     17  O   UNL     1       6.309  12.656  22.429  1.00  0.00    -0.550 OA
ENDBRANCH  14  15
ENDBRANCH  13  14
ENDBRANCH  12  13
ENDBRANCH  11  12
ENDBRANCH  10  11
ENDBRANCH   9  10
ENDBRANCH   8   9
ENDBRANCH   7   8
ENDBRANCH   6   7
ENDBRANCH   5   6
ENDBRANCH   4   5
ENDBRANCH   3   4
ENDBRANCH   2   3
ENDBRANCH   1   2
BRANCH   1  18
ATOM     18  C   UNL     1       7.281   6.355  19.901  1.00  0.00     0.000 C 
BRANCH  18  19
ATOM     19  C   UNL     1       6.396   6.598  18.663  1.00  0.00     0.000 C 
BRANCH  19  20
ATOM     20  C   UNL     1       6.218   5.341  17.799  1.00  0.00     0.000 C 
BRANCH  20  21
ATOM     21  C   UNL     1       6.026   5.711  16.320  1.00  0.00     0.000 C 
BRANCH  21  22
ATOM     22  C   UNL     1       7.303   5.505  15.490  1.00  0.00     0.000 C 
BRANCH  22  23
ATOM     23  C   UNL     1       8.366   4.685  16.236  1.00  0.00     0.000 C 
BRANCH  23  24
ATOM     24  C   UNL     1       9.729   5.385  16.189  1.00  0.00    -0.000 C 
BRANCH  24  25
ATOM     25  C   UNL     1       9.618   6.775  15.543  1.00  0.00    -0.000 C 
BRANCH  25  26
ATOM     26  C   UNL     1      10.748   7.045  14.525  1.00  0.00    -0.000 C 
BRANCH  26  27
ATOM     27  C   UNL     1      10.332   6.834  13.055  1.00  0.00    -0.000 C 
BRANCH  27  28
ATOM     28  C   UNL     1      11.414   6.211  12.156  1.00  0.00    -0.000 C 
BRANCH  28  29
ATOM     29  C   UNL     1      11.084   4.762  11.747  1.00  0.00    -0.000 C 
BRANCH  29  30
ATOM     30  C   UNL     1       9.627   4.383  12.057  1.00  0.00    -0.000 C 
BRANCH  30  31
ATOM     31  C   UNL     1       9.523   3.186  13.016  1.00  0.00    -0.003 C 
ATOM     32  C   UNL     1       8.076   2.720  13.160  1.00  0.00     0.004 C 
ENDBRANCH  30  31
ENDBRANCH  29  30
ENDBRANCH  28  29
ENDBRANCH  27  28
ENDBRANCH  26  27
ENDBRANCH  25  26
ENDBRANCH  24  25
ENDBRANCH  23  24
ENDBRANCH  22  23
ENDBRANCH  21  22
ENDBRANCH  20  21
ENDBRANCH  19  20
ENDBRANCH  18  19
ENDBRANCH   1  18
TORSDOF 28
ENDMDL
MODEL 9
REMARK VINA RESULT:    -4.556      1.202      3.721
REMARK INTER + INTRA:         -16.640
REMARK INTER:                 -11.753
REMARK INTRA:                  -4.887
REMARK UNBOUND:                -4.626
REMARK SMILES CCCCCCCCCCCCCCCCCCCCCCCCCCCCCC(=O)[O-]
REMARK SMILES IDX 16 1 17 2 18 3 19 4 20 5 21 6 22 7 23 8 24 9 25 10 26 11
REMARK SMILES IDX 27 12 28 13 29 14 30 15 31 16 32 17 15 18 14 19 13 20 12 21
REMARK SMILES IDX 11 22 10 23 9 24 8 25 7 26 6 27 5 28 4 29 3 30 2 31 1 32
REMARK H PARENT
REMARK Flexibility Score: inf
ROOT
ATOM      1  C   UNL     1       5.667   2.628  20.309  1.00  0.00     0.000 C 
ENDROOT
BRANCH   1   2
ATOM      2  C   UNL     1       4.820   3.113  21.502  1.00  0.00     0.000 C 
BRANCH   2   3
ATOM      3  C   UNL     1       4.592   4.639  21.528  1.00  0.00     0.000 C 
BRANCH   3   4
ATOM      4  C   UNL     1       5.456   5.355  22.580  1.00  0.00     0.000 C 
BRANCH   4   5
ATOM      5  C   UNL     1       5.850   4.418  23.736  1.00  0.00     0.000 C 
BRANCH   5   6
ATOM      6  C   UNL     1       7.357   4.464  24.035  1.00  0.00     0.000 C 
BRANCH   6   7
ATOM      7  C   UNL     1       8.226   4.335  22.773  1.00  0.00     0.000 C 
BRANCH   7   8
ATOM      8  C   UNL     1       9.270   5.462  22.616  1.00  0.00     0.000 C 
BRANCH   8   9
ATOM      9  C   UNL     1       9.221   6.461  23.785  1.00  0.00     0.000 C 
BRANCH   9  10
ATOM     10  C   UNL     1       8.867   7.889  23.341  1.00  0.00     0.000 C 
BRANCH  10  11
ATOM     11  C   UNL     1       8.417   7.955  21.870  1.00  0.00     0.000 C 
BRANCH  11  12
ATOM     12  C   UNL     1       7.462   9.129  21.599  1.00  0.00     0.000 C 
BRANCH  12  13
ATOM     13  C   UNL     1       7.875  10.410  22.347  1.00  0.00     0.006 C 
BRANCH  13  14
ATOM     14  C   UNL     1       7.111  11.645  21.852  1.00  0.00     0.053 C 
BRANCH  14  15
ATOM     15  C   UNL     1       6.344  12.306  22.956  1.00  0.00     0.041 C 
ATOM     16  O   UNL     1       5.582  13.276  22.704  1.00  0.00    -0.550 OA
ATOM     17  O   UNL     1       6.490  11.867  24.266  1.00  0.00    -0.550 OA
ENDBRANCH  14  15
ENDBRANCH  13  14
ENDBRANCH  12  13
ENDBRANCH  11  12
ENDBRANCH  10  11
ENDBRANCH   9  10
ENDBRANCH   8   9
ENDBRANCH   7   8
ENDBRANCH   6   7
ENDBRANCH   5   6
ENDBRANCH   4   5
ENDBRANCH   3   4
ENDBRANCH   2   3
ENDBRANCH   1   2
BRANCH   1  18
ATOM     18  C   UNL     1       5.996   3.703  19.256  1.00  0.00     0.000 C 
BRANCH  18  19
ATOM     19  C   UNL     1       7.477   4.120  19.189  1.00  0.00     0.000 C 
BRANCH  19  20
ATOM     20  C   UNL     1       7.674   5.641  19.273  1.00  0.00     0.000 C 
BRANCH  20  21
ATOM     21  C   UNL     1       6.394   6.387  18.863  1.00  0.00     0.000 C 
BRANCH  21  22
ATOM     22  C   UNL     1       6.463   6.929  17.427  1.00  0.00     0.000 C 
BRANCH  22  23
ATOM     23  C   UNL     1       5.809   5.985  16.407  1.00  0.00     0.000 C 
BRANCH  23  24
ATOM     24  C   UNL     1       6.873   5.219  15.611  1.00  0.00    -0.000 C 
BRANCH  24  25
ATOM     25  C   UNL     1       8.207   5.981  15.590  1.00  0.00    -0.000 C 
BRANCH  25  26
ATOM     26  C   UNL     1       9.409   5.079  15.945  1.00  0.00    -0.000 C 
BRANCH  26  27
ATOM     27  C   UNL     1      10.778   5.778  15.820  1.00  0.00    -0.000 C 
BRANCH  27  28
ATOM     28  C   UNL     1      11.402   5.740  14.415  1.00  0.00    -0.000 C 
BRANCH  28  29
ATOM     29  C   UNL     1      10.797   6.794  13.467  1.00  0.00    -0.000 C 
BRANCH  29  30
ATOM     30  C   UNL     1      10.323   6.184  12.138  1.00  0.00    -0.000 C 
BRANCH  30  31
ATOM     31  C   UNL     1      10.105   4.666  12.233  1.00  0.00    -0.003 C 
ATOM     32  C   UNL     1       8.618   4.324  12.266  1.00  0.00     0.004 C 
ENDBRANCH  30  31
ENDBRANCH  29  30
ENDBRANCH  28  29
ENDBRANCH  27  28
ENDBRANCH  26  27
ENDBRANCH  25  26
ENDBRANCH  24  25
ENDBRANCH  23  24
ENDBRANCH  22  23
ENDBRANCH  21  22
ENDBRANCH  20  21
ENDBRANCH  19  20
ENDBRANCH  18  19
ENDBRANCH   1  18
TORSDOF 28
ENDMDL
