MODEL 1
REMARK VINA RESULT:    -7.624      0.000      0.000
REMARK INTER + INTRA:          -9.198
REMARK INTER:                  -8.961
REMARK INTRA:                  -0.238
REMARK UNBOUND:                -0.238
REMARK SMILES O=c1c(O)c(-c2ccc(O)cc2)oc2cc(O)cc(O)c12
REMARK SMILES IDX 5 1 3 2 2 3 1 4 21 5 19 6 18 7 16 8 15 9 14 10 13 11 6 12
REMARK SMILES IDX 7 13 8 14 9 15 12 16 11 17 10 18 4 20 20 22 17 24
REMARK H PARENT 10 19 4 21 20 23 17 25
REMARK Flexibility Score: inf
ROOT
ATOM      1  C   UNL     1     -12.938 -30.401 -10.897  1.00  0.00     0.180 A 
ATOM      2  C   UNL     1     -13.836 -31.279 -11.529  1.00  0.00     0.208 A 
ATOM      3  C   UNL     1     -14.851 -30.748 -12.342  1.00  0.00     0.238 A 
ATOM      4  O   UNL     1     -15.617 -31.542 -12.948  1.00  0.00    -0.285 OA
ATOM      5  C   UNL     1     -14.966 -29.346 -12.500  1.00  0.00     0.111 A 
ATOM      6  C   UNL     1     -15.979 -28.697 -13.268  1.00  0.00     0.134 A 
ATOM      7  C   UNL     1     -15.918 -27.311 -13.461  1.00  0.00     0.093 A 
ATOM      8  C   UNL     1     -14.920 -26.545 -12.863  1.00  0.00     0.123 A 
ATOM      9  C   UNL     1     -13.958 -27.161 -12.062  1.00  0.00     0.094 A 
ATOM     10  C   UNL     1     -13.971 -28.546 -11.879  1.00  0.00     0.146 A 
ATOM     11  O   UNL     1     -13.032 -29.095 -11.119  1.00  0.00    -0.452 OA
ENDROOT
BRANCH   1  12
ATOM     12  C   UNL     1     -11.859 -30.883 -10.007  1.00  0.00     0.021 A 
ATOM     13  C   UNL     1     -10.689 -31.470 -10.523  1.00  0.00     0.016 A 
ATOM     14  C   UNL     1      -9.694 -31.942  -9.661  1.00  0.00     0.047 A 
ATOM     15  C   UNL     1      -9.862 -31.845  -8.274  1.00  0.00     0.115 A 
ATOM     16  C   UNL     1     -12.027 -30.810  -8.614  1.00  0.00     0.016 A 
ATOM     17  C   UNL     1     -11.030 -31.282  -7.754  1.00  0.00     0.047 A 
BRANCH  15  18
ATOM     18  O   UNL     1      -8.877 -32.311  -7.405  1.00  0.00    -0.508 OA
ATOM     19  H   UNL     1      -7.922 -32.448  -7.713  1.00  0.00     0.293 HD
ENDBRANCH  15  18
ENDBRANCH   1  12
BRANCH   2  20
ATOM     20  O   UNL     1     -13.692 -32.661 -11.377  1.00  0.00    -0.502 OA
ATOM     21  H   UNL     1     -12.805 -33.094 -11.149  1.00  0.00     0.293 HD
ENDBRANCH   2  20
BRANCH   6  22
ATOM     22  O   UNL     1     -17.074 -29.359 -13.832  1.00  0.00    -0.507 OA
ATOM     23  H   UNL     1     -17.065 -29.824 -14.727  1.00  0.00     0.293 HD
ENDBRANCH   6  22
BRANCH   8  24
ATOM     24  O   UNL     1     -14.899 -25.165 -13.064  1.00  0.00    -0.508 OA
ATOM     25  H   UNL     1     -15.747 -24.644 -13.249  1.00  0.00     0.293 HD
ENDBRANCH   8  24
TORSDOF 5
ENDMDL
MODEL 2
REMARK VINA RESULT:    -7.609      2.569      6.764
REMARK INTER + INTRA:          -9.181
REMARK INTER:                  -8.903
REMARK INTRA:                  -0.278
REMARK UNBOUND:                -0.238
REMARK SMILES O=c1c(O)c(-c2ccc(O)cc2)oc2cc(O)cc(O)c12
REMARK SMILES IDX 5 1 3 2 2 3 1 4 21 5 19 6 18 7 16 8 15 9 14 10 13 11 6 12
REMARK SMILES IDX 7 13 8 14 9 15 12 16 11 17 10 18 4 20 20 22 17 24
REMARK H PARENT 10 19 4 21 20 23 17 25
REMARK Flexibility Score: inf
ROOT
ATOM      1  C   UNL     1     -13.905 -29.804 -13.173  1.00  0.00     0.180 A 
ATOM      2  C   UNL     1     -12.921 -30.166 -12.236  1.00  0.00     0.208 A 
ATOM      3  C   UNL     1     -12.683 -31.529 -11.991  1.00  0.00     0.238 A 
ATOM      4  O   UNL     1     -11.764 -31.847 -11.192  1.00  0.00    -0.285 OA
ATOM      5  C   UNL     1     -13.441 -32.510 -12.673  1.00  0.00     0.111 A 
ATOM      6  C   UNL     1     -13.311 -33.918 -12.474  1.00  0.00     0.134 A 
ATOM      7  C   UNL     1     -14.021 -34.800 -13.299  1.00  0.00     0.093 A 
ATOM      8  C   UNL     1     -14.902 -34.328 -14.269  1.00  0.00     0.123 A 
ATOM      9  C   UNL     1     -15.082 -32.953 -14.432  1.00  0.00     0.094 A 
ATOM     10  C   UNL     1     -14.362 -32.047 -13.650  1.00  0.00     0.146 A 
ATOM     11  O   UNL     1     -14.553 -30.749 -13.845  1.00  0.00    -0.452 OA
ENDROOT
BRANCH   1  12
ATOM     12  C   UNL     1     -14.230 -28.390 -13.466  1.00  0.00     0.021 A 
ATOM     13  C   UNL     1     -15.070 -27.640 -12.622  1.00  0.00     0.016 A 
ATOM     14  C   UNL     1     -15.384 -26.313 -12.933  1.00  0.00     0.047 A 
ATOM     15  C   UNL     1     -14.872 -25.723 -14.096  1.00  0.00     0.115 A 
ATOM     16  C   UNL     1     -13.740 -27.797 -14.641  1.00  0.00     0.016 A 
ATOM     17  C   UNL     1     -14.054 -26.469 -14.949  1.00  0.00     0.047 A 
BRANCH  15  18
ATOM     18  O   UNL     1     -15.177 -24.402 -14.415  1.00  0.00    -0.508 OA
ATOM     19  H   UNL     1     -15.372 -23.716 -13.696  1.00  0.00     0.293 HD
ENDBRANCH  15  18
ENDBRANCH   1  12
BRANCH   2  20
ATOM     20  O   UNL     1     -12.170 -29.182 -11.589  1.00  0.00    -0.502 OA
ATOM     21  H   UNL     1     -12.580 -28.320 -11.249  1.00  0.00     0.293 HD
ENDBRANCH   2  20
BRANCH   6  22
ATOM     22  O   UNL     1     -12.528 -34.495 -11.470  1.00  0.00    -0.507 OA
ATOM     23  H   UNL     1     -12.829 -34.638 -10.518  1.00  0.00     0.293 HD
ENDBRANCH   6  22
BRANCH   8  24
ATOM     24  O   UNL     1     -15.604 -35.235 -15.061  1.00  0.00    -0.508 OA
ATOM     25  H   UNL     1     -16.260 -34.924 -15.768  1.00  0.00     0.293 HD
ENDBRANCH   8  24
TORSDOF 5
ENDMDL
MODEL 3
REMARK VINA RESULT:    -7.594      2.661      6.644
REMARK INTER + INTRA:          -9.164
REMARK INTER:                  -9.020
REMARK INTRA:                  -0.144
REMARK UNBOUND:                -0.238
REMARK SMILES O=c1c(O)c(-c2ccc(O)cc2)oc2cc(O)cc(O)c12
REMARK SMILES IDX 5 1 3 2 2 3 1 4 21 5 19 6 18 7 16 8 15 9 14 10 13 11 6 12
REMARK SMILES IDX 7 13 8 14 9 15 12 16 11 17 10 18 4 20 20 22 17 24
REMARK H PARENT 10 19 4 21 20 23 17 25
REMARK Flexibility Score: inf
ROOT
ATOM      1  C   UNL     1     -14.252 -30.178 -13.433  1.00  0.00     0.180 A 
ATOM      2  C   UNL     1     -15.308 -31.090 -13.607  1.00  0.00     0.208 A 
ATOM      3  C   UNL     1     -15.060 -32.461 -13.427  1.00  0.00     0.238 A 
ATOM      4  O   UNL     1     -16.022 -33.267 -13.530  1.00  0.00    -0.285 OA
ATOM      5  C   UNL     1     -13.758 -32.903 -13.092  1.00  0.00     0.111 A 
ATOM      6  C   UNL     1     -13.385 -34.271 -12.925  1.00  0.00     0.134 A 
ATOM      7  C   UNL     1     -12.100 -34.585 -12.465  1.00  0.00     0.093 A 
ATOM      8  C   UNL     1     -11.156 -33.588 -12.230  1.00  0.00     0.123 A 
ATOM      9  C   UNL     1     -11.491 -32.250 -12.447  1.00  0.00     0.094 A 
ATOM     10  C   UNL     1     -12.776 -31.902 -12.870  1.00  0.00     0.146 A 
ATOM     11  O   UNL     1     -13.058 -30.619 -13.054  1.00  0.00    -0.452 OA
ENDROOT
BRANCH   1  12
ATOM     12  C   UNL     1     -14.429 -28.722 -13.629  1.00  0.00     0.021 A 
ATOM     13  C   UNL     1     -15.256 -27.962 -12.781  1.00  0.00     0.016 A 
ATOM     14  C   UNL     1     -15.428 -26.592 -13.001  1.00  0.00     0.047 A 
ATOM     15  C   UNL     1     -14.787 -25.966 -14.078  1.00  0.00     0.115 A 
ATOM     16  C   UNL     1     -13.808 -28.090 -14.719  1.00  0.00     0.016 A 
ATOM     17  C   UNL     1     -13.980 -26.719 -14.937  1.00  0.00     0.047 A 
BRANCH  15  18
ATOM     18  O   UNL     1     -14.950 -24.602 -14.307  1.00  0.00    -0.508 OA
ATOM     19  H   UNL     1     -14.186 -24.027 -14.644  1.00  0.00     0.293 HD
ENDBRANCH  15  18
ENDBRANCH   1  12
BRANCH   2  20
ATOM     20  O   UNL     1     -16.591 -30.630 -13.916  1.00  0.00    -0.502 OA
ATOM     21  H   UNL     1     -17.319 -30.540 -13.218  1.00  0.00     0.293 HD
ENDBRANCH   2  20
BRANCH   6  22
ATOM     22  O   UNL     1     -14.223 -35.350 -13.221  1.00  0.00    -0.507 OA
ATOM     23  H   UNL     1     -14.336 -35.755 -14.139  1.00  0.00     0.293 HD
ENDBRANCH   6  22
BRANCH   8  24
ATOM     24  O   UNL     1      -9.881 -33.937 -11.788  1.00  0.00    -0.508 OA
ATOM     25  H   UNL     1      -9.127 -33.261 -11.757  1.00  0.00     0.293 HD
ENDBRANCH   8  24
TORSDOF 5
ENDMDL
MODEL 4
REMARK VINA RESULT:    -7.531      2.678      6.569
REMARK INTER + INTRA:          -9.090
REMARK INTER:                  -8.946
REMARK INTRA:                  -0.144
REMARK UNBOUND:                -0.238
REMARK SMILES O=c1c(O)c(-c2ccc(O)cc2)oc2cc(O)cc(O)c12
REMARK SMILES IDX 5 1 3 2 2 3 1 4 21 5 19 6 18 7 16 8 15 9 14 10 13 11 6 12
REMARK SMILES IDX 7 13 8 14 9 15 12 16 11 17 10 18 4 20 20 22 17 24
REMARK H PARENT 10 19 4 21 20 23 17 25
REMARK Flexibility Score: inf
ROOT
ATOM      1  C   UNL     1     -14.291 -30.229 -13.484  1.00  0.00     0.180 A 
ATOM      2  C   UNL     1     -15.334 -31.158 -13.639  1.00  0.00     0.208 A 
ATOM      3  C   UNL     1     -15.065 -32.523 -13.442  1.00  0.00     0.238 A 
ATOM      4  O   UNL     1     -16.016 -33.344 -13.529  1.00  0.00    -0.285 OA
ATOM      5  C   UNL     1     -13.756 -32.942 -13.108  1.00  0.00     0.111 A 
ATOM      6  C   UNL     1     -13.362 -34.302 -12.924  1.00  0.00     0.134 A 
ATOM      7  C   UNL     1     -12.070 -34.591 -12.467  1.00  0.00     0.093 A 
ATOM      8  C   UNL     1     -11.140 -33.577 -12.250  1.00  0.00     0.123 A 
ATOM      9  C   UNL     1     -11.495 -32.248 -12.484  1.00  0.00     0.094 A 
ATOM     10  C   UNL     1     -12.787 -31.924 -12.905  1.00  0.00     0.146 A 
ATOM     11  O   UNL     1     -13.089 -30.647 -13.105  1.00  0.00    -0.452 OA
ENDROOT
BRANCH   1  12
ATOM     12  C   UNL     1     -14.490 -28.778 -13.699  1.00  0.00     0.021 A 
ATOM     13  C   UNL     1     -13.845 -28.097 -14.748  1.00  0.00     0.016 A 
ATOM     14  C   UNL     1     -14.029 -26.721 -14.916  1.00  0.00     0.047 A 
ATOM     15  C   UNL     1     -14.848 -26.007 -14.032  1.00  0.00     0.115 A 
ATOM     16  C   UNL     1     -15.292 -28.050 -12.805  1.00  0.00     0.016 A 
ATOM     17  C   UNL     1     -15.475 -26.674 -12.977  1.00  0.00     0.047 A 
BRANCH  15  18
ATOM     18  O   UNL     1     -15.040 -24.636 -14.191  1.00  0.00    -0.508 OA
ATOM     19  H   UNL     1     -14.422 -23.962 -13.754  1.00  0.00     0.293 HD
ENDBRANCH  15  18
ENDBRANCH   1  12
BRANCH   2  20
ATOM     20  O   UNL     1     -16.625 -30.721 -13.949  1.00  0.00    -0.502 OA
ATOM     21  H   UNL     1     -17.351 -30.632 -13.248  1.00  0.00     0.293 HD
ENDBRANCH   2  20
BRANCH   6  22
ATOM     22  O   UNL     1     -14.186 -35.397 -13.201  1.00  0.00    -0.507 OA
ATOM     23  H   UNL     1     -13.939 -36.162 -13.811  1.00  0.00     0.293 HD
ENDBRANCH   6  22
BRANCH   8  24
ATOM     24  O   UNL     1      -9.858 -33.902 -11.810  1.00  0.00    -0.508 OA
ATOM     25  H   UNL     1      -9.696 -34.293 -10.890  1.00  0.00     0.293 HD
ENDBRANCH   8  24
TORSDOF 5
ENDMDL
MODEL 5
REMARK VINA RESULT:    -7.492      1.744      1.973
REMARK INTER + INTRA:          -9.044
REMARK INTER:                  -8.791
REMARK INTRA:                  -0.253
REMARK UNBOUND:                -0.238
REMARK SMILES O=c1c(O)c(-c2ccc(O)cc2)oc2cc(O)cc(O)c12
REMARK SMILES IDX 5 1 3 2 2 3 1 4 21 5 19 6 18 7 16 8 15 9 14 10 13 11 6 12
REMARK SMILES IDX 7 13 8 14 9 15 12 16 11 17 10 18 4 20 20 22 17 24
REMARK H PARENT 10 19 4 21 20 23 17 25
REMARK Flexibility Score: inf
ROOT
ATOM      1  C   UNL     1     -13.161 -31.674 -12.125  1.00  0.00     0.180 A 
ATOM      2  C   UNL     1     -14.322 -32.254 -12.667  1.00  0.00     0.208 A 
ATOM      3  C   UNL     1     -15.370 -31.416 -13.084  1.00  0.00     0.238 A 
ATOM      4  O   UNL     1     -16.383 -31.938 -13.619  1.00  0.00    -0.285 OA
ATOM      5  C   UNL     1     -15.252 -30.014 -12.939  1.00  0.00     0.111 A 
ATOM      6  C   UNL     1     -16.267 -29.074 -13.291  1.00  0.00     0.134 A 
ATOM      7  C   UNL     1     -15.990 -27.702 -13.227  1.00  0.00     0.093 A 
ATOM      8  C   UNL     1     -14.762 -27.237 -12.763  1.00  0.00     0.123 A 
ATOM      9  C   UNL     1     -13.782 -28.146 -12.359  1.00  0.00     0.094 A 
ATOM     10  C   UNL     1     -14.015 -29.521 -12.446  1.00  0.00     0.146 A 
ATOM     11  O   UNL     1     -13.054 -30.352 -12.063  1.00  0.00    -0.452 OA
ENDROOT
BRANCH   1  12
ATOM     12  C   UNL     1     -12.026 -32.491 -11.641  1.00  0.00     0.021 A 
ATOM     13  C   UNL     1     -11.092 -33.051 -12.532  1.00  0.00     0.016 A 
ATOM     14  C   UNL     1     -10.042 -33.841 -12.053  1.00  0.00     0.047 A 
ATOM     15  C   UNL     1      -9.919 -34.091 -10.680  1.00  0.00     0.115 A 
ATOM     16  C   UNL     1     -11.907 -32.766 -10.268  1.00  0.00     0.016 A 
ATOM     17  C   UNL     1     -10.855 -33.555  -9.792  1.00  0.00     0.047 A 
BRANCH  15  18
ATOM     18  O   UNL     1      -8.877 -34.875 -10.192  1.00  0.00    -0.508 OA
ATOM     19  H   UNL     1      -8.041 -34.458  -9.799  1.00  0.00     0.293 HD
ENDBRANCH  15  18
ENDBRANCH   1  12
BRANCH   2  20
ATOM     20  O   UNL     1     -14.410 -33.640 -12.821  1.00  0.00    -0.502 OA
ATOM     21  H   UNL     1     -14.615 -34.076 -13.712  1.00  0.00     0.293 HD
ENDBRANCH   2  20
BRANCH   6  22
ATOM     22  O   UNL     1     -17.561 -29.432 -13.679  1.00  0.00    -0.507 OA
ATOM     23  H   UNL     1     -18.405 -29.119 -13.223  1.00  0.00     0.293 HD
ENDBRANCH   6  22
BRANCH   8  24
ATOM     24  O   UNL     1     -14.526 -25.865 -12.696  1.00  0.00    -0.508 OA
ATOM     25  H   UNL     1     -13.605 -25.476 -12.860  1.00  0.00     0.293 HD
ENDBRANCH   8  24
TORSDOF 5
ENDMDL
MODEL 6
REMARK VINA RESULT:    -7.483      3.085      5.108
REMARK INTER + INTRA:          -9.033
REMARK INTER:                  -8.745
REMARK INTRA:                  -0.288
REMARK UNBOUND:                -0.238
REMARK SMILES O=c1c(O)c(-c2ccc(O)cc2)oc2cc(O)cc(O)c12
REMARK SMILES IDX 5 1 3 2 2 3 1 4 21 5 19 6 18 7 16 8 15 9 14 10 13 11 6 12
REMARK SMILES IDX 7 13 8 14 9 15 12 16 11 17 10 18 4 20 20 22 17 24
REMARK H PARENT 10 19 4 21 20 23 17 25
REMARK Flexibility Score: inf
ROOT
ATOM      1  C   UNL     1     -13.524 -31.817 -13.370  1.00  0.00     0.180 A 
ATOM      2  C   UNL     1     -13.223 -31.825 -11.996  1.00  0.00     0.208 A 
ATOM      3  C   UNL     1     -13.222 -30.609 -11.292  1.00  0.00     0.238 A 
ATOM      4  O   UNL     1     -13.006 -30.630 -10.052  1.00  0.00    -0.285 OA
ATOM      5  C   UNL     1     -13.506 -29.401 -11.972  1.00  0.00     0.111 A 
ATOM      6  C   UNL     1     -13.495 -28.108 -11.367  1.00  0.00     0.134 A 
ATOM      7  C   UNL     1     -13.919 -26.996 -12.105  1.00  0.00     0.093 A 
ATOM      8  C   UNL     1     -14.292 -27.119 -13.442  1.00  0.00     0.123 A 
ATOM      9  C   UNL     1     -14.250 -28.369 -14.062  1.00  0.00     0.094 A 
ATOM     10  C   UNL     1     -13.866 -29.503 -13.342  1.00  0.00     0.146 A 
ATOM     11  O   UNL     1     -13.850 -30.675 -13.964  1.00  0.00    -0.452 OA
ENDROOT
BRANCH   1  12
ATOM     12  C   UNL     1     -13.519 -33.053 -14.184  1.00  0.00     0.021 A 
ATOM     13  C   UNL     1     -14.685 -33.822 -14.356  1.00  0.00     0.016 A 
ATOM     14  C   UNL     1     -14.651 -35.000 -15.108  1.00  0.00     0.047 A 
ATOM     15  C   UNL     1     -13.450 -35.430 -15.688  1.00  0.00     0.115 A 
ATOM     16  C   UNL     1     -12.316 -33.504 -14.751  1.00  0.00     0.016 A 
ATOM     17  C   UNL     1     -12.285 -34.681 -15.505  1.00  0.00     0.047 A 
BRANCH  15  18
ATOM     18  O   UNL     1     -13.404 -36.601 -16.441  1.00  0.00    -0.508 OA
ATOM     19  H   UNL     1     -12.555 -36.897 -16.908  1.00  0.00     0.293 HD
ENDBRANCH  15  18
ENDBRANCH   1  12
BRANCH   2  20
ATOM     20  O   UNL     1     -12.966 -33.031 -11.340  1.00  0.00    -0.502 OA
ATOM     21  H   UNL     1     -13.087 -33.143 -10.340  1.00  0.00     0.293 HD
ENDBRANCH   2  20
BRANCH   6  22
ATOM     22  O   UNL     1     -13.052 -27.860 -10.064  1.00  0.00    -0.507 OA
ATOM     23  H   UNL     1     -12.987 -28.557  -9.337  1.00  0.00     0.293 HD
ENDBRANCH   6  22
BRANCH   8  24
ATOM     24  O   UNL     1     -14.693 -25.989 -14.151  1.00  0.00    -0.508 OA
ATOM     25  H   UNL     1     -14.538 -25.055 -13.791  1.00  0.00     0.293 HD
ENDBRANCH   8  24
TORSDOF 5
ENDMDL
MODEL 7
REMARK VINA RESULT:    -7.302      1.108      1.206
REMARK INTER + INTRA:          -8.820
REMARK INTER:                  -8.677
REMARK INTRA:                  -0.144
REMARK UNBOUND:                -0.238
REMARK SMILES O=c1c(O)c(-c2ccc(O)cc2)oc2cc(O)cc(O)c12
REMARK SMILES IDX 5 1 3 2 2 3 1 4 21 5 19 6 18 7 16 8 15 9 14 10 13 11 6 12
REMARK SMILES IDX 7 13 8 14 9 15 12 16 11 17 10 18 4 20 20 22 17 24
REMARK H PARENT 10 19 4 21 20 23 17 25
REMARK Flexibility Score: inf
ROOT
ATOM      1  C   UNL     1     -12.488 -29.990 -10.215  1.00  0.00     0.180 A 
ATOM      2  C   UNL     1     -13.035 -31.091 -10.898  1.00  0.00     0.208 A 
ATOM      3  C   UNL     1     -13.963 -30.861 -11.928  1.00  0.00     0.238 A 
ATOM      4  O   UNL     1     -14.407 -31.848 -12.571  1.00  0.00    -0.285 OA
ATOM      5  C   UNL     1     -14.345 -29.537 -12.250  1.00  0.00     0.111 A 
ATOM      6  C   UNL     1     -15.305 -29.190 -13.247  1.00  0.00     0.134 A 
ATOM      7  C   UNL     1     -15.509 -27.843 -13.572  1.00  0.00     0.093 A 
ATOM      8  C   UNL     1     -14.835 -26.830 -12.892  1.00  0.00     0.123 A 
ATOM      9  C   UNL     1     -13.937 -27.155 -11.874  1.00  0.00     0.094 A 
ATOM     10  C   UNL     1     -13.686 -28.490 -11.552  1.00  0.00     0.146 A 
ATOM     11  O   UNL     1     -12.817 -28.758 -10.586  1.00  0.00    -0.452 OA
ENDROOT
BRANCH   1  12
ATOM     12  C   UNL     1     -11.525 -30.153  -9.104  1.00  0.00     0.021 A 
ATOM     13  C   UNL     1     -10.239 -30.682  -9.319  1.00  0.00     0.016 A 
ATOM     14  C   UNL     1      -9.354 -30.850  -8.249  1.00  0.00     0.047 A 
ATOM     15  C   UNL     1      -9.748 -30.503  -6.950  1.00  0.00     0.115 A 
ATOM     16  C   UNL     1     -11.918 -29.828  -7.795  1.00  0.00     0.016 A 
ATOM     17  C   UNL     1     -11.030 -29.996  -6.726  1.00  0.00     0.047 A 
BRANCH  15  18
ATOM     18  O   UNL     1      -8.875 -30.665  -5.877  1.00  0.00    -0.508 OA
ATOM     19  H   UNL     1      -8.444 -31.559  -5.676  1.00  0.00     0.293 HD
ENDBRANCH  15  18
ENDBRANCH   1  12
BRANCH   2  20
ATOM     20  O   UNL     1     -12.629 -32.389 -10.579  1.00  0.00    -0.502 OA
ATOM     21  H   UNL     1     -12.241 -33.023 -11.268  1.00  0.00     0.293 HD
ENDBRANCH   2  20
BRANCH   6  22
ATOM     22  O   UNL     1     -16.101 -30.122 -13.922  1.00  0.00    -0.507 OA
ATOM     23  H   UNL     1     -15.829 -30.606 -14.764  1.00  0.00     0.293 HD
ENDBRANCH   6  22
BRANCH   8  24
ATOM     24  O   UNL     1     -15.074 -25.499 -13.230  1.00  0.00    -0.508 OA
ATOM     25  H   UNL     1     -15.381 -24.824 -12.540  1.00  0.00     0.293 HD
ENDBRANCH   8  24
TORSDOF 5
ENDMDL
MODEL 8
REMARK VINA RESULT:    -7.007      3.120      5.253
REMARK INTER + INTRA:          -8.474
REMARK INTER:                  -8.236
REMARK INTRA:                  -0.238
REMARK UNBOUND:                -0.238
REMARK SMILES O=c1c(O)c(-c2ccc(O)cc2)oc2cc(O)cc(O)c12
REMARK SMILES IDX 5 1 3 2 2 3 1 4 21 5 19 6 18 7 16 8 15 9 14 10 13 11 6 12
REMARK SMILES IDX 7 13 8 14 9 15 12 16 11 17 10 18 4 20 20 22 17 24
REMARK H PARENT 10 19 4 21 20 23 17 25
REMARK Flexibility Score: inf
ROOT
ATOM      1  C   UNL     1     -13.374 -31.558 -13.228  1.00  0.00     0.180 A 
ATOM      2  C   UNL     1     -13.668 -30.446 -14.036  1.00  0.00     0.208 A 
ATOM      3  C   UNL     1     -13.675 -29.166 -13.457  1.00  0.00     0.238 A 
ATOM      4  O   UNL     1     -13.886 -28.170 -14.198  1.00  0.00    -0.285 OA
ATOM      5  C   UNL     1     -13.405 -29.016 -12.077  1.00  0.00     0.111 A 
ATOM      6  C   UNL     1     -13.424 -27.771 -11.377  1.00  0.00     0.134 A 
ATOM      7  C   UNL     1     -13.013 -27.724 -10.039  1.00  0.00     0.093 A 
ATOM      8  C   UNL     1     -12.646 -28.883  -9.358  1.00  0.00     0.123 A 
ATOM      9  C   UNL     1     -12.680 -30.114 -10.015  1.00  0.00     0.094 A 
ATOM     10  C   UNL     1     -13.051 -30.189 -11.359  1.00  0.00     0.146 A 
ATOM     11  O   UNL     1     -13.059 -31.377 -11.951  1.00  0.00    -0.452 OA
ENDROOT
BRANCH   1  12
ATOM     12  C   UNL     1     -13.371 -32.939 -13.760  1.00  0.00     0.021 A 
ATOM     13  C   UNL     1     -14.421 -33.835 -13.482  1.00  0.00     0.016 A 
ATOM     14  C   UNL     1     -14.384 -35.143 -13.974  1.00  0.00     0.047 A 
ATOM     15  C   UNL     1     -13.294 -35.576 -14.739  1.00  0.00     0.115 A 
ATOM     16  C   UNL     1     -12.272 -33.390 -14.510  1.00  0.00     0.016 A 
ATOM     17  C   UNL     1     -12.239 -34.699 -15.002  1.00  0.00     0.047 A 
BRANCH  15  18
ATOM     18  O   UNL     1     -13.247 -36.877 -15.236  1.00  0.00    -0.508 OA
ATOM     19  H   UNL     1     -13.025 -37.065 -16.207  1.00  0.00     0.293 HD
ENDBRANCH  15  18
ENDBRANCH   1  12
BRANCH   2  20
ATOM     20  O   UNL     1     -13.911 -30.614 -15.402  1.00  0.00    -0.502 OA
ATOM     21  H   UNL     1     -13.307 -30.222 -16.115  1.00  0.00     0.293 HD
ENDBRANCH   2  20
BRANCH   6  22
ATOM     22  O   UNL     1     -13.863 -26.568 -11.938  1.00  0.00    -0.507 OA
ATOM     23  H   UNL     1     -13.452 -26.127 -12.747  1.00  0.00     0.293 HD
ENDBRANCH   6  22
BRANCH   8  24
ATOM     24  O   UNL     1     -12.257 -28.802  -8.022  1.00  0.00    -0.508 OA
ATOM     25  H   UNL     1     -11.902 -27.940  -7.625  1.00  0.00     0.293 HD
ENDBRANCH   8  24
TORSDOF 5
ENDMDL
MODEL 9
REMARK VINA RESULT:    -6.878      2.354      3.722
REMARK INTER + INTRA:          -8.322
REMARK INTER:                  -8.044
REMARK INTRA:                  -0.278
REMARK UNBOUND:                -0.238
REMARK SMILES O=c1c(O)c(-c2ccc(O)cc2)oc2cc(O)cc(O)c12
REMARK SMILES IDX 5 1 3 2 2 3 1 4 21 5 19 6 18 7 16 8 15 9 14 10 13 11 6 12
REMARK SMILES IDX 7 13 8 14 9 15 12 16 11 17 10 18 4 20 20 22 17 24
REMARK H PARENT 10 19 4 21 20 23 17 25
REMARK Flexibility Score: inf
ROOT
ATOM      1  C   UNL     1     -12.508 -31.431 -11.973  1.00  0.00     0.180 A 
ATOM      2  C   UNL     1     -11.887 -30.244 -11.545  1.00  0.00     0.208 A 
ATOM      3  C   UNL     1     -12.576 -29.028 -11.683  1.00  0.00     0.238 A 
ATOM      4  O   UNL     1     -12.037 -27.977 -11.248  1.00  0.00    -0.285 OA
ATOM      5  C   UNL     1     -13.867 -29.011 -12.262  1.00  0.00     0.111 A 
ATOM      6  C   UNL     1     -14.639 -27.831 -12.486  1.00  0.00     0.134 A 
ATOM      7  C   UNL     1     -15.958 -27.946 -12.945  1.00  0.00     0.093 A 
ATOM      8  C   UNL     1     -16.509 -29.189 -13.248  1.00  0.00     0.123 A 
ATOM      9  C   UNL     1     -15.743 -30.345 -13.088  1.00  0.00     0.094 A 
ATOM     10  C   UNL     1     -14.437 -30.267 -12.599  1.00  0.00     0.146 A 
ATOM     11  O   UNL     1     -13.746 -31.390 -12.450  1.00  0.00    -0.452 OA
ENDROOT
BRANCH   1  12
ATOM     12  C   UNL     1     -11.837 -32.747 -11.883  1.00  0.00     0.021 A 
ATOM     13  C   UNL     1     -11.859 -33.503 -10.696  1.00  0.00     0.016 A 
ATOM     14  C   UNL     1     -11.196 -34.732 -10.627  1.00  0.00     0.047 A 
ATOM     15  C   UNL     1     -10.493 -35.216 -11.738  1.00  0.00     0.115 A 
ATOM     16  C   UNL     1     -11.111 -33.231 -12.985  1.00  0.00     0.016 A 
ATOM     17  C   UNL     1     -10.450 -34.461 -12.913  1.00  0.00     0.047 A 
BRANCH  15  18
ATOM     18  O   UNL     1      -9.830 -36.439 -11.681  1.00  0.00    -0.508 OA
ATOM     19  H   UNL     1     -10.216 -37.271 -12.112  1.00  0.00     0.293 HD
ENDBRANCH  15  18
ENDBRANCH   1  12
BRANCH   2  20
ATOM     20  O   UNL     1     -10.620 -30.286 -10.957  1.00  0.00    -0.502 OA
ATOM     21  H   UNL     1      -9.783 -29.992 -11.447  1.00  0.00     0.293 HD
ENDBRANCH   2  20
BRANCH   6  22
ATOM     22  O   UNL     1     -14.152 -26.533 -12.304  1.00  0.00    -0.507 OA
ATOM     23  H   UNL     1     -14.607 -25.821 -11.754  1.00  0.00     0.293 HD
ENDBRANCH   6  22
BRANCH   8  24
ATOM     24  O   UNL     1     -17.819 -29.265 -13.717  1.00  0.00    -0.508 OA
ATOM     25  H   UNL     1     -18.571 -28.751 -13.274  1.00  0.00     0.293 HD
ENDBRANCH   8  24
TORSDOF 5
ENDMDL
