MODEL 1
REMARK VINA RESULT:     0.021      0.000      0.000
REMARK INTER + INTRA:           0.569
REMARK INTER:                   0.025
REMARK INTRA:                   0.544
REMARK UNBOUND:                 0.544
REMARK SMILES O=c1c(O)c(-c2ccc(O)c(O)c2)oc2cc(O)cc(O)c12
REMARK SMILES IDX 5 1 3 2 2 3 1 4 22 5 20 6 19 7 17 8 16 9 15 10 14 11 6 12
REMARK SMILES IDX 7 13 8 14 9 15 13 16 11 17 10 18 12 20 4 22 21 24 18 26
REMARK H PARENT 10 19 12 21 4 23 21 25 18 27
REMARK Flexibility Score: inf
ROOT
ATOM      1  C   UNL     1      24.446   9.203 121.933  1.00  0.00     0.180 A 
ATOM      2  C   UNL     1      25.724   8.619 121.951  1.00  0.00     0.208 A 
ATOM      3  C   UNL     1      26.854   9.452 121.973  1.00  0.00     0.238 A 
ATOM      4  O   UNL     1      27.994   8.923 121.912  1.00  0.00    -0.285 OA
ATOM      5  C   UNL     1      26.692  10.857 122.034  1.00  0.00     0.111 A 
ATOM      6  C   UNL     1      27.766  11.796 122.107  1.00  0.00     0.134 A 
ATOM      7  C   UNL     1      27.489  13.168 122.056  1.00  0.00     0.093 A 
ATOM      8  C   UNL     1      26.177  13.636 122.001  1.00  0.00     0.123 A 
ATOM      9  C   UNL     1      25.117  12.729 121.986  1.00  0.00     0.094 A 
ATOM     10  C   UNL     1      25.363  11.354 121.997  1.00  0.00     0.146 A 
ATOM     11  O   UNL     1      24.327  10.525 121.959  1.00  0.00    -0.452 OA
ENDROOT
BRANCH   1  12
ATOM     12  C   UNL     1      23.208   8.392 121.896  1.00  0.00     0.025 A 
ATOM     13  C   UNL     1      21.937   8.994 121.904  1.00  0.00     0.016 A 
ATOM     14  C   UNL     1      20.783   8.208 121.894  1.00  0.00     0.051 A 
ATOM     15  C   UNL     1      20.877   6.812 121.889  1.00  0.00     0.157 A 
ATOM     16  C   UNL     1      23.299   6.991 121.912  1.00  0.00     0.062 A 
ATOM     17  C   UNL     1      22.141   6.199 121.901  1.00  0.00     0.158 A 
BRANCH  15  18
ATOM     18  O   UNL     1      19.707   6.054 121.875  1.00  0.00    -0.504 OA
ATOM     19  H   UNL     1      19.502   5.396 121.133  1.00  0.00     0.293 HD
ENDBRANCH  15  18
BRANCH  17  20
ATOM     20  O   UNL     1      22.244   4.809 121.904  1.00  0.00    -0.504 OA
ATOM     21  H   UNL     1      22.149   4.271 122.756  1.00  0.00     0.293 HD
ENDBRANCH  17  20
ENDBRANCH   1  12
BRANCH   2  22
ATOM     22  O   UNL     1      25.862   7.228 121.966  1.00  0.00    -0.502 OA
ATOM     23  H   UNL     1      25.108   6.603 121.708  1.00  0.00     0.293 HD
ENDBRANCH   2  22
BRANCH   6  24
ATOM     24  O   UNL     1      29.110  11.439 122.253  1.00  0.00    -0.507 OA
ATOM     25  H   UNL     1      29.486  10.520 122.080  1.00  0.00     0.293 HD
ENDBRANCH   6  24
BRANCH   8  26
ATOM     26  O   UNL     1      25.938  15.009 121.969  1.00  0.00    -0.508 OA
ATOM     27  H   UNL     1      26.644  15.676 122.260  1.00  0.00     0.293 HD
ENDBRANCH   8  26
TORSDOF 6
ENDMDL
MODEL 2
REMARK VINA RESULT:     1.950      1.614      7.324
REMARK INTER + INTRA:           2.893
REMARK INTER:                   2.425
REMARK INTRA:                   0.468
REMARK UNBOUND:                 0.544
REMARK SMILES O=c1c(O)c(-c2ccc(O)c(O)c2)oc2cc(O)cc(O)c12
REMARK SMILES IDX 5 1 3 2 2 3 1 4 22 5 20 6 19 7 17 8 16 9 15 10 14 11 6 12
REMARK SMILES IDX 7 13 8 14 9 15 13 16 11 17 10 18 12 20 4 22 21 24 18 26
REMARK H PARENT 10 19 12 21 4 23 21 25 18 27
REMARK Flexibility Score: inf
ROOT
ATOM      1  C   UNL     1      25.210  10.450 122.238  1.00  0.00     0.180 A 
ATOM      2  C   UNL     1      23.836  10.735 122.164  1.00  0.00     0.208 A 
ATOM      3  C   UNL     1      22.924   9.673 122.047  1.00  0.00     0.238 A 
ATOM      4  O   UNL     1      21.703   9.940 121.905  1.00  0.00    -0.285 OA
ATOM      5  C   UNL     1      23.394   8.337 122.060  1.00  0.00     0.111 A 
ATOM      6  C   UNL     1      22.558   7.182 121.992  1.00  0.00     0.134 A 
ATOM      7  C   UNL     1      23.141   5.911 121.906  1.00  0.00     0.093 A 
ATOM      8  C   UNL     1      24.525   5.749 121.951  1.00  0.00     0.123 A 
ATOM      9  C   UNL     1      25.350   6.867 122.073  1.00  0.00     0.094 A 
ATOM     10  C   UNL     1      24.800   8.150 122.122  1.00  0.00     0.146 A 
ATOM     11  O   UNL     1      25.622   9.188 122.216  1.00  0.00    -0.452 OA
ENDROOT
BRANCH   1  12
ATOM     12  C   UNL     1      26.231  11.516 122.350  1.00  0.00     0.025 A 
ATOM     13  C   UNL     1      27.592  11.255 122.107  1.00  0.00     0.016 A 
ATOM     14  C   UNL     1      28.542  12.270 122.243  1.00  0.00     0.051 A 
ATOM     15  C   UNL     1      28.152  13.554 122.637  1.00  0.00     0.157 A 
ATOM     16  C   UNL     1      25.848  12.801 122.766  1.00  0.00     0.062 A 
ATOM     17  C   UNL     1      26.799  13.822 122.902  1.00  0.00     0.158 A 
BRANCH  15  18
ATOM     18  O   UNL     1      29.123  14.548 122.761  1.00  0.00    -0.504 OA
ATOM     19  H   UNL     1      28.880  15.526 122.866  1.00  0.00     0.293 HD
ENDBRANCH  15  18
BRANCH  17  20
ATOM     20  O   UNL     1      26.404  15.097 123.303  1.00  0.00    -0.504 OA
ATOM     21  H   UNL     1      25.430  15.331 123.448  1.00  0.00     0.293 HD
ENDBRANCH  17  20
ENDBRANCH   1  12
BRANCH   2  22
ATOM     22  O   UNL     1      23.387  12.057 122.229  1.00  0.00    -0.502 OA
ATOM     23  H   UNL     1      23.236  12.539 123.106  1.00  0.00     0.293 HD
ENDBRANCH   2  22
BRANCH   6  24
ATOM     24  O   UNL     1      21.161   7.223 122.031  1.00  0.00    -0.507 OA
ATOM     25  H   UNL     1      20.585   7.832 121.471  1.00  0.00     0.293 HD
ENDBRANCH   6  24
BRANCH   8  26
ATOM     26  O   UNL     1      25.069   4.468 121.881  1.00  0.00    -0.508 OA
ATOM     27  H   UNL     1      25.336   3.960 122.716  1.00  0.00     0.293 HD
ENDBRANCH   8  26
TORSDOF 6
ENDMDL
MODEL 3
REMARK VINA RESULT:     2.614      1.632      3.402
REMARK INTER + INTRA:           3.692
REMARK INTER:                   3.221
REMARK INTRA:                   0.471
REMARK UNBOUND:                 0.544
REMARK SMILES O=c1c(O)c(-c2ccc(O)c(O)c2)oc2cc(O)cc(O)c12
REMARK SMILES IDX 5 1 3 2 2 3 1 4 22 5 20 6 19 7 17 8 16 9 15 10 14 11 6 12
REMARK SMILES IDX 7 13 8 14 9 15 13 16 11 17 10 18 12 20 4 22 21 24 18 26
REMARK H PARENT 10 19 12 21 4 23 21 25 18 27
REMARK Flexibility Score: inf
ROOT
ATOM      1  C   UNL     1      23.218   7.799 122.014  1.00  0.00     0.180 A 
ATOM      2  C   UNL     1      22.743   9.115 122.149  1.00  0.00     0.208 A 
ATOM      3  C   UNL     1      23.667  10.171 122.210  1.00  0.00     0.238 A 
ATOM      4  O   UNL     1      23.237  11.337 122.407  1.00  0.00    -0.285 OA
ATOM      5  C   UNL     1      25.051   9.904 122.079  1.00  0.00     0.111 A 
ATOM      6  C   UNL     1      26.074  10.900 122.081  1.00  0.00     0.134 A 
ATOM      7  C   UNL     1      27.419  10.510 122.051  1.00  0.00     0.093 A 
ATOM      8  C   UNL     1      27.776   9.166 121.954  1.00  0.00     0.123 A 
ATOM      9  C   UNL     1      26.784   8.187 121.896  1.00  0.00     0.094 A 
ATOM     10  C   UNL     1      25.436   8.542 121.963  1.00  0.00     0.146 A 
ATOM     11  O   UNL     1      24.524   7.578 121.926  1.00  0.00    -0.452 OA
ENDROOT
BRANCH   1  12
ATOM     12  C   UNL     1      22.307   6.634 121.956  1.00  0.00     0.025 A 
ATOM     13  C   UNL     1      20.911   6.794 121.979  1.00  0.00     0.016 A 
ATOM     14  C   UNL     1      20.070   5.678 121.949  1.00  0.00     0.051 A 
ATOM     15  C   UNL     1      20.609   4.388 121.910  1.00  0.00     0.157 A 
ATOM     16  C   UNL     1      22.844   5.336 121.938  1.00  0.00     0.062 A 
ATOM     17  C   UNL     1      22.003   4.215 121.907  1.00  0.00     0.158 A 
BRANCH  15  18
ATOM     18  O   UNL     1      19.745   3.293 121.877  1.00  0.00    -0.504 OA
ATOM     19  H   UNL     1      19.817   2.533 122.542  1.00  0.00     0.293 HD
ENDBRANCH  15  18
BRANCH  17  20
ATOM     20  O   UNL     1      22.548   2.932 121.876  1.00  0.00    -0.504 OA
ATOM     21  H   UNL     1      23.465   2.734 122.258  1.00  0.00     0.293 HD
ENDBRANCH  17  20
ENDBRANCH   1  12
BRANCH   2  22
ATOM     22  O   UNL     1      21.369   9.365 122.201  1.00  0.00    -0.502 OA
ATOM     23  H   UNL     1      20.928  10.099 121.660  1.00  0.00     0.293 HD
ENDBRANCH   2  22
BRANCH   6  24
ATOM     24  O   UNL     1      25.827  12.276 122.086  1.00  0.00    -0.507 OA
ATOM     25  H   UNL     1      26.023  12.901 121.320  1.00  0.00     0.293 HD
ENDBRANCH   6  24
BRANCH   8  26
ATOM     26  O   UNL     1      29.125   8.816 121.909  1.00  0.00    -0.508 OA
ATOM     27  H   UNL     1      29.853   9.519 121.858  1.00  0.00     0.293 HD
ENDBRANCH   8  26
TORSDOF 6
ENDMDL
