MODEL 1
REMARK VINA RESULT:    -5.065      0.000      0.000
REMARK INTER + INTRA:          -5.735
REMARK INTER:                  -5.953
REMARK INTRA:                   0.218
REMARK UNBOUND:                 0.218
REMARK SMILES O=c1c(O)c(-c2ccc(O)cc2)oc2cc(O)cc(O)c12
REMARK SMILES IDX 5 1 3 2 2 3 1 4 21 5 19 6 18 7 16 8 15 9 14 10 13 11 6 12
REMARK SMILES IDX 7 13 8 14 9 15 12 16 11 17 10 18 4 20 20 22 17 24
REMARK H PARENT 10 19 4 21 20 23 17 25
REMARK Flexibility Score: inf
ROOT
ATOM      1  C   UNL     1      21.869 -47.055   6.018  1.00  0.00     0.180 A 
ATOM      2  C   UNL     1      20.495 -46.995   6.308  1.00  0.00     0.208 A 
ATOM      3  C   UNL     1      20.010 -45.938   7.095  1.00  0.00     0.238 A 
ATOM      4  O   UNL     1      18.788 -45.919   7.396  1.00  0.00    -0.285 OA
ATOM      5  C   UNL     1      20.902 -44.946   7.569  1.00  0.00     0.111 A 
ATOM      6  C   UNL     1      20.515 -43.809   8.341  1.00  0.00     0.134 A 
ATOM      7  C   UNL     1      21.499 -42.964   8.867  1.00  0.00     0.093 A 
ATOM      8  C   UNL     1      22.850 -43.175   8.595  1.00  0.00     0.123 A 
ATOM      9  C   UNL     1      23.236 -44.249   7.792  1.00  0.00     0.094 A 
ATOM     10  C   UNL     1      22.279 -45.131   7.283  1.00  0.00     0.146 A 
ATOM     11  O   UNL     1      22.689 -46.146   6.532  1.00  0.00    -0.452 OA
ENDROOT
BRANCH   1  12
ATOM     12  C   UNL     1      22.450 -48.124   5.175  1.00  0.00     0.021 A 
ATOM     13  C   UNL     1      23.448 -47.802   4.239  1.00  0.00     0.016 A 
ATOM     14  C   UNL     1      23.995 -48.791   3.417  1.00  0.00     0.047 A 
ATOM     15  C   UNL     1      23.542 -50.111   3.508  1.00  0.00     0.115 A 
ATOM     16  C   UNL     1      21.985 -49.450   5.248  1.00  0.00     0.016 A 
ATOM     17  C   UNL     1      22.533 -50.438   4.423  1.00  0.00     0.047 A 
BRANCH  15  18
ATOM     18  O   UNL     1      24.097 -51.087   2.683  1.00  0.00    -0.508 OA
ATOM     19  H   UNL     1      24.636 -51.856   3.063  1.00  0.00     0.293 HD
ENDBRANCH  15  18
ENDBRANCH   1  12
BRANCH   2  20
ATOM     20  O   UNL     1      19.635 -47.995   5.848  1.00  0.00    -0.502 OA
ATOM     21  H   UNL     1      19.672 -48.352   4.900  1.00  0.00     0.293 HD
ENDBRANCH   2  20
BRANCH   6  22
ATOM     22  O   UNL     1      19.186 -43.455   8.595  1.00  0.00    -0.507 OA
ATOM     23  H   UNL     1      18.388 -44.045   8.413  1.00  0.00     0.293 HD
ENDBRANCH   6  22
BRANCH   8  24
ATOM     24  O   UNL     1      23.801 -42.304   9.122  1.00  0.00    -0.508 OA
ATOM     25  H   UNL     1      24.074 -42.344  10.097  1.00  0.00     0.293 HD
ENDBRANCH   8  24
TORSDOF 5
ENDMDL
MODEL 2
REMARK VINA RESULT:    -4.911      1.235      3.241
REMARK INTER + INTRA:          -5.554
REMARK INTER:                  -5.732
REMARK INTRA:                   0.177
REMARK UNBOUND:                 0.218
REMARK SMILES O=c1c(O)c(-c2ccc(O)cc2)oc2cc(O)cc(O)c12
REMARK SMILES IDX 5 1 3 2 2 3 1 4 21 5 19 6 18 7 16 8 15 9 14 10 13 11 6 12
REMARK SMILES IDX 7 13 8 14 9 15 12 16 11 17 10 18 4 20 20 22 17 24
REMARK H PARENT 10 19 4 21 20 23 17 25
REMARK Flexibility Score: inf
ROOT
ATOM      1  C   UNL     1      21.946 -46.847   5.857  1.00  0.00     0.180 A 
ATOM      2  C   UNL     1      22.751 -45.854   6.440  1.00  0.00     0.208 A 
ATOM      3  C   UNL     1      22.149 -44.876   7.248  1.00  0.00     0.238 A 
ATOM      4  O   UNL     1      22.866 -43.958   7.723  1.00  0.00    -0.285 OA
ATOM      5  C   UNL     1      20.752 -44.915   7.477  1.00  0.00     0.111 A 
ATOM      6  C   UNL     1      20.042 -43.999   8.311  1.00  0.00     0.134 A 
ATOM      7  C   UNL     1      18.643 -44.052   8.360  1.00  0.00     0.093 A 
ATOM      8  C   UNL     1      17.935 -45.026   7.659  1.00  0.00     0.123 A 
ATOM      9  C   UNL     1      18.623 -45.964   6.887  1.00  0.00     0.094 A 
ATOM     10  C   UNL     1      20.016 -45.914   6.789  1.00  0.00     0.146 A 
ATOM     11  O   UNL     1      20.631 -46.818   6.037  1.00  0.00    -0.452 OA
ENDROOT
BRANCH   1  12
ATOM     12  C   UNL     1      22.512 -47.925   5.013  1.00  0.00     0.021 A 
ATOM     13  C   UNL     1      22.062 -49.245   5.183  1.00  0.00     0.016 A 
ATOM     14  C   UNL     1      22.598 -50.281   4.413  1.00  0.00     0.047 A 
ATOM     15  C   UNL     1      23.601 -50.014   3.475  1.00  0.00     0.115 A 
ATOM     16  C   UNL     1      23.535 -47.666   4.082  1.00  0.00     0.016 A 
ATOM     17  C   UNL     1      24.070 -48.705   3.314  1.00  0.00     0.047 A 
BRANCH  15  18
ATOM     18  O   UNL     1      24.125 -51.057   2.715  1.00  0.00    -0.508 OA
ATOM     19  H   UNL     1      23.942 -51.130   1.720  1.00  0.00     0.293 HD
ENDBRANCH  15  18
ENDBRANCH   1  12
BRANCH   2  20
ATOM     20  O   UNL     1      24.124 -45.821   6.184  1.00  0.00    -0.502 OA
ATOM     21  H   UNL     1      24.759 -46.534   6.526  1.00  0.00     0.293 HD
ENDBRANCH   2  20
BRANCH   6  22
ATOM     22  O   UNL     1      20.659 -43.045   9.125  1.00  0.00    -0.507 OA
ATOM     23  H   UNL     1      21.158 -42.236   8.786  1.00  0.00     0.293 HD
ENDBRANCH   6  22
BRANCH   8  24
ATOM     24  O   UNL     1      16.544 -45.059   7.743  1.00  0.00    -0.508 OA
ATOM     25  H   UNL     1      16.066 -45.678   8.387  1.00  0.00     0.293 HD
ENDBRANCH   8  24
TORSDOF 5
ENDMDL
MODEL 3
REMARK VINA RESULT:    -4.807      1.505      6.530
REMARK INTER + INTRA:          -5.432
REMARK INTER:                  -5.198
REMARK INTRA:                  -0.233
REMARK UNBOUND:                 0.218
REMARK SMILES O=c1c(O)c(-c2ccc(O)cc2)oc2cc(O)cc(O)c12
REMARK SMILES IDX 5 1 3 2 2 3 1 4 21 5 19 6 18 7 16 8 15 9 14 10 13 11 6 12
REMARK SMILES IDX 7 13 8 14 9 15 12 16 11 17 10 18 4 20 20 22 17 24
REMARK H PARENT 10 19 4 21 20 23 17 25
REMARK Flexibility Score: inf
ROOT
ATOM      1  C   UNL     1      22.362 -46.212   7.288  1.00  0.00     0.180 A 
ATOM      2  C   UNL     1      21.389 -47.031   7.886  1.00  0.00     0.208 A 
ATOM      3  C   UNL     1      21.167 -48.317   7.366  1.00  0.00     0.238 A 
ATOM      4  O   UNL     1      20.257 -49.024   7.871  1.00  0.00    -0.285 OA
ATOM      5  C   UNL     1      21.933 -48.773   6.267  1.00  0.00     0.111 A 
ATOM      6  C   UNL     1      21.821 -50.072   5.685  1.00  0.00     0.134 A 
ATOM      7  C   UNL     1      22.536 -50.370   4.518  1.00  0.00     0.093 A 
ATOM      8  C   UNL     1      23.406 -49.441   3.950  1.00  0.00     0.123 A 
ATOM      9  C   UNL     1      23.568 -48.189   4.544  1.00  0.00     0.094 A 
ATOM     10  C   UNL     1      22.841 -47.850   5.688  1.00  0.00     0.146 A 
ATOM     11  O   UNL     1      23.017 -46.645   6.217  1.00  0.00    -0.452 OA
ENDROOT
BRANCH   1  12
ATOM     12  C   UNL     1      22.669 -44.855   7.794  1.00  0.00     0.021 A 
ATOM     13  C   UNL     1      21.803 -43.791   7.492  1.00  0.00     0.016 A 
ATOM     14  C   UNL     1      22.086 -42.498   7.941  1.00  0.00     0.047 A 
ATOM     15  C   UNL     1      23.245 -42.249   8.683  1.00  0.00     0.115 A 
ATOM     16  C   UNL     1      23.844 -44.595   8.525  1.00  0.00     0.016 A 
ATOM     17  C   UNL     1      24.125 -43.299   8.971  1.00  0.00     0.047 A 
BRANCH  15  18
ATOM     18  O   UNL     1      23.514 -40.955   9.125  1.00  0.00    -0.508 OA
ATOM     19  H   UNL     1      23.704 -40.758  10.101  1.00  0.00     0.293 HD
ENDBRANCH  15  18
ENDBRANCH   1  12
BRANCH   2  20
ATOM     20  O   UNL     1      20.629 -46.553   8.956  1.00  0.00    -0.502 OA
ATOM     21  H   UNL     1      20.190 -47.169   9.630  1.00  0.00     0.293 HD
ENDBRANCH   2  20
BRANCH   6  22
ATOM     22  O   UNL     1      21.050 -51.105   6.225  1.00  0.00    -0.507 OA
ATOM     23  H   UNL     1      20.447 -51.713   5.691  1.00  0.00     0.293 HD
ENDBRANCH   6  22
BRANCH   8  24
ATOM     24  O   UNL     1      24.113 -49.777   2.797  1.00  0.00    -0.508 OA
ATOM     25  H   UNL     1      23.768 -50.474   2.147  1.00  0.00     0.293 HD
ENDBRANCH   8  24
TORSDOF 5
ENDMDL
MODEL 4
REMARK VINA RESULT:    -4.795      1.952      6.408
REMARK INTER + INTRA:          -5.418
REMARK INTER:                  -5.991
REMARK INTRA:                   0.573
REMARK UNBOUND:                 0.218
REMARK SMILES O=c1c(O)c(-c2ccc(O)cc2)oc2cc(O)cc(O)c12
REMARK SMILES IDX 5 1 3 2 2 3 1 4 21 5 19 6 18 7 16 8 15 9 14 10 13 11 6 12
REMARK SMILES IDX 7 13 8 14 9 15 12 16 11 17 10 18 4 20 20 22 17 24
REMARK H PARENT 10 19 4 21 20 23 17 25
REMARK Flexibility Score: inf
ROOT
ATOM      1  C   UNL     1      21.219 -45.332   7.994  1.00  0.00     0.180 A 
ATOM      2  C   UNL     1      19.834 -45.412   8.220  1.00  0.00     0.208 A 
ATOM      3  C   UNL     1      19.164 -46.611   7.929  1.00  0.00     0.238 A 
ATOM      4  O   UNL     1      17.916 -46.659   8.081  1.00  0.00    -0.285 OA
ATOM      5  C   UNL     1      19.890 -47.720   7.432  1.00  0.00     0.111 A 
ATOM      6  C   UNL     1      19.321 -48.997   7.141  1.00  0.00     0.134 A 
ATOM      7  C   UNL     1      20.108 -49.981   6.530  1.00  0.00     0.093 A 
ATOM      8  C   UNL     1      21.458 -49.759   6.260  1.00  0.00     0.123 A 
ATOM      9  C   UNL     1      22.039 -48.535   6.595  1.00  0.00     0.094 A 
ATOM     10  C   UNL     1      21.271 -47.521   7.172  1.00  0.00     0.146 A 
ATOM     11  O   UNL     1      21.860 -46.368   7.466  1.00  0.00    -0.452 OA
ENDROOT
BRANCH   1  12
ATOM     12  C   UNL     1      21.999 -44.111   8.300  1.00  0.00     0.021 A 
ATOM     13  C   UNL     1      21.347 -42.993   8.847  1.00  0.00     0.016 A 
ATOM     14  C   UNL     1      22.060 -41.822   9.122  1.00  0.00     0.047 A 
ATOM     15  C   UNL     1      23.428 -41.748   8.841  1.00  0.00     0.115 A 
ATOM     16  C   UNL     1      23.371 -44.024   8.001  1.00  0.00     0.016 A 
ATOM     17  C   UNL     1      24.081 -42.851   8.277  1.00  0.00     0.047 A 
BRANCH  15  18
ATOM     18  O   UNL     1      24.125 -40.575   9.122  1.00  0.00    -0.508 OA
ATOM     19  H   UNL     1      24.051 -40.119  10.024  1.00  0.00     0.293 HD
ENDBRANCH  15  18
ENDBRANCH   1  12
BRANCH   2  20
ATOM     20  O   UNL     1      19.134 -44.298   8.690  1.00  0.00    -0.502 OA
ATOM     21  H   UNL     1      19.183 -43.393   8.238  1.00  0.00     0.293 HD
ENDBRANCH   2  20
BRANCH   6  22
ATOM     22  O   UNL     1      18.006 -49.354   7.454  1.00  0.00    -0.507 OA
ATOM     23  H   UNL     1      17.670 -49.552   8.384  1.00  0.00     0.293 HD
ENDBRANCH   6  22
BRANCH   8  24
ATOM     24  O   UNL     1      22.215 -50.766   5.666  1.00  0.00    -0.508 OA
ATOM     25  H   UNL     1      23.196 -50.893   5.886  1.00  0.00     0.293 HD
ENDBRANCH   8  24
TORSDOF 5
ENDMDL
MODEL 5
REMARK VINA RESULT:    -4.379      2.371      6.641
REMARK INTER + INTRA:          -4.929
REMARK INTER:                  -4.937
REMARK INTRA:                   0.008
REMARK UNBOUND:                 0.218
REMARK SMILES O=c1c(O)c(-c2ccc(O)cc2)oc2cc(O)cc(O)c12
REMARK SMILES IDX 5 1 3 2 2 3 1 4 21 5 19 6 18 7 16 8 15 9 14 10 13 11 6 12
REMARK SMILES IDX 7 13 8 14 9 15 12 16 11 17 10 18 4 20 20 22 17 24
REMARK H PARENT 10 19 4 21 20 23 17 25
REMARK Flexibility Score: inf
ROOT
ATOM      1  C   UNL     1      22.015 -46.226   7.795  1.00  0.00     0.180 A 
ATOM      2  C   UNL     1      22.788 -47.088   6.998  1.00  0.00     0.208 A 
ATOM      3  C   UNL     1      22.303 -48.375   6.717  1.00  0.00     0.238 A 
ATOM      4  O   UNL     1      23.023 -49.161   6.049  1.00  0.00    -0.285 OA
ATOM      5  C   UNL     1      21.043 -48.778   7.222  1.00  0.00     0.111 A 
ATOM      6  C   UNL     1      20.435 -50.044   6.967  1.00  0.00     0.134 A 
ATOM      7  C   UNL     1      19.247 -50.385   7.626  1.00  0.00     0.093 A 
ATOM      8  C   UNL     1      18.611 -49.482   8.477  1.00  0.00     0.123 A 
ATOM      9  C   UNL     1      19.166 -48.219   8.687  1.00  0.00     0.094 A 
ATOM     10  C   UNL     1      20.370 -47.864   8.073  1.00  0.00     0.146 A 
ATOM     11  O   UNL     1      20.869 -46.656   8.307  1.00  0.00    -0.452 OA
ENDROOT
BRANCH   1  12
ATOM     12  C   UNL     1      22.448 -44.846   8.113  1.00  0.00     0.021 A 
ATOM     13  C   UNL     1      23.697 -44.636   8.723  1.00  0.00     0.016 A 
ATOM     14  C   UNL     1      24.116 -43.344   9.053  1.00  0.00     0.047 A 
ATOM     15  C   UNL     1      23.287 -42.247   8.792  1.00  0.00     0.115 A 
ATOM     16  C   UNL     1      21.611 -43.741   7.871  1.00  0.00     0.016 A 
ATOM     17  C   UNL     1      22.033 -42.450   8.203  1.00  0.00     0.047 A 
BRANCH  15  18
ATOM     18  O   UNL     1      23.719 -40.966   9.125  1.00  0.00    -0.508 OA
ATOM     19  H   UNL     1      23.779 -40.230   8.430  1.00  0.00     0.293 HD
ENDBRANCH  15  18
ENDBRANCH   1  12
BRANCH   2  20
ATOM     20  O   UNL     1      24.038 -46.678   6.527  1.00  0.00    -0.502 OA
ATOM     21  H   UNL     1      24.432 -45.770   6.746  1.00  0.00     0.293 HD
ENDBRANCH   2  20
BRANCH   6  22
ATOM     22  O   UNL     1      20.939 -50.984   6.063  1.00  0.00    -0.507 OA
ATOM     23  H   UNL     1      20.408 -51.407   5.317  1.00  0.00     0.293 HD
ENDBRANCH   6  22
BRANCH   8  24
ATOM     24  O   UNL     1      17.422 -49.849   9.103  1.00  0.00    -0.508 OA
ATOM     25  H   UNL     1      17.079 -49.357   9.920  1.00  0.00     0.293 HD
ENDBRANCH   8  24
TORSDOF 5
ENDMDL
MODEL 6
REMARK VINA RESULT:    -3.484      2.791      6.759
REMARK INTER + INTRA:          -3.877
REMARK INTER:                  -4.198
REMARK INTRA:                   0.322
REMARK UNBOUND:                 0.218
REMARK SMILES O=c1c(O)c(-c2ccc(O)cc2)oc2cc(O)cc(O)c12
REMARK SMILES IDX 5 1 3 2 2 3 1 4 21 5 19 6 18 7 16 8 15 9 14 10 13 11 6 12
REMARK SMILES IDX 7 13 8 14 9 15 12 16 11 17 10 18 4 20 20 22 17 24
REMARK H PARENT 10 19 4 21 20 23 17 25
REMARK Flexibility Score: inf
ROOT
ATOM      1  C   UNL     1      19.919 -47.599   7.416  1.00  0.00     0.180 A 
ATOM      2  C   UNL     1      20.140 -48.818   8.080  1.00  0.00     0.208 A 
ATOM      3  C   UNL     1      21.190 -49.647   7.653  1.00  0.00     0.238 A 
ATOM      4  O   UNL     1      21.349 -50.760   8.215  1.00  0.00    -0.285 OA
ATOM      5  C   UNL     1      22.016 -49.238   6.578  1.00  0.00     0.111 A 
ATOM      6  C   UNL     1      23.133 -49.979   6.087  1.00  0.00     0.134 A 
ATOM      7  C   UNL     1      23.799 -49.543   4.935  1.00  0.00     0.093 A 
ATOM      8  C   UNL     1      23.430 -48.360   4.294  1.00  0.00     0.123 A 
ATOM      9  C   UNL     1      22.378 -47.597   4.800  1.00  0.00     0.094 A 
ATOM     10  C   UNL     1      21.671 -48.025   5.927  1.00  0.00     0.146 A 
ATOM     11  O   UNL     1      20.669 -47.275   6.370  1.00  0.00    -0.452 OA
ENDROOT
BRANCH   1  12
ATOM     12  C   UNL     1      18.848 -46.662   7.825  1.00  0.00     0.021 A 
ATOM     13  C   UNL     1      17.641 -47.169   8.335  1.00  0.00     0.016 A 
ATOM     14  C   UNL     1      16.609 -46.303   8.706  1.00  0.00     0.047 A 
ATOM     15  C   UNL     1      16.763 -44.921   8.558  1.00  0.00     0.115 A 
ATOM     16  C   UNL     1      18.989 -45.271   7.660  1.00  0.00     0.016 A 
ATOM     17  C   UNL     1      17.954 -44.407   8.031  1.00  0.00     0.047 A 
BRANCH  15  18
ATOM     18  O   UNL     1      15.725 -44.070   8.933  1.00  0.00    -0.508 OA
ATOM     19  H   UNL     1      15.108 -43.653   8.245  1.00  0.00     0.293 HD
ENDBRANCH  15  18
ENDBRANCH   1  12
BRANCH   2  20
ATOM     20  O   UNL     1      19.300 -49.212   9.125  1.00  0.00    -0.502 OA
ATOM     21  H   UNL     1      19.302 -48.752  10.028  1.00  0.00     0.293 HD
ENDBRANCH   2  20
BRANCH   6  22
ATOM     22  O   UNL     1      23.642 -51.125   6.706  1.00  0.00    -0.507 OA
ATOM     23  H   UNL     1      23.263 -52.053   6.597  1.00  0.00     0.293 HD
ENDBRANCH   6  22
BRANCH   8  24
ATOM     24  O   UNL     1      24.125 -47.949   3.159  1.00  0.00    -0.508 OA
ATOM     25  H   UNL     1      23.914 -47.071   2.697  1.00  0.00     0.293 HD
ENDBRANCH   8  24
TORSDOF 5
ENDMDL
MODEL 7
REMARK VINA RESULT:    -3.049      4.176      8.074
REMARK INTER + INTRA:          -3.366
REMARK INTER:                  -3.215
REMARK INTRA:                  -0.151
REMARK UNBOUND:                 0.218
REMARK SMILES O=c1c(O)c(-c2ccc(O)cc2)oc2cc(O)cc(O)c12
REMARK SMILES IDX 5 1 3 2 2 3 1 4 21 5 19 6 18 7 16 8 15 9 14 10 13 11 6 12
REMARK SMILES IDX 7 13 8 14 9 15 12 16 11 17 10 18 4 20 20 22 17 24
REMARK H PARENT 10 19 4 21 20 23 17 25
REMARK Flexibility Score: inf
ROOT
ATOM      1  C   UNL     1      17.001 -45.670   7.982  1.00  0.00     0.180 A 
ATOM      2  C   UNL     1      18.156 -45.026   7.504  1.00  0.00     0.208 A 
ATOM      3  C   UNL     1      19.347 -45.761   7.387  1.00  0.00     0.238 A 
ATOM      4  O   UNL     1      20.390 -45.166   7.011  1.00  0.00    -0.285 OA
ATOM      5  C   UNL     1      19.363 -47.134   7.732  1.00  0.00     0.111 A 
ATOM      6  C   UNL     1      20.503 -47.985   7.615  1.00  0.00     0.134 A 
ATOM      7  C   UNL     1      20.442 -49.294   8.110  1.00  0.00     0.093 A 
ATOM      8  C   UNL     1      19.264 -49.802   8.657  1.00  0.00     0.123 A 
ATOM      9  C   UNL     1      18.126 -48.997   8.722  1.00  0.00     0.094 A 
ATOM     10  C   UNL     1      18.167 -47.676   8.270  1.00  0.00     0.146 A 
ATOM     11  O   UNL     1      17.066 -46.941   8.359  1.00  0.00    -0.452 OA
ENDROOT
BRANCH   1  12
ATOM     12  C   UNL     1      15.703 -44.968   8.109  1.00  0.00     0.021 A 
ATOM     13  C   UNL     1      14.647 -45.305   7.247  1.00  0.00     0.016 A 
ATOM     14  C   UNL     1      13.420 -44.640   7.335  1.00  0.00     0.047 A 
ATOM     15  C   UNL     1      13.239 -43.620   8.275  1.00  0.00     0.115 A 
ATOM     16  C   UNL     1      15.521 -43.928   9.039  1.00  0.00     0.016 A 
ATOM     17  C   UNL     1      14.293 -43.263   9.124  1.00  0.00     0.047 A 
BRANCH  15  18
ATOM     18  O   UNL     1      12.011 -42.967   8.352  1.00  0.00    -0.508 OA
ATOM     19  H   UNL     1      11.149 -43.478   8.501  1.00  0.00     0.293 HD
ENDBRANCH  15  18
ENDBRANCH   1  12
BRANCH   2  20
ATOM     20  O   UNL     1      18.123 -43.665   7.189  1.00  0.00    -0.502 OA
ATOM     21  H   UNL     1      18.536 -43.292   6.343  1.00  0.00     0.293 HD
ENDBRANCH   2  20
BRANCH   6  22
ATOM     22  O   UNL     1      21.701 -47.605   7.002  1.00  0.00    -0.507 OA
ATOM     23  H   UNL     1      22.079 -46.670   7.009  1.00  0.00     0.293 HD
ENDBRANCH   6  22
BRANCH   8  24
ATOM     24  O   UNL     1      19.235 -51.114   9.125  1.00  0.00    -0.508 OA
ATOM     25  H   UNL     1      18.503 -51.439   9.747  1.00  0.00     0.293 HD
ENDBRANCH   8  24
TORSDOF 5
ENDMDL
MODEL 8
REMARK VINA RESULT:    -2.859      3.768      7.073
REMARK INTER + INTRA:          -3.143
REMARK INTER:                  -3.136
REMARK INTRA:                  -0.007
REMARK UNBOUND:                 0.218
REMARK SMILES O=c1c(O)c(-c2ccc(O)cc2)oc2cc(O)cc(O)c12
REMARK SMILES IDX 5 1 3 2 2 3 1 4 21 5 19 6 18 7 16 8 15 9 14 10 13 11 6 12
REMARK SMILES IDX 7 13 8 14 9 15 12 16 11 17 10 18 4 20 20 22 17 24
REMARK H PARENT 10 19 4 21 20 23 17 25
REMARK Flexibility Score: inf
ROOT
ATOM      1  C   UNL     1      17.458 -45.003   8.232  1.00  0.00     0.180 A 
ATOM      2  C   UNL     1      17.917 -46.324   8.372  1.00  0.00     0.208 A 
ATOM      3  C   UNL     1      19.300 -46.568   8.383  1.00  0.00     0.238 A 
ATOM      4  O   UNL     1      19.703 -47.757   8.454  1.00  0.00    -0.285 OA
ATOM      5  C   UNL     1      20.206 -45.486   8.272  1.00  0.00     0.111 A 
ATOM      6  C   UNL     1      21.628 -45.612   8.312  1.00  0.00     0.134 A 
ATOM      7  C   UNL     1      22.428 -44.491   8.060  1.00  0.00     0.093 A 
ATOM      8  C   UNL     1      21.861 -43.238   7.835  1.00  0.00     0.123 A 
ATOM      9  C   UNL     1      20.474 -43.091   7.853  1.00  0.00     0.094 A 
ATOM     10  C   UNL     1      19.648 -44.198   8.064  1.00  0.00     0.146 A 
ATOM     11  O   UNL     1      18.332 -44.018   8.064  1.00  0.00    -0.452 OA
ENDROOT
BRANCH   1  12
ATOM     12  C   UNL     1      16.017 -44.664   8.236  1.00  0.00     0.021 A 
ATOM     13  C   UNL     1      15.162 -45.265   7.297  1.00  0.00     0.016 A 
ATOM     14  C   UNL     1      13.802 -44.942   7.269  1.00  0.00     0.047 A 
ATOM     15  C   UNL     1      13.282 -44.005   8.168  1.00  0.00     0.115 A 
ATOM     16  C   UNL     1      15.492 -43.708   9.125  1.00  0.00     0.016 A 
ATOM     17  C   UNL     1      14.131 -43.386   9.094  1.00  0.00     0.047 A 
BRANCH  15  18
ATOM     18  O   UNL     1      11.925 -43.695   8.128  1.00  0.00    -0.508 OA
ATOM     19  H   UNL     1      11.469 -43.215   8.897  1.00  0.00     0.293 HD
ENDBRANCH  15  18
ENDBRANCH   1  12
BRANCH   2  20
ATOM     20  O   UNL     1      17.005 -47.379   8.459  1.00  0.00    -0.502 OA
ATOM     21  H   UNL     1      16.011 -47.254   8.306  1.00  0.00     0.293 HD
ENDBRANCH   2  20
BRANCH   6  22
ATOM     22  O   UNL     1      22.297 -46.801   8.619  1.00  0.00    -0.507 OA
ATOM     23  H   UNL     1      22.434 -47.159   9.552  1.00  0.00     0.293 HD
ENDBRANCH   6  22
BRANCH   8  24
ATOM     24  O   UNL     1      22.688 -42.141   7.603  1.00  0.00    -0.508 OA
ATOM     25  H   UNL     1      23.556 -42.230   7.087  1.00  0.00     0.293 HD
ENDBRANCH   8  24
TORSDOF 5
ENDMDL
