MODEL 1
REMARK VINA RESULT:    -2.980      0.000      0.000
REMARK INTER + INTRA:          -9.385
REMARK INTER:                  -6.465
REMARK INTRA:                  -2.920
REMARK UNBOUND:                -2.920
REMARK SMILES CCCCCCCCCCCCCCCCCCCCCC(=O)[O-]
REMARK SMILES IDX 12 1 11 2 10 3 9 4 8 5 7 6 6 7 5 8 4 9 3 10 2 11 1 12 13 13
REMARK SMILES IDX 14 14 15 15 16 16 17 17 18 18 19 19 20 20 21 21 22 22 23 23
REMARK SMILES IDX 24 24
REMARK H PARENT
REMARK Flexibility Score: inf
ROOT
ATOM      1  C   UNL     1     -19.331  12.604   1.121  1.00  0.00     0.000 C 
ENDROOT
BRANCH   1   2
ATOM      2  C   UNL     1     -18.608  11.827   0.010  1.00  0.00     0.000 C 
BRANCH   2   3
ATOM      3  C   UNL     1     -18.693  10.313   0.255  1.00  0.00     0.000 C 
BRANCH   3   4
ATOM      4  C   UNL     1     -17.311   9.664   0.430  1.00  0.00    -0.000 C 
BRANCH   4   5
ATOM      5  C   UNL     1     -17.045   9.225   1.881  1.00  0.00    -0.000 C 
BRANCH   5   6
ATOM      6  C   UNL     1     -18.282   9.382   2.781  1.00  0.00    -0.000 C 
BRANCH   6   7
ATOM      7  C   UNL     1     -17.953  10.050   4.124  1.00  0.00    -0.000 C 
BRANCH   7   8
ATOM      8  C   UNL     1     -17.125  11.326   3.914  1.00  0.00    -0.000 C 
BRANCH   8   9
ATOM      9  C   UNL     1     -15.891  11.392   4.829  1.00  0.00    -0.000 C 
BRANCH   9  10
ATOM     10  C   UNL     1     -15.091  10.078   4.838  1.00  0.00    -0.000 C 
BRANCH  10  11
ATOM     11  C   UNL     1     -13.692  10.237   4.225  1.00  0.00    -0.003 C 
ATOM     12  C   UNL     1     -13.269   9.030   3.388  1.00  0.00     0.004 C 
ENDBRANCH  10  11
ENDBRANCH   9  10
ENDBRANCH   8   9
ENDBRANCH   7   8
ENDBRANCH   6   7
ENDBRANCH   5   6
ENDBRANCH   4   5
ENDBRANCH   3   4
ENDBRANCH   2   3
ENDBRANCH   1   2
BRANCH   1  13
ATOM     13  C   UNL     1     -19.298  14.125   0.901  1.00  0.00     0.000 C 
BRANCH  13  14
ATOM     14  C   UNL     1     -18.546  14.520  -0.383  1.00  0.00     0.000 C 
BRANCH  14  15
ATOM     15  C   UNL     1     -19.462  15.185  -1.422  1.00  0.00     0.000 C 
BRANCH  15  16
ATOM     16  C   UNL     1     -19.855  14.235  -2.563  1.00  0.00     0.000 C 
BRANCH  16  17
ATOM     17  C   UNL     1     -18.608  13.700  -3.284  1.00  0.00     0.000 C 
BRANCH  17  18
ATOM     18  C   UNL     1     -18.672  12.185  -3.547  1.00  0.00     0.000 C 
BRANCH  18  19
ATOM     19  C   UNL     1     -17.440  11.592  -4.261  1.00  0.00     0.000 C 
BRANCH  19  20
ATOM     20  C   UNL     1     -16.078  12.112  -3.757  1.00  0.00     0.006 C 
BRANCH  20  21
ATOM     21  C   UNL     1     -15.679  11.596  -2.366  1.00  0.00     0.053 C 
BRANCH  21  22
ATOM     22  C   UNL     1     -14.824  10.369  -2.450  1.00  0.00     0.041 C 
ATOM     23  O   UNL     1     -15.354   9.228  -2.505  1.00  0.00    -0.550 OA
ATOM     24  O   UNL     1     -13.440  10.485  -2.433  1.00  0.00    -0.550 OA
ENDBRANCH  21  22
ENDBRANCH  20  21
ENDBRANCH  19  20
ENDBRANCH  18  19
ENDBRANCH  17  18
ENDBRANCH  16  17
ENDBRANCH  15  16
ENDBRANCH  14  15
ENDBRANCH  13  14
ENDBRANCH   1  13
TORSDOF 20
ENDMDL
MODEL 2
REMARK VINA RESULT:    -2.904      4.109      7.213
REMARK INTER + INTRA:          -9.220
REMARK INTER:                  -6.687
REMARK INTRA:                  -2.532
REMARK UNBOUND:                -2.920
REMARK SMILES CCCCCCCCCCCCCCCCCCCCCC(=O)[O-]
REMARK SMILES IDX 12 1 11 2 10 3 9 4 8 5 7 6 6 7 5 8 4 9 3 10 2 11 1 12 13 13
REMARK SMILES IDX 14 14 15 15 16 16 17 17 18 18 19 19 20 20 21 21 22 22 23 23
REMARK SMILES IDX 24 24
REMARK H PARENT
REMARK Flexibility Score: inf
ROOT
ATOM      1  C   UNL     1     -13.010  10.358   4.250  1.00  0.00     0.000 C 
ENDROOT
BRANCH   1   2
ATOM      2  C   UNL     1     -12.304  10.085   5.588  1.00  0.00     0.000 C 
BRANCH   2   3
ATOM      3  C   UNL     1     -13.070   9.034   6.407  1.00  0.00     0.000 C 
BRANCH   3   4
ATOM      4  C   UNL     1     -13.950   9.663   7.498  1.00  0.00    -0.000 C 
BRANCH   4   5
ATOM      5  C   UNL     1     -15.401   9.149   7.454  1.00  0.00    -0.000 C 
BRANCH   5   6
ATOM      6  C   UNL     1     -16.417  10.215   7.896  1.00  0.00    -0.000 C 
BRANCH   6   7
ATOM      7  C   UNL     1     -17.324   9.728   9.037  1.00  0.00    -0.000 C 
BRANCH   7   8
ATOM      8  C   UNL     1     -16.506   9.005  10.117  1.00  0.00    -0.000 C 
BRANCH   8   9
ATOM      9  C   UNL     1     -16.049   9.944  11.245  1.00  0.00    -0.000 C 
BRANCH   9  10
ATOM     10  C   UNL     1     -14.546   9.816  11.549  1.00  0.00    -0.000 C 
BRANCH  10  11
ATOM     11  C   UNL     1     -14.110  10.685  12.738  1.00  0.00    -0.003 C 
ATOM     12  C   UNL     1     -15.292  11.287  13.499  1.00  0.00     0.004 C 
ENDBRANCH  10  11
ENDBRANCH   9  10
ENDBRANCH   8   9
ENDBRANCH   7   8
ENDBRANCH   6   7
ENDBRANCH   5   6
ENDBRANCH   4   5
ENDBRANCH   3   4
ENDBRANCH   2   3
ENDBRANCH   1   2
BRANCH   1  13
ATOM     13  C   UNL     1     -13.925   9.201   3.814  1.00  0.00     0.000 C 
BRANCH  13  14
ATOM     14  C   UNL     1     -15.406   9.613   3.752  1.00  0.00     0.000 C 
BRANCH  14  15
ATOM     15  C   UNL     1     -15.645  11.039   4.273  1.00  0.00     0.000 C 
BRANCH  15  16
ATOM     16  C   UNL     1     -17.131  11.342   4.515  1.00  0.00     0.000 C 
BRANCH  16  17
ATOM     17  C   UNL     1     -17.986  10.081   4.319  1.00  0.00     0.000 C 
BRANCH  17  18
ATOM     18  C   UNL     1     -19.243  10.336   3.469  1.00  0.00     0.000 C 
BRANCH  18  19
ATOM     19  C   UNL     1     -19.113   9.957   1.979  1.00  0.00     0.000 C 
BRANCH  19  20
ATOM     20  C   UNL     1     -18.568  11.074   1.065  1.00  0.00     0.006 C 
BRANCH  20  21
ATOM     21  C   UNL     1     -19.296  12.420   1.206  1.00  0.00     0.053 C 
BRANCH  21  22
ATOM     22  C   UNL     1     -19.085  13.297   0.010  1.00  0.00     0.041 C 
ATOM     23  O   UNL     1     -19.431  12.903  -1.134  1.00  0.00    -0.550 OA
ATOM     24  O   UNL     1     -18.476  14.536   0.157  1.00  0.00    -0.550 OA
ENDBRANCH  21  22
ENDBRANCH  20  21
ENDBRANCH  19  20
ENDBRANCH  18  19
ENDBRANCH  17  18
ENDBRANCH  16  17
ENDBRANCH  15  16
ENDBRANCH  14  15
ENDBRANCH  13  14
ENDBRANCH   1  13
TORSDOF 20
ENDMDL
MODEL 3
REMARK VINA RESULT:    -2.842      6.084     10.619
REMARK INTER + INTRA:          -9.086
REMARK INTER:                  -5.963
REMARK INTRA:                  -3.123
REMARK UNBOUND:                -2.920
REMARK SMILES CCCCCCCCCCCCCCCCCCCCCC(=O)[O-]
REMARK SMILES IDX 12 1 11 2 10 3 9 4 8 5 7 6 6 7 5 8 4 9 3 10 2 11 1 12 13 13
REMARK SMILES IDX 14 14 15 15 16 16 17 17 18 18 19 19 20 20 21 21 22 22 23 23
REMARK SMILES IDX 24 24
REMARK H PARENT
REMARK Flexibility Score: inf
ROOT
ATOM      1  C   UNL     1     -12.587  10.149   6.084  1.00  0.00     0.000 C 
ENDROOT
BRANCH   1   2
ATOM      2  C   UNL     1     -13.136  10.380   4.668  1.00  0.00     0.000 C 
BRANCH   2   3
ATOM      3  C   UNL     1     -13.912   9.150   4.173  1.00  0.00     0.000 C 
BRANCH   3   4
ATOM      4  C   UNL     1     -15.384   9.467   3.861  1.00  0.00    -0.000 C 
BRANCH   4   5
ATOM      5  C   UNL     1     -15.783  10.891   4.284  1.00  0.00    -0.000 C 
BRANCH   5   6
ATOM      6  C   UNL     1     -16.761  10.901   5.471  1.00  0.00    -0.000 C 
BRANCH   6   7
ATOM      7  C   UNL     1     -17.278   9.498   5.822  1.00  0.00    -0.000 C 
BRANCH   7   8
ATOM      8  C   UNL     1     -18.806   9.427   5.685  1.00  0.00    -0.000 C 
BRANCH   8   9
ATOM      9  C   UNL     1     -19.260   9.065   4.261  1.00  0.00    -0.000 C 
BRANCH   9  10
ATOM     10  C   UNL     1     -19.913  10.249   3.529  1.00  0.00    -0.000 C 
BRANCH  10  11
ATOM     11  C   UNL     1     -19.044  10.782   2.380  1.00  0.00    -0.003 C 
ATOM     12  C   UNL     1     -18.843  12.296   2.440  1.00  0.00     0.004 C 
ENDBRANCH  10  11
ENDBRANCH   9  10
ENDBRANCH   8   9
ENDBRANCH   7   8
ENDBRANCH   6   7
ENDBRANCH   5   6
ENDBRANCH   4   5
ENDBRANCH   3   4
ENDBRANCH   2   3
ENDBRANCH   1   2
BRANCH   1  13
ATOM     13  C   UNL     1     -13.395   9.104   6.872  1.00  0.00     0.000 C 
BRANCH  13  14
ATOM     14  C   UNL     1     -14.341   9.746   7.903  1.00  0.00     0.000 C 
BRANCH  14  15
ATOM     15  C   UNL     1     -14.167   9.157   9.311  1.00  0.00     0.000 C 
BRANCH  15  16
ATOM     16  C   UNL     1     -15.472   9.153  10.120  1.00  0.00     0.000 C 
BRANCH  16  17
ATOM     17  C   UNL     1     -16.537  10.031   9.445  1.00  0.00     0.000 C 
BRANCH  17  18
ATOM     18  C   UNL     1     -17.943   9.406   9.487  1.00  0.00     0.000 C 
BRANCH  18  19
ATOM     19  C   UNL     1     -19.100  10.411   9.658  1.00  0.00     0.000 C 
BRANCH  19  20
ATOM     20  C   UNL     1     -19.525  10.678  11.117  1.00  0.00     0.006 C 
BRANCH  20  21
ATOM     21  C   UNL     1     -18.776  11.836  11.793  1.00  0.00     0.053 C 
BRANCH  21  22
ATOM     22  C   UNL     1     -17.943  11.366  12.946  1.00  0.00     0.041 C 
ATOM     23  O   UNL     1     -18.491  10.860  13.961  1.00  0.00    -0.550 OA
ATOM     24  O   UNL     1     -16.563  11.516  12.912  1.00  0.00    -0.550 OA
ENDBRANCH  21  22
ENDBRANCH  20  21
ENDBRANCH  19  20
ENDBRANCH  18  19
ENDBRANCH  17  18
ENDBRANCH  16  17
ENDBRANCH  15  16
ENDBRANCH  14  15
ENDBRANCH  13  14
ENDBRANCH   1  13
TORSDOF 20
ENDMDL
MODEL 4
REMARK VINA RESULT:    -2.832      4.247      8.102
REMARK INTER + INTRA:          -9.064
REMARK INTER:                  -5.944
REMARK INTRA:                  -3.120
REMARK UNBOUND:                -2.920
REMARK SMILES CCCCCCCCCCCCCCCCCCCCCC(=O)[O-]
REMARK SMILES IDX 12 1 11 2 10 3 9 4 8 5 7 6 6 7 5 8 4 9 3 10 2 11 1 12 13 13
REMARK SMILES IDX 14 14 15 15 16 16 17 17 18 18 19 19 20 20 21 21 22 22 23 23
REMARK SMILES IDX 24 24
REMARK H PARENT
REMARK Flexibility Score: inf
ROOT
ATOM      1  C   UNL     1     -13.285  10.368   4.206  1.00  0.00     0.000 C 
ENDROOT
BRANCH   1   2
ATOM      2  C   UNL     1     -12.293   9.791   5.229  1.00  0.00     0.000 C 
BRANCH   2   3
ATOM      3  C   UNL     1     -13.020   8.925   6.269  1.00  0.00     0.000 C 
BRANCH   3   4
ATOM      4  C   UNL     1     -13.608   9.756   7.421  1.00  0.00    -0.000 C 
BRANCH   4   5
ATOM      5  C   UNL     1     -14.522   8.926   8.340  1.00  0.00    -0.000 C 
BRANCH   5   6
ATOM      6  C   UNL     1     -14.280   9.214   9.830  1.00  0.00    -0.000 C 
BRANCH   6   7
ATOM      7  C   UNL     1     -15.567   9.601  10.573  1.00  0.00    -0.000 C 
BRANCH   7   8
ATOM      8  C   UNL     1     -16.700   9.910   9.584  1.00  0.00    -0.000 C 
BRANCH   8   9
ATOM      9  C   UNL     1     -18.077   9.456  10.095  1.00  0.00    -0.000 C 
BRANCH   9  10
ATOM     10  C   UNL     1     -18.413  10.031  11.481  1.00  0.00    -0.000 C 
BRANCH  10  11
ATOM     11  C   UNL     1     -18.805  11.515  11.424  1.00  0.00    -0.003 C 
ATOM     12  C   UNL     1     -18.148  12.347  12.525  1.00  0.00     0.004 C 
ENDBRANCH  10  11
ENDBRANCH   9  10
ENDBRANCH   8   9
ENDBRANCH   7   8
ENDBRANCH   6   7
ENDBRANCH   5   6
ENDBRANCH   4   5
ENDBRANCH   3   4
ENDBRANCH   2   3
ENDBRANCH   1   2
BRANCH   1  13
ATOM     13  C   UNL     1     -14.275   9.316   3.680  1.00  0.00     0.000 C 
BRANCH  13  14
ATOM     14  C   UNL     1     -15.738   9.788   3.766  1.00  0.00     0.000 C 
BRANCH  14  15
ATOM     15  C   UNL     1     -15.907  11.027   4.659  1.00  0.00     0.000 C 
BRANCH  15  16
ATOM     16  C   UNL     1     -16.743  10.744   5.915  1.00  0.00     0.000 C 
BRANCH  16  17
ATOM     17  C   UNL     1     -17.297   9.312   5.894  1.00  0.00     0.000 C 
BRANCH  17  18
ATOM     18  C   UNL     1     -18.727   9.214   6.455  1.00  0.00     0.000 C 
BRANCH  18  19
ATOM     19  C   UNL     1     -19.850   9.480   5.432  1.00  0.00     0.000 C 
BRANCH  19  20
ATOM     20  C   UNL     1     -19.428   9.364   3.953  1.00  0.00     0.006 C 
BRANCH  20  21
ATOM     21  C   UNL     1     -19.988  10.471   3.046  1.00  0.00     0.053 C 
BRANCH  21  22
ATOM     22  C   UNL     1     -18.898  11.241   2.366  1.00  0.00     0.041 C 
ATOM     23  O   UNL     1     -18.700  12.450   2.654  1.00  0.00    -0.550 OA
ATOM     24  O   UNL     1     -18.123  10.630   1.388  1.00  0.00    -0.550 OA
ENDBRANCH  21  22
ENDBRANCH  20  21
ENDBRANCH  19  20
ENDBRANCH  18  19
ENDBRANCH  17  18
ENDBRANCH  16  17
ENDBRANCH  15  16
ENDBRANCH  14  15
ENDBRANCH  13  14
ENDBRANCH   1  13
TORSDOF 20
ENDMDL
MODEL 5
REMARK VINA RESULT:    -2.826      4.271      7.114
REMARK INTER + INTRA:          -9.050
REMARK INTER:                  -7.033
REMARK INTRA:                  -2.017
REMARK UNBOUND:                -2.920
REMARK SMILES CCCCCCCCCCCCCCCCCCCCCC(=O)[O-]
REMARK SMILES IDX 12 1 11 2 10 3 9 4 8 5 7 6 6 7 5 8 4 9 3 10 2 11 1 12 13 13
REMARK SMILES IDX 14 14 15 15 16 16 17 17 18 18 19 19 20 20 21 21 22 22 23 23
REMARK SMILES IDX 24 24
REMARK H PARENT
REMARK Flexibility Score: inf
ROOT
ATOM      1  C   UNL     1     -13.244  10.395   4.525  1.00  0.00     0.000 C 
ENDROOT
BRANCH   1   2
ATOM      2  C   UNL     1     -12.781  10.272   5.985  1.00  0.00     0.000 C 
BRANCH   2   3
ATOM      3  C   UNL     1     -13.171   8.906   6.570  1.00  0.00     0.000 C 
BRANCH   3   4
ATOM      4  C   UNL     1     -14.051   9.031   7.825  1.00  0.00    -0.000 C 
BRANCH   4   5
ATOM      5  C   UNL     1     -15.109  10.140   7.695  1.00  0.00    -0.000 C 
BRANCH   5   6
ATOM      6  C   UNL     1     -16.543   9.587   7.662  1.00  0.00    -0.000 C 
BRANCH   6   7
ATOM      7  C   UNL     1     -17.446  10.221   8.730  1.00  0.00    -0.000 C 
BRANCH   7   8
ATOM      8  C   UNL     1     -17.326   9.471  10.065  1.00  0.00    -0.000 C 
BRANCH   8   9
ATOM      9  C   UNL     1     -16.464  10.222  11.094  1.00  0.00    -0.000 C 
BRANCH   9  10
ATOM     10  C   UNL     1     -15.233   9.414  11.537  1.00  0.00    -0.000 C 
BRANCH  10  11
ATOM     11  C   UNL     1     -14.190  10.280  12.258  1.00  0.00    -0.003 C 
ATOM     12  C   UNL     1     -14.809  11.214  13.298  1.00  0.00     0.004 C 
ENDBRANCH  10  11
ENDBRANCH   9  10
ENDBRANCH   8   9
ENDBRANCH   7   8
ENDBRANCH   6   7
ENDBRANCH   5   6
ENDBRANCH   4   5
ENDBRANCH   3   4
ENDBRANCH   2   3
ENDBRANCH   1   2
BRANCH   1  13
ATOM     13  C   UNL     1     -14.166   9.242   4.094  1.00  0.00     0.000 C 
BRANCH  13  14
ATOM     14  C   UNL     1     -15.619   9.699   3.875  1.00  0.00     0.000 C 
BRANCH  14  15
ATOM     15  C   UNL     1     -15.863  11.140   4.353  1.00  0.00     0.000 C 
BRANCH  15  16
ATOM     16  C   UNL     1     -17.348  11.529   4.332  1.00  0.00     0.000 C 
BRANCH  16  17
ATOM     17  C   UNL     1     -18.018  11.066   3.030  1.00  0.00     0.000 C 
BRANCH  17  18
ATOM     18  C   UNL     1     -19.112  12.032   2.543  1.00  0.00     0.000 C 
BRANCH  18  19
ATOM     19  C   UNL     1     -19.217  12.182   1.011  1.00  0.00     0.000 C 
BRANCH  19  20
ATOM     20  C   UNL     1     -19.097  13.628   0.486  1.00  0.00     0.006 C 
BRANCH  20  21
ATOM     21  C   UNL     1     -18.940  13.736  -1.039  1.00  0.00     0.053 C 
BRANCH  21  22
ATOM     22  C   UNL     1     -19.242  15.117  -1.534  1.00  0.00     0.041 C 
ATOM     23  O   UNL     1     -19.065  16.114  -0.785  1.00  0.00    -0.550 OA
ATOM     24  O   UNL     1     -19.750  15.301  -2.814  1.00  0.00    -0.550 OA
ENDBRANCH  21  22
ENDBRANCH  20  21
ENDBRANCH  19  20
ENDBRANCH  18  19
ENDBRANCH  17  18
ENDBRANCH  16  17
ENDBRANCH  15  16
ENDBRANCH  14  15
ENDBRANCH  13  14
ENDBRANCH   1  13
TORSDOF 20
ENDMDL
MODEL 6
REMARK VINA RESULT:    -2.778      3.722      6.544
REMARK INTER + INTRA:          -8.946
REMARK INTER:                  -6.698
REMARK INTRA:                  -2.247
REMARK UNBOUND:                -2.920
REMARK SMILES CCCCCCCCCCCCCCCCCCCCCC(=O)[O-]
REMARK SMILES IDX 12 1 11 2 10 3 9 4 8 5 7 6 6 7 5 8 4 9 3 10 2 11 1 12 13 13
REMARK SMILES IDX 14 14 15 15 16 16 17 17 18 18 19 19 20 20 21 21 22 22 23 23
REMARK SMILES IDX 24 24
REMARK H PARENT
REMARK Flexibility Score: inf
ROOT
ATOM      1  C   UNL     1     -13.336  10.372   4.039  1.00  0.00     0.000 C 
ENDROOT
BRANCH   1   2
ATOM      2  C   UNL     1     -12.342   9.973   5.141  1.00  0.00     0.000 C 
BRANCH   2   3
ATOM      3  C   UNL     1     -12.981   8.981   6.124  1.00  0.00     0.000 C 
BRANCH   3   4
ATOM      4  C   UNL     1     -13.757   9.682   7.251  1.00  0.00    -0.000 C 
BRANCH   4   5
ATOM      5  C   UNL     1     -15.110   9.009   7.543  1.00  0.00    -0.000 C 
BRANCH   5   6
ATOM      6  C   UNL     1     -16.197  10.020   7.941  1.00  0.00    -0.000 C 
BRANCH   6   7
ATOM      7  C   UNL     1     -17.165   9.461   8.995  1.00  0.00    -0.000 C 
BRANCH   7   8
ATOM      8  C   UNL     1     -16.980  10.175  10.342  1.00  0.00    -0.000 C 
BRANCH   8   9
ATOM      9  C   UNL     1     -16.162   9.347  11.347  1.00  0.00    -0.000 C 
BRANCH   9  10
ATOM     10  C   UNL     1     -14.649   9.597  11.228  1.00  0.00    -0.000 C 
BRANCH  10  11
ATOM     11  C   UNL     1     -13.961   9.706  12.596  1.00  0.00    -0.003 C 
ATOM     12  C   UNL     1     -14.024  11.116  13.183  1.00  0.00     0.004 C 
ENDBRANCH  10  11
ENDBRANCH   9  10
ENDBRANCH   8   9
ENDBRANCH   7   8
ENDBRANCH   6   7
ENDBRANCH   5   6
ENDBRANCH   4   5
ENDBRANCH   3   4
ENDBRANCH   2   3
ENDBRANCH   1   2
BRANCH   1  13
ATOM     13  C   UNL     1     -14.323   9.245   3.693  1.00  0.00     0.000 C 
BRANCH  13  14
ATOM     14  C   UNL     1     -15.789   9.653   3.924  1.00  0.00     0.000 C 
BRANCH  14  15
ATOM     15  C   UNL     1     -15.924  11.079   4.482  1.00  0.00     0.000 C 
BRANCH  15  16
ATOM     16  C   UNL     1     -17.111  11.844   3.879  1.00  0.00     0.000 C 
BRANCH  16  17
ATOM     17  C   UNL     1     -18.207  10.874   3.414  1.00  0.00     0.000 C 
BRANCH  17  18
ATOM     18  C   UNL     1     -18.600  11.078   1.939  1.00  0.00     0.000 C 
BRANCH  18  19
ATOM     19  C   UNL     1     -18.493   9.819   1.055  1.00  0.00     0.000 C 
BRANCH  19  20
ATOM     20  C   UNL     1     -17.127   9.616   0.368  1.00  0.00     0.006 C 
BRANCH  20  21
ATOM     21  C   UNL     1     -17.186   9.596  -1.167  1.00  0.00     0.053 C 
BRANCH  21  22
ATOM     22  C   UNL     1     -16.266  10.610  -1.774  1.00  0.00     0.041 C 
ATOM     23  O   UNL     1     -16.685  11.764  -2.049  1.00  0.00    -0.550 OA
ATOM     24  O   UNL     1     -14.952  10.267  -2.068  1.00  0.00    -0.550 OA
ENDBRANCH  21  22
ENDBRANCH  20  21
ENDBRANCH  19  20
ENDBRANCH  18  19
ENDBRANCH  17  18
ENDBRANCH  16  17
ENDBRANCH  15  16
ENDBRANCH  14  15
ENDBRANCH  13  14
ENDBRANCH   1  13
TORSDOF 20
ENDMDL
MODEL 7
REMARK VINA RESULT:    -2.685      5.542     10.161
REMARK INTER + INTRA:          -8.745
REMARK INTER:                  -6.401
REMARK INTRA:                  -2.344
REMARK UNBOUND:                -2.920
REMARK SMILES CCCCCCCCCCCCCCCCCCCCCC(=O)[O-]
REMARK SMILES IDX 12 1 11 2 10 3 9 4 8 5 7 6 6 7 5 8 4 9 3 10 2 11 1 12 13 13
REMARK SMILES IDX 14 14 15 15 16 16 17 17 18 18 19 19 20 20 21 21 22 22 23 23
REMARK SMILES IDX 24 24
REMARK H PARENT
REMARK Flexibility Score: inf
ROOT
ATOM      1  C   UNL     1     -15.235  11.506   5.730  1.00  0.00     0.000 C 
ENDROOT
BRANCH   1   2
ATOM      2  C   UNL     1     -16.333  11.455   4.656  1.00  0.00     0.000 C 
BRANCH   2   3
ATOM      3  C   UNL     1     -16.438  10.050   4.045  1.00  0.00     0.000 C 
BRANCH   3   4
ATOM      4  C   UNL     1     -17.458   9.162   4.777  1.00  0.00    -0.000 C 
BRANCH   4   5
ATOM      5  C   UNL     1     -18.896   9.697   4.659  1.00  0.00    -0.000 C 
BRANCH   5   6
ATOM      6  C   UNL     1     -19.365   9.813   3.200  1.00  0.00    -0.000 C 
BRANCH   6   7
ATOM      7  C   UNL     1     -19.829  11.233   2.840  1.00  0.00    -0.000 C 
BRANCH   7   8
ATOM      8  C   UNL     1     -18.864  11.889   1.842  1.00  0.00    -0.000 C 
BRANCH   8   9
ATOM      9  C   UNL     1     -19.081  13.406   1.715  1.00  0.00    -0.000 C 
BRANCH   9  10
ATOM     10  C   UNL     1     -18.976  13.899   0.261  1.00  0.00    -0.000 C 
BRANCH  10  11
ATOM     11  C   UNL     1     -18.966  12.744  -0.752  1.00  0.00    -0.003 C 
ATOM     12  C   UNL     1     -18.552  13.189  -2.155  1.00  0.00     0.004 C 
ENDBRANCH  10  11
ENDBRANCH   9  10
ENDBRANCH   8   9
ENDBRANCH   7   8
ENDBRANCH   6   7
ENDBRANCH   5   6
ENDBRANCH   4   5
ENDBRANCH   3   4
ENDBRANCH   2   3
ENDBRANCH   1   2
BRANCH   1  13
ATOM     13  C   UNL     1     -13.974  10.722   5.329  1.00  0.00     0.000 C 
BRANCH  13  14
ATOM     14  C   UNL     1     -13.171  10.235   6.548  1.00  0.00     0.000 C 
BRANCH  14  15
ATOM     15  C   UNL     1     -13.714   8.919   7.126  1.00  0.00     0.000 C 
BRANCH  15  16
ATOM     16  C   UNL     1     -14.490   9.121   8.436  1.00  0.00     0.000 C 
BRANCH  16  17
ATOM     17  C   UNL     1     -15.994   8.894   8.223  1.00  0.00     0.000 C 
BRANCH  17  18
ATOM     18  C   UNL     1     -16.855  10.055   8.751  1.00  0.00     0.000 C 
BRANCH  18  19
ATOM     19  C   UNL     1     -17.791   9.694   9.923  1.00  0.00     0.000 C 
BRANCH  19  20
ATOM     20  C   UNL     1     -17.764  10.679  11.109  1.00  0.00     0.006 C 
BRANCH  20  21
ATOM     21  C   UNL     1     -17.075  10.134  12.369  1.00  0.00     0.053 C 
BRANCH  21  22
ATOM     22  C   UNL     1     -15.674  10.647  12.506  1.00  0.00     0.041 C 
ATOM     23  O   UNL     1     -14.745  10.148  11.818  1.00  0.00    -0.550 OA
ATOM     24  O   UNL     1     -15.390  11.656  13.417  1.00  0.00    -0.550 OA
ENDBRANCH  21  22
ENDBRANCH  20  21
ENDBRANCH  19  20
ENDBRANCH  18  19
ENDBRANCH  17  18
ENDBRANCH  16  17
ENDBRANCH  15  16
ENDBRANCH  14  15
ENDBRANCH  13  14
ENDBRANCH   1  13
TORSDOF 20
ENDMDL
MODEL 8
REMARK VINA RESULT:    -2.664      2.686      7.567
REMARK INTER + INTRA:          -8.699
REMARK INTER:                  -6.583
REMARK INTRA:                  -2.115
REMARK UNBOUND:                -2.920
REMARK SMILES CCCCCCCCCCCCCCCCCCCCCC(=O)[O-]
REMARK SMILES IDX 12 1 11 2 10 3 9 4 8 5 7 6 6 7 5 8 4 9 3 10 2 11 1 12 13 13
REMARK SMILES IDX 14 14 15 15 16 16 17 17 18 18 19 19 20 20 21 21 22 22 23 23
REMARK SMILES IDX 24 24
REMARK H PARENT
REMARK Flexibility Score: inf
ROOT
ATOM      1  C   UNL     1     -14.758   9.238  -1.277  1.00  0.00     0.000 C 
ENDROOT
BRANCH   1   2
ATOM      2  C   UNL     1     -14.744   9.548  -2.782  1.00  0.00     0.000 C 
BRANCH   2   3
ATOM      3  C   UNL     1     -14.321  11.003  -3.038  1.00  0.00     0.000 C 
BRANCH   3   4
ATOM      4  C   UNL     1     -15.029  11.618  -4.256  1.00  0.00    -0.000 C 
BRANCH   4   5
ATOM      5  C   UNL     1     -16.384  12.250  -3.893  1.00  0.00    -0.000 C 
BRANCH   5   6
ATOM      6  C   UNL     1     -17.576  11.369  -4.303  1.00  0.00    -0.000 C 
BRANCH   6   7
ATOM      7  C   UNL     1     -18.927  12.071  -4.104  1.00  0.00    -0.000 C 
BRANCH   7   8
ATOM      8  C   UNL     1     -18.738  13.587  -3.945  1.00  0.00    -0.000 C 
BRANCH   8   9
ATOM      9  C   UNL     1     -19.455  14.149  -2.706  1.00  0.00    -0.000 C 
BRANCH   9  10
ATOM     10  C   UNL     1     -19.008  13.467  -1.403  1.00  0.00    -0.000 C 
BRANCH  10  11
ATOM     11  C   UNL     1     -18.626  14.477  -0.310  1.00  0.00    -0.003 C 
ATOM     12  C   UNL     1     -19.001  15.914  -0.673  1.00  0.00     0.004 C 
ENDBRANCH  10  11
ENDBRANCH   9  10
ENDBRANCH   8   9
ENDBRANCH   7   8
ENDBRANCH   6   7
ENDBRANCH   5   6
ENDBRANCH   4   5
ENDBRANCH   3   4
ENDBRANCH   2   3
ENDBRANCH   1   2
BRANCH   1  13
ATOM     13  C   UNL     1     -16.166   8.915  -0.749  1.00  0.00     0.000 C 
BRANCH  13  14
ATOM     14  C   UNL     1     -17.118  10.121  -0.831  1.00  0.00     0.000 C 
BRANCH  14  15
ATOM     15  C   UNL     1     -17.872  10.368   0.486  1.00  0.00     0.000 C 
BRANCH  15  16
ATOM     16  C   UNL     1     -17.227   9.655   1.683  1.00  0.00     0.000 C 
BRANCH  16  17
ATOM     17  C   UNL     1     -17.880  10.098   3.001  1.00  0.00     0.000 C 
BRANCH  17  18
ATOM     18  C   UNL     1     -17.077  11.190   3.729  1.00  0.00     0.000 C 
BRANCH  18  19
ATOM     19  C   UNL     1     -16.508  10.778   5.102  1.00  0.00     0.000 C 
BRANCH  19  20
ATOM     20  C   UNL     1     -15.380   9.727   5.055  1.00  0.00     0.006 C 
BRANCH  20  21
ATOM     21  C   UNL     1     -14.040  10.260   4.525  1.00  0.00     0.053 C 
BRANCH  21  22
ATOM     22  C   UNL     1     -13.087  10.579   5.636  1.00  0.00     0.041 C 
ATOM     23  O   UNL     1     -12.133  11.378   5.444  1.00  0.00    -0.550 OA
ATOM     24  O   UNL     1     -13.236   9.969   6.875  1.00  0.00    -0.550 OA
ENDBRANCH  21  22
ENDBRANCH  20  21
ENDBRANCH  19  20
ENDBRANCH  18  19
ENDBRANCH  17  18
ENDBRANCH  16  17
ENDBRANCH  15  16
ENDBRANCH  14  15
ENDBRANCH  13  14
ENDBRANCH   1  13
TORSDOF 20
ENDMDL
MODEL 9
REMARK VINA RESULT:    -2.648      4.659      8.011
REMARK INTER + INTRA:          -8.663
REMARK INTER:                  -6.775
REMARK INTRA:                  -1.889
REMARK UNBOUND:                -2.920
REMARK SMILES CCCCCCCCCCCCCCCCCCCCCC(=O)[O-]
REMARK SMILES IDX 12 1 11 2 10 3 9 4 8 5 7 6 6 7 5 8 4 9 3 10 2 11 1 12 13 13
REMARK SMILES IDX 14 14 15 15 16 16 17 17 18 18 19 19 20 20 21 21 22 22 23 23
REMARK SMILES IDX 24 24
REMARK H PARENT
REMARK Flexibility Score: inf
ROOT
ATOM      1  C   UNL     1     -12.798  10.411   6.416  1.00  0.00     0.000 C 
ENDROOT
BRANCH   1   2
ATOM      2  C   UNL     1     -13.419   9.071   6.837  1.00  0.00     0.000 C 
BRANCH   2   3
ATOM      3  C   UNL     1     -14.611   9.291   7.781  1.00  0.00     0.000 C 
BRANCH   3   4
ATOM      4  C   UNL     1     -14.212   9.213   9.264  1.00  0.00    -0.000 C 
BRANCH   4   5
ATOM      5  C   UNL     1     -15.431   9.138  10.199  1.00  0.00    -0.000 C 
BRANCH   5   6
ATOM      6  C   UNL     1     -16.704   9.715   9.557  1.00  0.00    -0.000 C 
BRANCH   6   7
ATOM      7  C   UNL     1     -17.879   9.793  10.543  1.00  0.00    -0.000 C 
BRANCH   7   8
ATOM      8  C   UNL     1     -17.840  11.105  11.340  1.00  0.00    -0.000 C 
BRANCH   8   9
ATOM      9  C   UNL     1     -17.873  10.878  12.861  1.00  0.00    -0.000 C 
BRANCH   9  10
ATOM     10  C   UNL     1     -16.540  10.341  13.408  1.00  0.00    -0.000 C 
BRANCH  10  11
ATOM     11  C   UNL     1     -15.450  11.422  13.469  1.00  0.00    -0.003 C 
ATOM     12  C   UNL     1     -14.090  10.923  12.980  1.00  0.00     0.004 C 
ENDBRANCH  10  11
ENDBRANCH   9  10
ENDBRANCH   8   9
ENDBRANCH   7   8
ENDBRANCH   6   7
ENDBRANCH   5   6
ENDBRANCH   4   5
ENDBRANCH   3   4
ENDBRANCH   2   3
ENDBRANCH   1   2
BRANCH   1  13
ATOM     13  C   UNL     1     -12.240  10.385   4.983  1.00  0.00     0.000 C 
BRANCH  13  14
ATOM     14  C   UNL     1     -12.529   9.056   4.262  1.00  0.00     0.000 C 
BRANCH  14  15
ATOM     15  C   UNL     1     -13.522   9.218   3.100  1.00  0.00     0.000 C 
BRANCH  15  16
ATOM     16  C   UNL     1     -14.969   8.901   3.506  1.00  0.00     0.000 C 
BRANCH  16  17
ATOM     17  C   UNL     1     -15.697  10.171   3.973  1.00  0.00     0.000 C 
BRANCH  17  18
ATOM     18  C   UNL     1     -17.198   9.941   4.225  1.00  0.00     0.000 C 
BRANCH  18  19
ATOM     19  C   UNL     1     -18.144  10.825   3.386  1.00  0.00     0.000 C 
BRANCH  19  20
ATOM     20  C   UNL     1     -18.110  10.561   1.867  1.00  0.00     0.006 C 
BRANCH  20  21
ATOM     21  C   UNL     1     -18.928  11.559   1.033  1.00  0.00     0.053 C 
BRANCH  21  22
ATOM     22  C   UNL     1     -18.427  11.652  -0.376  1.00  0.00     0.041 C 
ATOM     23  O   UNL     1     -17.749  10.715  -0.872  1.00  0.00    -0.550 OA
ATOM     24  O   UNL     1     -18.681  12.791  -1.129  1.00  0.00    -0.550 OA
ENDBRANCH  21  22
ENDBRANCH  20  21
ENDBRANCH  19  20
ENDBRANCH  18  19
ENDBRANCH  17  18
ENDBRANCH  16  17
ENDBRANCH  15  16
ENDBRANCH  14  15
ENDBRANCH  13  14
ENDBRANCH   1  13
TORSDOF 20
ENDMDL
