MODEL 1
REMARK VINA RESULT:    -5.225      0.000      0.000
REMARK INTER + INTRA:          -6.693
REMARK INTER:                  -6.447
REMARK INTRA:                  -0.246
REMARK UNBOUND:                -0.246
REMARK SMILES C=CC(=C)CCC=C(C)C
REMARK SMILES IDX 5 1 6 2 7 3 9 4 8 5 10 6 3 7 4 8 2 9 1 10
REMARK H PARENT
REMARK Flexibility Score: inf
ROOT
ATOM      1  C   UNL     1       5.607   7.751  12.361  1.00  0.00     0.039 C 
ENDROOT
BRANCH   1   2
ATOM      2  C   UNL     1       4.366   8.236  11.604  1.00  0.00     0.032 C 
BRANCH   2   3
ATOM      3  C   UNL     1       4.548   9.656  11.131  1.00  0.00    -0.028 C 
ATOM      4  C   UNL     1       4.014  12.042  10.876  1.00  0.00     0.039 C 
ATOM      5  C   UNL     1       3.729  10.681  11.458  1.00  0.00    -0.080 C 
ATOM      6  C   UNL     1       2.558  10.502  12.395  1.00  0.00     0.039 C 
ENDBRANCH   2   3
ENDBRANCH   1   2
BRANCH   1   7
ATOM      7  C   UNL     1       5.529   6.264  12.624  1.00  0.00    -0.055 C 
ATOM      8  C   UNL     1       4.371   5.627  12.419  1.00  0.00     0.012 C 
BRANCH   7   9
ATOM      9  C   UNL     1       6.683   5.490  13.152  1.00  0.00    -0.005 C 
ATOM     10  C   UNL     1       7.740   5.136  12.421  1.00  0.00     0.009 C 
ENDBRANCH   7   9
ENDBRANCH   1   7
TORSDOF 4
ENDMDL
MODEL 2
REMARK VINA RESULT:    -5.019      1.110      1.225
REMARK INTER + INTRA:          -6.438
REMARK INTER:                  -6.142
REMARK INTRA:                  -0.297
REMARK UNBOUND:                -0.246
REMARK SMILES C=CC(=C)CCC=C(C)C
REMARK SMILES IDX 5 1 6 2 7 3 9 4 8 5 10 6 3 7 4 8 2 9 1 10
REMARK H PARENT
REMARK Flexibility Score: inf
ROOT
ATOM      1  C   UNL     1       5.906   8.241  11.767  1.00  0.00     0.039 C 
ENDROOT
BRANCH   1   2
ATOM      2  C   UNL     1       4.504   8.671  11.325  1.00  0.00     0.032 C 
BRANCH   2   3
ATOM      3  C   UNL     1       4.467  10.149  11.025  1.00  0.00    -0.028 C 
ATOM      4  C   UNL     1       3.621  12.454  11.112  1.00  0.00     0.039 C 
ATOM      5  C   UNL     1       3.559  11.010  11.536  1.00  0.00    -0.080 C 
ATOM      6  C   UNL     1       2.505  10.568  12.525  1.00  0.00     0.039 C 
ENDBRANCH   2   3
ENDBRANCH   1   2
BRANCH   1   7
ATOM      7  C   UNL     1       5.835   7.062  12.712  1.00  0.00    -0.055 C 
ATOM      8  C   UNL     1       4.793   6.227  12.631  1.00  0.00     0.012 C 
BRANCH   7   9
ATOM      9  C   UNL     1       6.859   6.824  13.763  1.00  0.00    -0.005 C 
ATOM     10  C   UNL     1       7.758   7.731  14.147  1.00  0.00     0.009 C 
ENDBRANCH   7   9
ENDBRANCH   1   7
TORSDOF 4
ENDMDL
MODEL 3
REMARK VINA RESULT:    -5.007      0.789      5.472
REMARK INTER + INTRA:          -6.424
REMARK INTER:                  -6.163
REMARK INTRA:                  -0.261
REMARK UNBOUND:                -0.246
REMARK SMILES C=CC(=C)CCC=C(C)C
REMARK SMILES IDX 5 1 6 2 7 3 9 4 8 5 10 6 3 7 4 8 2 9 1 10
REMARK H PARENT
REMARK Flexibility Score: inf
ROOT
ATOM      1  C   UNL     1       4.428   9.505  10.916  1.00  0.00     0.039 C 
ENDROOT
BRANCH   1   2
ATOM      2  C   UNL     1       4.569   8.373  11.940  1.00  0.00     0.032 C 
BRANCH   2   3
ATOM      3  C   UNL     1       6.018   7.997  12.125  1.00  0.00    -0.028 C 
ATOM      4  C   UNL     1       7.927   6.556  12.690  1.00  0.00     0.039 C 
ATOM      5  C   UNL     1       6.447   6.773  12.506  1.00  0.00    -0.080 C 
ATOM      6  C   UNL     1       5.492   5.625  12.733  1.00  0.00     0.039 C 
ENDBRANCH   2   3
ENDBRANCH   1   2
BRANCH   1   7
ATOM      7  C   UNL     1       3.609  10.643  11.483  1.00  0.00    -0.055 C 
ATOM      8  C   UNL     1       3.960  11.902  11.196  1.00  0.00     0.012 C 
BRANCH   7   9
ATOM      9  C   UNL     1       2.454  10.415  12.391  1.00  0.00    -0.005 C 
ATOM     10  C   UNL     1       1.869  11.375  13.109  1.00  0.00     0.009 C 
ENDBRANCH   7   9
ENDBRANCH   1   7
TORSDOF 4
ENDMDL
MODEL 4
REMARK VINA RESULT:    -4.911      1.191      1.904
REMARK INTER + INTRA:          -6.305
REMARK INTER:                  -6.056
REMARK INTRA:                  -0.250
REMARK UNBOUND:                -0.246
REMARK SMILES C=CC(=C)CCC=C(C)C
REMARK SMILES IDX 5 1 6 2 7 3 9 4 8 5 10 6 3 7 4 8 2 9 1 10
REMARK H PARENT
REMARK Flexibility Score: inf
ROOT
ATOM      1  C   UNL     1       5.353   7.737  12.191  1.00  0.00     0.039 C 
ENDROOT
BRANCH   1   2
ATOM      2  C   UNL     1       5.252   8.991  11.316  1.00  0.00     0.032 C 
BRANCH   2   3
ATOM      3  C   UNL     1       3.810   9.362  11.076  1.00  0.00    -0.028 C 
ATOM      4  C   UNL     1       1.802  10.778  11.118  1.00  0.00     0.039 C 
ATOM      5  C   UNL     1       3.271  10.565  11.377  1.00  0.00    -0.080 C 
ATOM      6  C   UNL     1       4.099  11.694  11.943  1.00  0.00     0.039 C 
ENDBRANCH   2   3
ENDBRANCH   1   2
BRANCH   1   7
ATOM      7  C   UNL     1       6.793   7.447  12.552  1.00  0.00    -0.055 C 
ATOM      8  C   UNL     1       7.483   8.354  13.252  1.00  0.00     0.012 C 
BRANCH   7   9
ATOM      9  C   UNL     1       7.486   6.207  12.114  1.00  0.00    -0.005 C 
ATOM     10  C   UNL     1       7.330   5.019  12.700  1.00  0.00     0.009 C 
ENDBRANCH   7   9
ENDBRANCH   1   7
TORSDOF 4
ENDMDL
MODEL 5
REMARK VINA RESULT:    -4.873      1.479      2.279
REMARK INTER + INTRA:          -6.259
REMARK INTER:                  -5.872
REMARK INTRA:                  -0.387
REMARK UNBOUND:                -0.246
REMARK SMILES C=CC(=C)CCC=C(C)C
REMARK SMILES IDX 5 1 6 2 7 3 9 4 8 5 10 6 3 7 4 8 2 9 1 10
REMARK H PARENT
REMARK Flexibility Score: inf
ROOT
ATOM      1  C   UNL     1       5.185   8.982  10.907  1.00  0.00     0.039 C 
ENDROOT
BRANCH   1   2
ATOM      2  C   UNL     1       3.808   9.616  11.134  1.00  0.00     0.032 C 
BRANCH   2   3
ATOM      3  C   UNL     1       3.947  11.034  11.626  1.00  0.00    -0.028 C 
ATOM      4  C   UNL     1       3.294  13.100  12.786  1.00  0.00     0.039 C 
ATOM      5  C   UNL     1       3.039  11.665  12.405  1.00  0.00    -0.080 C 
ATOM      6  C   UNL     1       1.799  10.968  12.913  1.00  0.00     0.039 C 
ENDBRANCH   2   3
ENDBRANCH   1   2
BRANCH   1   7
ATOM      7  C   UNL     1       5.560   8.082  12.064  1.00  0.00    -0.055 C 
ATOM      8  C   UNL     1       6.827   8.069  12.492  1.00  0.00     0.012 C 
BRANCH   7   9
ATOM      9  C   UNL     1       4.580   7.173  12.713  1.00  0.00    -0.005 C 
ATOM     10  C   UNL     1       4.444   5.882  12.408  1.00  0.00     0.009 C 
ENDBRANCH   7   9
ENDBRANCH   1   7
TORSDOF 4
ENDMDL
MODEL 6
REMARK VINA RESULT:    -4.822      0.970      5.547
REMARK INTER + INTRA:          -6.196
REMARK INTER:                  -5.940
REMARK INTRA:                  -0.256
REMARK UNBOUND:                -0.246
REMARK SMILES C=CC(=C)CCC=C(C)C
REMARK SMILES IDX 5 1 6 2 7 3 9 4 8 5 10 6 3 7 4 8 2 9 1 10
REMARK H PARENT
REMARK Flexibility Score: inf
ROOT
ATOM      1  C   UNL     1       4.076   9.548  10.971  1.00  0.00     0.039 C 
ENDROOT
BRANCH   1   2
ATOM      2  C   UNL     1       5.133   8.863  11.843  1.00  0.00     0.032 C 
BRANCH   2   3
ATOM      3  C   UNL     1       4.767   7.422  12.095  1.00  0.00    -0.028 C 
ATOM      4  C   UNL     1       5.121   5.078  12.742  1.00  0.00     0.039 C 
ATOM      5  C   UNL     1       5.618   6.491  12.582  1.00  0.00    -0.080 C 
ATOM      6  C   UNL     1       7.035   6.833  12.980  1.00  0.00     0.039 C 
ENDBRANCH   2   3
ENDBRANCH   1   2
BRANCH   1   7
ATOM      7  C   UNL     1       3.459  10.724  11.696  1.00  0.00    -0.055 C 
ATOM      8  C   UNL     1       2.437  10.508  12.530  1.00  0.00     0.012 C 
BRANCH   7   9
ATOM      9  C   UNL     1       3.918  12.121  11.477  1.00  0.00    -0.005 C 
ATOM     10  C   UNL     1       3.983  13.043  12.438  1.00  0.00     0.009 C 
ENDBRANCH   7   9
ENDBRANCH   1   7
TORSDOF 4
ENDMDL
MODEL 7
REMARK VINA RESULT:    -4.466      1.508      4.684
REMARK INTER + INTRA:          -5.756
REMARK INTER:                  -5.830
REMARK INTRA:                   0.074
REMARK UNBOUND:                -0.246
REMARK SMILES C=CC(=C)CCC=C(C)C
REMARK SMILES IDX 5 1 6 2 7 3 9 4 8 5 10 6 3 7 4 8 2 9 1 10
REMARK H PARENT
REMARK Flexibility Score: inf
ROOT
ATOM      1  C   UNL     1       4.444   5.630  12.378  1.00  0.00     0.039 C 
ENDROOT
BRANCH   1   2
ATOM      2  C   UNL     1       5.714   5.096  13.048  1.00  0.00     0.032 C 
BRANCH   2   3
ATOM      3  C   UNL     1       6.497   6.217  13.683  1.00  0.00    -0.028 C 
ATOM      4  C   UNL     1       8.305   7.865  13.916  1.00  0.00     0.039 C 
ATOM      5  C   UNL     1       7.603   6.778  13.144  1.00  0.00    -0.080 C 
ATOM      6  C   UNL     1       8.137   6.358  11.795  1.00  0.00     0.039 C 
ENDBRANCH   2   3
ENDBRANCH   1   2
BRANCH   1   7
ATOM      7  C   UNL     1       4.339   7.130  12.543  1.00  0.00    -0.055 C 
ATOM      8  C   UNL     1       3.799   7.624  13.662  1.00  0.00     0.012 C 
BRANCH   7   9
ATOM      9  C   UNL     1       4.771   8.077  11.482  1.00  0.00    -0.005 C 
ATOM     10  C   UNL     1       4.466   9.376  11.472  1.00  0.00     0.009 C 
ENDBRANCH   7   9
ENDBRANCH   1   7
TORSDOF 4
ENDMDL
MODEL 8
REMARK VINA RESULT:    -3.805      1.984      4.067
REMARK INTER + INTRA:          -4.941
REMARK INTER:                  -4.569
REMARK INTRA:                  -0.372
REMARK UNBOUND:                -0.246
REMARK SMILES C=CC(=C)CCC=C(C)C
REMARK SMILES IDX 5 1 6 2 7 3 9 4 8 5 10 6 3 7 4 8 2 9 1 10
REMARK H PARENT
REMARK Flexibility Score: inf
ROOT
ATOM      1  C   UNL     1       4.326  11.263  10.908  1.00  0.00     0.039 C 
ENDROOT
BRANCH   1   2
ATOM      2  C   UNL     1       3.161  12.258  10.946  1.00  0.00     0.032 C 
BRANCH   2   3
ATOM      3  C   UNL     1       3.670  13.677  10.956  1.00  0.00    -0.028 C 
ATOM      4  C   UNL     1       4.317  15.842  11.925  1.00  0.00     0.039 C 
ATOM      5  C   UNL     1       3.838  14.420  12.073  1.00  0.00    -0.080 C 
ATOM      6  C   UNL     1       3.577  13.863  13.452  1.00  0.00     0.039 C 
ENDBRANCH   2   3
ENDBRANCH   1   2
BRANCH   1   7
ATOM      7  C   UNL     1       3.935   9.952  11.552  1.00  0.00    -0.055 C 
ATOM      8  C   UNL     1       2.861   9.914  12.349  1.00  0.00     0.012 C 
BRANCH   7   9
ATOM      9  C   UNL     1       4.732   8.710  11.371  1.00  0.00    -0.005 C 
ATOM     10  C   UNL     1       4.764   7.710  12.253  1.00  0.00     0.009 C 
ENDBRANCH   7   9
ENDBRANCH   1   7
TORSDOF 4
ENDMDL
MODEL 9
REMARK VINA RESULT:    -3.679      1.514      2.881
REMARK INTER + INTRA:          -4.785
REMARK INTER:                  -3.916
REMARK INTRA:                  -0.869
REMARK UNBOUND:                -0.246
REMARK SMILES C=CC(=C)CCC=C(C)C
REMARK SMILES IDX 5 1 6 2 7 3 9 4 8 5 10 6 3 7 4 8 2 9 1 10
REMARK H PARENT
REMARK Flexibility Score: inf
ROOT
ATOM      1  C   UNL     1       5.994   5.830  13.485  1.00  0.00     0.039 C 
ENDROOT
BRANCH   1   2
ATOM      2  C   UNL     1       4.954   6.071  12.386  1.00  0.00     0.032 C 
BRANCH   2   3
ATOM      3  C   UNL     1       4.197   7.351  12.635  1.00  0.00    -0.028 C 
ATOM      4  C   UNL     1       3.615   9.723  12.369  1.00  0.00     0.039 C 
ATOM      5  C   UNL     1       4.424   8.512  11.982  1.00  0.00    -0.080 C 
ATOM      6  C   UNL     1       5.446   8.621  10.875  1.00  0.00     0.039 C 
ENDBRANCH   2   3
ENDBRANCH   1   2
BRANCH   1   7
ATOM      7  C   UNL     1       7.343   6.382  13.080  1.00  0.00    -0.055 C 
ATOM      8  C   UNL     1       7.953   5.878  12.002  1.00  0.00     0.012 C 
BRANCH   7   9
ATOM      9  C   UNL     1       8.039   7.433  13.867  1.00  0.00    -0.005 C 
ATOM     10  C   UNL     1       7.941   8.739  13.616  1.00  0.00     0.009 C 
ENDBRANCH   7   9
ENDBRANCH   1   7
TORSDOF 4
ENDMDL
