MODEL 1
REMARK VINA RESULT:    -4.924      0.000      0.000
REMARK INTER + INTRA:         -10.908
REMARK INTER:                  -9.241
REMARK INTRA:                  -1.667
REMARK UNBOUND:                -1.667
REMARK SMILES CCCCCCCCC=CCCCCCCCC(=O)[O-]
REMARK SMILES IDX 10 1 9 2 11 3 12 4 13 5 14 6 15 7 16 8 17 9 18 10 19 11
REMARK SMILES IDX 20 12 8 13 7 14 6 15 5 16 4 17 3 18 2 19 1 20
REMARK H PARENT
REMARK Flexibility Score: inf
ROOT
ATOM      1  C   UNL     1     -27.625  -4.592  23.999  1.00  0.00    -0.031 C 
ATOM      2  C   UNL     1     -28.665  -4.514  23.147  1.00  0.00    -0.031 C 
ENDROOT
BRANCH   1   3
ATOM      3  C   UNL     1     -27.290  -5.791  24.853  1.00  0.00     0.027 C 
BRANCH   3   4
ATOM      4  C   UNL     1     -27.320  -5.467  26.356  1.00  0.00     0.004 C 
BRANCH   4   5
ATOM      5  C   UNL     1     -28.402  -6.230  27.144  1.00  0.00     0.000 C 
BRANCH   5   6
ATOM      6  C   UNL     1     -29.356  -7.048  26.247  1.00  0.00     0.000 C 
BRANCH   6   7
ATOM      7  C   UNL     1     -30.511  -7.676  27.046  1.00  0.00     0.000 C 
BRANCH   7   8
ATOM      8  C   UNL     1     -31.488  -8.479  26.169  1.00  0.00     0.006 C 
BRANCH   8   9
ATOM      9  C   UNL     1     -31.085  -8.546  24.685  1.00  0.00     0.053 C 
BRANCH   9  10
ATOM     10  C   UNL     1     -31.374  -9.882  24.070  1.00  0.00     0.041 C 
ATOM     11  O   UNL     1     -32.273 -10.620  24.551  1.00  0.00    -0.550 OA
ATOM     12  O   UNL     1     -30.675 -10.299  22.943  1.00  0.00    -0.550 OA
ENDBRANCH   9  10
ENDBRANCH   8   9
ENDBRANCH   7   8
ENDBRANCH   6   7
ENDBRANCH   5   6
ENDBRANCH   4   5
ENDBRANCH   3   4
ENDBRANCH   1   3
BRANCH   2  13
ATOM     13  C   UNL     1     -29.709  -5.587  22.946  1.00  0.00     0.027 C 
BRANCH  13  14
ATOM     14  C   UNL     1     -29.382  -6.464  21.725  1.00  0.00     0.004 C 
BRANCH  14  15
ATOM     15  C   UNL     1     -28.579  -7.731  22.084  1.00  0.00     0.000 C 
BRANCH  15  16
ATOM     16  C   UNL     1     -28.126  -8.536  20.850  1.00  0.00     0.000 C 
BRANCH  16  17
ATOM     17  C   UNL     1     -29.173  -8.510  19.723  1.00  0.00    -0.000 C 
BRANCH  17  18
ATOM     18  C   UNL     1     -28.747  -9.332  18.494  1.00  0.00    -0.000 C 
BRANCH  18  19
ATOM     19  C   UNL     1     -29.479 -10.676  18.328  1.00  0.00    -0.003 C 
ATOM     20  C   UNL     1     -31.000 -10.531  18.334  1.00  0.00     0.004 C 
ENDBRANCH  18  19
ENDBRANCH  17  18
ENDBRANCH  16  17
ENDBRANCH  15  16
ENDBRANCH  14  15
ENDBRANCH  13  14
ENDBRANCH   2  13
TORSDOF 15
ENDMDL
MODEL 2
REMARK VINA RESULT:    -4.777      2.744      6.518
REMARK INTER + INTRA:         -10.634
REMARK INTER:                  -8.267
REMARK INTRA:                  -2.367
REMARK UNBOUND:                -1.667
REMARK SMILES CCCCCCCCC=CCCCCCCCC(=O)[O-]
REMARK SMILES IDX 10 1 9 2 11 3 12 4 13 5 14 6 15 7 16 8 17 9 18 10 19 11
REMARK SMILES IDX 20 12 8 13 7 14 6 15 5 16 4 17 3 18 2 19 1 20
REMARK H PARENT
REMARK Flexibility Score: inf
ROOT
ATOM      1  C   UNL     1     -30.198  -7.089  22.929  1.00  0.00    -0.031 C 
ATOM      2  C   UNL     1     -29.843  -5.790  22.895  1.00  0.00    -0.031 C 
ENDROOT
BRANCH   1   3
ATOM      3  C   UNL     1     -29.236  -8.250  23.012  1.00  0.00     0.027 C 
BRANCH   3   4
ATOM      4  C   UNL     1     -29.879  -9.577  22.577  1.00  0.00     0.004 C 
BRANCH   4   5
ATOM      5  C   UNL     1     -30.922  -9.434  21.453  1.00  0.00     0.000 C 
BRANCH   5   6
ATOM      6  C   UNL     1     -30.560 -10.216  20.172  1.00  0.00     0.000 C 
BRANCH   6   7
ATOM      7  C   UNL     1     -30.009  -9.299  19.066  1.00  0.00     0.000 C 
BRANCH   7   8
ATOM      8  C   UNL     1     -30.235  -7.804  19.351  1.00  0.00     0.006 C 
BRANCH   8   9
ATOM      9  C   UNL     1     -28.936  -6.995  19.514  1.00  0.00     0.053 C 
BRANCH   9  10
ATOM     10  C   UNL     1     -28.988  -5.673  18.809  1.00  0.00     0.041 C 
ATOM     11  O   UNL     1     -28.654  -4.620  19.412  1.00  0.00    -0.550 OA
ATOM     12  O   UNL     1     -29.370  -5.608  17.474  1.00  0.00    -0.550 OA
ENDBRANCH   9  10
ENDBRANCH   8   9
ENDBRANCH   7   8
ENDBRANCH   6   7
ENDBRANCH   5   6
ENDBRANCH   4   5
ENDBRANCH   3   4
ENDBRANCH   1   3
BRANCH   2  13
ATOM     13  C   UNL     1     -28.423  -5.275  22.871  1.00  0.00     0.027 C 
BRANCH  13  14
ATOM     14  C   UNL     1     -27.995  -4.749  24.251  1.00  0.00     0.004 C 
BRANCH  14  15
ATOM     15  C   UNL     1     -27.440  -5.851  25.177  1.00  0.00     0.000 C 
BRANCH  15  16
ATOM     16  C   UNL     1     -27.538  -5.497  26.673  1.00  0.00     0.000 C 
BRANCH  16  17
ATOM     17  C   UNL     1     -28.572  -6.366  27.410  1.00  0.00    -0.000 C 
BRANCH  17  18
ATOM     18  C   UNL     1     -29.483  -7.152  26.450  1.00  0.00    -0.000 C 
BRANCH  18  19
ATOM     19  C   UNL     1     -30.718  -7.792  27.108  1.00  0.00    -0.003 C 
ATOM     20  C   UNL     1     -31.589  -8.563  26.117  1.00  0.00     0.004 C 
ENDBRANCH  18  19
ENDBRANCH  17  18
ENDBRANCH  16  17
ENDBRANCH  15  16
ENDBRANCH  14  15
ENDBRANCH  13  14
ENDBRANCH   2  13
TORSDOF 15
ENDMDL
MODEL 3
REMARK VINA RESULT:    -4.567      3.099      4.704
REMARK INTER + INTRA:         -10.238
REMARK INTER:                  -7.731
REMARK INTRA:                  -2.508
REMARK UNBOUND:                -1.667
REMARK SMILES CCCCCCCCC=CCCCCCCCC(=O)[O-]
REMARK SMILES IDX 10 1 9 2 11 3 12 4 13 5 14 6 15 7 16 8 17 9 18 10 19 11
REMARK SMILES IDX 20 12 8 13 7 14 6 15 5 16 4 17 3 18 2 19 1 20
REMARK H PARENT
REMARK Flexibility Score: inf
ROOT
ATOM      1  C   UNL     1     -28.668  -6.490  25.072  1.00  0.00    -0.031 C 
ATOM      2  C   UNL     1     -29.626  -7.361  24.703  1.00  0.00    -0.031 C 
ENDROOT
BRANCH   1   3
ATOM      3  C   UNL     1     -27.747  -5.760  24.124  1.00  0.00     0.027 C 
BRANCH   3   4
ATOM      4  C   UNL     1     -28.335  -4.421  23.649  1.00  0.00     0.004 C 
BRANCH   4   5
ATOM      5  C   UNL     1     -28.801  -4.422  22.181  1.00  0.00     0.000 C 
BRANCH   5   6
ATOM      6  C   UNL     1     -30.215  -3.836  21.983  1.00  0.00     0.000 C 
BRANCH   6   7
ATOM      7  C   UNL     1     -31.193  -4.860  21.382  1.00  0.00     0.000 C 
BRANCH   7   8
ATOM      8  C   UNL     1     -30.516  -5.845  20.412  1.00  0.00     0.006 C 
BRANCH   8   9
ATOM      9  C   UNL     1     -30.975  -5.698  18.950  1.00  0.00     0.053 C 
BRANCH   9  10
ATOM     10  C   UNL     1     -29.956  -5.011  18.093  1.00  0.00     0.041 C 
ATOM     11  O   UNL     1     -29.372  -5.642  17.174  1.00  0.00    -0.550 OA
ATOM     12  O   UNL     1     -29.676  -3.663  18.283  1.00  0.00    -0.550 OA
ENDBRANCH   9  10
ENDBRANCH   8   9
ENDBRANCH   7   8
ENDBRANCH   6   7
ENDBRANCH   5   6
ENDBRANCH   4   5
ENDBRANCH   3   4
ENDBRANCH   1   3
BRANCH   2  13
ATOM     13  C   UNL     1     -29.902  -7.804  23.285  1.00  0.00     0.027 C 
BRANCH  13  14
ATOM     14  C   UNL     1     -29.127  -9.087  22.938  1.00  0.00     0.004 C 
BRANCH  14  15
ATOM     15  C   UNL     1     -27.778  -8.813  22.244  1.00  0.00     0.000 C 
BRANCH  15  16
ATOM     16  C   UNL     1     -27.928  -8.316  20.793  1.00  0.00     0.000 C 
BRANCH  16  17
ATOM     17  C   UNL     1     -28.894  -9.192  19.976  1.00  0.00    -0.000 C 
BRANCH  17  18
ATOM     18  C   UNL     1     -28.829  -8.902  18.466  1.00  0.00    -0.000 C 
BRANCH  18  19
ATOM     19  C   UNL     1     -30.144  -9.144  17.703  1.00  0.00    -0.003 C 
ATOM     20  C   UNL     1     -30.942 -10.327  18.250  1.00  0.00     0.004 C 
ENDBRANCH  18  19
ENDBRANCH  17  18
ENDBRANCH  16  17
ENDBRANCH  15  16
ENDBRANCH  14  15
ENDBRANCH  13  14
ENDBRANCH   2  13
TORSDOF 15
ENDMDL
MODEL 4
REMARK VINA RESULT:    -4.549      2.160      5.083
REMARK INTER + INTRA:         -10.205
REMARK INTER:                  -7.979
REMARK INTRA:                  -2.226
REMARK UNBOUND:                -1.667
REMARK SMILES CCCCCCCCC=CCCCCCCCC(=O)[O-]
REMARK SMILES IDX 10 1 9 2 11 3 12 4 13 5 14 6 15 7 16 8 17 9 18 10 19 11
REMARK SMILES IDX 20 12 8 13 7 14 6 15 5 16 4 17 3 18 2 19 1 20
REMARK H PARENT
REMARK Flexibility Score: inf
ROOT
ATOM      1  C   UNL     1     -27.629  -5.661  26.719  1.00  0.00    -0.031 C 
ATOM      2  C   UNL     1     -28.665  -6.283  27.312  1.00  0.00    -0.031 C 
ENDROOT
BRANCH   1   3
ATOM      3  C   UNL     1     -27.181  -5.886  25.294  1.00  0.00     0.027 C 
BRANCH   3   4
ATOM      4  C   UNL     1     -28.080  -5.166  24.276  1.00  0.00     0.004 C 
BRANCH   4   5
ATOM      5  C   UNL     1     -28.795  -6.108  23.289  1.00  0.00     0.000 C 
BRANCH   5   6
ATOM      6  C   UNL     1     -28.055  -7.444  23.066  1.00  0.00     0.000 C 
BRANCH   6   7
ATOM      7  C   UNL     1     -29.025  -8.625  22.891  1.00  0.00     0.000 C 
BRANCH   7   8
ATOM      8  C   UNL     1     -29.499  -8.809  21.438  1.00  0.00     0.006 C 
BRANCH   8   9
ATOM      9  C   UNL     1     -28.421  -8.499  20.384  1.00  0.00     0.053 C 
BRANCH   9  10
ATOM     10  C   UNL     1     -28.867  -8.825  18.991  1.00  0.00     0.041 C 
ATOM     11  O   UNL     1     -29.010 -10.025  18.636  1.00  0.00    -0.550 OA
ATOM     12  O   UNL     1     -29.160  -7.806  18.094  1.00  0.00    -0.550 OA
ENDBRANCH   9  10
ENDBRANCH   8   9
ENDBRANCH   7   8
ENDBRANCH   6   7
ENDBRANCH   5   6
ENDBRANCH   4   5
ENDBRANCH   3   4
ENDBRANCH   1   3
BRANCH   2  13
ATOM     13  C   UNL     1     -29.517  -7.356  26.677  1.00  0.00     0.027 C 
BRANCH  13  14
ATOM     14  C   UNL     1     -30.902  -7.436  27.341  1.00  0.00     0.004 C 
BRANCH  14  15
ATOM     15  C   UNL     1     -31.822  -8.499  26.705  1.00  0.00     0.000 C 
BRANCH  15  16
ATOM     16  C   UNL     1     -31.440  -8.846  25.253  1.00  0.00     0.000 C 
BRANCH  16  17
ATOM     17  C   UNL     1     -32.646  -9.348  24.439  1.00  0.00    -0.000 C 
BRANCH  17  18
ATOM     18  C   UNL     1     -32.981  -8.436  23.246  1.00  0.00    -0.000 C 
BRANCH  18  19
ATOM     19  C   UNL     1     -32.473  -6.988  23.373  1.00  0.00    -0.003 C 
ATOM     20  C   UNL     1     -32.220  -6.324  22.021  1.00  0.00     0.004 C 
ENDBRANCH  18  19
ENDBRANCH  17  18
ENDBRANCH  16  17
ENDBRANCH  15  16
ENDBRANCH  14  15
ENDBRANCH  13  14
ENDBRANCH   2  13
TORSDOF 15
ENDMDL
MODEL 5
REMARK VINA RESULT:    -4.542      9.808     12.235
REMARK INTER + INTRA:         -10.192
REMARK INTER:                  -8.430
REMARK INTRA:                  -1.762
REMARK UNBOUND:                -1.667
REMARK SMILES CCCCCCCCC=CCCCCCCCC(=O)[O-]
REMARK SMILES IDX 10 1 9 2 11 3 12 4 13 5 14 6 15 7 16 8 17 9 18 10 19 11
REMARK SMILES IDX 20 12 8 13 7 14 6 15 5 16 4 17 3 18 2 19 1 20
REMARK H PARENT
REMARK Flexibility Score: inf
ROOT
ATOM      1  C   UNL     1     -32.915   1.891  17.639  1.00  0.00    -0.031 C 
ATOM      2  C   UNL     1     -33.520   2.536  18.654  1.00  0.00    -0.031 C 
ENDROOT
BRANCH   1   3
ATOM      3  C   UNL     1     -33.156   0.450  17.259  1.00  0.00     0.027 C 
BRANCH   3   4
ATOM      4  C   UNL     1     -31.982  -0.154  16.471  1.00  0.00     0.004 C 
BRANCH   4   5
ATOM      5  C   UNL     1     -31.740  -1.649  16.747  1.00  0.00     0.000 C 
BRANCH   5   6
ATOM      6  C   UNL     1     -30.430  -2.186  16.131  1.00  0.00     0.000 C 
BRANCH   6   7
ATOM      7  C   UNL     1     -30.443  -3.716  15.975  1.00  0.00     0.000 C 
BRANCH   7   8
ATOM      8  C   UNL     1     -29.070  -4.298  15.596  1.00  0.00     0.006 C 
BRANCH   8   9
ATOM      9  C   UNL     1     -29.141  -5.492  14.629  1.00  0.00     0.053 C 
BRANCH   9  10
ATOM     10  C   UNL     1     -27.971  -5.547  13.693  1.00  0.00     0.041 C 
ATOM     11  O   UNL     1     -27.668  -4.542  13.000  1.00  0.00    -0.550 OA
ATOM     12  O   UNL     1     -27.193  -6.695  13.613  1.00  0.00    -0.550 OA
ENDBRANCH   9  10
ENDBRANCH   8   9
ENDBRANCH   7   8
ENDBRANCH   6   7
ENDBRANCH   5   6
ENDBRANCH   4   5
ENDBRANCH   3   4
ENDBRANCH   1   3
BRANCH   2  13
ATOM     13  C   UNL     1     -34.496   1.913  19.625  1.00  0.00     0.027 C 
BRANCH  13  14
ATOM     14  C   UNL     1     -35.852   2.637  19.597  1.00  0.00     0.004 C 
BRANCH  14  15
ATOM     15  C   UNL     1     -37.037   1.699  19.288  1.00  0.00     0.000 C 
BRANCH  15  16
ATOM     16  C   UNL     1     -36.778   0.762  18.092  1.00  0.00     0.000 C 
BRANCH  16  17
ATOM     17  C   UNL     1     -37.327   1.337  16.775  1.00  0.00    -0.000 C 
BRANCH  17  18
ATOM     18  C   UNL     1     -36.215   1.778  15.807  1.00  0.00    -0.000 C 
BRANCH  18  19
ATOM     19  C   UNL     1     -35.910   3.287  15.815  1.00  0.00    -0.003 C 
ATOM     20  C   UNL     1     -37.110   4.135  16.231  1.00  0.00     0.004 C 
ENDBRANCH  18  19
ENDBRANCH  17  18
ENDBRANCH  16  17
ENDBRANCH  15  16
ENDBRANCH  14  15
ENDBRANCH  13  14
ENDBRANCH   2  13
TORSDOF 15
ENDMDL
MODEL 6
REMARK VINA RESULT:    -4.541      3.428      7.433
REMARK INTER + INTRA:         -10.191
REMARK INTER:                  -8.293
REMARK INTRA:                  -1.898
REMARK UNBOUND:                -1.667
REMARK SMILES CCCCCCCCC=CCCCCCCCC(=O)[O-]
REMARK SMILES IDX 10 1 9 2 11 3 12 4 13 5 14 6 15 7 16 8 17 9 18 10 19 11
REMARK SMILES IDX 20 12 8 13 7 14 6 15 5 16 4 17 3 18 2 19 1 20
REMARK H PARENT
REMARK Flexibility Score: inf
ROOT
ATOM      1  C   UNL     1     -29.871  -7.896  22.146  1.00  0.00    -0.031 C 
ATOM      2  C   UNL     1     -30.108  -6.572  22.086  1.00  0.00    -0.031 C 
ENDROOT
BRANCH   1   3
ATOM      3  C   UNL     1     -28.910  -8.647  21.255  1.00  0.00     0.027 C 
BRANCH   3   4
ATOM      4  C   UNL     1     -29.609  -9.276  20.039  1.00  0.00     0.004 C 
BRANCH   4   5
ATOM      5  C   UNL     1     -28.765  -9.265  18.750  1.00  0.00     0.000 C 
BRANCH   5   6
ATOM      6  C   UNL     1     -29.500  -8.657  17.537  1.00  0.00     0.000 C 
BRANCH   6   7
ATOM      7  C   UNL     1     -30.274  -7.379  17.904  1.00  0.00     0.000 C 
BRANCH   7   8
ATOM      8  C   UNL     1     -29.476  -6.091  17.635  1.00  0.00     0.006 C 
BRANCH   8   9
ATOM      9  C   UNL     1     -30.295  -4.979  16.955  1.00  0.00     0.053 C 
BRANCH   9  10
ATOM     10  C   UNL     1     -30.058  -3.632  17.568  1.00  0.00     0.041 C 
ATOM     11  O   UNL     1     -30.700  -3.281  18.593  1.00  0.00    -0.550 OA
ATOM     12  O   UNL     1     -29.103  -2.777  17.032  1.00  0.00    -0.550 OA
ENDBRANCH   9  10
ENDBRANCH   8   9
ENDBRANCH   7   8
ENDBRANCH   6   7
ENDBRANCH   5   6
ENDBRANCH   4   5
ENDBRANCH   3   4
ENDBRANCH   1   3
BRANCH   2  13
ATOM     13  C   UNL     1     -29.504  -5.622  21.079  1.00  0.00     0.027 C 
BRANCH  13  14
ATOM     14  C   UNL     1     -28.910  -4.381  21.766  1.00  0.00     0.004 C 
BRANCH  14  15
ATOM     15  C   UNL     1     -29.009  -4.431  23.304  1.00  0.00     0.000 C 
BRANCH  15  16
ATOM     16  C   UNL     1     -27.642  -4.579  24.000  1.00  0.00     0.000 C 
BRANCH  16  17
ATOM     17  C   UNL     1     -27.534  -5.891  24.796  1.00  0.00    -0.000 C 
BRANCH  17  18
ATOM     18  C   UNL     1     -27.527  -5.665  26.318  1.00  0.00    -0.000 C 
BRANCH  18  19
ATOM     19  C   UNL     1     -28.635  -6.406  27.089  1.00  0.00    -0.003 C 
ATOM     20  C   UNL     1     -29.591  -7.168  26.172  1.00  0.00     0.004 C 
ENDBRANCH  18  19
ENDBRANCH  17  18
ENDBRANCH  16  17
ENDBRANCH  15  16
ENDBRANCH  14  15
ENDBRANCH  13  14
ENDBRANCH   2  13
TORSDOF 15
ENDMDL
MODEL 7
REMARK VINA RESULT:    -4.518      2.243      6.151
REMARK INTER + INTRA:         -10.148
REMARK INTER:                  -8.053
REMARK INTRA:                  -2.094
REMARK UNBOUND:                -1.667
REMARK SMILES CCCCCCCCC=CCCCCCCCC(=O)[O-]
REMARK SMILES IDX 10 1 9 2 11 3 12 4 13 5 14 6 15 7 16 8 17 9 18 10 19 11
REMARK SMILES IDX 20 12 8 13 7 14 6 15 5 16 4 17 3 18 2 19 1 20
REMARK H PARENT
REMARK Flexibility Score: inf
ROOT
ATOM      1  C   UNL     1     -28.590  -4.895  23.076  1.00  0.00    -0.031 C 
ATOM      2  C   UNL     1     -27.654  -4.790  24.039  1.00  0.00    -0.031 C 
ENDROOT
BRANCH   1   3
ATOM      3  C   UNL     1     -29.465  -6.104  22.844  1.00  0.00     0.027 C 
BRANCH   3   4
ATOM      4  C   UNL     1     -28.767  -7.178  21.994  1.00  0.00     0.004 C 
BRANCH   4   5
ATOM      5  C   UNL     1     -29.658  -8.387  21.649  1.00  0.00     0.000 C 
BRANCH   5   6
ATOM      6  C   UNL     1     -29.208  -9.141  20.379  1.00  0.00     0.000 C 
BRANCH   6   7
ATOM      7  C   UNL     1     -28.454  -8.230  19.396  1.00  0.00     0.000 C 
BRANCH   7   8
ATOM      8  C   UNL     1     -29.358  -7.646  18.297  1.00  0.00     0.006 C 
BRANCH   8   9
ATOM      9  C   UNL     1     -29.429  -6.109  18.295  1.00  0.00     0.053 C 
BRANCH   9  10
ATOM     10  C   UNL     1     -30.485  -5.579  19.217  1.00  0.00     0.041 C 
ATOM     11  O   UNL     1     -31.519  -6.258  19.452  1.00  0.00    -0.550 OA
ATOM     12  O   UNL     1     -30.314  -4.352  19.845  1.00  0.00    -0.550 OA
ENDBRANCH   9  10
ENDBRANCH   8   9
ENDBRANCH   7   8
ENDBRANCH   6   7
ENDBRANCH   5   6
ENDBRANCH   4   5
ENDBRANCH   3   4
ENDBRANCH   1   3
BRANCH   2  13
ATOM     13  C   UNL     1     -27.276  -5.883  25.011  1.00  0.00     0.027 C 
BRANCH  13  14
ATOM     14  C   UNL     1     -27.455  -5.423  26.467  1.00  0.00     0.004 C 
BRANCH  14  15
ATOM     15  C   UNL     1     -28.364  -6.356  27.293  1.00  0.00     0.000 C 
BRANCH  15  16
ATOM     16  C   UNL     1     -29.442  -7.062  26.448  1.00  0.00     0.000 C 
BRANCH  16  17
ATOM     17  C   UNL     1     -30.504  -7.753  27.321  1.00  0.00    -0.000 C 
BRANCH  17  18
ATOM     18  C   UNL     1     -31.510  -8.575  26.497  1.00  0.00    -0.000 C 
BRANCH  18  19
ATOM     19  C   UNL     1     -31.317  -8.497  24.972  1.00  0.00    -0.003 C 
ATOM     20  C   UNL     1     -32.454  -7.763  24.264  1.00  0.00     0.004 C 
ENDBRANCH  18  19
ENDBRANCH  17  18
ENDBRANCH  16  17
ENDBRANCH  15  16
ENDBRANCH  14  15
ENDBRANCH  13  14
ENDBRANCH   2  13
TORSDOF 15
ENDMDL
MODEL 8
REMARK VINA RESULT:    -4.486     11.224     12.733
REMARK INTER + INTRA:         -10.087
REMARK INTER:                  -7.659
REMARK INTRA:                  -2.429
REMARK UNBOUND:                -1.667
REMARK SMILES CCCCCCCCC=CCCCCCCCC(=O)[O-]
REMARK SMILES IDX 10 1 9 2 11 3 12 4 13 5 14 6 15 7 16 8 17 9 18 10 19 11
REMARK SMILES IDX 20 12 8 13 7 14 6 15 5 16 4 17 3 18 2 19 1 20
REMARK H PARENT
REMARK Flexibility Score: inf
ROOT
ATOM      1  C   UNL     1     -35.851   2.435  19.705  1.00  0.00    -0.031 C 
ATOM      2  C   UNL     1     -34.634   2.850  19.304  1.00  0.00    -0.031 C 
ENDROOT
BRANCH   1   3
ATOM      3  C   UNL     1     -36.152   1.084  20.309  1.00  0.00     0.027 C 
BRANCH   3   4
ATOM      4  C   UNL     1     -37.020   0.211  19.388  1.00  0.00     0.004 C 
BRANCH   4   5
ATOM      5  C   UNL     1     -38.536   0.376  19.607  1.00  0.00     0.000 C 
BRANCH   5   6
ATOM      6  C   UNL     1     -38.891   1.325  20.772  1.00  0.00     0.000 C 
BRANCH   6   7
ATOM      7  C   UNL     1     -39.622   0.599  21.914  1.00  0.00     0.000 C 
BRANCH   7   8
ATOM      8  C   UNL     1     -38.670   0.062  22.997  1.00  0.00     0.006 C 
BRANCH   8   9
ATOM      9  C   UNL     1     -37.898   1.159  23.751  1.00  0.00     0.053 C 
BRANCH   9  10
ATOM     10  C   UNL     1     -38.708   1.786  24.845  1.00  0.00     0.041 C 
ATOM     11  O   UNL     1     -38.451   2.955  25.233  1.00  0.00    -0.550 OA
ATOM     12  O   UNL     1     -39.770   1.093  25.413  1.00  0.00    -0.550 OA
ENDBRANCH   9  10
ENDBRANCH   8   9
ENDBRANCH   7   8
ENDBRANCH   6   7
ENDBRANCH   5   6
ENDBRANCH   4   5
ENDBRANCH   3   4
ENDBRANCH   1   3
BRANCH   2  13
ATOM     13  C   UNL     1     -33.376   2.015  19.332  1.00  0.00     0.027 C 
BRANCH  13  14
ATOM     14  C   UNL     1     -32.953   1.593  17.915  1.00  0.00     0.004 C 
BRANCH  14  15
ATOM     15  C   UNL     1     -33.173   0.092  17.635  1.00  0.00     0.000 C 
BRANCH  15  16
ATOM     16  C   UNL     1     -34.508  -0.207  16.926  1.00  0.00     0.000 C 
BRANCH  16  17
ATOM     17  C   UNL     1     -34.774   0.759  15.758  1.00  0.00    -0.000 C 
BRANCH  17  18
ATOM     18  C   UNL     1     -36.070   1.569  15.938  1.00  0.00    -0.000 C 
BRANCH  18  19
ATOM     19  C   UNL     1     -35.903   3.094  15.812  1.00  0.00    -0.003 C 
ATOM     20  C   UNL     1     -37.057   3.873  16.442  1.00  0.00     0.004 C 
ENDBRANCH  18  19
ENDBRANCH  17  18
ENDBRANCH  16  17
ENDBRANCH  15  16
ENDBRANCH  14  15
ENDBRANCH  13  14
ENDBRANCH   2  13
TORSDOF 15
ENDMDL
MODEL 9
REMARK VINA RESULT:    -4.483      3.853      5.973
REMARK INTER + INTRA:         -10.081
REMARK INTER:                  -7.675
REMARK INTRA:                  -2.406
REMARK UNBOUND:                -1.667
REMARK SMILES CCCCCCCCC=CCCCCCCCC(=O)[O-]
REMARK SMILES IDX 10 1 9 2 11 3 12 4 13 5 14 6 15 7 16 8 17 9 18 10 19 11
REMARK SMILES IDX 20 12 8 13 7 14 6 15 5 16 4 17 3 18 2 19 1 20
REMARK H PARENT
REMARK Flexibility Score: inf
ROOT
ATOM      1  C   UNL     1     -28.245  -3.974  23.355  1.00  0.00    -0.031 C 
ATOM      2  C   UNL     1     -27.803  -4.750  24.363  1.00  0.00    -0.031 C 
ENDROOT
BRANCH   1   3
ATOM      3  C   UNL     1     -28.716  -4.480  22.012  1.00  0.00     0.027 C 
BRANCH   3   4
ATOM      4  C   UNL     1     -30.236  -4.339  21.832  1.00  0.00     0.004 C 
BRANCH   4   5
ATOM      5  C   UNL     1     -30.928  -5.604  21.292  1.00  0.00     0.000 C 
BRANCH   5   6
ATOM      6  C   UNL     1     -31.668  -5.380  19.955  1.00  0.00     0.000 C 
BRANCH   6   7
ATOM      7  C   UNL     1     -30.983  -6.100  18.782  1.00  0.00     0.000 C 
BRANCH   7   8
ATOM      8  C   UNL     1     -29.656  -5.446  18.361  1.00  0.00     0.006 C 
BRANCH   8   9
ATOM      9  C   UNL     1     -29.473  -5.325  16.837  1.00  0.00     0.053 C 
BRANCH   9  10
ATOM     10  C   UNL     1     -29.546  -3.907  16.359  1.00  0.00     0.041 C 
ATOM     11  O   UNL     1     -29.494  -2.957  17.183  1.00  0.00    -0.550 OA
ATOM     12  O   UNL     1     -29.635  -3.631  15.000  1.00  0.00    -0.550 OA
ENDBRANCH   9  10
ENDBRANCH   8   9
ENDBRANCH   7   8
ENDBRANCH   6   7
ENDBRANCH   5   6
ENDBRANCH   4   5
ENDBRANCH   3   4
ENDBRANCH   1   3
BRANCH   2  13
ATOM     13  C   UNL     1     -27.644  -6.252  24.302  1.00  0.00     0.027 C 
BRANCH  13  14
ATOM     14  C   UNL     1     -28.970  -6.968  24.608  1.00  0.00     0.004 C 
BRANCH  14  15
ATOM     15  C   UNL     1     -29.363  -8.005  23.536  1.00  0.00     0.000 C 
BRANCH  15  16
ATOM     16  C   UNL     1     -28.279  -8.212  22.461  1.00  0.00     0.000 C 
BRANCH  16  17
ATOM     17  C   UNL     1     -28.848  -8.836  21.175  1.00  0.00    -0.000 C 
BRANCH  17  18
ATOM     18  C   UNL     1     -28.180  -8.291  19.901  1.00  0.00    -0.000 C 
BRANCH  18  19
ATOM     19  C   UNL     1     -28.600  -8.993  18.597  1.00  0.00    -0.003 C 
ATOM     20  C   UNL     1     -29.698 -10.034  18.808  1.00  0.00     0.004 C 
ENDBRANCH  18  19
ENDBRANCH  17  18
ENDBRANCH  16  17
ENDBRANCH  15  16
ENDBRANCH  14  15
ENDBRANCH  13  14
ENDBRANCH   2  13
TORSDOF 15
ENDMDL
