MODEL 1
REMARK VINA RESULT:    -5.715      0.000      0.000
REMARK INTER + INTRA:         -13.057
REMARK INTER:                 -11.060
REMARK INTRA:                  -1.997
REMARK UNBOUND:                -1.997
REMARK SMILES CCCCCCCCCCCCCCCCCC(=O)[O-]
REMARK SMILES IDX 10 1 11 2 12 3 13 4 14 5 15 6 16 7 17 8 18 9 19 10 20 11
REMARK SMILES IDX 9 12 8 13 7 14 6 15 5 16 4 17 3 18 2 19 1 20
REMARK H PARENT
REMARK Flexibility Score: inf
ROOT
ATOM      1  C   UNL     1      -6.882 -13.099  -4.978  1.00  0.00     0.000 C 
ENDROOT
BRANCH   1   2
ATOM      2  C   UNL     1      -6.917 -12.937  -3.447  1.00  0.00     0.000 C 
BRANCH   2   3
ATOM      3  C   UNL     1      -6.094 -14.012  -2.714  1.00  0.00     0.000 C 
BRANCH   3   4
ATOM      4  C   UNL     1      -6.825 -15.361  -2.629  1.00  0.00     0.000 C 
BRANCH   4   5
ATOM      5  C   UNL     1      -5.858 -16.546  -2.469  1.00  0.00     0.000 C 
BRANCH   5   6
ATOM      6  C   UNL     1      -4.529 -16.139  -1.812  1.00  0.00     0.000 C 
BRANCH   6   7
ATOM      7  C   UNL     1      -4.048 -17.156  -0.766  1.00  0.00     0.006 C 
BRANCH   7   8
ATOM      8  C   UNL     1      -2.598 -16.877  -0.358  1.00  0.00     0.053 C 
BRANCH   8   9
ATOM      9  C   UNL     1      -1.788 -18.134  -0.405  1.00  0.00     0.041 C 
ATOM     10  O   UNL     1      -1.492 -18.656  -1.511  1.00  0.00    -0.550 OA
ATOM     11  O   UNL     1      -1.319 -18.702   0.773  1.00  0.00    -0.550 OA
ENDBRANCH   8   9
ENDBRANCH   7   8
ENDBRANCH   6   7
ENDBRANCH   5   6
ENDBRANCH   4   5
ENDBRANCH   3   4
ENDBRANCH   2   3
ENDBRANCH   1   2
BRANCH   1  12
ATOM     12  C   UNL     1      -8.208 -13.562  -5.610  1.00  0.00     0.000 C 
BRANCH  12  13
ATOM     13  C   UNL     1      -8.329 -15.081  -5.837  1.00  0.00    -0.000 C 
BRANCH  13  14
ATOM     14  C   UNL     1      -7.017 -15.747  -6.304  1.00  0.00    -0.000 C 
BRANCH  14  15
ATOM     15  C   UNL     1      -7.003 -17.261  -6.050  1.00  0.00    -0.000 C 
BRANCH  15  16
ATOM     16  C   UNL     1      -8.323 -17.728  -5.424  1.00  0.00    -0.000 C 
BRANCH  16  17
ATOM     17  C   UNL     1      -9.068 -18.687  -6.363  1.00  0.00    -0.000 C 
BRANCH  17  18
ATOM     18  C   UNL     1     -10.070 -17.962  -7.276  1.00  0.00    -0.000 C 
BRANCH  18  19
ATOM     19  C   UNL     1      -9.675 -18.027  -8.758  1.00  0.00    -0.003 C 
ATOM     20  C   UNL     1      -9.030 -16.722  -9.213  1.00  0.00     0.004 C 
ENDBRANCH  18  19
ENDBRANCH  17  18
ENDBRANCH  16  17
ENDBRANCH  15  16
ENDBRANCH  14  15
ENDBRANCH  13  14
ENDBRANCH  12  13
ENDBRANCH   1  12
TORSDOF 16
ENDMDL
MODEL 2
REMARK VINA RESULT:    -5.668      3.764      7.464
REMARK INTER + INTRA:         -12.966
REMARK INTER:                 -11.091
REMARK INTRA:                  -1.875
REMARK UNBOUND:                -1.997
REMARK SMILES CCCCCCCCCCCCCCCCCC(=O)[O-]
REMARK SMILES IDX 10 1 11 2 12 3 13 4 14 5 15 6 16 7 17 8 18 9 19 10 20 11
REMARK SMILES IDX 9 12 8 13 7 14 6 15 5 16 4 17 3 18 2 19 1 20
REMARK H PARENT
REMARK Flexibility Score: inf
ROOT
ATOM      1  C   UNL     1      -6.875 -12.901  -3.742  1.00  0.00     0.000 C 
ENDROOT
BRANCH   1   2
ATOM      2  C   UNL     1      -6.975 -13.302  -5.227  1.00  0.00     0.000 C 
BRANCH   2   3
ATOM      3  C   UNL     1      -8.405 -13.685  -5.646  1.00  0.00     0.000 C 
BRANCH   3   4
ATOM      4  C   UNL     1      -8.486 -15.090  -6.263  1.00  0.00     0.000 C 
BRANCH   4   5
ATOM      5  C   UNL     1      -7.100 -15.733  -6.447  1.00  0.00     0.000 C 
BRANCH   5   6
ATOM      6  C   UNL     1      -7.108 -17.244  -6.159  1.00  0.00     0.000 C 
BRANCH   6   7
ATOM      7  C   UNL     1      -8.319 -17.682  -5.323  1.00  0.00     0.006 C 
BRANCH   7   8
ATOM      8  C   UNL     1      -8.998 -18.909  -5.941  1.00  0.00     0.053 C 
BRANCH   8   9
ATOM      9  C   UNL     1     -10.126 -18.492  -6.831  1.00  0.00     0.041 C 
ATOM     10  O   UNL     1     -11.310 -18.509  -6.403  1.00  0.00    -0.550 OA
ATOM     11  O   UNL     1      -9.864 -18.039  -8.118  1.00  0.00    -0.550 OA
ENDBRANCH   8   9
ENDBRANCH   7   8
ENDBRANCH   6   7
ENDBRANCH   5   6
ENDBRANCH   4   5
ENDBRANCH   3   4
ENDBRANCH   2   3
ENDBRANCH   1   2
BRANCH   1  12
ATOM     12  C   UNL     1      -6.196 -13.944  -2.835  1.00  0.00     0.000 C 
BRANCH  12  13
ATOM     13  C   UNL     1      -6.921 -15.300  -2.744  1.00  0.00    -0.000 C 
BRANCH  13  14
ATOM     14  C   UNL     1      -5.966 -16.513  -2.687  1.00  0.00    -0.000 C 
BRANCH  14  15
ATOM     15  C   UNL     1      -4.602 -16.159  -2.078  1.00  0.00    -0.000 C 
BRANCH  15  16
ATOM     16  C   UNL     1      -4.315 -17.011  -0.835  1.00  0.00    -0.000 C 
BRANCH  16  17
ATOM     17  C   UNL     1      -2.821 -17.351  -0.735  1.00  0.00    -0.000 C 
BRANCH  17  18
ATOM     18  C   UNL     1      -1.974 -16.608  -1.781  1.00  0.00    -0.000 C 
BRANCH  18  19
ATOM     19  C   UNL     1      -0.564 -17.197  -1.928  1.00  0.00    -0.003 C 
ATOM     20  C   UNL     1      -0.525 -18.653  -1.472  1.00  0.00     0.004 C 
ENDBRANCH  18  19
ENDBRANCH  17  18
ENDBRANCH  16  17
ENDBRANCH  15  16
ENDBRANCH  14  15
ENDBRANCH  13  14
ENDBRANCH  12  13
ENDBRANCH   1  12
TORSDOF 16
ENDMDL
MODEL 3
REMARK VINA RESULT:    -5.661      2.857      8.288
REMARK INTER + INTRA:         -12.953
REMARK INTER:                 -11.239
REMARK INTRA:                  -1.714
REMARK UNBOUND:                -1.997
REMARK SMILES CCCCCCCCCCCCCCCCCC(=O)[O-]
REMARK SMILES IDX 10 1 11 2 12 3 13 4 14 5 15 6 16 7 17 8 18 9 19 10 20 11
REMARK SMILES IDX 9 12 8 13 7 14 6 15 5 16 4 17 3 18 2 19 1 20
REMARK H PARENT
REMARK Flexibility Score: inf
ROOT
ATOM      1  C   UNL     1      -5.571 -16.360  -2.655  1.00  0.00     0.000 C 
ENDROOT
BRANCH   1   2
ATOM      2  C   UNL     1      -6.693 -15.310  -2.764  1.00  0.00     0.000 C 
BRANCH   2   3
ATOM      3  C   UNL     1      -6.172 -13.866  -2.658  1.00  0.00     0.000 C 
BRANCH   3   4
ATOM      4  C   UNL     1      -6.872 -12.910  -3.636  1.00  0.00     0.000 C 
BRANCH   4   5
ATOM      5  C   UNL     1      -6.873 -13.440  -5.080  1.00  0.00     0.000 C 
BRANCH   5   6
ATOM      6  C   UNL     1      -8.291 -13.552  -5.666  1.00  0.00     0.000 C 
BRANCH   6   7
ATOM      7  C   UNL     1      -8.728 -15.007  -5.888  1.00  0.00     0.006 C 
BRANCH   7   8
ATOM      8  C   UNL     1      -7.562 -15.858  -6.400  1.00  0.00     0.053 C 
BRANCH   8   9
ATOM      9  C   UNL     1      -7.576 -17.209  -5.760  1.00  0.00     0.041 C 
ATOM     10  O   UNL     1      -6.622 -18.009  -5.946  1.00  0.00    -0.550 OA
ATOM     11  O   UNL     1      -8.622 -17.568  -4.919  1.00  0.00    -0.550 OA
ENDBRANCH   8   9
ENDBRANCH   7   8
ENDBRANCH   6   7
ENDBRANCH   5   6
ENDBRANCH   4   5
ENDBRANCH   3   4
ENDBRANCH   2   3
ENDBRANCH   1   2
BRANCH   1  12
ATOM     12  C   UNL     1      -4.453 -16.010  -1.655  1.00  0.00     0.000 C 
BRANCH  12  13
ATOM     13  C   UNL     1      -4.003 -17.172  -0.748  1.00  0.00    -0.000 C 
BRANCH  13  14
ATOM     14  C   UNL     1      -2.545 -17.621  -0.990  1.00  0.00    -0.000 C 
BRANCH  14  15
ATOM     15  C   UNL     1      -1.671 -16.497  -1.564  1.00  0.00    -0.000 C 
BRANCH  15  16
ATOM     16  C   UNL     1      -0.195 -16.709  -1.206  1.00  0.00    -0.000 C 
BRANCH  16  17
ATOM     17  C   UNL     1      -0.047 -17.708  -0.050  1.00  0.00    -0.000 C 
BRANCH  17  18
ATOM     18  C   UNL     1       0.568 -17.072   1.207  1.00  0.00    -0.000 C 
BRANCH  18  19
ATOM     19  C   UNL     1      -0.369 -17.135   2.421  1.00  0.00    -0.003 C 
ATOM     20  C   UNL     1      -1.561 -16.199   2.245  1.00  0.00     0.004 C 
ENDBRANCH  18  19
ENDBRANCH  17  18
ENDBRANCH  16  17
ENDBRANCH  15  16
ENDBRANCH  14  15
ENDBRANCH  13  14
ENDBRANCH  12  13
ENDBRANCH   1  12
TORSDOF 16
ENDMDL
MODEL 4
REMARK VINA RESULT:    -5.619      1.475      2.645
REMARK INTER + INTRA:         -12.872
REMARK INTER:                 -11.092
REMARK INTRA:                  -1.781
REMARK UNBOUND:                -1.997
REMARK SMILES CCCCCCCCCCCCCCCCCC(=O)[O-]
REMARK SMILES IDX 10 1 11 2 12 3 13 4 14 5 15 6 16 7 17 8 18 9 19 10 20 11
REMARK SMILES IDX 9 12 8 13 7 14 6 15 5 16 4 17 3 18 2 19 1 20
REMARK H PARENT
REMARK Flexibility Score: inf
ROOT
ATOM      1  C   UNL     1      -6.505 -13.114  -3.873  1.00  0.00     0.000 C 
ENDROOT
BRANCH   1   2
ATOM      2  C   UNL     1      -6.474 -14.063  -2.659  1.00  0.00     0.000 C 
BRANCH   2   3
ATOM      3  C   UNL     1      -6.894 -15.500  -3.015  1.00  0.00     0.000 C 
BRANCH   3   4
ATOM      4  C   UNL     1      -5.792 -16.530  -2.720  1.00  0.00     0.000 C 
BRANCH   4   5
ATOM      5  C   UNL     1      -4.729 -15.993  -1.746  1.00  0.00     0.000 C 
BRANCH   5   6
ATOM      6  C   UNL     1      -4.263 -17.056  -0.737  1.00  0.00     0.000 C 
BRANCH   6   7
ATOM      7  C   UNL     1      -2.737 -17.225  -0.717  1.00  0.00     0.006 C 
BRANCH   7   8
ATOM      8  C   UNL     1      -2.084 -16.453  -1.867  1.00  0.00     0.053 C 
BRANCH   8   9
ATOM      9  C   UNL     1      -0.611 -16.323  -1.644  1.00  0.00     0.041 C 
ATOM     10  O   UNL     1      -0.077 -16.831  -0.623  1.00  0.00    -0.550 OA
ATOM     11  O   UNL     1       0.181 -15.682  -2.589  1.00  0.00    -0.550 OA
ENDBRANCH   8   9
ENDBRANCH   7   8
ENDBRANCH   6   7
ENDBRANCH   5   6
ENDBRANCH   4   5
ENDBRANCH   3   4
ENDBRANCH   2   3
ENDBRANCH   1   2
BRANCH   1  12
ATOM     12  C   UNL     1      -7.002 -13.754  -5.182  1.00  0.00     0.000 C 
BRANCH  12  13
ATOM     13  C   UNL     1      -8.348 -13.215  -5.702  1.00  0.00    -0.000 C 
BRANCH  13  14
ATOM     14  C   UNL     1      -9.502 -14.238  -5.623  1.00  0.00    -0.000 C 
BRANCH  14  15
ATOM     15  C   UNL     1      -9.019 -15.684  -5.806  1.00  0.00    -0.000 C 
BRANCH  15  16
ATOM     16  C   UNL     1      -8.619 -15.952  -7.262  1.00  0.00    -0.000 C 
BRANCH  16  17
ATOM     17  C   UNL     1      -7.817 -17.256  -7.380  1.00  0.00    -0.000 C 
BRANCH  17  18
ATOM     18  C   UNL     1      -7.139 -17.655  -6.059  1.00  0.00    -0.000 C 
BRANCH  18  19
ATOM     19  C   UNL     1      -7.461 -19.097  -5.641  1.00  0.00    -0.003 C 
ATOM     20  C   UNL     1      -8.329 -19.125  -4.386  1.00  0.00     0.004 C 
ENDBRANCH  18  19
ENDBRANCH  17  18
ENDBRANCH  16  17
ENDBRANCH  15  16
ENDBRANCH  14  15
ENDBRANCH  13  14
ENDBRANCH  12  13
ENDBRANCH   1  12
TORSDOF 16
ENDMDL
MODEL 5
REMARK VINA RESULT:    -5.619      1.766      3.842
REMARK INTER + INTRA:         -12.871
REMARK INTER:                 -11.074
REMARK INTRA:                  -1.797
REMARK UNBOUND:                -1.997
REMARK SMILES CCCCCCCCCCCCCCCCCC(=O)[O-]
REMARK SMILES IDX 10 1 11 2 12 3 13 4 14 5 15 6 16 7 17 8 18 9 19 10 20 11
REMARK SMILES IDX 9 12 8 13 7 14 6 15 5 16 4 17 3 18 2 19 1 20
REMARK H PARENT
REMARK Flexibility Score: inf
ROOT
ATOM      1  C   UNL     1      -5.937 -16.294  -3.440  1.00  0.00     0.000 C 
ENDROOT
BRANCH   1   2
ATOM      2  C   UNL     1      -5.241 -15.756  -2.175  1.00  0.00     0.000 C 
BRANCH   2   3
ATOM      3  C   UNL     1      -4.682 -16.876  -1.280  1.00  0.00     0.000 C 
BRANCH   3   4
ATOM      4  C   UNL     1      -3.311 -16.526  -0.680  1.00  0.00     0.000 C 
BRANCH   4   5
ATOM      5  C   UNL     1      -2.184 -16.558  -1.727  1.00  0.00     0.000 C 
BRANCH   5   6
ATOM      6  C   UNL     1      -0.874 -17.136  -1.165  1.00  0.00     0.000 C 
BRANCH   6   7
ATOM      7  C   UNL     1      -1.098 -18.388  -0.306  1.00  0.00     0.006 C 
BRANCH   7   8
ATOM      8  C   UNL     1      -0.096 -18.445   0.852  1.00  0.00     0.053 C 
BRANCH   8   9
ATOM      9  C   UNL     1      -0.402 -17.387   1.864  1.00  0.00     0.041 C 
ATOM     10  O   UNL     1      -1.576 -17.244   2.297  1.00  0.00    -0.550 OA
ATOM     11  O   UNL     1       0.619 -16.589   2.366  1.00  0.00    -0.550 OA
ENDBRANCH   8   9
ENDBRANCH   7   8
ENDBRANCH   6   7
ENDBRANCH   5   6
ENDBRANCH   4   5
ENDBRANCH   3   4
ENDBRANCH   2   3
ENDBRANCH   1   2
BRANCH   1  12
ATOM     12  C   UNL     1      -7.412 -16.693  -3.246  1.00  0.00     0.000 C 
BRANCH  12  13
ATOM     13  C   UNL     1      -7.919 -17.798  -4.193  1.00  0.00    -0.000 C 
BRANCH  13  14
ATOM     14  C   UNL     1      -7.060 -17.971  -5.464  1.00  0.00    -0.000 C 
BRANCH  14  15
ATOM     15  C   UNL     1      -7.752 -17.422  -6.720  1.00  0.00    -0.000 C 
BRANCH  15  16
ATOM     16  C   UNL     1      -7.568 -15.903  -6.832  1.00  0.00    -0.000 C 
BRANCH  16  17
ATOM     17  C   UNL     1      -8.851 -15.163  -6.427  1.00  0.00    -0.000 C 
BRANCH  17  18
ATOM     18  C   UNL     1      -8.567 -13.855  -5.673  1.00  0.00    -0.000 C 
BRANCH  18  19
ATOM     19  C   UNL     1      -7.065 -13.573  -5.522  1.00  0.00    -0.003 C 
ATOM     20  C   UNL     1      -6.775 -12.816  -4.229  1.00  0.00     0.004 C 
ENDBRANCH  18  19
ENDBRANCH  17  18
ENDBRANCH  16  17
ENDBRANCH  15  16
ENDBRANCH  14  15
ENDBRANCH  13  14
ENDBRANCH  12  13
ENDBRANCH   1  12
TORSDOF 16
ENDMDL
MODEL 6
REMARK VINA RESULT:    -5.604      5.370      9.346
REMARK INTER + INTRA:         -12.843
REMARK INTER:                 -11.601
REMARK INTRA:                  -1.242
REMARK UNBOUND:                -1.997
REMARK SMILES CCCCCCCCCCCCCCCCCC(=O)[O-]
REMARK SMILES IDX 10 1 11 2 12 3 13 4 14 5 15 6 16 7 17 8 18 9 19 10 20 11
REMARK SMILES IDX 9 12 8 13 7 14 6 15 5 16 4 17 3 18 2 19 1 20
REMARK H PARENT
REMARK Flexibility Score: inf
ROOT
ATOM      1  C   UNL     1      -9.293 -14.705  -5.841  1.00  0.00     0.000 C 
ENDROOT
BRANCH   1   2
ATOM      2  C   UNL     1      -8.495 -15.969  -6.215  1.00  0.00     0.000 C 
BRANCH   2   3
ATOM      3  C   UNL     1      -9.396 -17.129  -6.674  1.00  0.00     0.000 C 
BRANCH   3   4
ATOM      4  C   UNL     1      -9.036 -17.639  -8.079  1.00  0.00     0.000 C 
BRANCH   4   5
ATOM      5  C   UNL     1      -8.608 -16.505  -9.026  1.00  0.00     0.000 C 
BRANCH   5   6
ATOM      6  C   UNL     1      -8.905 -16.825 -10.501  1.00  0.00     0.000 C 
BRANCH   6   7
ATOM      7  C   UNL     1      -9.901 -15.841 -11.132  1.00  0.00     0.006 C 
BRANCH   7   8
ATOM      8  C   UNL     1     -11.341 -16.332 -10.958  1.00  0.00     0.053 C 
BRANCH   8   9
ATOM      9  C   UNL     1     -12.280 -15.509 -11.782  1.00  0.00     0.041 C 
ATOM     10  O   UNL     1     -11.836 -14.769 -12.699  1.00  0.00    -0.550 OA
ATOM     11  O   UNL     1     -13.650 -15.596 -11.570  1.00  0.00    -0.550 OA
ENDBRANCH   8   9
ENDBRANCH   7   8
ENDBRANCH   6   7
ENDBRANCH   5   6
ENDBRANCH   4   5
ENDBRANCH   3   4
ENDBRANCH   2   3
ENDBRANCH   1   2
BRANCH   1  12
ATOM     12  C   UNL     1      -8.440 -13.440  -5.632  1.00  0.00     0.000 C 
BRANCH  12  13
ATOM     13  C   UNL     1      -7.023 -13.692  -5.080  1.00  0.00    -0.000 C 
BRANCH  13  14
ATOM     14  C   UNL     1      -6.756 -13.011  -3.720  1.00  0.00    -0.000 C 
BRANCH  14  15
ATOM     15  C   UNL     1      -6.241 -13.996  -2.660  1.00  0.00    -0.000 C 
BRANCH  15  16
ATOM     16  C   UNL     1      -6.877 -15.380  -2.838  1.00  0.00    -0.000 C 
BRANCH  16  17
ATOM     17  C   UNL     1      -5.807 -16.480  -2.843  1.00  0.00    -0.000 C 
BRANCH  17  18
ATOM     18  C   UNL     1      -4.587 -16.123  -1.978  1.00  0.00    -0.000 C 
BRANCH  18  19
ATOM     19  C   UNL     1      -4.316 -17.161  -0.880  1.00  0.00    -0.003 C 
ATOM     20  C   UNL     1      -3.281 -16.649   0.118  1.00  0.00     0.004 C 
ENDBRANCH  18  19
ENDBRANCH  17  18
ENDBRANCH  16  17
ENDBRANCH  15  16
ENDBRANCH  14  15
ENDBRANCH  13  14
ENDBRANCH  12  13
ENDBRANCH   1  12
TORSDOF 16
ENDMDL
MODEL 7
REMARK VINA RESULT:    -5.589      3.046      7.474
REMARK INTER + INTRA:         -12.814
REMARK INTER:                 -11.443
REMARK INTRA:                  -1.371
REMARK UNBOUND:                -1.997
REMARK SMILES CCCCCCCCCCCCCCCCCC(=O)[O-]
REMARK SMILES IDX 10 1 11 2 12 3 13 4 14 5 15 6 16 7 17 8 18 9 19 10 20 11
REMARK SMILES IDX 9 12 8 13 7 14 6 15 5 16 4 17 3 18 2 19 1 20
REMARK H PARENT
REMARK Flexibility Score: inf
ROOT
ATOM      1  C   UNL     1      -6.489 -13.984  -2.702  1.00  0.00     0.000 C 
ENDROOT
BRANCH   1   2
ATOM      2  C   UNL     1      -6.915 -12.908  -3.720  1.00  0.00     0.000 C 
BRANCH   2   3
ATOM      3  C   UNL     1      -6.957 -13.437  -5.164  1.00  0.00     0.000 C 
BRANCH   3   4
ATOM      4  C   UNL     1      -8.390 -13.619  -5.688  1.00  0.00     0.000 C 
BRANCH   4   5
ATOM      5  C   UNL     1      -8.682 -15.068  -6.115  1.00  0.00     0.000 C 
BRANCH   5   6
ATOM      6  C   UNL     1      -7.549 -15.674  -6.960  1.00  0.00     0.000 C 
BRANCH   6   7
ATOM      7  C   UNL     1      -7.640 -17.203  -7.064  1.00  0.00     0.006 C 
BRANCH   7   8
ATOM      8  C   UNL     1      -7.293 -17.865  -5.727  1.00  0.00     0.053 C 
BRANCH   8   9
ATOM      9  C   UNL     1      -8.515 -18.462  -5.104  1.00  0.00     0.041 C 
ATOM     10  O   UNL     1      -8.543 -18.707  -3.870  1.00  0.00    -0.550 OA
ATOM     11  O   UNL     1      -9.643 -18.704  -5.880  1.00  0.00    -0.550 OA
ENDBRANCH   8   9
ENDBRANCH   7   8
ENDBRANCH   6   7
ENDBRANCH   5   6
ENDBRANCH   4   5
ENDBRANCH   3   4
ENDBRANCH   2   3
ENDBRANCH   1   2
BRANCH   1  12
ATOM     12  C   UNL     1      -6.395 -15.412  -3.272  1.00  0.00     0.000 C 
BRANCH  12  13
ATOM     13  C   UNL     1      -5.828 -16.465  -2.301  1.00  0.00    -0.000 C 
BRANCH  13  14
ATOM     14  C   UNL     1      -4.393 -16.161  -1.820  1.00  0.00    -0.000 C 
BRANCH  14  15
ATOM     15  C   UNL     1      -3.941 -17.094  -0.688  1.00  0.00    -0.000 C 
BRANCH  15  16
ATOM     16  C   UNL     1      -2.422 -17.302  -0.718  1.00  0.00    -0.000 C 
BRANCH  16  17
ATOM     17  C   UNL     1      -1.782 -16.517  -1.872  1.00  0.00    -0.000 C 
BRANCH  17  18
ATOM     18  C   UNL     1      -0.309 -16.892  -2.098  1.00  0.00    -0.000 C 
BRANCH  18  19
ATOM     19  C   UNL     1       0.625 -15.674  -2.058  1.00  0.00    -0.003 C 
ATOM     20  C   UNL     1       0.988 -15.305  -0.623  1.00  0.00     0.004 C 
ENDBRANCH  18  19
ENDBRANCH  17  18
ENDBRANCH  16  17
ENDBRANCH  15  16
ENDBRANCH  14  15
ENDBRANCH  13  14
ENDBRANCH  12  13
ENDBRANCH   1  12
TORSDOF 16
ENDMDL
MODEL 8
REMARK VINA RESULT:    -5.517      2.080      4.109
REMARK INTER + INTRA:         -12.674
REMARK INTER:                 -11.017
REMARK INTRA:                  -1.657
REMARK UNBOUND:                -1.997
REMARK SMILES CCCCCCCCCCCCCCCCCC(=O)[O-]
REMARK SMILES IDX 10 1 11 2 12 3 13 4 14 5 15 6 16 7 17 8 18 9 19 10 20 11
REMARK SMILES IDX 9 12 8 13 7 14 6 15 5 16 4 17 3 18 2 19 1 20
REMARK H PARENT
REMARK Flexibility Score: inf
ROOT
ATOM      1  C   UNL     1      -6.091 -16.500  -3.431  1.00  0.00     0.000 C 
ENDROOT
BRANCH   1   2
ATOM      2  C   UNL     1      -5.567 -15.793  -2.165  1.00  0.00     0.000 C 
BRANCH   2   3
ATOM      3  C   UNL     1      -4.089 -16.109  -1.874  1.00  0.00     0.000 C 
BRANCH   3   4
ATOM      4  C   UNL     1      -3.898 -16.899  -0.570  1.00  0.00     0.000 C 
BRANCH   4   5
ATOM      5  C   UNL     1      -2.416 -17.071  -0.197  1.00  0.00     0.000 C 
BRANCH   5   6
ATOM      6  C   UNL     1      -1.690 -18.072  -1.111  1.00  0.00     0.000 C 
BRANCH   6   7
ATOM      7  C   UNL     1      -0.360 -17.525  -1.651  1.00  0.00     0.006 C 
BRANCH   7   8
ATOM      8  C   UNL     1      -0.516 -16.078  -2.128  1.00  0.00     0.053 C 
BRANCH   8   9
ATOM      9  C   UNL     1       0.807 -15.381  -2.132  1.00  0.00     0.041 C 
ATOM     10  O   UNL     1       1.002 -14.385  -1.386  1.00  0.00    -0.550 OA
ATOM     11  O   UNL     1       1.843 -15.861  -2.925  1.00  0.00    -0.550 OA
ENDBRANCH   8   9
ENDBRANCH   7   8
ENDBRANCH   6   7
ENDBRANCH   5   6
ENDBRANCH   4   5
ENDBRANCH   3   4
ENDBRANCH   2   3
ENDBRANCH   1   2
BRANCH   1  12
ATOM     12  C   UNL     1      -7.578 -16.897  -3.382  1.00  0.00     0.000 C 
BRANCH  12  13
ATOM     13  C   UNL     1      -7.990 -18.004  -4.371  1.00  0.00    -0.000 C 
BRANCH  13  14
ATOM     14  C   UNL     1      -7.171 -18.007  -5.679  1.00  0.00    -0.000 C 
BRANCH  14  15
ATOM     15  C   UNL     1      -7.919 -17.341  -6.843  1.00  0.00    -0.000 C 
BRANCH  15  16
ATOM     16  C   UNL     1      -7.663 -15.829  -6.870  1.00  0.00    -0.000 C 
BRANCH  16  17
ATOM     17  C   UNL     1      -8.873 -15.057  -6.326  1.00  0.00    -0.000 C 
BRANCH  17  18
ATOM     18  C   UNL     1      -8.478 -13.724  -5.670  1.00  0.00    -0.000 C 
BRANCH  18  19
ATOM     19  C   UNL     1      -6.972 -13.626  -5.387  1.00  0.00    -0.003 C 
ATOM     20  C   UNL     1      -6.698 -12.776  -4.151  1.00  0.00     0.004 C 
ENDBRANCH  18  19
ENDBRANCH  17  18
ENDBRANCH  16  17
ENDBRANCH  15  16
ENDBRANCH  14  15
ENDBRANCH  13  14
ENDBRANCH  12  13
ENDBRANCH   1  12
TORSDOF 16
ENDMDL
MODEL 9
REMARK VINA RESULT:    -5.485      4.868      8.759
REMARK INTER + INTRA:         -12.613
REMARK INTER:                 -11.300
REMARK INTRA:                  -1.313
REMARK UNBOUND:                -1.997
REMARK SMILES CCCCCCCCCCCCCCCCCC(=O)[O-]
REMARK SMILES IDX 10 1 11 2 12 3 13 4 14 5 15 6 16 7 17 8 18 9 19 10 20 11
REMARK SMILES IDX 9 12 8 13 7 14 6 15 5 16 4 17 3 18 2 19 1 20
REMARK H PARENT
REMARK Flexibility Score: inf
ROOT
ATOM      1  C   UNL     1      -6.965 -13.663  -5.126  1.00  0.00     0.000 C 
ENDROOT
BRANCH   1   2
ATOM      2  C   UNL     1      -8.396 -13.640  -5.697  1.00  0.00     0.000 C 
BRANCH   2   3
ATOM      3  C   UNL     1      -9.083 -15.015  -5.637  1.00  0.00     0.000 C 
BRANCH   3   4
ATOM      4  C   UNL     1      -8.133 -16.169  -5.995  1.00  0.00     0.000 C 
BRANCH   4   5
ATOM      5  C   UNL     1      -7.870 -16.269  -7.507  1.00  0.00     0.000 C 
BRANCH   5   6
ATOM      6  C   UNL     1      -9.168 -16.296  -8.332  1.00  0.00     0.000 C 
BRANCH   6   7
ATOM      7  C   UNL     1      -8.919 -16.569  -9.822  1.00  0.00     0.006 C 
BRANCH   7   8
ATOM      8  C   UNL     1     -10.242 -16.700 -10.584  1.00  0.00     0.053 C 
BRANCH   8   9
ATOM      9  C   UNL     1     -10.433 -15.538 -11.506  1.00  0.00     0.041 C 
ATOM     10  O   UNL     1      -9.566 -15.272 -12.380  1.00  0.00    -0.550 OA
ATOM     11  O   UNL     1     -11.594 -14.777 -11.433  1.00  0.00    -0.550 OA
ENDBRANCH   8   9
ENDBRANCH   7   8
ENDBRANCH   6   7
ENDBRANCH   5   6
ENDBRANCH   4   5
ENDBRANCH   3   4
ENDBRANCH   2   3
ENDBRANCH   1   2
BRANCH   1  12
ATOM     12  C   UNL     1      -6.814 -13.027  -3.731  1.00  0.00     0.000 C 
BRANCH  12  13
ATOM     13  C   UNL     1      -6.280 -13.971  -2.637  1.00  0.00    -0.000 C 
BRANCH  13  14
ATOM     14  C   UNL     1      -6.942 -15.366  -2.641  1.00  0.00    -0.000 C 
BRANCH  14  15
ATOM     15  C   UNL     1      -5.919 -16.502  -2.780  1.00  0.00    -0.000 C 
BRANCH  15  16
ATOM     16  C   UNL     1      -4.585 -16.125  -2.125  1.00  0.00    -0.000 C 
BRANCH  16  17
ATOM     17  C   UNL     1      -4.313 -16.996  -0.891  1.00  0.00    -0.000 C 
BRANCH  17  18
ATOM     18  C   UNL     1      -2.815 -17.109  -0.564  1.00  0.00    -0.000 C 
BRANCH  18  19
ATOM     19  C   UNL     1      -1.937 -17.164  -1.822  1.00  0.00    -0.003 C 
ATOM     20  C   UNL     1      -0.768 -16.189  -1.722  1.00  0.00     0.004 C 
ENDBRANCH  18  19
ENDBRANCH  17  18
ENDBRANCH  16  17
ENDBRANCH  15  16
ENDBRANCH  14  15
ENDBRANCH  13  14
ENDBRANCH  12  13
ENDBRANCH   1  12
TORSDOF 16
ENDMDL
