MODEL 1
REMARK VINA RESULT:    -1.526      0.000      0.000
REMARK INTER + INTRA:          -3.287
REMARK INTER:                  -2.865
REMARK INTRA:                  -0.422
REMARK UNBOUND:                -0.422
REMARK SMILES CCCCCCCCC=CCCCCCCCC(=O)[O-]
REMARK SMILES IDX 10 1 9 2 11 3 12 4 13 5 14 6 15 7 16 8 17 9 18 10 19 11
REMARK SMILES IDX 20 12 8 13 7 14 6 15 5 16 4 17 3 18 2 19 1 20
REMARK H PARENT
REMARK Flexibility Score: inf
ROOT
ATOM      1  C   UNL     1      44.620 -27.952   2.621  1.00  0.00    -0.031 C 
ATOM      2  C   UNL     1      45.846 -28.482   2.726  1.00  0.00    -0.031 C 
ENDROOT
BRANCH   1   3
ATOM      3  C   UNL     1      44.414 -26.484   2.357  1.00  0.00     0.027 C 
BRANCH   3   4
ATOM      4  C   UNL     1      45.733 -25.742   2.092  1.00  0.00     0.004 C 
BRANCH   4   5
ATOM      5  C   UNL     1      45.594 -24.697   0.971  1.00  0.00     0.000 C 
BRANCH   5   6
ATOM      6  C   UNL     1      46.125 -25.205  -0.380  1.00  0.00     0.000 C 
BRANCH   6   7
ATOM      7  C   UNL     1      45.678 -24.322  -1.558  1.00  0.00     0.000 C 
BRANCH   7   8
ATOM      8  C   UNL     1      45.622 -25.093  -2.891  1.00  0.00     0.006 C 
BRANCH   8   9
ATOM      9  C   UNL     1      46.065 -24.277  -4.116  1.00  0.00     0.053 C 
BRANCH   9  10
ATOM     10  C   UNL     1      45.307 -24.656  -5.350  1.00  0.00     0.041 C 
ATOM     11  O   UNL     1      44.124 -25.079  -5.264  1.00  0.00    -0.550 OA
ATOM     12  O   UNL     1      45.895 -24.508  -6.600  1.00  0.00    -0.550 OA
ENDBRANCH   9  10
ENDBRANCH   8   9
ENDBRANCH   7   8
ENDBRANCH   6   7
ENDBRANCH   5   6
ENDBRANCH   4   5
ENDBRANCH   3   4
ENDBRANCH   1   3
BRANCH   2  13
ATOM     13  C   UNL     1      46.026 -29.955   2.979  1.00  0.00     0.027 C 
BRANCH  13  14
ATOM     14  C   UNL     1      46.125 -30.249   4.483  1.00  0.00     0.004 C 
BRANCH  14  15
ATOM     15  C   UNL     1      45.810 -29.020   5.349  1.00  0.00     0.000 C 
BRANCH  15  16
ATOM     16  C   UNL     1      46.084 -29.261   6.841  1.00  0.00     0.000 C 
BRANCH  16  17
ATOM     17  C   UNL     1      44.994 -30.147   7.463  1.00  0.00    -0.000 C 
BRANCH  17  18
ATOM     18  C   UNL     1      45.191 -30.367   8.975  1.00  0.00    -0.000 C 
BRANCH  18  19
ATOM     19  C   UNL     1      44.845 -31.783   9.473  1.00  0.00    -0.003 C 
ATOM     20  C   UNL     1      45.192 -32.000  10.945  1.00  0.00     0.004 C 
ENDBRANCH  18  19
ENDBRANCH  17  18
ENDBRANCH  16  17
ENDBRANCH  15  16
ENDBRANCH  14  15
ENDBRANCH  13  14
ENDBRANCH   2  13
TORSDOF 15
ENDMDL
