MODEL 1
REMARK VINA RESULT:    -2.797      0.000      0.000
REMARK INTER + INTRA:          -5.830
REMARK INTER:                  -4.433
REMARK INTRA:                  -1.397
REMARK UNBOUND:                -1.397
REMARK SMILES CCCCCCCCCCCC(=O)[O-]
REMARK SMILES IDX 7 1 8 2 9 3 10 4 11 5 12 6 13 7 14 8 6 9 5 10 4 11 3 12 2 13
REMARK SMILES IDX 1 14
REMARK H PARENT
REMARK Flexibility Score: inf
ROOT
ATOM      1  C   UNL     1      66.032  30.080  59.089  1.00  0.00     0.000 C 
ENDROOT
BRANCH   1   2
ATOM      2  C   UNL     1      65.957  31.589  58.802  1.00  0.00     0.000 C 
BRANCH   2   3
ATOM      3  C   UNL     1      64.523  32.064  58.514  1.00  0.00     0.000 C 
BRANCH   3   4
ATOM      4  C   UNL     1      63.984  33.034  59.580  1.00  0.00     0.006 C 
BRANCH   4   5
ATOM      5  C   UNL     1      64.963  33.299  60.738  1.00  0.00     0.053 C 
BRANCH   5   6
ATOM      6  C   UNL     1      64.779  34.657  61.348  1.00  0.00     0.041 C 
ATOM      7  O   UNL     1      65.719  35.195  61.989  1.00  0.00    -0.550 OA
ATOM      8  O   UNL     1      63.559  35.313  61.239  1.00  0.00    -0.550 OA
ENDBRANCH   5   6
ENDBRANCH   4   5
ENDBRANCH   3   4
ENDBRANCH   2   3
ENDBRANCH   1   2
BRANCH   1   9
ATOM      9  C   UNL     1      66.025  29.761  60.592  1.00  0.00     0.000 C 
BRANCH   9  10
ATOM     10  C   UNL     1      64.894  28.785  60.940  1.00  0.00    -0.000 C 
BRANCH  10  11
ATOM     11  C   UNL     1      63.650  29.539  61.433  1.00  0.00    -0.000 C 
BRANCH  11  12
ATOM     12  C   UNL     1      62.345  29.022  60.799  1.00  0.00    -0.000 C 
BRANCH  12  13
ATOM     13  C   UNL     1      62.159  29.386  59.316  1.00  0.00    -0.003 C 
ATOM     14  C   UNL     1      61.143  30.506  59.097  1.00  0.00     0.004 C 
ENDBRANCH  12  13
ENDBRANCH  11  12
ENDBRANCH  10  11
ENDBRANCH   9  10
ENDBRANCH   1   9
TORSDOF 10
ENDMDL
MODEL 2
REMARK VINA RESULT:    -2.777     11.426     13.499
REMARK INTER + INTRA:          -5.797
REMARK INTER:                  -4.542
REMARK INTRA:                  -1.255
REMARK UNBOUND:                -1.397
REMARK SMILES CCCCCCCCCCCC(=O)[O-]
REMARK SMILES IDX 7 1 8 2 9 3 10 4 11 5 12 6 13 7 14 8 6 9 5 10 4 11 3 12 2 13
REMARK SMILES IDX 1 14
REMARK H PARENT
REMARK Flexibility Score: inf
ROOT
ATOM      1  C   UNL     1      59.246  28.595  52.095  1.00  0.00     0.000 C 
ENDROOT
BRANCH   1   2
ATOM      2  C   UNL     1      58.414  27.336  52.394  1.00  0.00     0.000 C 
BRANCH   2   3
ATOM      3  C   UNL     1      57.002  27.405  51.788  1.00  0.00     0.000 C 
BRANCH   3   4
ATOM      4  C   UNL     1      56.394  26.018  51.516  1.00  0.00     0.006 C 
BRANCH   4   5
ATOM      5  C   UNL     1      56.268  25.671  50.021  1.00  0.00     0.053 C 
BRANCH   5   6
ATOM      6  C   UNL     1      54.862  25.332  49.626  1.00  0.00     0.041 C 
ATOM      7  O   UNL     1      54.514  25.386  48.418  1.00  0.00    -0.550 OA
ATOM      8  O   UNL     1      53.927  24.992  50.596  1.00  0.00    -0.550 OA
ENDBRANCH   5   6
ENDBRANCH   4   5
ENDBRANCH   3   4
ENDBRANCH   2   3
ENDBRANCH   1   2
BRANCH   1   9
ATOM      9  C   UNL     1      60.697  28.268  51.709  1.00  0.00     0.000 C 
BRANCH   9  10
ATOM     10  C   UNL     1      60.996  28.714  50.273  1.00  0.00    -0.000 C 
BRANCH  10  11
ATOM     11  C   UNL     1      60.776  27.561  49.281  1.00  0.00    -0.000 C 
BRANCH  11  12
ATOM     12  C   UNL     1      61.013  26.176  49.911  1.00  0.00    -0.000 C 
BRANCH  12  13
ATOM     13  C   UNL     1      59.874  25.164  49.693  1.00  0.00    -0.003 C 
ATOM     14  C   UNL     1      59.726  24.172  50.845  1.00  0.00     0.004 C 
ENDBRANCH  12  13
ENDBRANCH  11  12
ENDBRANCH  10  11
ENDBRANCH   9  10
ENDBRANCH   1   9
TORSDOF 10
ENDMDL
MODEL 3
REMARK VINA RESULT:    -2.761      2.940      5.378
REMARK INTER + INTRA:          -5.772
REMARK INTER:                  -4.600
REMARK INTRA:                  -1.172
REMARK UNBOUND:                -1.397
REMARK SMILES CCCCCCCCCCCC(=O)[O-]
REMARK SMILES IDX 7 1 8 2 9 3 10 4 11 5 12 6 13 7 14 8 6 9 5 10 4 11 3 12 2 13
REMARK SMILES IDX 1 14
REMARK H PARENT
REMARK Flexibility Score: inf
ROOT
ATOM      1  C   UNL     1      64.574  31.419  58.477  1.00  0.00     0.000 C 
ENDROOT
BRANCH   1   2
ATOM      2  C   UNL     1      65.496  31.629  59.691  1.00  0.00     0.000 C 
BRANCH   2   3
ATOM      3  C   UNL     1      64.843  31.186  61.011  1.00  0.00     0.000 C 
BRANCH   3   4
ATOM      4  C   UNL     1      64.670  29.660  61.115  1.00  0.00     0.006 C 
BRANCH   4   5
ATOM      5  C   UNL     1      63.289  29.220  61.633  1.00  0.00     0.053 C 
BRANCH   5   6
ATOM      6  C   UNL     1      62.285  29.064  60.531  1.00  0.00     0.041 C 
ATOM      7  O   UNL     1      61.077  29.360  60.728  1.00  0.00    -0.550 OA
ATOM      8  O   UNL     1      62.674  28.557  59.296  1.00  0.00    -0.550 OA
ENDBRANCH   5   6
ENDBRANCH   4   5
ENDBRANCH   3   4
ENDBRANCH   2   3
ENDBRANCH   1   2
BRANCH   1   9
ATOM      9  C   UNL     1      63.194  32.070  58.661  1.00  0.00     0.000 C 
BRANCH   9  10
ATOM     10  C   UNL     1      63.230  33.551  58.268  1.00  0.00    -0.000 C 
BRANCH  10  11
ATOM     11  C   UNL     1      62.717  34.438  59.412  1.00  0.00    -0.000 C 
BRANCH  11  12
ATOM     12  C   UNL     1      63.768  35.451  59.903  1.00  0.00    -0.000 C 
BRANCH  12  13
ATOM     13  C   UNL     1      63.948  35.505  61.431  1.00  0.00    -0.003 C 
ATOM     14  C   UNL     1      65.285  34.934  61.897  1.00  0.00     0.004 C 
ENDBRANCH  12  13
ENDBRANCH  11  12
ENDBRANCH  10  11
ENDBRANCH   9  10
ENDBRANCH   1   9
TORSDOF 10
ENDMDL
MODEL 4
REMARK VINA RESULT:    -2.758     11.431     13.585
REMARK INTER + INTRA:          -5.766
REMARK INTER:                  -4.408
REMARK INTRA:                  -1.359
REMARK UNBOUND:                -1.397
REMARK SMILES CCCCCCCCCCCC(=O)[O-]
REMARK SMILES IDX 7 1 8 2 9 3 10 4 11 5 12 6 13 7 14 8 6 9 5 10 4 11 3 12 2 13
REMARK SMILES IDX 1 14
REMARK H PARENT
REMARK Flexibility Score: inf
ROOT
ATOM      1  C   UNL     1      59.765  25.082  51.143  1.00  0.00     0.000 C 
ENDROOT
BRANCH   1   2
ATOM      2  C   UNL     1      58.279  24.782  51.403  1.00  0.00     0.000 C 
BRANCH   2   3
ATOM      3  C   UNL     1      57.348  25.516  50.423  1.00  0.00     0.000 C 
BRANCH   3   4
ATOM      4  C   UNL     1      56.247  26.326  51.130  1.00  0.00     0.006 C 
BRANCH   4   5
ATOM      5  C   UNL     1      55.059  26.693  50.222  1.00  0.00     0.053 C 
BRANCH   5   6
ATOM      6  C   UNL     1      54.485  25.501  49.516  1.00  0.00     0.041 C 
ATOM      7  O   UNL     1      54.523  25.432  48.260  1.00  0.00    -0.550 OA
ATOM      8  O   UNL     1      53.876  24.485  50.241  1.00  0.00    -0.550 OA
ENDBRANCH   5   6
ENDBRANCH   4   5
ENDBRANCH   3   4
ENDBRANCH   2   3
ENDBRANCH   1   2
BRANCH   1   9
ATOM      9  C   UNL     1      60.030  25.560  49.707  1.00  0.00     0.000 C 
BRANCH   9  10
ATOM     10  C   UNL     1      60.601  26.983  49.699  1.00  0.00    -0.000 C 
BRANCH  10  11
ATOM     11  C   UNL     1      61.017  27.416  51.113  1.00  0.00    -0.000 C 
BRANCH  11  12
ATOM     12  C   UNL     1      60.468  28.802  51.501  1.00  0.00    -0.000 C 
BRANCH  12  13
ATOM     13  C   UNL     1      59.014  28.801  52.007  1.00  0.00    -0.003 C 
ATOM     14  C   UNL     1      58.827  27.995  53.291  1.00  0.00     0.004 C 
ENDBRANCH  12  13
ENDBRANCH  11  12
ENDBRANCH  10  11
ENDBRANCH   9  10
ENDBRANCH   1   9
TORSDOF 10
ENDMDL
MODEL 5
REMARK VINA RESULT:    -2.735     14.224     16.238
REMARK INTER + INTRA:          -5.731
REMARK INTER:                  -5.229
REMARK INTRA:                  -0.502
REMARK UNBOUND:                -1.397
REMARK SMILES CCCCCCCCCCCC(=O)[O-]
REMARK SMILES IDX 7 1 8 2 9 3 10 4 11 5 12 6 13 7 14 8 6 9 5 10 4 11 3 12 2 13
REMARK SMILES IDX 1 14
REMARK H PARENT
REMARK Flexibility Score: inf
ROOT
ATOM      1  C   UNL     1      61.340  22.327  49.665  1.00  0.00     0.000 C 
ENDROOT
BRANCH   1   2
ATOM      2  C   UNL     1      60.698  20.964  49.357  1.00  0.00     0.000 C 
BRANCH   2   3
ATOM      3  C   UNL     1      60.965  19.924  50.458  1.00  0.00     0.000 C 
BRANCH   3   4
ATOM      4  C   UNL     1      59.776  18.974  50.690  1.00  0.00     0.006 C 
BRANCH   4   5
ATOM      5  C   UNL     1      59.025  18.584  49.404  1.00  0.00     0.053 C 
BRANCH   5   6
ATOM      6  C   UNL     1      58.616  17.142  49.393  1.00  0.00     0.041 C 
ATOM      7  O   UNL     1      58.558  16.509  48.307  1.00  0.00    -0.550 OA
ATOM      8  O   UNL     1      58.262  16.506  50.577  1.00  0.00    -0.550 OA
ENDBRANCH   5   6
ENDBRANCH   4   5
ENDBRANCH   3   4
ENDBRANCH   2   3
ENDBRANCH   1   2
BRANCH   1   9
ATOM      9  C   UNL     1      60.330  23.348  50.213  1.00  0.00     0.000 C 
BRANCH   9  10
ATOM     10  C   UNL     1      60.853  24.780  50.047  1.00  0.00    -0.000 C 
BRANCH  10  11
ATOM     11  C   UNL     1      59.720  25.737  49.648  1.00  0.00    -0.000 C 
BRANCH  11  12
ATOM     12  C   UNL     1      58.325  25.206  50.028  1.00  0.00    -0.000 C 
BRANCH  12  13
ATOM     13  C   UNL     1      57.599  26.016  51.116  1.00  0.00    -0.003 C 
ATOM     14  C   UNL     1      58.472  27.107  51.733  1.00  0.00     0.004 C 
ENDBRANCH  12  13
ENDBRANCH  11  12
ENDBRANCH  10  11
ENDBRANCH   9  10
ENDBRANCH   1   9
TORSDOF 10
ENDMDL
MODEL 6
REMARK VINA RESULT:    -2.731     11.762     13.362
REMARK INTER + INTRA:          -5.724
REMARK INTER:                  -4.602
REMARK INTRA:                  -1.122
REMARK UNBOUND:                -1.397
REMARK SMILES CCCCCCCCCCCC(=O)[O-]
REMARK SMILES IDX 7 1 8 2 9 3 10 4 11 5 12 6 13 7 14 8 6 9 5 10 4 11 3 12 2 13
REMARK SMILES IDX 1 14
REMARK H PARENT
REMARK Flexibility Score: inf
ROOT
ATOM      1  C   UNL     1      60.692  24.365  51.335  1.00  0.00     0.000 C 
ENDROOT
BRANCH   1   2
ATOM      2  C   UNL     1      59.241  24.073  50.917  1.00  0.00     0.000 C 
BRANCH   2   3
ATOM      3  C   UNL     1      58.618  25.222  50.107  1.00  0.00     0.000 C 
BRANCH   3   4
ATOM      4  C   UNL     1      57.660  26.094  50.938  1.00  0.00     0.006 C 
BRANCH   4   5
ATOM      5  C   UNL     1      56.231  25.533  51.041  1.00  0.00     0.053 C 
BRANCH   5   6
ATOM      6  C   UNL     1      55.326  26.062  49.969  1.00  0.00     0.041 C 
ATOM      7  O   UNL     1      55.058  25.357  48.962  1.00  0.00    -0.550 OA
ATOM      8  O   UNL     1      54.808  27.348  50.064  1.00  0.00    -0.550 OA
ENDBRANCH   5   6
ENDBRANCH   4   5
ENDBRANCH   3   4
ENDBRANCH   2   3
ENDBRANCH   1   2
BRANCH   1   9
ATOM      9  C   UNL     1      61.710  23.984  50.249  1.00  0.00     0.000 C 
BRANCH   9  10
ATOM     10  C   UNL     1      62.993  24.813  50.385  1.00  0.00    -0.000 C 
BRANCH  10  11
ATOM     11  C   UNL     1      62.669  26.287  50.673  1.00  0.00    -0.000 C 
BRANCH  11  12
ATOM     12  C   UNL     1      62.416  27.106  49.394  1.00  0.00    -0.000 C 
BRANCH  12  13
ATOM     13  C   UNL     1      61.031  27.770  49.315  1.00  0.00    -0.003 C 
ATOM     14  C   UNL     1      60.600  28.414  50.632  1.00  0.00     0.004 C 
ENDBRANCH  12  13
ENDBRANCH  11  12
ENDBRANCH  10  11
ENDBRANCH   9  10
ENDBRANCH   1   9
TORSDOF 10
ENDMDL
MODEL 7
REMARK VINA RESULT:    -2.719      3.680      6.094
REMARK INTER + INTRA:          -5.705
REMARK INTER:                  -5.031
REMARK INTRA:                  -0.674
REMARK UNBOUND:                -1.397
REMARK SMILES CCCCCCCCCCCC(=O)[O-]
REMARK SMILES IDX 7 1 8 2 9 3 10 4 11 5 12 6 13 7 14 8 6 9 5 10 4 11 3 12 2 13
REMARK SMILES IDX 1 14
REMARK H PARENT
REMARK Flexibility Score: inf
ROOT
ATOM      1  C   UNL     1      64.808  30.206  60.207  1.00  0.00     0.000 C 
ENDROOT
BRANCH   1   2
ATOM      2  C   UNL     1      64.275  29.573  61.503  1.00  0.00     0.000 C 
BRANCH   2   3
ATOM      3  C   UNL     1      63.124  28.586  61.247  1.00  0.00     0.000 C 
BRANCH   3   4
ATOM      4  C   UNL     1      61.793  29.285  60.916  1.00  0.00     0.006 C 
BRANCH   4   5
ATOM      5  C   UNL     1      61.300  29.044  59.477  1.00  0.00     0.053 C 
BRANCH   5   6
ATOM      6  C   UNL     1      60.015  28.272  59.431  1.00  0.00     0.041 C 
ATOM      7  O   UNL     1      59.829  27.307  60.216  1.00  0.00    -0.550 OA
ATOM      8  O   UNL     1      59.039  28.595  58.496  1.00  0.00    -0.550 OA
ENDBRANCH   5   6
ENDBRANCH   4   5
ENDBRANCH   3   4
ENDBRANCH   2   3
ENDBRANCH   1   2
BRANCH   1   9
ATOM      9  C   UNL     1      64.949  31.733  60.308  1.00  0.00     0.000 C 
BRANCH   9  10
ATOM     10  C   UNL     1      63.879  32.440  59.466  1.00  0.00    -0.000 C 
BRANCH  10  11
ATOM     11  C   UNL     1      63.913  33.958  59.695  1.00  0.00    -0.000 C 
BRANCH  11  12
ATOM     12  C   UNL     1      64.781  34.364  60.900  1.00  0.00    -0.000 C 
BRANCH  12  13
ATOM     13  C   UNL     1      64.283  35.600  61.669  1.00  0.00    -0.003 C 
ATOM     14  C   UNL     1      65.160  35.953  62.869  1.00  0.00     0.004 C 
ENDBRANCH  12  13
ENDBRANCH  11  12
ENDBRANCH  10  11
ENDBRANCH   9  10
ENDBRANCH   1   9
TORSDOF 10
ENDMDL
MODEL 8
REMARK VINA RESULT:    -2.691      4.081      6.380
REMARK INTER + INTRA:          -5.661
REMARK INTER:                  -5.047
REMARK INTRA:                  -0.614
REMARK UNBOUND:                -1.397
REMARK SMILES CCCCCCCCCCCC(=O)[O-]
REMARK SMILES IDX 7 1 8 2 9 3 10 4 11 5 12 6 13 7 14 8 6 9 5 10 4 11 3 12 2 13
REMARK SMILES IDX 1 14
REMARK H PARENT
REMARK Flexibility Score: inf
ROOT
ATOM      1  C   UNL     1      65.194  30.145  60.678  1.00  0.00     0.000 C 
ENDROOT
BRANCH   1   2
ATOM      2  C   UNL     1      64.054  29.410  61.405  1.00  0.00     0.000 C 
BRANCH   2   3
ATOM      3  C   UNL     1      62.737  29.436  60.612  1.00  0.00     0.000 C 
BRANCH   3   4
ATOM      4  C   UNL     1      61.832  28.227  60.908  1.00  0.00     0.006 C 
BRANCH   4   5
ATOM      5  C   UNL     1      62.569  27.033  61.542  1.00  0.00     0.053 C 
BRANCH   5   6
ATOM      6  C   UNL     1      61.631  26.041  62.162  1.00  0.00     0.041 C 
ATOM      7  O   UNL     1      61.814  25.651  63.345  1.00  0.00    -0.550 OA
ATOM      8  O   UNL     1      60.577  25.519  61.422  1.00  0.00    -0.550 OA
ENDBRANCH   5   6
ENDBRANCH   4   5
ENDBRANCH   3   4
ENDBRANCH   2   3
ENDBRANCH   1   2
BRANCH   1   9
ATOM      9  C   UNL     1      65.154  31.665  60.897  1.00  0.00     0.000 C 
BRANCH   9  10
ATOM     10  C   UNL     1      64.970  32.406  59.567  1.00  0.00    -0.000 C 
BRANCH  10  11
ATOM     11  C   UNL     1      63.730  33.312  59.608  1.00  0.00    -0.000 C 
BRANCH  11  12
ATOM     12  C   UNL     1      64.082  34.801  59.786  1.00  0.00    -0.000 C 
BRANCH  12  13
ATOM     13  C   UNL     1      63.915  35.337  61.219  1.00  0.00    -0.003 C 
ATOM     14  C   UNL     1      65.195  35.237  62.048  1.00  0.00     0.004 C 
ENDBRANCH  12  13
ENDBRANCH  11  12
ENDBRANCH  10  11
ENDBRANCH   9  10
ENDBRANCH   1   9
TORSDOF 10
ENDMDL
MODEL 9
REMARK VINA RESULT:    -2.652     10.419     12.294
REMARK INTER + INTRA:          -5.599
REMARK INTER:                  -4.399
REMARK INTRA:                  -1.200
REMARK UNBOUND:                -1.397
REMARK SMILES CCCCCCCCCCCC(=O)[O-]
REMARK SMILES IDX 7 1 8 2 9 3 10 4 11 5 12 6 13 7 14 8 6 9 5 10 4 11 3 12 2 13
REMARK SMILES IDX 1 14
REMARK H PARENT
REMARK Flexibility Score: inf
ROOT
ATOM      1  C   UNL     1      58.425  25.245  49.971  1.00  0.00     0.000 C 
ENDROOT
BRANCH   1   2
ATOM      2  C   UNL     1      59.820  25.657  49.472  1.00  0.00     0.000 C 
BRANCH   2   3
ATOM      3  C   UNL     1      60.851  25.746  50.610  1.00  0.00     0.000 C 
BRANCH   3   4
ATOM      4  C   UNL     1      61.486  27.142  50.740  1.00  0.00     0.006 C 
BRANCH   4   5
ATOM      5  C   UNL     1      60.472  28.299  50.679  1.00  0.00     0.053 C 
BRANCH   5   6
ATOM      6  C   UNL     1      59.832  28.574  52.007  1.00  0.00     0.041 C 
ATOM      7  O   UNL     1      58.817  29.315  52.079  1.00  0.00    -0.550 OA
ATOM      8  O   UNL     1      60.378  28.042  53.169  1.00  0.00    -0.550 OA
ENDBRANCH   5   6
ENDBRANCH   4   5
ENDBRANCH   3   4
ENDBRANCH   2   3
ENDBRANCH   1   2
BRANCH   1   9
ATOM      9  C   UNL     1      58.404  24.924  51.474  1.00  0.00     0.000 C 
BRANCH   9  10
ATOM     10  C   UNL     1      57.218  25.609  52.164  1.00  0.00    -0.000 C 
BRANCH  10  11
ATOM     11  C   UNL     1      56.625  26.711  51.274  1.00  0.00    -0.000 C 
BRANCH  11  12
ATOM     12  C   UNL     1      55.097  26.596  51.115  1.00  0.00    -0.000 C 
BRANCH  12  13
ATOM     13  C   UNL     1      54.586  26.733  49.670  1.00  0.00    -0.003 C 
ATOM     14  C   UNL     1      54.637  25.421  48.889  1.00  0.00     0.004 C 
ENDBRANCH  12  13
ENDBRANCH  11  12
ENDBRANCH  10  11
ENDBRANCH   9  10
ENDBRANCH   1   9
TORSDOF 10
ENDMDL
