MODEL 1
REMARK VINA RESULT:    -5.896      0.000      0.000
REMARK INTER + INTRA:          -7.159
REMARK INTER:                  -7.103
REMARK INTRA:                  -0.056
REMARK UNBOUND:                -0.056
REMARK SMILES O=c1c(O)c(-c2ccc(O)c(O)c2)oc2cc(O)cc(O)c12
REMARK SMILES IDX 5 1 3 2 2 3 1 4 22 5 20 6 19 7 17 8 16 9 15 10 14 11 6 12
REMARK SMILES IDX 7 13 8 14 9 15 13 16 11 17 10 18 12 20 4 22 21 24 18 26
REMARK H PARENT 10 19 12 21 4 23 21 25 18 27
REMARK Flexibility Score: inf
ROOT
ATOM      1  C   UNL     1     174.335 169.922 172.908  1.00  0.00     0.180 A 
ATOM      2  C   UNL     1     174.282 168.528 173.082  1.00  0.00     0.208 A 
ATOM      3  C   UNL     1     173.029 167.901 173.180  1.00  0.00     0.238 A 
ATOM      4  O   UNL     1     172.988 166.661 173.390  1.00  0.00    -0.285 OA
ATOM      5  C   UNL     1     171.846 168.673 173.085  1.00  0.00     0.111 A 
ATOM      6  C   UNL     1     170.523 168.138 173.131  1.00  0.00     0.134 A 
ATOM      7  C   UNL     1     169.427 169.009 173.160  1.00  0.00     0.093 A 
ATOM      8  C   UNL     1     169.602 170.390 173.079  1.00  0.00     0.123 A 
ATOM      9  C   UNL     1     170.887 170.922 172.974  1.00  0.00     0.094 A 
ATOM     10  C   UNL     1     172.003 170.080 172.979  1.00  0.00     0.146 A 
ATOM     11  O   UNL     1     173.209 170.626 172.889  1.00  0.00    -0.452 OA
ENDROOT
BRANCH   1  12
ATOM     12  C   UNL     1     175.617 170.650 172.772  1.00  0.00     0.025 A 
ATOM     13  C   UNL     1     176.578 170.267 171.822  1.00  0.00     0.016 A 
ATOM     14  C   UNL     1     177.770 170.984 171.696  1.00  0.00     0.051 A 
ATOM     15  C   UNL     1     178.020 172.100 172.500  1.00  0.00     0.157 A 
ATOM     16  C   UNL     1     175.857 171.783 173.564  1.00  0.00     0.062 A 
ATOM     17  C   UNL     1     177.050 172.508 173.445  1.00  0.00     0.158 A 
BRANCH  15  18
ATOM     18  O   UNL     1     179.233 172.771 172.327  1.00  0.00    -0.504 OA
ATOM     19  H   UNL     1     180.115 172.448 172.698  1.00  0.00     0.293 HD
ENDBRANCH  15  18
BRANCH  17  20
ATOM     20  O   UNL     1     177.224 173.617 174.276  1.00  0.00    -0.504 OA
ATOM     21  H   UNL     1     177.673 174.475 173.986  1.00  0.00     0.293 HD
ENDBRANCH  17  20
ENDBRANCH   1  12
BRANCH   2  22
ATOM     22  O   UNL     1     175.462 167.788 173.195  1.00  0.00    -0.502 OA
ATOM     23  H   UNL     1     176.331 168.194 173.521  1.00  0.00     0.293 HD
ENDBRANCH   2  22
BRANCH   6  24
ATOM     24  O   UNL     1     170.234 166.771 173.121  1.00  0.00    -0.507 OA
ATOM     25  H   UNL     1     170.837 166.058 172.738  1.00  0.00     0.293 HD
ENDBRANCH   6  24
BRANCH   8  26
ATOM     26  O   UNL     1     168.487 171.225 173.094  1.00  0.00    -0.508 OA
ATOM     27  H   UNL     1     168.529 172.171 172.733  1.00  0.00     0.293 HD
ENDBRANCH   8  26
TORSDOF 6
ENDMDL
MODEL 2
REMARK VINA RESULT:    -5.847      1.577      2.809
REMARK INTER + INTRA:          -7.099
REMARK INTER:                  -6.790
REMARK INTRA:                  -0.309
REMARK UNBOUND:                -0.056
REMARK SMILES O=c1c(O)c(-c2ccc(O)c(O)c2)oc2cc(O)cc(O)c12
REMARK SMILES IDX 5 1 3 2 2 3 1 4 22 5 20 6 19 7 17 8 16 9 15 10 14 11 6 12
REMARK SMILES IDX 7 13 8 14 9 15 13 16 11 17 10 18 12 20 4 22 21 24 18 26
REMARK H PARENT 10 19 12 21 4 23 21 25 18 27
REMARK Flexibility Score: inf
ROOT
ATOM      1  C   UNL     1     174.409 169.820 172.569  1.00  0.00     0.180 A 
ATOM      2  C   UNL     1     173.362 170.064 171.663  1.00  0.00     0.208 A 
ATOM      3  C   UNL     1     172.185 169.305 171.764  1.00  0.00     0.238 A 
ATOM      4  O   UNL     1     171.272 169.489 170.917  1.00  0.00    -0.285 OA
ATOM      5  C   UNL     1     172.063 168.325 172.779  1.00  0.00     0.111 A 
ATOM      6  C   UNL     1     170.900 167.526 172.999  1.00  0.00     0.134 A 
ATOM      7  C   UNL     1     170.940 166.497 173.948  1.00  0.00     0.093 A 
ATOM      8  C   UNL     1     172.074 166.280 174.730  1.00  0.00     0.123 A 
ATOM      9  C   UNL     1     173.196 167.093 174.564  1.00  0.00     0.094 A 
ATOM     10  C   UNL     1     173.199 168.105 173.600  1.00  0.00     0.146 A 
ATOM     11  O   UNL     1     174.290 168.850 173.467  1.00  0.00    -0.452 OA
ENDROOT
BRANCH   1  12
ATOM     12  C   UNL     1     175.670 170.596 172.541  1.00  0.00     0.025 A 
ATOM     13  C   UNL     1     176.715 170.262 171.663  1.00  0.00     0.016 A 
ATOM     14  C   UNL     1     177.885 171.024 171.638  1.00  0.00     0.051 A 
ATOM     15  C   UNL     1     178.031 172.136 172.473  1.00  0.00     0.157 A 
ATOM     16  C   UNL     1     175.806 171.725 173.363  1.00  0.00     0.062 A 
ATOM     17  C   UNL     1     176.977 172.494 173.345  1.00  0.00     0.158 A 
BRANCH  15  18
ATOM     18  O   UNL     1     179.228 172.853 172.402  1.00  0.00    -0.504 OA
ATOM     19  H   UNL     1     179.326 173.744 171.937  1.00  0.00     0.293 HD
ENDBRANCH  15  18
BRANCH  17  20
ATOM     20  O   UNL     1     177.045 173.596 174.200  1.00  0.00    -0.504 OA
ATOM     21  H   UNL     1     176.853 173.554 175.192  1.00  0.00     0.293 HD
ENDBRANCH  17  20
ENDBRANCH   1  12
BRANCH   2  22
ATOM     22  O   UNL     1     173.511 171.020 170.655  1.00  0.00    -0.502 OA
ATOM     23  H   UNL     1     174.240 171.723 170.676  1.00  0.00     0.293 HD
ENDBRANCH   2  22
BRANCH   6  24
ATOM     24  O   UNL     1     169.684 167.719 172.337  1.00  0.00    -0.507 OA
ATOM     25  H   UNL     1     168.954 167.027 172.263  1.00  0.00     0.293 HD
ENDBRANCH   6  24
BRANCH   8  26
ATOM     26  O   UNL     1     172.071 165.258 175.675  1.00  0.00    -0.508 OA
ATOM     27  H   UNL     1     172.068 165.455 176.670  1.00  0.00     0.293 HD
ENDBRANCH   8  26
TORSDOF 6
ENDMDL
MODEL 3
REMARK VINA RESULT:    -5.820      4.004      6.232
REMARK INTER + INTRA:          -7.067
REMARK INTER:                  -6.974
REMARK INTRA:                  -0.093
REMARK UNBOUND:                -0.056
REMARK SMILES O=c1c(O)c(-c2ccc(O)c(O)c2)oc2cc(O)cc(O)c12
REMARK SMILES IDX 5 1 3 2 2 3 1 4 22 5 20 6 19 7 17 8 16 9 15 10 14 11 6 12
REMARK SMILES IDX 7 13 8 14 9 15 13 16 11 17 10 18 12 20 4 22 21 24 18 26
REMARK H PARENT 10 19 12 21 4 23 21 25 18 27
REMARK Flexibility Score: inf
ROOT
ATOM      1  C   UNL     1     176.259 169.109 170.441  1.00  0.00     0.180 A 
ATOM      2  C   UNL     1     175.154 169.094 169.572  1.00  0.00     0.208 A 
ATOM      3  C   UNL     1     174.979 167.997 168.713  1.00  0.00     0.238 A 
ATOM      4  O   UNL     1     174.019 168.013 167.899  1.00  0.00    -0.285 OA
ATOM      5  C   UNL     1     175.899 166.921 168.747  1.00  0.00     0.111 A 
ATOM      6  C   UNL     1     175.797 165.741 167.951  1.00  0.00     0.134 A 
ATOM      7  C   UNL     1     176.835 164.802 167.971  1.00  0.00     0.093 A 
ATOM      8  C   UNL     1     177.939 164.967 168.807  1.00  0.00     0.123 A 
ATOM      9  C   UNL     1     178.022 166.088 169.634  1.00  0.00     0.094 A 
ATOM     10  C   UNL     1     177.018 167.060 169.609  1.00  0.00     0.146 A 
ATOM     11  O   UNL     1     177.140 168.117 170.403  1.00  0.00    -0.452 OA
ENDROOT
BRANCH   1  12
ATOM     12  C   UNL     1     176.496 170.219 171.392  1.00  0.00     0.025 A 
ATOM     13  C   UNL     1     175.521 170.602 172.328  1.00  0.00     0.016 A 
ATOM     14  C   UNL     1     175.778 171.636 173.230  1.00  0.00     0.051 A 
ATOM     15  C   UNL     1     177.011 172.296 173.228  1.00  0.00     0.157 A 
ATOM     16  C   UNL     1     177.742 170.865 171.403  1.00  0.00     0.062 A 
ATOM     17  C   UNL     1     178.008 171.904 172.305  1.00  0.00     0.158 A 
BRANCH  15  18
ATOM     18  O   UNL     1     177.202 173.324 174.155  1.00  0.00    -0.504 OA
ATOM     19  H   UNL     1     177.619 173.194 175.065  1.00  0.00     0.293 HD
ENDBRANCH  15  18
BRANCH  17  20
ATOM     20  O   UNL     1     179.265 172.509 172.249  1.00  0.00    -0.504 OA
ATOM     21  H   UNL     1     179.908 172.550 173.028  1.00  0.00     0.293 HD
ENDBRANCH  17  20
ENDBRANCH   1  12
BRANCH   2  22
ATOM     22  O   UNL     1     174.269 170.175 169.539  1.00  0.00    -0.502 OA
ATOM     23  H   UNL     1     174.388 170.993 170.125  1.00  0.00     0.293 HD
ENDBRANCH   2  22
BRANCH   6  24
ATOM     24  O   UNL     1     174.693 165.433 167.150  1.00  0.00    -0.507 OA
ATOM     25  H   UNL     1     173.786 165.165 167.500  1.00  0.00     0.293 HD
ENDBRANCH   6  24
BRANCH   8  26
ATOM     26  O   UNL     1     178.946 164.004 168.813  1.00  0.00    -0.508 OA
ATOM     27  H   UNL     1     178.821 163.104 168.364  1.00  0.00     0.293 HD
ENDBRANCH   8  26
TORSDOF 6
ENDMDL
MODEL 4
REMARK VINA RESULT:    -5.759      3.898      4.487
REMARK INTER + INTRA:          -6.993
REMARK INTER:                  -6.835
REMARK INTRA:                  -0.158
REMARK UNBOUND:                -0.056
REMARK SMILES O=c1c(O)c(-c2ccc(O)c(O)c2)oc2cc(O)cc(O)c12
REMARK SMILES IDX 5 1 3 2 2 3 1 4 22 5 20 6 19 7 17 8 16 9 15 10 14 11 6 12
REMARK SMILES IDX 7 13 8 14 9 15 13 16 11 17 10 18 12 20 4 22 21 24 18 26
REMARK H PARENT 10 19 12 21 4 23 21 25 18 27
REMARK Flexibility Score: inf
ROOT
ATOM      1  C   UNL     1     174.455 170.660 170.665  1.00  0.00     0.180 A 
ATOM      2  C   UNL     1     173.214 170.241 171.176  1.00  0.00     0.208 A 
ATOM      3  C   UNL     1     172.203 169.860 170.279  1.00  0.00     0.238 A 
ATOM      4  O   UNL     1     171.076 169.538 170.738  1.00  0.00    -0.285 OA
ATOM      5  C   UNL     1     172.451 169.887 168.885  1.00  0.00     0.111 A 
ATOM      6  C   UNL     1     171.513 169.484 167.886  1.00  0.00     0.134 A 
ATOM      7  C   UNL     1     171.820 169.677 166.534  1.00  0.00     0.093 A 
ATOM      8  C   UNL     1     173.053 170.194 166.141  1.00  0.00     0.123 A 
ATOM      9  C   UNL     1     174.001 170.536 167.107  1.00  0.00     0.094 A 
ATOM     10  C   UNL     1     173.710 170.389 168.466  1.00  0.00     0.146 A 
ATOM     11  O   UNL     1     174.635 170.737 169.352  1.00  0.00    -0.452 OA
ENDROOT
BRANCH   1  12
ATOM     12  C   UNL     1     175.577 171.053 171.549  1.00  0.00     0.025 A 
ATOM     13  C   UNL     1     176.143 170.146 172.459  1.00  0.00     0.016 A 
ATOM     14  C   UNL     1     177.215 170.532 173.265  1.00  0.00     0.051 A 
ATOM     15  C   UNL     1     177.753 171.820 173.170  1.00  0.00     0.157 A 
ATOM     16  C   UNL     1     176.128 172.338 171.437  1.00  0.00     0.062 A 
ATOM     17  C   UNL     1     177.204 172.735 172.241  1.00  0.00     0.158 A 
BRANCH  15  18
ATOM     18  O   UNL     1     178.823 172.144 174.007  1.00  0.00    -0.504 OA
ATOM     19  H   UNL     1     179.691 172.548 173.684  1.00  0.00     0.293 HD
ENDBRANCH  15  18
BRANCH  17  20
ATOM     20  O   UNL     1     177.692 174.033 172.082  1.00  0.00    -0.504 OA
ATOM     21  H   UNL     1     178.463 174.416 172.612  1.00  0.00     0.293 HD
ENDBRANCH  17  20
ENDBRANCH   1  12
BRANCH   2  22
ATOM     22  O   UNL     1     172.982 170.243 172.554  1.00  0.00    -0.502 OA
ATOM     23  H   UNL     1     172.176 169.794 172.971  1.00  0.00     0.293 HD
ENDBRANCH   2  22
BRANCH   6  24
ATOM     24  O   UNL     1     170.289 168.870 168.168  1.00  0.00    -0.507 OA
ATOM     25  H   UNL     1     169.828 168.892 169.065  1.00  0.00     0.293 HD
ENDBRANCH   6  24
BRANCH   8  26
ATOM     26  O   UNL     1     173.330 170.357 164.786  1.00  0.00    -0.508 OA
ATOM     27  H   UNL     1     174.040 169.803 164.320  1.00  0.00     0.293 HD
ENDBRANCH   8  26
TORSDOF 6
ENDMDL
MODEL 5
REMARK VINA RESULT:    -5.733      3.695      4.781
REMARK INTER + INTRA:          -6.961
REMARK INTER:                  -6.658
REMARK INTRA:                  -0.304
REMARK UNBOUND:                -0.056
REMARK SMILES O=c1c(O)c(-c2ccc(O)c(O)c2)oc2cc(O)cc(O)c12
REMARK SMILES IDX 5 1 3 2 2 3 1 4 22 5 20 6 19 7 17 8 16 9 15 10 14 11 6 12
REMARK SMILES IDX 7 13 8 14 9 15 13 16 11 17 10 18 12 20 4 22 21 24 18 26
REMARK H PARENT 10 19 12 21 4 23 21 25 18 27
REMARK Flexibility Score: inf
ROOT
ATOM      1  C   UNL     1     175.824 169.389 170.940  1.00  0.00     0.180 A 
ATOM      2  C   UNL     1     175.831 168.049 171.366  1.00  0.00     0.208 A 
ATOM      3  C   UNL     1     175.404 167.050 170.476  1.00  0.00     0.238 A 
ATOM      4  O   UNL     1     175.361 165.858 170.879  1.00  0.00    -0.285 OA
ATOM      5  C   UNL     1     174.991 167.402 169.168  1.00  0.00     0.111 A 
ATOM      6  C   UNL     1     174.578 166.468 168.170  1.00  0.00     0.134 A 
ATOM      7  C   UNL     1     174.065 166.938 166.955  1.00  0.00     0.093 A 
ATOM      8  C   UNL     1     174.014 168.303 166.674  1.00  0.00     0.123 A 
ATOM      9  C   UNL     1     174.471 169.223 167.619  1.00  0.00     0.094 A 
ATOM     10  C   UNL     1     174.954 168.785 168.856  1.00  0.00     0.146 A 
ATOM     11  O   UNL     1     175.369 169.693 169.731  1.00  0.00    -0.452 OA
ENDROOT
BRANCH   1  12
ATOM     12  C   UNL     1     176.283 170.494 171.813  1.00  0.00     0.025 A 
ATOM     13  C   UNL     1     175.439 171.059 172.783  1.00  0.00     0.016 A 
ATOM     14  C   UNL     1     175.902 172.084 173.609  1.00  0.00     0.051 A 
ATOM     15  C   UNL     1     177.214 172.554 173.497  1.00  0.00     0.157 A 
ATOM     16  C   UNL     1     177.606 170.949 171.714  1.00  0.00     0.062 A 
ATOM     17  C   UNL     1     178.080 171.977 172.539  1.00  0.00     0.158 A 
BRANCH  15  18
ATOM     18  O   UNL     1     177.615 173.584 174.353  1.00  0.00    -0.504 OA
ATOM     19  H   UNL     1     178.546 173.975 174.369  1.00  0.00     0.293 HD
ENDBRANCH  15  18
BRANCH  17  20
ATOM     20  O   UNL     1     179.405 172.386 172.375  1.00  0.00    -0.504 OA
ATOM     21  H   UNL     1     180.134 172.229 173.057  1.00  0.00     0.293 HD
ENDBRANCH  17  20
ENDBRANCH   1  12
BRANCH   2  22
ATOM     22  O   UNL     1     176.221 167.726 172.668  1.00  0.00    -0.502 OA
ATOM     23  H   UNL     1     176.577 168.418 173.317  1.00  0.00     0.293 HD
ENDBRANCH   2  22
BRANCH   6  24
ATOM     24  O   UNL     1     174.673 165.080 168.312  1.00  0.00    -0.507 OA
ATOM     25  H   UNL     1     175.312 164.609 168.934  1.00  0.00     0.293 HD
ENDBRANCH   6  24
BRANCH   8  26
ATOM     26  O   UNL     1     173.514 168.734 165.448  1.00  0.00    -0.508 OA
ATOM     27  H   UNL     1     173.230 169.696 165.300  1.00  0.00     0.293 HD
ENDBRANCH   8  26
TORSDOF 6
ENDMDL
MODEL 6
REMARK VINA RESULT:    -5.679      3.569      4.225
REMARK INTER + INTRA:          -6.897
REMARK INTER:                  -6.717
REMARK INTRA:                  -0.180
REMARK UNBOUND:                -0.056
REMARK SMILES O=c1c(O)c(-c2ccc(O)c(O)c2)oc2cc(O)cc(O)c12
REMARK SMILES IDX 5 1 3 2 2 3 1 4 22 5 20 6 19 7 17 8 16 9 15 10 14 11 6 12
REMARK SMILES IDX 7 13 8 14 9 15 13 16 11 17 10 18 12 20 4 22 21 24 18 26
REMARK H PARENT 10 19 12 21 4 23 21 25 18 27
REMARK Flexibility Score: inf
ROOT
ATOM      1  C   UNL     1     175.688 168.265 172.747  1.00  0.00     0.180 A 
ATOM      2  C   UNL     1     175.698 167.295 171.730  1.00  0.00     0.208 A 
ATOM      3  C   UNL     1     175.232 166.002 172.018  1.00  0.00     0.238 A 
ATOM      4  O   UNL     1     175.294 165.122 171.121  1.00  0.00    -0.285 OA
ATOM      5  C   UNL     1     174.745 165.702 173.314  1.00  0.00     0.111 A 
ATOM      6  C   UNL     1     174.210 164.437 173.706  1.00  0.00     0.134 A 
ATOM      7  C   UNL     1     173.880 164.213 175.048  1.00  0.00     0.093 A 
ATOM      8  C   UNL     1     174.002 165.226 175.998  1.00  0.00     0.123 A 
ATOM      9  C   UNL     1     174.467 166.484 175.615  1.00  0.00     0.094 A 
ATOM     10  C   UNL     1     174.839 166.727 174.290  1.00  0.00     0.146 A 
ATOM     11  O   UNL     1     175.287 167.935 173.969  1.00  0.00    -0.452 OA
ENDROOT
BRANCH   1  12
ATOM     12  C   UNL     1     176.141 169.656 172.512  1.00  0.00     0.025 A 
ATOM     13  C   UNL     1     175.476 170.498 171.606  1.00  0.00     0.016 A 
ATOM     14  C   UNL     1     175.907 171.813 171.420  1.00  0.00     0.051 A 
ATOM     15  C   UNL     1     176.995 172.317 172.139  1.00  0.00     0.157 A 
ATOM     16  C   UNL     1     177.218 170.166 173.251  1.00  0.00     0.062 A 
ATOM     17  C   UNL     1     177.658 171.484 173.071  1.00  0.00     0.158 A 
BRANCH  15  18
ATOM     18  O   UNL     1     177.378 173.640 171.903  1.00  0.00    -0.504 OA
ATOM     19  H   UNL     1     178.017 174.156 172.491  1.00  0.00     0.293 HD
ENDBRANCH  15  18
BRANCH  17  20
ATOM     20  O   UNL     1     178.745 171.918 173.832  1.00  0.00    -0.504 OA
ATOM     21  H   UNL     1     178.802 171.829 174.837  1.00  0.00     0.293 HD
ENDBRANCH  17  20
ENDBRANCH   1  12
BRANCH   2  22
ATOM     22  O   UNL     1     176.204 167.606 170.465  1.00  0.00    -0.502 OA
ATOM     23  H   UNL     1     175.961 167.076 169.636  1.00  0.00     0.293 HD
ENDBRANCH   2  22
BRANCH   6  24
ATOM     24  O   UNL     1     173.962 163.386 172.818  1.00  0.00    -0.507 OA
ATOM     25  H   UNL     1     174.494 162.530 172.777  1.00  0.00     0.293 HD
ENDBRANCH   6  24
BRANCH   8  26
ATOM     26  O   UNL     1     173.648 164.972 177.321  1.00  0.00    -0.508 OA
ATOM     27  H   UNL     1     173.364 165.718 177.946  1.00  0.00     0.293 HD
ENDBRANCH   8  26
TORSDOF 6
ENDMDL
MODEL 7
REMARK VINA RESULT:    -5.663      2.776      4.775
REMARK INTER + INTRA:          -6.877
REMARK INTER:                  -6.578
REMARK INTRA:                  -0.299
REMARK UNBOUND:                -0.056
REMARK SMILES O=c1c(O)c(-c2ccc(O)c(O)c2)oc2cc(O)cc(O)c12
REMARK SMILES IDX 5 1 3 2 2 3 1 4 22 5 20 6 19 7 17 8 16 9 15 10 14 11 6 12
REMARK SMILES IDX 7 13 8 14 9 15 13 16 11 17 10 18 12 20 4 22 21 24 18 26
REMARK H PARENT 10 19 12 21 4 23 21 25 18 27
REMARK Flexibility Score: inf
ROOT
ATOM      1  C   UNL     1     175.637 168.691 172.297  1.00  0.00     0.180 A 
ATOM      2  C   UNL     1     174.435 168.370 172.951  1.00  0.00     0.208 A 
ATOM      3  C   UNL     1     173.969 167.046 172.905  1.00  0.00     0.238 A 
ATOM      4  O   UNL     1     172.864 166.774 173.445  1.00  0.00    -0.285 OA
ATOM      5  C   UNL     1     174.718 166.058 172.221  1.00  0.00     0.111 A 
ATOM      6  C   UNL     1     174.361 164.677 172.145  1.00  0.00     0.134 A 
ATOM      7  C   UNL     1     175.107 163.816 171.332  1.00  0.00     0.093 A 
ATOM      8  C   UNL     1     176.234 164.267 170.646  1.00  0.00     0.123 A 
ATOM      9  C   UNL     1     176.627 165.601 170.760  1.00  0.00     0.094 A 
ATOM     10  C   UNL     1     175.882 166.494 171.536  1.00  0.00     0.146 A 
ATOM     11  O   UNL     1     176.283 167.757 171.609  1.00  0.00    -0.452 OA
ENDROOT
BRANCH   1  12
ATOM     12  C   UNL     1     176.205 170.059 172.322  1.00  0.00     0.025 A 
ATOM     13  C   UNL     1     175.739 171.060 171.454  1.00  0.00     0.016 A 
ATOM     14  C   UNL     1     176.274 172.348 171.512  1.00  0.00     0.051 A 
ATOM     15  C   UNL     1     177.268 172.668 172.443  1.00  0.00     0.157 A 
ATOM     16  C   UNL     1     177.186 170.383 173.271  1.00  0.00     0.062 A 
ATOM     17  C   UNL     1     177.728 171.673 173.337  1.00  0.00     0.158 A 
BRANCH  15  18
ATOM     18  O   UNL     1     177.763 173.974 172.447  1.00  0.00    -0.504 OA
ATOM     19  H   UNL     1     177.202 174.790 172.645  1.00  0.00     0.293 HD
ENDBRANCH  15  18
BRANCH  17  20
ATOM     20  O   UNL     1     178.710 171.919 174.299  1.00  0.00    -0.504 OA
ATOM     21  H   UNL     1     178.513 172.227 175.241  1.00  0.00     0.293 HD
ENDBRANCH  17  20
ENDBRANCH   1  12
BRANCH   2  22
ATOM     22  O   UNL     1     173.699 169.364 173.601  1.00  0.00    -0.502 OA
ATOM     23  H   UNL     1     174.031 170.317 173.688  1.00  0.00     0.293 HD
ENDBRANCH   2  22
BRANCH   6  24
ATOM     24  O   UNL     1     173.308 164.103 172.863  1.00  0.00    -0.507 OA
ATOM     25  H   UNL     1     172.749 164.587 173.549  1.00  0.00     0.293 HD
ENDBRANCH   6  24
BRANCH   8  26
ATOM     26  O   UNL     1     176.962 163.378 169.859  1.00  0.00    -0.508 OA
ATOM     27  H   UNL     1     177.380 162.542 170.253  1.00  0.00     0.293 HD
ENDBRANCH   8  26
TORSDOF 6
ENDMDL
MODEL 8
REMARK VINA RESULT:    -5.578      2.189      2.287
REMARK INTER + INTRA:          -6.775
REMARK INTER:                  -6.465
REMARK INTRA:                  -0.310
REMARK UNBOUND:                -0.056
REMARK SMILES O=c1c(O)c(-c2ccc(O)c(O)c2)oc2cc(O)cc(O)c12
REMARK SMILES IDX 5 1 3 2 2 3 1 4 22 5 20 6 19 7 17 8 16 9 15 10 14 11 6 12
REMARK SMILES IDX 7 13 8 14 9 15 13 16 11 17 10 18 12 20 4 22 21 24 18 26
REMARK H PARENT 10 19 12 21 4 23 21 25 18 27
REMARK Flexibility Score: inf
ROOT
ATOM      1  C   UNL     1     174.279 170.314 171.671  1.00  0.00     0.180 A 
ATOM      2  C   UNL     1     174.182 169.622 170.452  1.00  0.00     0.208 A 
ATOM      3  C   UNL     1     172.938 169.099 170.063  1.00  0.00     0.238 A 
ATOM      4  O   UNL     1     172.868 168.433 168.997  1.00  0.00    -0.285 OA
ATOM      5  C   UNL     1     171.804 169.290 170.889  1.00  0.00     0.111 A 
ATOM      6  C   UNL     1     170.487 168.839 170.575  1.00  0.00     0.134 A 
ATOM      7  C   UNL     1     169.467 168.967 171.526  1.00  0.00     0.093 A 
ATOM      8  C   UNL     1     169.701 169.590 172.752  1.00  0.00     0.123 A 
ATOM      9  C   UNL     1     170.970 170.088 173.046  1.00  0.00     0.094 A 
ATOM     10  C   UNL     1     172.017 169.942 172.132  1.00  0.00     0.146 A 
ATOM     11  O   UNL     1     173.212 170.420 172.455  1.00  0.00    -0.452 OA
ENDROOT
BRANCH   1  12
ATOM     12  C   UNL     1     175.550 170.915 172.136  1.00  0.00     0.025 A 
ATOM     13  C   UNL     1     176.408 170.226 173.010  1.00  0.00     0.016 A 
ATOM     14  C   UNL     1     177.612 170.804 173.416  1.00  0.00     0.051 A 
ATOM     15  C   UNL     1     177.992 172.067 172.950  1.00  0.00     0.157 A 
ATOM     16  C   UNL     1     175.940 172.172 171.650  1.00  0.00     0.062 A 
ATOM     17  C   UNL     1     177.146 172.759 172.052  1.00  0.00     0.158 A 
BRANCH  15  18
ATOM     18  O   UNL     1     179.208 172.589 173.397  1.00  0.00    -0.504 OA
ATOM     19  H   UNL     1     179.311 173.505 173.810  1.00  0.00     0.293 HD
ENDBRANCH  15  18
BRANCH  17  20
ATOM     20  O   UNL     1     177.462 174.018 171.537  1.00  0.00    -0.504 OA
ATOM     21  H   UNL     1     178.369 174.453 171.625  1.00  0.00     0.293 HD
ENDBRANCH  17  20
ENDBRANCH   1  12
BRANCH   2  22
ATOM     22  O   UNL     1     175.318 169.425 169.662  1.00  0.00    -0.502 OA
ATOM     23  H   UNL     1     176.164 168.998 170.021  1.00  0.00     0.293 HD
ENDBRANCH   2  22
BRANCH   6  24
ATOM     24  O   UNL     1     170.125 168.286 169.343  1.00  0.00    -0.507 OA
ATOM     25  H   UNL     1     169.619 167.421 169.227  1.00  0.00     0.293 HD
ENDBRANCH   6  24
BRANCH   8  26
ATOM     26  O   UNL     1     168.659 169.715 173.668  1.00  0.00    -0.508 OA
ATOM     27  H   UNL     1     168.738 170.313 174.482  1.00  0.00     0.293 HD
ENDBRANCH   8  26
TORSDOF 6
ENDMDL
MODEL 9
REMARK VINA RESULT:    -5.574      1.567      6.769
REMARK INTER + INTRA:          -6.770
REMARK INTER:                  -6.587
REMARK INTRA:                  -0.184
REMARK UNBOUND:                -0.056
REMARK SMILES O=c1c(O)c(-c2ccc(O)c(O)c2)oc2cc(O)cc(O)c12
REMARK SMILES IDX 5 1 3 2 2 3 1 4 22 5 20 6 19 7 17 8 16 9 15 10 14 11 6 12
REMARK SMILES IDX 7 13 8 14 9 15 13 16 11 17 10 18 12 20 4 22 21 24 18 26
REMARK H PARENT 10 19 12 21 4 23 21 25 18 27
REMARK Flexibility Score: inf
ROOT
ATOM      1  C   UNL     1     173.579 169.887 172.177  1.00  0.00     0.180 A 
ATOM      2  C   UNL     1     174.206 169.314 171.057  1.00  0.00     0.208 A 
ATOM      3  C   UNL     1     175.551 169.623 170.799  1.00  0.00     0.238 A 
ATOM      4  O   UNL     1     176.092 169.151 169.765  1.00  0.00    -0.285 OA
ATOM      5  C   UNL     1     176.256 170.486 171.672  1.00  0.00     0.111 A 
ATOM      6  C   UNL     1     177.634 170.835 171.529  1.00  0.00     0.134 A 
ATOM      7  C   UNL     1     178.192 171.800 172.375  1.00  0.00     0.093 A 
ATOM      8  C   UNL     1     177.445 172.379 173.400  1.00  0.00     0.123 A 
ATOM      9  C   UNL     1     176.114 172.002 173.587  1.00  0.00     0.094 A 
ATOM     10  C   UNL     1     175.518 171.068 172.735  1.00  0.00     0.146 A 
ATOM     11  O   UNL     1     174.248 170.744 172.940  1.00  0.00    -0.452 OA
ENDROOT
BRANCH   1  12
ATOM     12  C   UNL     1     172.171 169.590 172.529  1.00  0.00     0.025 A 
ATOM     13  C   UNL     1     171.765 168.295 172.889  1.00  0.00     0.016 A 
ATOM     14  C   UNL     1     170.437 168.044 173.239  1.00  0.00     0.051 A 
ATOM     15  C   UNL     1     169.494 169.077 173.252  1.00  0.00     0.157 A 
ATOM     16  C   UNL     1     171.232 170.632 172.562  1.00  0.00     0.062 A 
ATOM     17  C   UNL     1     169.897 170.390 172.912  1.00  0.00     0.158 A 
BRANCH  15  18
ATOM     18  O   UNL     1     168.181 168.759 173.608  1.00  0.00    -0.504 OA
ATOM     19  H   UNL     1     167.443 169.440 173.712  1.00  0.00     0.293 HD
ENDBRANCH  15  18
BRANCH  17  20
ATOM     20  O   UNL     1     169.017 171.473 172.911  1.00  0.00    -0.504 OA
ATOM     21  H   UNL     1     168.324 171.639 173.628  1.00  0.00     0.293 HD
ENDBRANCH  17  20
ENDBRANCH   1  12
BRANCH   2  22
ATOM     22  O   UNL     1     173.485 168.482 170.196  1.00  0.00    -0.502 OA
ATOM     23  H   UNL     1     173.937 167.870 169.526  1.00  0.00     0.293 HD
ENDBRANCH   2  22
BRANCH   6  24
ATOM     24  O   UNL     1     178.494 170.248 170.597  1.00  0.00    -0.507 OA
ATOM     25  H   UNL     1     179.152 170.754 170.023  1.00  0.00     0.293 HD
ENDBRANCH   6  24
BRANCH   8  26
ATOM     26  O   UNL     1     178.038 173.324 174.234  1.00  0.00    -0.508 OA
ATOM     27  H   UNL     1     177.484 173.928 174.830  1.00  0.00     0.293 HD
ENDBRANCH   8  26
TORSDOF 6
ENDMDL
