MODEL 1
REMARK VINA RESULT:    -4.586      0.000      0.000
REMARK INTER + INTRA:         -12.541
REMARK INTER:                  -9.948
REMARK INTRA:                  -2.593
REMARK UNBOUND:                -2.593
REMARK SMILES CCCCCCCCCCCCCCCCCCCCCC(=O)[O-]
REMARK SMILES IDX 12 1 11 2 10 3 9 4 8 5 7 6 6 7 5 8 4 9 3 10 2 11 1 12 13 13
REMARK SMILES IDX 14 14 15 15 16 16 17 17 18 18 19 19 20 20 21 21 22 22 23 23
REMARK SMILES IDX 24 24
REMARK H PARENT
REMARK Flexibility Score: inf
ROOT
ATOM      1  C   UNL     1       2.119 -40.756 -15.043  1.00  0.00     0.000 C 
ENDROOT
BRANCH   1   2
ATOM      2  C   UNL     1       0.691 -41.170 -15.437  1.00  0.00     0.000 C 
BRANCH   2   3
ATOM      3  C   UNL     1       0.497 -41.236 -16.963  1.00  0.00     0.000 C 
BRANCH   3   4
ATOM      4  C   UNL     1      -0.844 -41.868 -17.363  1.00  0.00    -0.000 C 
BRANCH   4   5
ATOM      5  C   UNL     1      -0.638 -43.288 -17.911  1.00  0.00    -0.000 C 
BRANCH   5   6
ATOM      6  C   UNL     1      -1.363 -44.357 -17.075  1.00  0.00    -0.000 C 
BRANCH   6   7
ATOM      7  C   UNL     1      -0.390 -45.348 -16.413  1.00  0.00    -0.000 C 
BRANCH   7   8
ATOM      8  C   UNL     1       0.439 -44.691 -15.289  1.00  0.00    -0.000 C 
BRANCH   8   9
ATOM      9  C   UNL     1       1.858 -45.273 -15.148  1.00  0.00    -0.000 C 
BRANCH   9  10
ATOM     10  C   UNL     1       2.974 -44.394 -15.735  1.00  0.00    -0.000 C 
BRANCH  10  11
ATOM     11  C   UNL     1       2.811 -44.159 -17.243  1.00  0.00    -0.003 C 
ATOM     12  C   UNL     1       3.611 -42.942 -17.697  1.00  0.00     0.004 C 
ENDBRANCH  10  11
ENDBRANCH   9  10
ENDBRANCH   8   9
ENDBRANCH   7   8
ENDBRANCH   6   7
ENDBRANCH   5   6
ENDBRANCH   4   5
ENDBRANCH   3   4
ENDBRANCH   2   3
ENDBRANCH   1   2
BRANCH   1  13
ATOM     13  C   UNL     1       2.486 -39.343 -15.547  1.00  0.00     0.000 C 
BRANCH  13  14
ATOM     14  C   UNL     1       3.919 -38.906 -15.183  1.00  0.00     0.000 C 
BRANCH  14  15
ATOM     15  C   UNL     1       4.968 -40.033 -15.205  1.00  0.00     0.000 C 
BRANCH  15  16
ATOM     16  C   UNL     1       5.951 -39.993 -16.395  1.00  0.00     0.000 C 
BRANCH  16  17
ATOM     17  C   UNL     1       7.279 -39.266 -16.120  1.00  0.00     0.000 C 
BRANCH  17  18
ATOM     18  C   UNL     1       8.201 -39.224 -17.347  1.00  0.00     0.000 C 
BRANCH  18  19
ATOM     19  C   UNL     1       7.673 -40.145 -18.458  1.00  0.00     0.000 C 
BRANCH  19  20
ATOM     20  C   UNL     1       7.300 -39.380 -19.741  1.00  0.00     0.006 C 
BRANCH  20  21
ATOM     21  C   UNL     1       6.453 -38.120 -19.502  1.00  0.00     0.053 C 
BRANCH  21  22
ATOM     22  C   UNL     1       6.242 -37.338 -20.764  1.00  0.00     0.041 C 
ATOM     23  O   UNL     1       5.211 -36.628 -20.904  1.00  0.00    -0.550 OA
ATOM     24  O   UNL     1       7.166 -37.425 -21.798  1.00  0.00    -0.550 OA
ENDBRANCH  21  22
ENDBRANCH  20  21
ENDBRANCH  19  20
ENDBRANCH  18  19
ENDBRANCH  17  18
ENDBRANCH  16  17
ENDBRANCH  15  16
ENDBRANCH  14  15
ENDBRANCH  13  14
ENDBRANCH   1  13
TORSDOF 20
ENDMDL
MODEL 2
REMARK VINA RESULT:    -4.424      4.257      6.267
REMARK INTER + INTRA:         -12.190
REMARK INTER:                 -11.159
REMARK INTRA:                  -1.030
REMARK UNBOUND:                -2.593
REMARK SMILES CCCCCCCCCCCCCCCCCCCCCC(=O)[O-]
REMARK SMILES IDX 12 1 11 2 10 3 9 4 8 5 7 6 6 7 5 8 4 9 3 10 2 11 1 12 13 13
REMARK SMILES IDX 14 14 15 15 16 16 17 17 18 18 19 19 20 20 21 21 22 22 23 23
REMARK SMILES IDX 24 24
REMARK H PARENT
REMARK Flexibility Score: inf
ROOT
ATOM      1  C   UNL     1       0.937 -36.740 -21.669  1.00  0.00     0.000 C 
ENDROOT
BRANCH   1   2
ATOM      2  C   UNL     1      -0.541 -37.069 -21.944  1.00  0.00     0.000 C 
BRANCH   2   3
ATOM      3  C   UNL     1      -0.743 -38.518 -22.422  1.00  0.00     0.000 C 
BRANCH   3   4
ATOM      4  C   UNL     1      -0.590 -39.543 -21.289  1.00  0.00    -0.000 C 
BRANCH   4   5
ATOM      5  C   UNL     1      -1.888 -39.656 -20.475  1.00  0.00    -0.000 C 
BRANCH   5   6
ATOM      6  C   UNL     1      -1.896 -40.881 -19.543  1.00  0.00    -0.000 C 
BRANCH   6   7
ATOM      7  C   UNL     1      -0.514 -41.548 -19.432  1.00  0.00    -0.000 C 
BRANCH   7   8
ATOM      8  C   UNL     1      -0.217 -42.039 -17.999  1.00  0.00    -0.000 C 
BRANCH   8   9
ATOM      9  C   UNL     1      -0.333 -43.566 -17.834  1.00  0.00    -0.000 C 
BRANCH   9  10
ATOM     10  C   UNL     1      -0.631 -44.036 -16.401  1.00  0.00    -0.000 C 
BRANCH  10  11
ATOM     11  C   UNL     1      -1.913 -44.875 -16.307  1.00  0.00    -0.003 C 
ATOM     12  C   UNL     1      -2.545 -45.063 -17.683  1.00  0.00     0.004 C 
ENDBRANCH  10  11
ENDBRANCH   9  10
ENDBRANCH   8   9
ENDBRANCH   7   8
ENDBRANCH   6   7
ENDBRANCH   5   6
ENDBRANCH   4   5
ENDBRANCH   3   4
ENDBRANCH   2   3
ENDBRANCH   1   2
BRANCH   1  13
ATOM     13  C   UNL     1       1.813 -36.849 -22.935  1.00  0.00     0.000 C 
BRANCH  13  14
ATOM     14  C   UNL     1       3.136 -36.064 -22.845  1.00  0.00     0.000 C 
BRANCH  14  15
ATOM     15  C   UNL     1       4.371 -36.911 -22.484  1.00  0.00     0.000 C 
BRANCH  15  16
ATOM     16  C   UNL     1       4.874 -36.756 -21.033  1.00  0.00     0.000 C 
BRANCH  16  17
ATOM     17  C   UNL     1       6.280 -36.147 -20.891  1.00  0.00     0.000 C 
BRANCH  17  18
ATOM     18  C   UNL     1       6.358 -34.702 -21.402  1.00  0.00     0.000 C 
BRANCH  18  19
ATOM     19  C   UNL     1       7.224 -33.840 -20.470  1.00  0.00     0.000 C 
BRANCH  19  20
ATOM     20  C   UNL     1       6.405 -32.789 -19.697  1.00  0.00     0.006 C 
BRANCH  20  21
ATOM     21  C   UNL     1       7.239 -31.909 -18.752  1.00  0.00     0.053 C 
BRANCH  21  22
ATOM     22  C   UNL     1       6.376 -31.129 -17.806  1.00  0.00     0.041 C 
ATOM     23  O   UNL     1       5.604 -30.234 -18.243  1.00  0.00    -0.550 OA
ATOM     24  O   UNL     1       6.453 -31.366 -16.439  1.00  0.00    -0.550 OA
ENDBRANCH  21  22
ENDBRANCH  20  21
ENDBRANCH  19  20
ENDBRANCH  18  19
ENDBRANCH  17  18
ENDBRANCH  16  17
ENDBRANCH  15  16
ENDBRANCH  14  15
ENDBRANCH  13  14
ENDBRANCH   1  13
TORSDOF 20
ENDMDL
MODEL 3
REMARK VINA RESULT:    -4.291      5.296     10.849
REMARK INTER + INTRA:         -11.901
REMARK INTER:                 -11.291
REMARK INTRA:                  -0.610
REMARK UNBOUND:                -2.593
REMARK SMILES CCCCCCCCCCCCCCCCCCCCCC(=O)[O-]
REMARK SMILES IDX 12 1 11 2 10 3 9 4 8 5 7 6 6 7 5 8 4 9 3 10 2 11 1 12 13 13
REMARK SMILES IDX 14 14 15 15 16 16 17 17 18 18 19 19 20 20 21 21 22 22 23 23
REMARK SMILES IDX 24 24
REMARK H PARENT
REMARK Flexibility Score: inf
ROOT
ATOM      1  C   UNL     1       1.356 -37.375 -23.254  1.00  0.00     0.000 C 
ENDROOT
BRANCH   1   2
ATOM      2  C   UNL     1       2.444 -36.295 -23.125  1.00  0.00     0.000 C 
BRANCH   2   3
ATOM      3  C   UNL     1       3.804 -36.876 -22.698  1.00  0.00     0.000 C 
BRANCH   3   4
ATOM      4  C   UNL     1       4.968 -35.908 -22.952  1.00  0.00    -0.000 C 
BRANCH   4   5
ATOM      5  C   UNL     1       6.217 -36.336 -22.168  1.00  0.00    -0.000 C 
BRANCH   5   6
ATOM      6  C   UNL     1       6.410 -35.525 -20.874  1.00  0.00    -0.000 C 
BRANCH   6   7
ATOM      7  C   UNL     1       6.587 -34.020 -21.141  1.00  0.00    -0.000 C 
BRANCH   7   8
ATOM      8  C   UNL     1       7.223 -33.286 -19.942  1.00  0.00    -0.000 C 
BRANCH   8   9
ATOM      9  C   UNL     1       6.369 -32.119 -19.410  1.00  0.00    -0.000 C 
BRANCH   9  10
ATOM     10  C   UNL     1       6.704 -31.680 -17.975  1.00  0.00    -0.000 C 
BRANCH  10  11
ATOM     11  C   UNL     1       7.134 -30.209 -17.891  1.00  0.00    -0.003 C 
ATOM     12  C   UNL     1       6.753 -29.603 -16.544  1.00  0.00     0.004 C 
ENDBRANCH  10  11
ENDBRANCH   9  10
ENDBRANCH   8   9
ENDBRANCH   7   8
ENDBRANCH   6   7
ENDBRANCH   5   6
ENDBRANCH   4   5
ENDBRANCH   3   4
ENDBRANCH   2   3
ENDBRANCH   1   2
BRANCH   1  13
ATOM     13  C   UNL     1       0.464 -37.470 -21.997  1.00  0.00     0.000 C 
BRANCH  13  14
ATOM     14  C   UNL     1      -0.738 -38.421 -22.157  1.00  0.00     0.000 C 
BRANCH  14  15
ATOM     15  C   UNL     1      -0.720 -39.654 -21.233  1.00  0.00     0.000 C 
BRANCH  15  16
ATOM     16  C   UNL     1      -2.029 -39.914 -20.459  1.00  0.00     0.000 C 
BRANCH  16  17
ATOM     17  C   UNL     1      -1.875 -40.760 -19.183  1.00  0.00     0.000 C 
BRANCH  17  18
ATOM     18  C   UNL     1      -0.587 -41.596 -19.173  1.00  0.00     0.000 C 
BRANCH  18  19
ATOM     19  C   UNL     1      -0.627 -42.646 -18.053  1.00  0.00     0.000 C 
BRANCH  19  20
ATOM     20  C   UNL     1       0.470 -43.716 -18.198  1.00  0.00     0.006 C 
BRANCH  20  21
ATOM     21  C   UNL     1       0.392 -44.847 -17.160  1.00  0.00     0.053 C 
BRANCH  21  22
ATOM     22  C   UNL     1       1.383 -45.937 -17.442  1.00  0.00     0.041 C 
ATOM     23  O   UNL     1       1.145 -46.793 -18.334  1.00  0.00    -0.550 OA
ATOM     24  O   UNL     1       2.549 -46.026 -16.693  1.00  0.00    -0.550 OA
ENDBRANCH  21  22
ENDBRANCH  20  21
ENDBRANCH  19  20
ENDBRANCH  18  19
ENDBRANCH  17  18
ENDBRANCH  16  17
ENDBRANCH  15  16
ENDBRANCH  14  15
ENDBRANCH  13  14
ENDBRANCH   1  13
TORSDOF 20
ENDMDL
MODEL 4
REMARK VINA RESULT:    -4.275      7.389     11.903
REMARK INTER + INTRA:         -11.866
REMARK INTER:                 -10.379
REMARK INTRA:                  -1.487
REMARK UNBOUND:                -2.593
REMARK SMILES CCCCCCCCCCCCCCCCCCCCCC(=O)[O-]
REMARK SMILES IDX 12 1 11 2 10 3 9 4 8 5 7 6 6 7 5 8 4 9 3 10 2 11 1 12 13 13
REMARK SMILES IDX 14 14 15 15 16 16 17 17 18 18 19 19 20 20 21 21 22 22 23 23
REMARK SMILES IDX 24 24
REMARK H PARENT
REMARK Flexibility Score: inf
ROOT
ATOM      1  C   UNL     1       7.113 -32.387 -19.881  1.00  0.00     0.000 C 
ENDROOT
BRANCH   1   2
ATOM      2  C   UNL     1       5.969 -32.304 -18.855  1.00  0.00     0.000 C 
BRANCH   2   3
ATOM      3  C   UNL     1       6.348 -31.471 -17.617  1.00  0.00     0.000 C 
BRANCH   3   4
ATOM      4  C   UNL     1       5.493 -31.813 -16.389  1.00  0.00    -0.000 C 
BRANCH   4   5
ATOM      5  C   UNL     1       4.132 -31.103 -16.454  1.00  0.00    -0.000 C 
BRANCH   5   6
ATOM      6  C   UNL     1       3.887 -30.182 -15.246  1.00  0.00    -0.000 C 
BRANCH   6   7
ATOM      7  C   UNL     1       4.826 -28.964 -15.232  1.00  0.00    -0.000 C 
BRANCH   7   8
ATOM      8  C   UNL     1       4.128 -27.682 -15.735  1.00  0.00    -0.000 C 
BRANCH   8   9
ATOM      9  C   UNL     1       4.441 -27.345 -17.205  1.00  0.00    -0.000 C 
BRANCH   9  10
ATOM     10  C   UNL     1       5.666 -28.073 -17.784  1.00  0.00    -0.000 C 
BRANCH  10  11
ATOM     11  C   UNL     1       6.966 -27.277 -17.604  1.00  0.00    -0.003 C 
ATOM     12  C   UNL     1       8.157 -28.211 -17.412  1.00  0.00     0.004 C 
ENDBRANCH  10  11
ENDBRANCH   9  10
ENDBRANCH   8   9
ENDBRANCH   7   8
ENDBRANCH   6   7
ENDBRANCH   5   6
ENDBRANCH   4   5
ENDBRANCH   3   4
ENDBRANCH   2   3
ENDBRANCH   1   2
BRANCH   1  13
ATOM     13  C   UNL     1       7.562 -33.839 -20.153  1.00  0.00     0.000 C 
BRANCH  13  14
ATOM     14  C   UNL     1       6.416 -34.772 -20.590  1.00  0.00     0.000 C 
BRANCH  14  15
ATOM     15  C   UNL     1       6.375 -35.091 -22.096  1.00  0.00     0.000 C 
BRANCH  15  16
ATOM     16  C   UNL     1       5.326 -36.142 -22.517  1.00  0.00     0.000 C 
BRANCH  16  17
ATOM     17  C   UNL     1       5.036 -36.206 -24.027  1.00  0.00     0.000 C 
BRANCH  17  18
ATOM     18  C   UNL     1       3.642 -36.766 -24.344  1.00  0.00     0.000 C 
BRANCH  18  19
ATOM     19  C   UNL     1       2.576 -36.115 -23.449  1.00  0.00     0.000 C 
BRANCH  19  20
ATOM     20  C   UNL     1       1.323 -36.993 -23.276  1.00  0.00     0.006 C 
BRANCH  20  21
ATOM     21  C   UNL     1       0.853 -37.143 -21.820  1.00  0.00     0.053 C 
BRANCH  21  22
ATOM     22  C   UNL     1      -0.631 -37.338 -21.728  1.00  0.00     0.041 C 
ATOM     23  O   UNL     1      -1.114 -38.499 -21.652  1.00  0.00    -0.550 OA
ATOM     24  O   UNL     1      -1.480 -36.238 -21.762  1.00  0.00    -0.550 OA
ENDBRANCH  21  22
ENDBRANCH  20  21
ENDBRANCH  19  20
ENDBRANCH  18  19
ENDBRANCH  17  18
ENDBRANCH  16  17
ENDBRANCH  15  16
ENDBRANCH  14  15
ENDBRANCH  13  14
ENDBRANCH   1  13
TORSDOF 20
ENDMDL
MODEL 5
REMARK VINA RESULT:    -4.199     16.539     19.897
REMARK INTER + INTRA:         -11.701
REMARK INTER:                  -7.498
REMARK INTRA:                  -4.204
REMARK UNBOUND:                -2.593
REMARK SMILES CCCCCCCCCCCCCCCCCCCCCC(=O)[O-]
REMARK SMILES IDX 12 1 11 2 10 3 9 4 8 5 7 6 6 7 5 8 4 9 3 10 2 11 1 12 13 13
REMARK SMILES IDX 14 14 15 15 16 16 17 17 18 18 19 19 20 20 21 21 22 22 23 23
REMARK SMILES IDX 24 24
REMARK H PARENT
REMARK Flexibility Score: inf
ROOT
ATOM      1  C   UNL     1      -3.683 -32.478 -32.496  1.00  0.00     0.000 C 
ENDROOT
BRANCH   1   2
ATOM      2  C   UNL     1      -3.594 -31.356 -31.446  1.00  0.00     0.000 C 
BRANCH   2   3
ATOM      3  C   UNL     1      -4.956 -30.696 -31.173  1.00  0.00     0.000 C 
BRANCH   3   4
ATOM      4  C   UNL     1      -4.823 -29.265 -30.631  1.00  0.00    -0.000 C 
BRANCH   4   5
ATOM      5  C   UNL     1      -3.351 -28.914 -30.368  1.00  0.00    -0.000 C 
BRANCH   5   6
ATOM      6  C   UNL     1      -3.135 -28.260 -28.993  1.00  0.00    -0.000 C 
BRANCH   6   7
ATOM      7  C   UNL     1      -3.688 -29.114 -27.839  1.00  0.00    -0.000 C 
BRANCH   7   8
ATOM      8  C   UNL     1      -2.732 -30.262 -27.452  1.00  0.00    -0.000 C 
BRANCH   8   9
ATOM      9  C   UNL     1      -3.457 -31.529 -26.959  1.00  0.00    -0.000 C 
BRANCH   9  10
ATOM     10  C   UNL     1      -3.420 -32.713 -27.940  1.00  0.00    -0.000 C 
BRANCH  10  11
ATOM     11  C   UNL     1      -4.818 -33.130 -28.415  1.00  0.00    -0.003 C 
ATOM     12  C   UNL     1      -5.880 -32.155 -27.916  1.00  0.00     0.004 C 
ENDBRANCH  10  11
ENDBRANCH   9  10
ENDBRANCH   8   9
ENDBRANCH   7   8
ENDBRANCH   6   7
ENDBRANCH   5   6
ENDBRANCH   4   5
ENDBRANCH   3   4
ENDBRANCH   2   3
ENDBRANCH   1   2
BRANCH   1  13
ATOM     13  C   UNL     1      -5.141 -32.848 -32.845  1.00  0.00     0.000 C 
BRANCH  13  14
ATOM     14  C   UNL     1      -5.423 -32.905 -34.359  1.00  0.00     0.000 C 
BRANCH  14  15
ATOM     15  C   UNL     1      -6.573 -32.001 -34.841  1.00  0.00     0.000 C 
BRANCH  15  16
ATOM     16  C   UNL     1      -6.423 -30.504 -34.493  1.00  0.00     0.000 C 
BRANCH  16  17
ATOM     17  C   UNL     1      -5.110 -29.854 -34.961  1.00  0.00     0.000 C 
BRANCH  17  18
ATOM     18  C   UNL     1      -4.843 -28.498 -34.292  1.00  0.00     0.000 C 
BRANCH  18  19
ATOM     19  C   UNL     1      -3.345 -28.320 -33.999  1.00  0.00     0.000 C 
BRANCH  19  20
ATOM     20  C   UNL     1      -2.509 -29.550 -34.395  1.00  0.00     0.006 C 
BRANCH  20  21
ATOM     21  C   UNL     1      -0.989 -29.342 -34.288  1.00  0.00     0.053 C 
BRANCH  21  22
ATOM     22  C   UNL     1      -0.536 -29.242 -32.863  1.00  0.00     0.041 C 
ATOM     23  O   UNL     1      -0.292 -30.286 -32.201  1.00  0.00    -0.550 OA
ATOM     24  O   UNL     1      -0.420 -27.998 -32.256  1.00  0.00    -0.550 OA
ENDBRANCH  21  22
ENDBRANCH  20  21
ENDBRANCH  19  20
ENDBRANCH  18  19
ENDBRANCH  17  18
ENDBRANCH  16  17
ENDBRANCH  15  16
ENDBRANCH  14  15
ENDBRANCH  13  14
ENDBRANCH   1  13
TORSDOF 20
ENDMDL
MODEL 6
REMARK VINA RESULT:    -4.175     15.043     18.890
REMARK INTER + INTRA:         -11.648
REMARK INTER:                  -7.862
REMARK INTRA:                  -3.787
REMARK UNBOUND:                -2.593
REMARK SMILES CCCCCCCCCCCCCCCCCCCCCC(=O)[O-]
REMARK SMILES IDX 12 1 11 2 10 3 9 4 8 5 7 6 6 7 5 8 4 9 3 10 2 11 1 12 13 13
REMARK SMILES IDX 14 14 15 15 16 16 17 17 18 18 19 19 20 20 21 21 22 22 23 23
REMARK SMILES IDX 24 24
REMARK H PARENT
REMARK Flexibility Score: inf
ROOT
ATOM      1  C   UNL     1      -3.962 -30.187 -30.095  1.00  0.00     0.000 C 
ENDROOT
BRANCH   1   2
ATOM      2  C   UNL     1      -4.491 -29.179 -31.130  1.00  0.00     0.000 C 
BRANCH   2   3
ATOM      3  C   UNL     1      -3.883 -27.777 -30.950  1.00  0.00     0.000 C 
BRANCH   3   4
ATOM      4  C   UNL     1      -3.718 -27.027 -32.279  1.00  0.00    -0.000 C 
BRANCH   4   5
ATOM      5  C   UNL     1      -2.295 -27.198 -32.831  1.00  0.00    -0.000 C 
BRANCH   5   6
ATOM      6  C   UNL     1      -1.261 -27.480 -31.727  1.00  0.00    -0.000 C 
BRANCH   6   7
ATOM      7  C   UNL     1      -0.330 -28.654 -32.075  1.00  0.00    -0.000 C 
BRANCH   7   8
ATOM      8  C   UNL     1      -0.345 -28.984 -33.583  1.00  0.00    -0.000 C 
BRANCH   8   9
ATOM      9  C   UNL     1      -0.739 -30.440 -33.893  1.00  0.00    -0.000 C 
BRANCH   9  10
ATOM     10  C   UNL     1      -2.041 -30.909 -33.224  1.00  0.00    -0.000 C 
BRANCH  10  11
ATOM     11  C   UNL     1      -3.163 -31.178 -34.236  1.00  0.00    -0.003 C 
ATOM     12  C   UNL     1      -3.761 -29.873 -34.751  1.00  0.00     0.004 C 
ENDBRANCH  10  11
ENDBRANCH   9  10
ENDBRANCH   8   9
ENDBRANCH   7   8
ENDBRANCH   6   7
ENDBRANCH   5   6
ENDBRANCH   4   5
ENDBRANCH   3   4
ENDBRANCH   2   3
ENDBRANCH   1   2
BRANCH   1  13
ATOM     13  C   UNL     1      -2.761 -29.640 -29.294  1.00  0.00     0.000 C 
BRANCH  13  14
ATOM     14  C   UNL     1      -2.932 -29.745 -27.766  1.00  0.00     0.000 C 
BRANCH  14  15
ATOM     15  C   UNL     1      -3.616 -31.035 -27.276  1.00  0.00     0.000 C 
BRANCH  15  16
ATOM     16  C   UNL     1      -2.676 -32.242 -27.076  1.00  0.00     0.000 C 
BRANCH  16  17
ATOM     17  C   UNL     1      -2.473 -33.124 -28.320  1.00  0.00     0.000 C 
BRANCH  17  18
ATOM     18  C   UNL     1      -1.003 -33.212 -28.756  1.00  0.00     0.000 C 
BRANCH  18  19
ATOM     19  C   UNL     1      -0.771 -32.419 -30.052  1.00  0.00     0.000 C 
BRANCH  19  20
ATOM     20  C   UNL     1       0.281 -33.069 -30.969  1.00  0.00     0.006 C 
BRANCH  20  21
ATOM     21  C   UNL     1       1.388 -32.112 -31.439  1.00  0.00     0.053 C 
BRANCH  21  22
ATOM     22  C   UNL     1       2.720 -32.459 -30.842  1.00  0.00     0.041 C 
ATOM     23  O   UNL     1       2.831 -33.455 -30.079  1.00  0.00    -0.550 OA
ATOM     24  O   UNL     1       3.827 -31.659 -31.100  1.00  0.00    -0.550 OA
ENDBRANCH  21  22
ENDBRANCH  20  21
ENDBRANCH  19  20
ENDBRANCH  18  19
ENDBRANCH  17  18
ENDBRANCH  16  17
ENDBRANCH  15  16
ENDBRANCH  14  15
ENDBRANCH  13  14
ENDBRANCH   1  13
TORSDOF 20
ENDMDL
MODEL 7
REMARK VINA RESULT:    -4.167     15.674     19.710
REMARK INTER + INTRA:         -11.631
REMARK INTER:                  -7.100
REMARK INTRA:                  -4.531
REMARK UNBOUND:                -2.593
REMARK SMILES CCCCCCCCCCCCCCCCCCCCCC(=O)[O-]
REMARK SMILES IDX 12 1 11 2 10 3 9 4 8 5 7 6 6 7 5 8 4 9 3 10 2 11 1 12 13 13
REMARK SMILES IDX 14 14 15 15 16 16 17 17 18 18 19 19 20 20 21 21 22 22 23 23
REMARK SMILES IDX 24 24
REMARK H PARENT
REMARK Flexibility Score: inf
ROOT
ATOM      1  C   UNL     1      -0.187 -31.158 -33.055  1.00  0.00     0.000 C 
ENDROOT
BRANCH   1   2
ATOM      2  C   UNL     1      -0.131 -29.997 -32.046  1.00  0.00     0.000 C 
BRANCH   2   3
ATOM      3  C   UNL     1      -0.378 -28.630 -32.708  1.00  0.00     0.000 C 
BRANCH   3   4
ATOM      4  C   UNL     1      -1.031 -27.619 -31.755  1.00  0.00    -0.000 C 
BRANCH   4   5
ATOM      5  C   UNL     1      -2.400 -27.170 -32.286  1.00  0.00    -0.000 C 
BRANCH   5   6
ATOM      6  C   UNL     1      -2.761 -27.833 -33.627  1.00  0.00    -0.000 C 
BRANCH   6   7
ATOM      7  C   UNL     1      -3.921 -28.835 -33.498  1.00  0.00    -0.000 C 
BRANCH   7   8
ATOM      8  C   UNL     1      -4.317 -29.083 -32.027  1.00  0.00    -0.000 C 
BRANCH   8   9
ATOM      9  C   UNL     1      -3.837 -30.440 -31.478  1.00  0.00    -0.000 C 
BRANCH   9  10
ATOM     10  C   UNL     1      -3.857 -30.556 -29.945  1.00  0.00    -0.000 C 
BRANCH  10  11
ATOM     11  C   UNL     1      -2.600 -29.966 -29.291  1.00  0.00    -0.003 C 
ATOM     12  C   UNL     1      -2.970 -28.977 -28.190  1.00  0.00     0.004 C 
ENDBRANCH  10  11
ENDBRANCH   9  10
ENDBRANCH   8   9
ENDBRANCH   7   8
ENDBRANCH   6   7
ENDBRANCH   5   6
ENDBRANCH   4   5
ENDBRANCH   3   4
ENDBRANCH   2   3
ENDBRANCH   1   2
BRANCH   1  13
ATOM     13  C   UNL     1      -0.568 -30.690 -34.476  1.00  0.00     0.000 C 
BRANCH  13  14
ATOM     14  C   UNL     1      -1.810 -31.398 -35.052  1.00  0.00     0.000 C 
BRANCH  14  15
ATOM     15  C   UNL     1      -2.428 -32.473 -34.139  1.00  0.00     0.000 C 
BRANCH  15  16
ATOM     16  C   UNL     1      -3.947 -32.684 -34.307  1.00  0.00     0.000 C 
BRANCH  16  17
ATOM     17  C   UNL     1      -4.614 -33.528 -33.206  1.00  0.00     0.000 C 
BRANCH  17  18
ATOM     18  C   UNL     1      -3.599 -34.275 -32.329  1.00  0.00     0.000 C 
BRANCH  18  19
ATOM     19  C   UNL     1      -4.008 -34.215 -30.849  1.00  0.00     0.000 C 
BRANCH  19  20
ATOM     20  C   UNL     1      -2.802 -34.089 -29.901  1.00  0.00     0.006 C 
BRANCH  20  21
ATOM     21  C   UNL     1      -1.491 -33.688 -30.597  1.00  0.00     0.053 C 
BRANCH  21  22
ATOM     22  C   UNL     1      -0.424 -33.315 -29.611  1.00  0.00     0.041 C 
ATOM     23  O   UNL     1      -0.653 -33.385 -28.374  1.00  0.00    -0.550 OA
ATOM     24  O   UNL     1       0.808 -32.857 -30.060  1.00  0.00    -0.550 OA
ENDBRANCH  21  22
ENDBRANCH  20  21
ENDBRANCH  19  20
ENDBRANCH  18  19
ENDBRANCH  17  18
ENDBRANCH  16  17
ENDBRANCH  15  16
ENDBRANCH  14  15
ENDBRANCH  13  14
ENDBRANCH   1  13
TORSDOF 20
ENDMDL
MODEL 8
REMARK VINA RESULT:    -4.093     14.794     18.352
REMARK INTER + INTRA:         -11.472
REMARK INTER:                  -7.169
REMARK INTRA:                  -4.303
REMARK UNBOUND:                -2.593
REMARK SMILES CCCCCCCCCCCCCCCCCCCCCC(=O)[O-]
REMARK SMILES IDX 12 1 11 2 10 3 9 4 8 5 7 6 6 7 5 8 4 9 3 10 2 11 1 12 13 13
REMARK SMILES IDX 14 14 15 15 16 16 17 17 18 18 19 19 20 20 21 21 22 22 23 23
REMARK SMILES IDX 24 24
REMARK H PARENT
REMARK Flexibility Score: inf
ROOT
ATOM      1  C   UNL     1      -2.025 -28.995 -34.377  1.00  0.00     0.000 C 
ENDROOT
BRANCH   1   2
ATOM      2  C   UNL     1      -2.496 -30.355 -34.922  1.00  0.00     0.000 C 
BRANCH   2   3
ATOM      3  C   UNL     1      -1.667 -31.529 -34.371  1.00  0.00     0.000 C 
BRANCH   3   4
ATOM      4  C   UNL     1      -2.537 -32.716 -33.935  1.00  0.00    -0.000 C 
BRANCH   4   5
ATOM      5  C   UNL     1      -4.017 -32.311 -33.856  1.00  0.00    -0.000 C 
BRANCH   5   6
ATOM      6  C   UNL     1      -4.719 -32.877 -32.610  1.00  0.00    -0.000 C 
BRANCH   6   7
ATOM      7  C   UNL     1      -3.828 -33.852 -31.820  1.00  0.00    -0.000 C 
BRANCH   7   8
ATOM      8  C   UNL     1      -4.181 -33.880 -30.318  1.00  0.00    -0.000 C 
BRANCH   8   9
ATOM      9  C   UNL     1      -5.201 -32.802 -29.904  1.00  0.00    -0.000 C 
BRANCH   9  10
ATOM     10  C   UNL     1      -5.203 -32.463 -28.404  1.00  0.00    -0.000 C 
BRANCH  10  11
ATOM     11  C   UNL     1      -3.923 -32.921 -27.693  1.00  0.00    -0.003 C 
ATOM     12  C   UNL     1      -3.305 -31.779 -26.891  1.00  0.00     0.004 C 
ENDBRANCH  10  11
ENDBRANCH   9  10
ENDBRANCH   8   9
ENDBRANCH   7   8
ENDBRANCH   6   7
ENDBRANCH   5   6
ENDBRANCH   4   5
ENDBRANCH   3   4
ENDBRANCH   2   3
ENDBRANCH   1   2
BRANCH   1  13
ATOM     13  C   UNL     1      -0.640 -29.075 -33.701  1.00  0.00     0.000 C 
BRANCH  13  14
ATOM     14  C   UNL     1      -0.578 -28.383 -32.325  1.00  0.00     0.000 C 
BRANCH  14  15
ATOM     15  C   UNL     1      -1.937 -27.922 -31.767  1.00  0.00     0.000 C 
BRANCH  15  16
ATOM     16  C   UNL     1      -2.514 -28.797 -30.635  1.00  0.00     0.000 C 
BRANCH  16  17
ATOM     17  C   UNL     1      -2.560 -30.306 -30.935  1.00  0.00     0.000 C 
BRANCH  17  18
ATOM     18  C   UNL     1      -1.619 -31.121 -30.037  1.00  0.00     0.000 C 
BRANCH  18  19
ATOM     19  C   UNL     1      -0.601 -31.904 -30.881  1.00  0.00     0.000 C 
BRANCH  19  20
ATOM     20  C   UNL     1      -0.436 -33.363 -30.416  1.00  0.00     0.006 C 
BRANCH  20  21
ATOM     21  C   UNL     1      -0.607 -33.566 -28.902  1.00  0.00     0.053 C 
BRANCH  21  22
ATOM     22  C   UNL     1      -0.619 -35.019 -28.529  1.00  0.00     0.041 C 
ATOM     23  O   UNL     1       0.459 -35.667 -28.474  1.00  0.00    -0.550 OA
ATOM     24  O   UNL     1      -1.825 -35.662 -28.279  1.00  0.00    -0.550 OA
ENDBRANCH  21  22
ENDBRANCH  20  21
ENDBRANCH  19  20
ENDBRANCH  18  19
ENDBRANCH  17  18
ENDBRANCH  16  17
ENDBRANCH  15  16
ENDBRANCH  14  15
ENDBRANCH  13  14
ENDBRANCH   1  13
TORSDOF 20
ENDMDL
MODEL 9
REMARK VINA RESULT:    -4.062     15.918     19.199
REMARK INTER + INTRA:         -11.404
REMARK INTER:                  -7.024
REMARK INTRA:                  -4.380
REMARK UNBOUND:                -2.593
REMARK SMILES CCCCCCCCCCCCCCCCCCCCCC(=O)[O-]
REMARK SMILES IDX 12 1 11 2 10 3 9 4 8 5 7 6 6 7 5 8 4 9 3 10 2 11 1 12 13 13
REMARK SMILES IDX 14 14 15 15 16 16 17 17 18 18 19 19 20 20 21 21 22 22 23 23
REMARK SMILES IDX 24 24
REMARK H PARENT
REMARK Flexibility Score: inf
ROOT
ATOM      1  C   UNL     1      -3.441 -31.687 -27.263  1.00  0.00     0.000 C 
ENDROOT
BRANCH   1   2
ATOM      2  C   UNL     1      -3.966 -30.240 -27.280  1.00  0.00     0.000 C 
BRANCH   2   3
ATOM      3  C   UNL     1      -2.966 -29.259 -27.916  1.00  0.00     0.000 C 
BRANCH   3   4
ATOM      4  C   UNL     1      -3.657 -28.140 -28.709  1.00  0.00    -0.000 C 
BRANCH   4   5
ATOM      5  C   UNL     1      -2.648 -27.390 -29.591  1.00  0.00    -0.000 C 
BRANCH   5   6
ATOM      6  C   UNL     1      -3.268 -26.893 -30.909  1.00  0.00    -0.000 C 
BRANCH   6   7
ATOM      7  C   UNL     1      -2.344 -27.118 -32.119  1.00  0.00    -0.000 C 
BRANCH   7   8
ATOM      8  C   UNL     1      -1.004 -27.768 -31.716  1.00  0.00    -0.000 C 
BRANCH   8   9
ATOM      9  C   UNL     1      -0.339 -28.567 -32.853  1.00  0.00    -0.000 C 
BRANCH   9  10
ATOM     10  C   UNL     1      -1.308 -29.066 -33.938  1.00  0.00    -0.000 C 
BRANCH  10  11
ATOM     11  C   UNL     1      -0.884 -30.415 -34.534  1.00  0.00    -0.003 C 
ATOM     12  C   UNL     1      -2.092 -31.322 -34.750  1.00  0.00     0.004 C 
ENDBRANCH  10  11
ENDBRANCH   9  10
ENDBRANCH   8   9
ENDBRANCH   7   8
ENDBRANCH   6   7
ENDBRANCH   5   6
ENDBRANCH   4   5
ENDBRANCH   3   4
ENDBRANCH   2   3
ENDBRANCH   1   2
BRANCH   1  13
ATOM     13  C   UNL     1      -4.514 -32.711 -27.691  1.00  0.00     0.000 C 
BRANCH  13  14
ATOM     14  C   UNL     1      -5.934 -32.120 -27.789  1.00  0.00     0.000 C 
BRANCH  14  15
ATOM     15  C   UNL     1      -6.555 -32.148 -29.198  1.00  0.00     0.000 C 
BRANCH  15  16
ATOM     16  C   UNL     1      -5.548 -32.047 -30.363  1.00  0.00     0.000 C 
BRANCH  16  17
ATOM     17  C   UNL     1      -5.383 -30.639 -30.962  1.00  0.00     0.000 C 
BRANCH  17  18
ATOM     18  C   UNL     1      -3.982 -30.399 -31.543  1.00  0.00     0.000 C 
BRANCH  18  19
ATOM     19  C   UNL     1      -3.065 -31.601 -31.269  1.00  0.00     0.000 C 
BRANCH  19  20
ATOM     20  C   UNL     1      -1.716 -31.193 -30.648  1.00  0.00     0.006 C 
BRANCH  20  21
ATOM     21  C   UNL     1      -0.874 -32.373 -30.136  1.00  0.00     0.053 C 
BRANCH  21  22
ATOM     22  C   UNL     1      -0.728 -33.448 -31.171  1.00  0.00     0.041 C 
ATOM     23  O   UNL     1      -1.179 -34.604 -30.951  1.00  0.00    -0.550 OA
ATOM     24  O   UNL     1      -0.062 -33.182 -32.361  1.00  0.00    -0.550 OA
ENDBRANCH  21  22
ENDBRANCH  20  21
ENDBRANCH  19  20
ENDBRANCH  18  19
ENDBRANCH  17  18
ENDBRANCH  16  17
ENDBRANCH  15  16
ENDBRANCH  14  15
ENDBRANCH  13  14
ENDBRANCH   1  13
TORSDOF 20
ENDMDL
