MODEL 1
REMARK VINA RESULT:    -5.973      0.000      0.000
REMARK INTER + INTRA:          -7.500
REMARK INTER:                  -7.195
REMARK INTRA:                  -0.305
REMARK UNBOUND:                -0.305
REMARK SMILES O=c1c(O)c(-c2ccc(O)c(O)c2)oc2cc(O)cc(O)c12
REMARK SMILES IDX 5 1 3 2 2 3 1 4 22 5 20 6 19 7 17 8 16 9 15 10 14 11 6 12
REMARK SMILES IDX 7 13 8 14 9 15 13 16 11 17 10 18 12 20 4 22 21 24 18 26
REMARK H PARENT 10 19 12 21 4 23 21 25 18 27
REMARK Flexibility Score: inf
ROOT
ATOM      1  C   UNL     1      28.967  20.461   4.777  1.00  0.00     0.180 A 
ATOM      2  C   UNL     1      29.381  19.125   4.910  1.00  0.00     0.208 A 
ATOM      3  C   UNL     1      30.743  18.816   4.765  1.00  0.00     0.238 A 
ATOM      4  O   UNL     1      31.100  17.610   4.830  1.00  0.00    -0.285 OA
ATOM      5  C   UNL     1      31.677  19.848   4.506  1.00  0.00     0.111 A 
ATOM      6  C   UNL     1      33.085  19.656   4.381  1.00  0.00     0.134 A 
ATOM      7  C   UNL     1      33.897  20.730   3.995  1.00  0.00     0.093 A 
ATOM      8  C   UNL     1      33.363  22.001   3.793  1.00  0.00     0.123 A 
ATOM      9  C   UNL     1      31.995  22.214   3.971  1.00  0.00     0.094 A 
ATOM     10  C   UNL     1      31.154  21.155   4.321  1.00  0.00     0.146 A 
ATOM     11  O   UNL     1      29.857  21.398   4.469  1.00  0.00    -0.452 OA
ENDROOT
BRANCH   1  12
ATOM     12  C   UNL     1      27.553  20.868   4.941  1.00  0.00     0.025 A 
ATOM     13  C   UNL     1      27.031  21.047   6.232  1.00  0.00     0.016 A 
ATOM     14  C   UNL     1      25.693  21.410   6.411  1.00  0.00     0.051 A 
ATOM     15  C   UNL     1      24.855  21.585   5.303  1.00  0.00     0.157 A 
ATOM     16  C   UNL     1      26.702  21.024   3.832  1.00  0.00     0.062 A 
ATOM     17  C   UNL     1      25.362  21.386   4.007  1.00  0.00     0.158 A 
BRANCH  15  18
ATOM     18  O   UNL     1      23.521  21.949   5.483  1.00  0.00    -0.504 OA
ATOM     19  H   UNL     1      23.265  22.860   5.844  1.00  0.00     0.293 HD
ENDBRANCH  15  18
BRANCH  17  20
ATOM     20  O   UNL     1      24.549  21.537   2.885  1.00  0.00    -0.504 OA
ATOM     21  H   UNL     1      23.566  21.774   2.959  1.00  0.00     0.293 HD
ENDBRANCH  17  20
ENDBRANCH   1  12
BRANCH   2  22
ATOM     22  O   UNL     1      28.441  18.117   5.143  1.00  0.00    -0.502 OA
ATOM     23  H   UNL     1      28.092  17.517   4.406  1.00  0.00     0.293 HD
ENDBRANCH   2  22
BRANCH   6  24
ATOM     24  O   UNL     1      33.734  18.447   4.649  1.00  0.00    -0.507 OA
ATOM     25  H   UNL     1      34.087  17.816   3.946  1.00  0.00     0.293 HD
ENDBRANCH   6  24
BRANCH   8  26
ATOM     26  O   UNL     1      34.203  23.050   3.426  1.00  0.00    -0.508 OA
ATOM     27  H   UNL     1      33.849  23.989   3.288  1.00  0.00     0.293 HD
ENDBRANCH   8  26
TORSDOF 6
ENDMDL
MODEL 2
REMARK VINA RESULT:    -5.849      1.266      2.957
REMARK INTER + INTRA:          -7.351
REMARK INTER:                  -7.042
REMARK INTRA:                  -0.309
REMARK UNBOUND:                -0.305
REMARK SMILES O=c1c(O)c(-c2ccc(O)c(O)c2)oc2cc(O)cc(O)c12
REMARK SMILES IDX 5 1 3 2 2 3 1 4 22 5 20 6 19 7 17 8 16 9 15 10 14 11 6 12
REMARK SMILES IDX 7 13 8 14 9 15 13 16 11 17 10 18 12 20 4 22 21 24 18 26
REMARK H PARENT 10 19 12 21 4 23 21 25 18 27
REMARK Flexibility Score: inf
ROOT
ATOM      1  C   UNL     1      28.953  20.565   4.659  1.00  0.00     0.180 A 
ATOM      2  C   UNL     1      29.869  21.546   4.245  1.00  0.00     0.208 A 
ATOM      3  C   UNL     1      31.184  21.163   3.936  1.00  0.00     0.238 A 
ATOM      4  O   UNL     1      32.016  22.054   3.619  1.00  0.00    -0.285 OA
ATOM      5  C   UNL     1      31.562  19.801   4.026  1.00  0.00     0.111 A 
ATOM      6  C   UNL     1      32.854  19.294   3.698  1.00  0.00     0.134 A 
ATOM      7  C   UNL     1      33.154  17.950   3.950  1.00  0.00     0.093 A 
ATOM      8  C   UNL     1      32.189  17.080   4.457  1.00  0.00     0.123 A 
ATOM      9  C   UNL     1      30.904  17.552   4.725  1.00  0.00     0.094 A 
ATOM     10  C   UNL     1      30.586  18.896   4.518  1.00  0.00     0.146 A 
ATOM     11  O   UNL     1      29.354  19.306   4.797  1.00  0.00    -0.452 OA
ENDROOT
BRANCH   1  12
ATOM     12  C   UNL     1      27.543  20.887   4.978  1.00  0.00     0.025 A 
ATOM     13  C   UNL     1      27.141  20.970   6.320  1.00  0.00     0.016 A 
ATOM     14  C   UNL     1      25.811  21.253   6.644  1.00  0.00     0.051 A 
ATOM     15  C   UNL     1      24.862  21.442   5.632  1.00  0.00     0.157 A 
ATOM     16  C   UNL     1      26.583  21.057   3.964  1.00  0.00     0.062 A 
ATOM     17  C   UNL     1      25.251  21.339   4.285  1.00  0.00     0.158 A 
BRANCH  15  18
ATOM     18  O   UNL     1      23.536  21.726   5.957  1.00  0.00    -0.504 OA
ATOM     19  H   UNL     1      23.015  22.449   5.475  1.00  0.00     0.293 HD
ENDBRANCH  15  18
BRANCH  17  20
ATOM     20  O   UNL     1      24.326  21.507   3.254  1.00  0.00    -0.504 OA
ATOM     21  H   UNL     1      23.558  22.165   3.321  1.00  0.00     0.293 HD
ENDBRANCH  17  20
ENDBRANCH   1  12
BRANCH   2  22
ATOM     22  O   UNL     1      29.483  22.888   4.184  1.00  0.00    -0.502 OA
ATOM     23  H   UNL     1      29.981  23.621   4.675  1.00  0.00     0.293 HD
ENDBRANCH   2  22
BRANCH   6  24
ATOM     24  O   UNL     1      33.863  20.057   3.102  1.00  0.00    -0.507 OA
ATOM     25  H   UNL     1      34.418  19.760   2.313  1.00  0.00     0.293 HD
ENDBRANCH   6  24
BRANCH   8  26
ATOM     26  O   UNL     1      32.518  15.744   4.680  1.00  0.00    -0.508 OA
ATOM     27  H   UNL     1      31.979  14.991   4.269  1.00  0.00     0.293 HD
ENDBRANCH   8  26
TORSDOF 6
ENDMDL
MODEL 3
REMARK VINA RESULT:    -5.572      1.388      3.158
REMARK INTER + INTRA:          -7.017
REMARK INTER:                  -6.732
REMARK INTRA:                  -0.285
REMARK UNBOUND:                -0.305
REMARK SMILES O=c1c(O)c(-c2ccc(O)c(O)c2)oc2cc(O)cc(O)c12
REMARK SMILES IDX 5 1 3 2 2 3 1 4 22 5 20 6 19 7 17 8 16 9 15 10 14 11 6 12
REMARK SMILES IDX 7 13 8 14 9 15 13 16 11 17 10 18 12 20 4 22 21 24 18 26
REMARK H PARENT 10 19 12 21 4 23 21 25 18 27
REMARK Flexibility Score: inf
ROOT
ATOM      1  C   UNL     1      29.158  20.804   4.316  1.00  0.00     0.180 A 
ATOM      2  C   UNL     1      30.024  21.908   4.397  1.00  0.00     0.208 A 
ATOM      3  C   UNL     1      31.410  21.689   4.383  1.00  0.00     0.238 A 
ATOM      4  O   UNL     1      32.180  22.678   4.511  1.00  0.00    -0.285 OA
ATOM      5  C   UNL     1      31.915  20.371   4.272  1.00  0.00     0.111 A 
ATOM      6  C   UNL     1      33.301  20.036   4.209  1.00  0.00     0.134 A 
ATOM      7  C   UNL     1      33.688  18.690   4.231  1.00  0.00     0.093 A 
ATOM      8  C   UNL     1      32.740  17.669   4.250  1.00  0.00     0.123 A 
ATOM      9  C   UNL     1      31.380  17.985   4.252  1.00  0.00     0.094 A 
ATOM     10  C   UNL     1      30.964  19.318   4.266  1.00  0.00     0.146 A 
ATOM     11  O   UNL     1      29.662  19.575   4.280  1.00  0.00    -0.452 OA
ENDROOT
BRANCH   1  12
ATOM     12  C   UNL     1      27.686  20.956   4.300  1.00  0.00     0.025 A 
ATOM     13  C   UNL     1      27.001  20.912   3.075  1.00  0.00     0.016 A 
ATOM     14  C   UNL     1      25.613  21.075   3.034  1.00  0.00     0.051 A 
ATOM     15  C   UNL     1      24.893  21.299   4.214  1.00  0.00     0.157 A 
ATOM     16  C   UNL     1      26.961  21.202   5.480  1.00  0.00     0.062 A 
ATOM     17  C   UNL     1      25.572  21.367   5.443  1.00  0.00     0.158 A 
BRANCH  15  18
ATOM     18  O   UNL     1      23.508  21.459   4.171  1.00  0.00    -0.504 OA
ATOM     19  H   UNL     1      22.927  20.886   3.571  1.00  0.00     0.293 HD
ENDBRANCH  15  18
BRANCH  17  20
ATOM     20  O   UNL     1      24.886  21.604   6.633  1.00  0.00    -0.504 OA
ATOM     21  H   UNL     1      24.564  20.850   7.229  1.00  0.00     0.293 HD
ENDBRANCH  17  20
ENDBRANCH   1  12
BRANCH   2  22
ATOM     22  O   UNL     1      29.505  23.199   4.528  1.00  0.00    -0.502 OA
ATOM     23  H   UNL     1      28.547  23.376   4.807  1.00  0.00     0.293 HD
ENDBRANCH   2  22
BRANCH   6  24
ATOM     24  O   UNL     1      34.327  20.978   4.095  1.00  0.00    -0.507 OA
ATOM     25  H   UNL     1      34.212  21.972   4.225  1.00  0.00     0.293 HD
ENDBRANCH   6  24
BRANCH   8  26
ATOM     26  O   UNL     1      33.161  16.340   4.256  1.00  0.00    -0.508 OA
ATOM     27  H   UNL     1      33.956  16.039   4.807  1.00  0.00     0.293 HD
ENDBRANCH   8  26
TORSDOF 6
ENDMDL
MODEL 4
REMARK VINA RESULT:    -5.402      0.889      1.463
REMARK INTER + INTRA:          -6.813
REMARK INTER:                  -6.632
REMARK INTRA:                  -0.180
REMARK UNBOUND:                -0.305
REMARK SMILES O=c1c(O)c(-c2ccc(O)c(O)c2)oc2cc(O)cc(O)c12
REMARK SMILES IDX 5 1 3 2 2 3 1 4 22 5 20 6 19 7 17 8 16 9 15 10 14 11 6 12
REMARK SMILES IDX 7 13 8 14 9 15 13 16 11 17 10 18 12 20 4 22 21 24 18 26
REMARK H PARENT 10 19 12 21 4 23 21 25 18 27
REMARK Flexibility Score: inf
ROOT
ATOM      1  C   UNL     1      29.494  20.309   4.540  1.00  0.00     0.180 A 
ATOM      2  C   UNL     1      29.947  19.005   4.799  1.00  0.00     0.208 A 
ATOM      3  C   UNL     1      31.326  18.741   4.754  1.00  0.00     0.238 A 
ATOM      4  O   UNL     1      31.722  17.559   4.932  1.00  0.00    -0.285 OA
ATOM      5  C   UNL     1      32.235  19.788   4.467  1.00  0.00     0.111 A 
ATOM      6  C   UNL     1      33.654  19.644   4.435  1.00  0.00     0.134 A 
ATOM      7  C   UNL     1      34.448  20.717   4.012  1.00  0.00     0.093 A 
ATOM      8  C   UNL     1      33.881  21.947   3.683  1.00  0.00     0.123 A 
ATOM      9  C   UNL     1      32.498  22.117   3.768  1.00  0.00     0.094 A 
ATOM     10  C   UNL     1      31.677  21.054   4.152  1.00  0.00     0.146 A 
ATOM     11  O   UNL     1      30.366  21.255   4.210  1.00  0.00    -0.452 OA
ENDROOT
BRANCH   1  12
ATOM     12  C   UNL     1      28.059  20.670   4.594  1.00  0.00     0.025 A 
ATOM     13  C   UNL     1      27.183  20.167   3.619  1.00  0.00     0.016 A 
ATOM     14  C   UNL     1      25.829  20.511   3.639  1.00  0.00     0.051 A 
ATOM     15  C   UNL     1      25.334  21.374   4.624  1.00  0.00     0.157 A 
ATOM     16  C   UNL     1      27.561  21.553   5.569  1.00  0.00     0.062 A 
ATOM     17  C   UNL     1      26.207  21.901   5.591  1.00  0.00     0.158 A 
BRANCH  15  18
ATOM     18  O   UNL     1      23.982  21.715   4.643  1.00  0.00    -0.504 OA
ATOM     19  H   UNL     1      23.321  21.229   5.237  1.00  0.00     0.293 HD
ENDBRANCH  15  18
BRANCH  17  20
ATOM     20  O   UNL     1      25.747  22.775   6.576  1.00  0.00    -0.504 OA
ATOM     21  H   UNL     1      24.891  22.605   7.091  1.00  0.00     0.293 HD
ENDBRANCH  17  20
ENDBRANCH   1  12
BRANCH   2  22
ATOM     22  O   UNL     1      29.032  17.981   5.058  1.00  0.00    -0.502 OA
ATOM     23  H   UNL     1      29.136  17.049   4.675  1.00  0.00     0.293 HD
ENDBRANCH   2  22
BRANCH   6  24
ATOM     24  O   UNL     1      34.330  18.486   4.831  1.00  0.00    -0.507 OA
ATOM     25  H   UNL     1      35.311  18.444   5.061  1.00  0.00     0.293 HD
ENDBRANCH   6  24
BRANCH   8  26
ATOM     26  O   UNL     1      34.703  22.998   3.282  1.00  0.00    -0.508 OA
ATOM     27  H   UNL     1      35.684  23.028   3.533  1.00  0.00     0.293 HD
ENDBRANCH   8  26
TORSDOF 6
ENDMDL
MODEL 5
REMARK VINA RESULT:    -5.252      2.163      3.844
REMARK INTER + INTRA:          -6.632
REMARK INTER:                  -6.341
REMARK INTRA:                  -0.291
REMARK UNBOUND:                -0.305
REMARK SMILES O=c1c(O)c(-c2ccc(O)c(O)c2)oc2cc(O)cc(O)c12
REMARK SMILES IDX 5 1 3 2 2 3 1 4 22 5 20 6 19 7 17 8 16 9 15 10 14 11 6 12
REMARK SMILES IDX 7 13 8 14 9 15 13 16 11 17 10 18 12 20 4 22 21 24 18 26
REMARK H PARENT 10 19 12 21 4 23 21 25 18 27
REMARK Flexibility Score: inf
ROOT
ATOM      1  C   UNL     1      30.419  19.289   4.336  1.00  0.00     0.180 A 
ATOM      2  C   UNL     1      31.366  20.323   4.442  1.00  0.00     0.208 A 
ATOM      3  C   UNL     1      32.720  20.032   4.211  1.00  0.00     0.238 A 
ATOM      4  O   UNL     1      33.570  20.950   4.362  1.00  0.00    -0.285 OA
ATOM      5  C   UNL     1      33.110  18.717   3.862  1.00  0.00     0.111 A 
ATOM      6  C   UNL     1      34.447  18.318   3.567  1.00  0.00     0.134 A 
ATOM      7  C   UNL     1      34.735  16.963   3.361  1.00  0.00     0.093 A 
ATOM      8  C   UNL     1      33.725  16.003   3.374  1.00  0.00     0.123 A 
ATOM      9  C   UNL     1      32.404  16.389   3.603  1.00  0.00     0.094 A 
ATOM     10  C   UNL     1      32.091  17.728   3.847  1.00  0.00     0.146 A 
ATOM     11  O   UNL     1      30.823  18.052   4.071  1.00  0.00    -0.452 OA
ENDROOT
BRANCH   1  12
ATOM     12  C   UNL     1      28.971  19.523   4.539  1.00  0.00     0.025 A 
ATOM     13  C   UNL     1      28.140  19.720   3.425  1.00  0.00     0.016 A 
ATOM     14  C   UNL     1      26.775  19.963   3.595  1.00  0.00     0.051 A 
ATOM     15  C   UNL     1      26.223  20.028   4.881  1.00  0.00     0.157 A 
ATOM     16  C   UNL     1      28.417  19.610   5.830  1.00  0.00     0.062 A 
ATOM     17  C   UNL     1      27.051  19.855   6.003  1.00  0.00     0.158 A 
BRANCH  15  18
ATOM     18  O   UNL     1      24.860  20.269   5.048  1.00  0.00    -0.504 OA
ATOM     19  H   UNL     1      24.399  21.045   4.588  1.00  0.00     0.293 HD
ENDBRANCH  15  18
BRANCH  17  20
ATOM     20  O   UNL     1      26.535  19.929   7.297  1.00  0.00    -0.504 OA
ATOM     21  H   UNL     1      26.980  20.477   8.024  1.00  0.00     0.293 HD
ENDBRANCH  17  20
ENDBRANCH   1  12
BRANCH   2  22
ATOM     22  O   UNL     1      30.964  21.610   4.810  1.00  0.00    -0.502 OA
ATOM     23  H   UNL     1      30.830  21.883   5.776  1.00  0.00     0.293 HD
ENDBRANCH   2  22
BRANCH   6  24
ATOM     24  O   UNL     1      35.517  19.210   3.439  1.00  0.00    -0.507 OA
ATOM     25  H   UNL     1      35.534  20.145   3.816  1.00  0.00     0.293 HD
ENDBRANCH   6  24
BRANCH   8  26
ATOM     26  O   UNL     1      34.046  14.665   3.149  1.00  0.00    -0.508 OA
ATOM     27  H   UNL     1      33.612  13.920   3.681  1.00  0.00     0.293 HD
ENDBRANCH   8  26
TORSDOF 6
ENDMDL
MODEL 6
REMARK VINA RESULT:    -5.143      2.115      3.213
REMARK INTER + INTRA:          -6.500
REMARK INTER:                  -6.168
REMARK INTRA:                  -0.332
REMARK UNBOUND:                -0.305
REMARK SMILES O=c1c(O)c(-c2ccc(O)c(O)c2)oc2cc(O)cc(O)c12
REMARK SMILES IDX 5 1 3 2 2 3 1 4 22 5 20 6 19 7 17 8 16 9 15 10 14 11 6 12
REMARK SMILES IDX 7 13 8 14 9 15 13 16 11 17 10 18 12 20 4 22 21 24 18 26
REMARK H PARENT 10 19 12 21 4 23 21 25 18 27
REMARK Flexibility Score: inf
ROOT
ATOM      1  C   UNL     1      31.196  20.164   4.426  1.00  0.00     0.180 A 
ATOM      2  C   UNL     1      32.279  19.304   4.678  1.00  0.00     0.208 A 
ATOM      3  C   UNL     1      33.585  19.809   4.584  1.00  0.00     0.238 A 
ATOM      4  O   UNL     1      34.553  19.021   4.756  1.00  0.00    -0.285 OA
ATOM      5  C   UNL     1      33.794  21.171   4.255  1.00  0.00     0.111 A 
ATOM      6  C   UNL     1      35.072  21.798   4.171  1.00  0.00     0.134 A 
ATOM      7  C   UNL     1      35.165  23.118   3.711  1.00  0.00     0.093 A 
ATOM      8  C   UNL     1      34.023  23.852   3.394  1.00  0.00     0.123 A 
ATOM      9  C   UNL     1      32.764  23.267   3.529  1.00  0.00     0.094 A 
ATOM     10  C   UNL     1      32.642  21.941   3.952  1.00  0.00     0.146 A 
ATOM     11  O   UNL     1      31.425  21.419   4.056  1.00  0.00    -0.452 OA
ENDROOT
BRANCH   1  12
ATOM     12  C   UNL     1      29.790  19.712   4.530  1.00  0.00     0.025 A 
ATOM     13  C   UNL     1      29.111  19.295   3.375  1.00  0.00     0.016 A 
ATOM     14  C   UNL     1      27.777  18.884   3.447  1.00  0.00     0.051 A 
ATOM     15  C   UNL     1      27.099  18.898   4.672  1.00  0.00     0.157 A 
ATOM     16  C   UNL     1      29.099  19.744   5.755  1.00  0.00     0.062 A 
ATOM     17  C   UNL     1      27.763  19.335   5.831  1.00  0.00     0.158 A 
BRANCH  15  18
ATOM     18  O   UNL     1      25.769  18.486   4.742  1.00  0.00    -0.504 OA
ATOM     19  H   UNL     1      25.468  17.598   4.357  1.00  0.00     0.293 HD
ENDBRANCH  15  18
BRANCH  17  20
ATOM     20  O   UNL     1      27.111  19.375   7.062  1.00  0.00    -0.504 OA
ATOM     21  H   UNL     1      26.346  18.750   7.288  1.00  0.00     0.293 HD
ENDBRANCH  17  20
ENDBRANCH   1  12
BRANCH   2  22
ATOM     22  O   UNL     1      32.053  17.958   4.979  1.00  0.00    -0.502 OA
ATOM     23  H   UNL     1      32.747  17.378   5.433  1.00  0.00     0.293 HD
ENDBRANCH   2  22
BRANCH   6  24
ATOM     24  O   UNL     1      36.270  21.185   4.552  1.00  0.00    -0.507 OA
ATOM     25  H   UNL     1      36.596  20.297   4.203  1.00  0.00     0.293 HD
ENDBRANCH   6  24
BRANCH   8  26
ATOM     26  O   UNL     1      34.153  25.168   2.954  1.00  0.00    -0.508 OA
ATOM     27  H   UNL     1      33.352  25.702   2.638  1.00  0.00     0.293 HD
ENDBRANCH   8  26
TORSDOF 6
ENDMDL
MODEL 7
REMARK VINA RESULT:    -4.931      2.684      6.553
REMARK INTER + INTRA:          -6.244
REMARK INTER:                  -6.654
REMARK INTRA:                   0.410
REMARK UNBOUND:                -0.305
REMARK SMILES O=c1c(O)c(-c2ccc(O)c(O)c2)oc2cc(O)cc(O)c12
REMARK SMILES IDX 5 1 3 2 2 3 1 4 22 5 20 6 19 7 17 8 16 9 15 10 14 11 6 12
REMARK SMILES IDX 7 13 8 14 9 15 13 16 11 17 10 18 12 20 4 22 21 24 18 26
REMARK H PARENT 10 19 12 21 4 23 21 25 18 27
REMARK Flexibility Score: inf
ROOT
ATOM      1  C   UNL     1      29.399  23.114   4.528  1.00  0.00     0.180 A 
ATOM      2  C   UNL     1      29.981  21.860   4.280  1.00  0.00     0.208 A 
ATOM      3  C   UNL     1      29.197  20.704   4.422  1.00  0.00     0.238 A 
ATOM      4  O   UNL     1      29.740  19.580   4.252  1.00  0.00    -0.285 OA
ATOM      5  C   UNL     1      27.836  20.816   4.795  1.00  0.00     0.111 A 
ATOM      6  C   UNL     1      26.938  19.716   4.930  1.00  0.00     0.134 A 
ATOM      7  C   UNL     1      25.648  19.934   5.430  1.00  0.00     0.093 A 
ATOM      8  C   UNL     1      25.203  21.219   5.738  1.00  0.00     0.123 A 
ATOM      9  C   UNL     1      26.054  22.309   5.554  1.00  0.00     0.094 A 
ATOM     10  C   UNL     1      27.357  22.119   5.090  1.00  0.00     0.146 A 
ATOM     11  O   UNL     1      28.138  23.183   4.940  1.00  0.00    -0.452 OA
ENDROOT
BRANCH   1  12
ATOM     12  C   UNL     1      30.154  24.378   4.375  1.00  0.00     0.025 A 
ATOM     13  C   UNL     1      29.604  25.575   4.860  1.00  0.00     0.016 A 
ATOM     14  C   UNL     1      30.290  26.782   4.707  1.00  0.00     0.051 A 
ATOM     15  C   UNL     1      31.528  26.813   4.054  1.00  0.00     0.157 A 
ATOM     16  C   UNL     1      31.388  24.417   3.700  1.00  0.00     0.062 A 
ATOM     17  C   UNL     1      32.077  25.624   3.544  1.00  0.00     0.158 A 
BRANCH  15  18
ATOM     18  O   UNL     1      32.212  28.020   3.904  1.00  0.00    -0.504 OA
ATOM     19  H   UNL     1      33.120  28.170   4.328  1.00  0.00     0.293 HD
ENDBRANCH  15  18
BRANCH  17  20
ATOM     20  O   UNL     1      33.301  25.625   2.876  1.00  0.00    -0.504 OA
ATOM     21  H   UNL     1      33.975  24.875   2.984  1.00  0.00     0.293 HD
ENDBRANCH  17  20
ENDBRANCH   1  12
BRANCH   2  22
ATOM     22  O   UNL     1      31.333  21.768   3.935  1.00  0.00    -0.502 OA
ATOM     23  H   UNL     1      32.069  21.719   4.628  1.00  0.00     0.293 HD
ENDBRANCH   2  22
BRANCH   6  24
ATOM     24  O   UNL     1      27.251  18.404   4.563  1.00  0.00    -0.507 OA
ATOM     25  H   UNL     1      28.156  17.974   4.683  1.00  0.00     0.293 HD
ENDBRANCH   6  24
BRANCH   8  26
ATOM     26  O   UNL     1      23.908  21.400   6.219  1.00  0.00    -0.508 OA
ATOM     27  H   UNL     1      23.397  22.260   6.055  1.00  0.00     0.293 HD
ENDBRANCH   8  26
TORSDOF 6
ENDMDL
MODEL 8
REMARK VINA RESULT:    -4.829      2.986      6.299
REMARK INTER + INTRA:          -6.123
REMARK INTER:                  -6.378
REMARK INTRA:                   0.256
REMARK UNBOUND:                -0.305
REMARK SMILES O=c1c(O)c(-c2ccc(O)c(O)c2)oc2cc(O)cc(O)c12
REMARK SMILES IDX 5 1 3 2 2 3 1 4 22 5 20 6 19 7 17 8 16 9 15 10 14 11 6 12
REMARK SMILES IDX 7 13 8 14 9 15 13 16 11 17 10 18 12 20 4 22 21 24 18 26
REMARK H PARENT 10 19 12 21 4 23 21 25 18 27
REMARK Flexibility Score: inf
ROOT
ATOM      1  C   UNL     1      29.614  22.980   4.422  1.00  0.00     0.180 A 
ATOM      2  C   UNL     1      30.405  21.819   4.468  1.00  0.00     0.208 A 
ATOM      3  C   UNL     1      29.775  20.570   4.589  1.00  0.00     0.238 A 
ATOM      4  O   UNL     1      30.491  19.538   4.685  1.00  0.00    -0.285 OA
ATOM      5  C   UNL     1      28.363  20.495   4.645  1.00  0.00     0.111 A 
ATOM      6  C   UNL     1      27.617  19.281   4.726  1.00  0.00     0.134 A 
ATOM      7  C   UNL     1      26.229  19.333   4.907  1.00  0.00     0.093 A 
ATOM      8  C   UNL     1      25.553  20.552   4.945  1.00  0.00     0.123 A 
ATOM      9  C   UNL     1      26.266  21.744   4.807  1.00  0.00     0.094 A 
ATOM     10  C   UNL     1      27.655  21.725   4.660  1.00  0.00     0.146 A 
ATOM     11  O   UNL     1      28.295  22.882   4.543  1.00  0.00    -0.452 OA
ENDROOT
BRANCH   1  12
ATOM     12  C   UNL     1      30.204  24.329   4.271  1.00  0.00     0.025 A 
ATOM     13  C   UNL     1      31.369  24.492   3.504  1.00  0.00     0.016 A 
ATOM     14  C   UNL     1      31.955  25.753   3.366  1.00  0.00     0.051 A 
ATOM     15  C   UNL     1      31.393  26.867   4.002  1.00  0.00     0.157 A 
ATOM     16  C   UNL     1      29.655  25.447   4.926  1.00  0.00     0.062 A 
ATOM     17  C   UNL     1      30.239  26.710   4.790  1.00  0.00     0.158 A 
BRANCH  15  18
ATOM     18  O   UNL     1      31.978  28.125   3.861  1.00  0.00    -0.504 OA
ATOM     19  H   UNL     1      32.979  28.235   3.757  1.00  0.00     0.293 HD
ENDBRANCH  15  18
BRANCH  17  20
ATOM     20  O   UNL     1      29.665  27.797   5.449  1.00  0.00    -0.504 OA
ATOM     21  H   UNL     1      29.298  28.598   4.949  1.00  0.00     0.293 HD
ENDBRANCH  17  20
ENDBRANCH   1  12
BRANCH   2  22
ATOM     22  O   UNL     1      31.799  21.916   4.434  1.00  0.00    -0.502 OA
ATOM     23  H   UNL     1      32.404  21.212   4.841  1.00  0.00     0.293 HD
ENDBRANCH   2  22
BRANCH   6  24
ATOM     24  O   UNL     1      28.183  18.008   4.608  1.00  0.00    -0.507 OA
ATOM     25  H   UNL     1      27.691  17.143   4.771  1.00  0.00     0.293 HD
ENDBRANCH   6  24
BRANCH   8  26
ATOM     26  O   UNL     1      24.170  20.565   5.111  1.00  0.00    -0.508 OA
ATOM     27  H   UNL     1      23.731  21.092   5.857  1.00  0.00     0.293 HD
ENDBRANCH   8  26
TORSDOF 6
ENDMDL
MODEL 9
REMARK VINA RESULT:    -4.799      2.307      7.542
REMARK INTER + INTRA:          -6.086
REMARK INTER:                  -6.560
REMARK INTRA:                   0.474
REMARK UNBOUND:                -0.305
REMARK SMILES O=c1c(O)c(-c2ccc(O)c(O)c2)oc2cc(O)cc(O)c12
REMARK SMILES IDX 5 1 3 2 2 3 1 4 22 5 20 6 19 7 17 8 16 9 15 10 14 11 6 12
REMARK SMILES IDX 7 13 8 14 9 15 13 16 11 17 10 18 12 20 4 22 21 24 18 26
REMARK H PARENT 10 19 12 21 4 23 21 25 18 27
REMARK Flexibility Score: inf
ROOT
ATOM      1  C   UNL     1      31.702  18.907   4.066  1.00  0.00     0.180 A 
ATOM      2  C   UNL     1      31.921  20.288   4.207  1.00  0.00     0.208 A 
ATOM      3  C   UNL     1      30.823  21.130   4.447  1.00  0.00     0.238 A 
ATOM      4  O   UNL     1      31.018  22.373   4.517  1.00  0.00    -0.285 OA
ATOM      5  C   UNL     1      29.523  20.581   4.560  1.00  0.00     0.111 A 
ATOM      6  C   UNL     1      28.345  21.334   4.841  1.00  0.00     0.134 A 
ATOM      7  C   UNL     1      27.095  20.704   4.801  1.00  0.00     0.093 A 
ATOM      8  C   UNL     1      26.986  19.336   4.554  1.00  0.00     0.123 A 
ATOM      9  C   UNL     1      28.137  18.578   4.336  1.00  0.00     0.094 A 
ATOM     10  C   UNL     1      29.395  19.185   4.335  1.00  0.00     0.146 A 
ATOM     11  O   UNL     1      30.464  18.429   4.112  1.00  0.00    -0.452 OA
ENDROOT
BRANCH   1  12
ATOM     12  C   UNL     1      32.811  17.953   3.837  1.00  0.00     0.025 A 
ATOM     13  C   UNL     1      32.555  16.574   3.880  1.00  0.00     0.016 A 
ATOM     14  C   UNL     1      33.591  15.656   3.688  1.00  0.00     0.051 A 
ATOM     15  C   UNL     1      34.900  16.103   3.465  1.00  0.00     0.157 A 
ATOM     16  C   UNL     1      34.130  18.399   3.634  1.00  0.00     0.062 A 
ATOM     17  C   UNL     1      35.170  17.482   3.443  1.00  0.00     0.158 A 
BRANCH  15  18
ATOM     18  O   UNL     1      35.932  15.185   3.271  1.00  0.00    -0.504 OA
ATOM     19  H   UNL     1      35.768  14.291   2.825  1.00  0.00     0.293 HD
ENDBRANCH  15  18
BRANCH  17  20
ATOM     20  O   UNL     1      36.464  17.959   3.238  1.00  0.00    -0.504 OA
ATOM     21  H   UNL     1      37.162  17.424   2.734  1.00  0.00     0.293 HD
ENDBRANCH  17  20
ENDBRANCH   1  12
BRANCH   2  22
ATOM     22  O   UNL     1      33.208  20.814   4.070  1.00  0.00    -0.502 OA
ATOM     23  H   UNL     1      33.825  20.956   4.860  1.00  0.00     0.293 HD
ENDBRANCH   2  22
BRANCH   6  24
ATOM     24  O   UNL     1      28.350  22.688   5.190  1.00  0.00    -0.507 OA
ATOM     25  H   UNL     1      28.539  23.042   6.116  1.00  0.00     0.293 HD
ENDBRANCH   6  24
BRANCH   8  26
ATOM     26  O   UNL     1      25.727  18.739   4.537  1.00  0.00    -0.508 OA
ATOM     27  H   UNL     1      25.052  18.948   3.811  1.00  0.00     0.293 HD
ENDBRANCH   8  26
TORSDOF 6
ENDMDL
