MODEL 1
REMARK VINA RESULT:    -4.312      0.000      0.000
REMARK INTER + INTRA:         -13.990
REMARK INTER:                 -10.866
REMARK INTRA:                  -3.124
REMARK UNBOUND:                -3.124
REMARK SMILES CCCCCCCCCCCCCCCCCCCCCCCCCCCC(=O)[O-]
REMARK SMILES IDX 15 1 16 2 17 3 18 4 19 5 20 6 21 7 22 8 23 9 24 10 25 11
REMARK SMILES IDX 26 12 27 13 28 14 29 15 30 16 14 17 13 18 12 19 11 20 10 21
REMARK SMILES IDX 9 22 8 23 7 24 6 25 5 26 4 27 3 28 2 29 1 30
REMARK H PARENT
REMARK Flexibility Score: inf
ROOT
ATOM      1  C   UNL     1      10.415  47.582  93.326  1.00  0.00     0.000 C 
ENDROOT
BRANCH   1   2
ATOM      2  C   UNL     1       9.499  46.345  93.360  1.00  0.00     0.000 C 
BRANCH   2   3
ATOM      3  C   UNL     1       8.865  46.032  94.732  1.00  0.00     0.000 C 
BRANCH   3   4
ATOM      4  C   UNL     1       9.739  45.188  95.679  1.00  0.00     0.000 C 
BRANCH   4   5
ATOM      5  C   UNL     1      10.733  44.244  94.977  1.00  0.00     0.000 C 
BRANCH   5   6
ATOM      6  C   UNL     1      10.891  42.877  95.676  1.00  0.00     0.000 C 
BRANCH   6   7
ATOM      7  C   UNL     1      12.334  42.355  95.631  1.00  0.00     0.000 C 
BRANCH   7   8
ATOM      8  C   UNL     1      12.946  42.547  94.237  1.00  0.00     0.000 C 
BRANCH   8   9
ATOM      9  C   UNL     1      14.480  42.571  94.308  1.00  0.00     0.000 C 
BRANCH   9  10
ATOM     10  C   UNL     1      15.133  41.627  93.285  1.00  0.00     0.000 C 
BRANCH  10  11
ATOM     11  C   UNL     1      16.288  42.295  92.519  1.00  0.00     0.000 C 
BRANCH  11  12
ATOM     12  C   UNL     1      15.795  43.182  91.365  1.00  0.00     0.006 C 
BRANCH  12  13
ATOM     13  C   UNL     1      16.834  44.231  90.947  1.00  0.00     0.053 C 
BRANCH  13  14
ATOM     14  C   UNL     1      17.276  45.031  92.131  1.00  0.00     0.041 C 
ATOM     15  O   UNL     1      16.469  45.804  92.711  1.00  0.00    -0.550 OA
ATOM     16  O   UNL     1      18.569  44.892  92.620  1.00  0.00    -0.550 OA
ENDBRANCH  13  14
ENDBRANCH  12  13
ENDBRANCH  11  12
ENDBRANCH  10  11
ENDBRANCH   9  10
ENDBRANCH   8   9
ENDBRANCH   7   8
ENDBRANCH   6   7
ENDBRANCH   5   6
ENDBRANCH   4   5
ENDBRANCH   3   4
ENDBRANCH   2   3
ENDBRANCH   1   2
BRANCH   1  17
ATOM     17  C   UNL     1       9.769  48.786  92.619  1.00  0.00     0.000 C 
BRANCH  17  18
ATOM     18  C   UNL     1       9.369  49.901  93.598  1.00  0.00     0.000 C 
BRANCH  18  19
ATOM     19  C   UNL     1       8.036  49.611  94.310  1.00  0.00     0.000 C 
BRANCH  19  20
ATOM     20  C   UNL     1       7.990  50.176  95.739  1.00  0.00     0.000 C 
BRANCH  20  21
ATOM     21  C   UNL     1       8.438  49.201  96.845  1.00  0.00     0.000 C 
BRANCH  21  22
ATOM     22  C   UNL     1       9.096  49.890  98.059  1.00  0.00    -0.000 C 
BRANCH  22  23
ATOM     23  C   UNL     1      10.579  49.507  98.219  1.00  0.00    -0.000 C 
BRANCH  23  24
ATOM     24  C   UNL     1      11.028  48.469  97.170  1.00  0.00    -0.000 C 
BRANCH  24  25
ATOM     25  C   UNL     1      12.183  48.956  96.277  1.00  0.00    -0.000 C 
BRANCH  25  26
ATOM     26  C   UNL     1      13.459  49.273  97.071  1.00  0.00    -0.000 C 
BRANCH  26  27
ATOM     27  C   UNL     1      13.908  50.720  96.838  1.00  0.00    -0.000 C 
BRANCH  27  28
ATOM     28  C   UNL     1      14.495  50.893  95.429  1.00  0.00    -0.000 C 
BRANCH  28  29
ATOM     29  C   UNL     1      15.599  49.871  95.120  1.00  0.00    -0.003 C 
ATOM     30  C   UNL     1      15.414  49.194  93.762  1.00  0.00     0.004 C 
ENDBRANCH  28  29
ENDBRANCH  27  28
ENDBRANCH  26  27
ENDBRANCH  25  26
ENDBRANCH  24  25
ENDBRANCH  23  24
ENDBRANCH  22  23
ENDBRANCH  21  22
ENDBRANCH  20  21
ENDBRANCH  19  20
ENDBRANCH  18  19
ENDBRANCH  17  18
ENDBRANCH   1  17
TORSDOF 26
ENDMDL
MODEL 2
REMARK VINA RESULT:    -4.295      2.903      3.267
REMARK INTER + INTRA:         -13.948
REMARK INTER:                 -11.085
REMARK INTRA:                  -2.864
REMARK UNBOUND:                -3.124
REMARK SMILES CCCCCCCCCCCCCCCCCCCCCCCCCCCC(=O)[O-]
REMARK SMILES IDX 15 1 16 2 17 3 18 4 19 5 20 6 21 7 22 8 23 9 24 10 25 11
REMARK SMILES IDX 26 12 27 13 28 14 29 15 30 16 14 17 13 18 12 19 11 20 10 21
REMARK SMILES IDX 9 22 8 23 7 24 6 25 5 26 4 27 3 28 2 29 1 30
REMARK H PARENT
REMARK Flexibility Score: inf
ROOT
ATOM      1  C   UNL     1      10.371  47.807  93.277  1.00  0.00     0.000 C 
ENDROOT
BRANCH   1   2
ATOM      2  C   UNL     1       9.396  46.624  93.131  1.00  0.00     0.000 C 
BRANCH   2   3
ATOM      3  C   UNL     1       8.550  46.310  94.384  1.00  0.00     0.000 C 
BRANCH   3   4
ATOM      4  C   UNL     1       9.257  45.455  95.453  1.00  0.00     0.000 C 
BRANCH   4   5
ATOM      5  C   UNL     1      10.450  44.630  94.939  1.00  0.00     0.000 C 
BRANCH   5   6
ATOM      6  C   UNL     1      10.714  43.344  95.752  1.00  0.00     0.000 C 
BRANCH   6   7
ATOM      7  C   UNL     1      11.711  42.403  95.061  1.00  0.00     0.000 C 
BRANCH   7   8
ATOM      8  C   UNL     1      12.139  42.959  93.697  1.00  0.00     0.000 C 
BRANCH   8   9
ATOM      9  C   UNL     1      13.632  42.705  93.443  1.00  0.00     0.000 C 
BRANCH   9  10
ATOM     10  C   UNL     1      13.885  41.931  92.139  1.00  0.00     0.000 C 
BRANCH  10  11
ATOM     11  C   UNL     1      12.583  41.601  91.387  1.00  0.00     0.000 C 
BRANCH  11  12
ATOM     12  C   UNL     1      12.842  41.041  89.980  1.00  0.00     0.006 C 
BRANCH  12  13
ATOM     13  C   UNL     1      12.170  39.680  89.756  1.00  0.00     0.053 C 
BRANCH  13  14
ATOM     14  C   UNL     1      13.150  38.698  89.198  1.00  0.00     0.041 C 
ATOM     15  O   UNL     1      14.356  39.025  89.044  1.00  0.00    -0.550 OA
ATOM     16  O   UNL     1      12.740  37.408  88.884  1.00  0.00    -0.550 OA
ENDBRANCH  13  14
ENDBRANCH  12  13
ENDBRANCH  11  12
ENDBRANCH  10  11
ENDBRANCH   9  10
ENDBRANCH   8   9
ENDBRANCH   7   8
ENDBRANCH   6   7
ENDBRANCH   5   6
ENDBRANCH   4   5
ENDBRANCH   3   4
ENDBRANCH   2   3
ENDBRANCH   1   2
BRANCH   1  17
ATOM     17  C   UNL     1       9.963  49.027  92.433  1.00  0.00     0.000 C 
BRANCH  17  18
ATOM     18  C   UNL     1       9.592  50.244  93.295  1.00  0.00     0.000 C 
BRANCH  18  19
ATOM     19  C   UNL     1       8.153  50.166  93.837  1.00  0.00     0.000 C 
BRANCH  19  20
ATOM     20  C   UNL     1       8.079  50.375  95.359  1.00  0.00     0.000 C 
BRANCH  20  21
ATOM     21  C   UNL     1       8.549  49.179  96.208  1.00  0.00     0.000 C 
BRANCH  21  22
ATOM     22  C   UNL     1       8.796  49.524  97.693  1.00  0.00    -0.000 C 
BRANCH  22  23
ATOM     23  C   UNL     1      10.291  49.495  98.061  1.00  0.00    -0.000 C 
BRANCH  23  24
ATOM     24  C   UNL     1      11.092  48.522  97.169  1.00  0.00    -0.000 C 
BRANCH  24  25
ATOM     25  C   UNL     1      12.287  49.180  96.459  1.00  0.00    -0.000 C 
BRANCH  25  26
ATOM     26  C   UNL     1      13.376  49.650  97.434  1.00  0.00    -0.000 C 
BRANCH  26  27
ATOM     27  C   UNL     1      14.155  50.839  96.859  1.00  0.00    -0.000 C 
BRANCH  27  28
ATOM     28  C   UNL     1      14.148  50.809  95.323  1.00  0.00    -0.000 C 
BRANCH  28  29
ATOM     29  C   UNL     1      15.535  50.515  94.732  1.00  0.00    -0.003 C 
ATOM     30  C   UNL     1      15.891  49.029  94.772  1.00  0.00     0.004 C 
ENDBRANCH  28  29
ENDBRANCH  27  28
ENDBRANCH  26  27
ENDBRANCH  25  26
ENDBRANCH  24  25
ENDBRANCH  23  24
ENDBRANCH  22  23
ENDBRANCH  21  22
ENDBRANCH  20  21
ENDBRANCH  19  20
ENDBRANCH  18  19
ENDBRANCH  17  18
ENDBRANCH   1  17
TORSDOF 26
ENDMDL
MODEL 3
REMARK VINA RESULT:    -4.202      2.412      6.584
REMARK INTER + INTRA:         -13.712
REMARK INTER:                 -10.643
REMARK INTRA:                  -3.070
REMARK UNBOUND:                -3.124
REMARK SMILES CCCCCCCCCCCCCCCCCCCCCCCCCCCC(=O)[O-]
REMARK SMILES IDX 15 1 16 2 17 3 18 4 19 5 20 6 21 7 22 8 23 9 24 10 25 11
REMARK SMILES IDX 26 12 27 13 28 14 29 15 30 16 14 17 13 18 12 19 11 20 10 21
REMARK SMILES IDX 9 22 8 23 7 24 6 25 5 26 4 27 3 28 2 29 1 30
REMARK H PARENT
REMARK Flexibility Score: inf
ROOT
ATOM      1  C   UNL     1      11.381  48.946  97.340  1.00  0.00     0.000 C 
ENDROOT
BRANCH   1   2
ATOM      2  C   UNL     1      10.431  49.481  98.427  1.00  0.00     0.000 C 
BRANCH   2   3
ATOM      3  C   UNL     1       9.057  49.969  97.919  1.00  0.00     0.000 C 
BRANCH   3   4
ATOM      4  C   UNL     1       8.295  48.968  97.030  1.00  0.00     0.000 C 
BRANCH   4   5
ATOM      5  C   UNL     1       7.398  47.976  97.792  1.00  0.00     0.000 C 
BRANCH   5   6
ATOM      6  C   UNL     1       7.652  46.498  97.424  1.00  0.00     0.000 C 
BRANCH   6   7
ATOM      7  C   UNL     1       9.143  46.132  97.449  1.00  0.00     0.000 C 
BRANCH   7   8
ATOM      8  C   UNL     1       9.506  45.223  96.268  1.00  0.00     0.000 C 
BRANCH   8   9
ATOM      9  C   UNL     1       9.344  45.964  94.932  1.00  0.00     0.000 C 
BRANCH   9  10
ATOM     10  C   UNL     1      10.560  46.841  94.593  1.00  0.00     0.000 C 
BRANCH  10  11
ATOM     11  C   UNL     1      10.874  46.857  93.087  1.00  0.00     0.000 C 
BRANCH  11  12
ATOM     12  C   UNL     1      10.759  45.465  92.447  1.00  0.00     0.006 C 
BRANCH  12  13
ATOM     13  C   UNL     1      12.070  44.671  92.529  1.00  0.00     0.053 C 
BRANCH  13  14
ATOM     14  C   UNL     1      11.878  43.288  91.992  1.00  0.00     0.041 C 
ATOM     15  O   UNL     1      11.963  42.293  92.758  1.00  0.00    -0.550 OA
ATOM     16  O   UNL     1      11.566  43.102  90.651  1.00  0.00    -0.550 OA
ENDBRANCH  13  14
ENDBRANCH  12  13
ENDBRANCH  11  12
ENDBRANCH  10  11
ENDBRANCH   9  10
ENDBRANCH   8   9
ENDBRANCH   7   8
ENDBRANCH   6   7
ENDBRANCH   5   6
ENDBRANCH   4   5
ENDBRANCH   3   4
ENDBRANCH   2   3
ENDBRANCH   1   2
BRANCH   1  17
ATOM     17  C   UNL     1      12.779  49.587  97.398  1.00  0.00     0.000 C 
BRANCH  17  18
ATOM     18  C   UNL     1      13.483  49.593  96.032  1.00  0.00     0.000 C 
BRANCH  18  19
ATOM     19  C   UNL     1      14.347  50.848  95.819  1.00  0.00     0.000 C 
BRANCH  19  20
ATOM     20  C   UNL     1      15.581  50.579  94.941  1.00  0.00     0.000 C 
BRANCH  20  21
ATOM     21  C   UNL     1      15.940  49.092  94.754  1.00  0.00     0.000 C 
BRANCH  21  22
ATOM     22  C   UNL     1      15.705  48.568  93.321  1.00  0.00    -0.000 C 
BRANCH  22  23
ATOM     23  C   UNL     1      16.724  47.487  92.917  1.00  0.00    -0.000 C 
BRANCH  23  24
ATOM     24  C   UNL     1      17.426  46.862  94.142  1.00  0.00    -0.000 C 
BRANCH  24  25
ATOM     25  C   UNL     1      18.682  46.049  93.783  1.00  0.00    -0.000 C 
BRANCH  25  26
ATOM     26  C   UNL     1      19.236  46.389  92.392  1.00  0.00    -0.000 C 
BRANCH  26  27
ATOM     27  C   UNL     1      19.349  45.132  91.521  1.00  0.00    -0.000 C 
BRANCH  27  28
ATOM     28  C   UNL     1      18.406  44.029  92.024  1.00  0.00    -0.000 C 
BRANCH  28  29
ATOM     29  C   UNL     1      17.065  44.013  91.277  1.00  0.00    -0.003 C 
ATOM     30  C   UNL     1      15.864  43.912  92.218  1.00  0.00     0.004 C 
ENDBRANCH  28  29
ENDBRANCH  27  28
ENDBRANCH  26  27
ENDBRANCH  25  26
ENDBRANCH  24  25
ENDBRANCH  23  24
ENDBRANCH  22  23
ENDBRANCH  21  22
ENDBRANCH  20  21
ENDBRANCH  19  20
ENDBRANCH  18  19
ENDBRANCH  17  18
ENDBRANCH   1  17
TORSDOF 26
ENDMDL
MODEL 4
REMARK VINA RESULT:    -4.177      2.929      6.062
REMARK INTER + INTRA:         -13.651
REMARK INTER:                 -10.160
REMARK INTRA:                  -3.491
REMARK UNBOUND:                -3.124
REMARK SMILES CCCCCCCCCCCCCCCCCCCCCCCCCCCC(=O)[O-]
REMARK SMILES IDX 15 1 16 2 17 3 18 4 19 5 20 6 21 7 22 8 23 9 24 10 25 11
REMARK SMILES IDX 26 12 27 13 28 14 29 15 30 16 14 17 13 18 12 19 11 20 10 21
REMARK SMILES IDX 9 22 8 23 7 24 6 25 5 26 4 27 3 28 2 29 1 30
REMARK H PARENT
REMARK Flexibility Score: inf
ROOT
ATOM      1  C   UNL     1      14.224  50.798  95.406  1.00  0.00     0.000 C 
ENDROOT
BRANCH   1   2
ATOM      2  C   UNL     1      15.629  50.538  94.833  1.00  0.00     0.000 C 
BRANCH   2   3
ATOM      3  C   UNL     1      15.957  49.059  94.537  1.00  0.00     0.000 C 
BRANCH   3   4
ATOM      4  C   UNL     1      15.256  48.469  93.299  1.00  0.00     0.000 C 
BRANCH   4   5
ATOM      5  C   UNL     1      16.200  47.850  92.253  1.00  0.00     0.000 C 
BRANCH   5   6
ATOM      6  C   UNL     1      16.054  46.319  92.111  1.00  0.00     0.000 C 
BRANCH   6   7
ATOM      7  C   UNL     1      17.346  45.567  92.464  1.00  0.00     0.000 C 
BRANCH   7   8
ATOM      8  C   UNL     1      18.448  46.542  92.899  1.00  0.00     0.000 C 
BRANCH   8   9
ATOM      9  C   UNL     1      19.763  46.251  92.160  1.00  0.00     0.000 C 
BRANCH   9  10
ATOM     10  C   UNL     1      19.555  46.023  90.654  1.00  0.00     0.000 C 
BRANCH  10  11
ATOM     11  C   UNL     1      19.919  47.260  89.814  1.00  0.00     0.000 C 
BRANCH  11  12
ATOM     12  C   UNL     1      19.108  48.502  90.214  1.00  0.00     0.006 C 
BRANCH  12  13
ATOM     13  C   UNL     1      18.409  49.157  89.014  1.00  0.00     0.053 C 
BRANCH  13  14
ATOM     14  C   UNL     1      19.337  50.105  88.323  1.00  0.00     0.041 C 
ATOM     15  O   UNL     1      19.619  51.213  88.849  1.00  0.00    -0.550 OA
ATOM     16  O   UNL     1      19.921  49.747  87.114  1.00  0.00    -0.550 OA
ENDBRANCH  13  14
ENDBRANCH  12  13
ENDBRANCH  11  12
ENDBRANCH  10  11
ENDBRANCH   9  10
ENDBRANCH   8   9
ENDBRANCH   7   8
ENDBRANCH   6   7
ENDBRANCH   5   6
ENDBRANCH   4   5
ENDBRANCH   3   4
ENDBRANCH   2   3
ENDBRANCH   1   2
BRANCH   1  17
ATOM     17  C   UNL     1      14.214  50.910  96.941  1.00  0.00     0.000 C 
BRANCH  17  18
ATOM     18  C   UNL     1      13.293  49.872  97.602  1.00  0.00     0.000 C 
BRANCH  18  19
ATOM     19  C   UNL     1      12.484  49.061  96.575  1.00  0.00     0.000 C 
BRANCH  19  20
ATOM     20  C   UNL     1      11.178  48.497  97.159  1.00  0.00     0.000 C 
BRANCH  20  21
ATOM     21  C   UNL     1      10.470  49.407  98.181  1.00  0.00     0.000 C 
BRANCH  21  22
ATOM     22  C   UNL     1       8.964  49.607  97.903  1.00  0.00    -0.000 C 
BRANCH  22  23
ATOM     23  C   UNL     1       8.368  48.469  97.055  1.00  0.00    -0.000 C 
BRANCH  23  24
ATOM     24  C   UNL     1       7.650  48.995  95.794  1.00  0.00    -0.000 C 
BRANCH  24  25
ATOM     25  C   UNL     1       8.603  49.617  94.758  1.00  0.00    -0.000 C 
BRANCH  25  26
ATOM     26  C   UNL     1       8.946  48.655  93.611  1.00  0.00    -0.000 C 
BRANCH  26  27
ATOM     27  C   UNL     1      10.459  48.425  93.520  1.00  0.00    -0.000 C 
BRANCH  27  28
ATOM     28  C   UNL     1      10.816  46.975  93.880  1.00  0.00    -0.000 C 
BRANCH  28  29
ATOM     29  C   UNL     1       9.575  46.101  94.114  1.00  0.00    -0.003 C 
ATOM     30  C   UNL     1       9.610  45.372  95.457  1.00  0.00     0.004 C 
ENDBRANCH  28  29
ENDBRANCH  27  28
ENDBRANCH  26  27
ENDBRANCH  25  26
ENDBRANCH  24  25
ENDBRANCH  23  24
ENDBRANCH  22  23
ENDBRANCH  21  22
ENDBRANCH  20  21
ENDBRANCH  19  20
ENDBRANCH  18  19
ENDBRANCH  17  18
ENDBRANCH   1  17
TORSDOF 26
ENDMDL
MODEL 5
REMARK VINA RESULT:    -4.149      1.777      5.321
REMARK INTER + INTRA:         -13.580
REMARK INTER:                 -10.189
REMARK INTRA:                  -3.391
REMARK UNBOUND:                -3.124
REMARK SMILES CCCCCCCCCCCCCCCCCCCCCCCCCCCC(=O)[O-]
REMARK SMILES IDX 15 1 16 2 17 3 18 4 19 5 20 6 21 7 22 8 23 9 24 10 25 11
REMARK SMILES IDX 26 12 27 13 28 14 29 15 30 16 14 17 13 18 12 19 11 20 10 21
REMARK SMILES IDX 9 22 8 23 7 24 6 25 5 26 4 27 3 28 2 29 1 30
REMARK H PARENT
REMARK Flexibility Score: inf
ROOT
ATOM      1  C   UNL     1      11.551  48.886  97.377  1.00  0.00     0.000 C 
ENDROOT
BRANCH   1   2
ATOM      2  C   UNL     1      12.793  49.774  97.580  1.00  0.00     0.000 C 
BRANCH   2   3
ATOM      3  C   UNL     1      13.969  49.491  96.621  1.00  0.00     0.000 C 
BRANCH   3   4
ATOM      4  C   UNL     1      14.334  50.650  95.674  1.00  0.00     0.000 C 
BRANCH   4   5
ATOM      5  C   UNL     1      15.571  50.402  94.792  1.00  0.00     0.000 C 
BRANCH   5   6
ATOM      6  C   UNL     1      15.455  49.149  93.897  1.00  0.00     0.000 C 
BRANCH   6   7
ATOM      7  C   UNL     1      16.487  48.070  94.254  1.00  0.00     0.000 C 
BRANCH   7   8
ATOM      8  C   UNL     1      16.972  47.333  92.999  1.00  0.00     0.000 C 
BRANCH   8   9
ATOM      9  C   UNL     1      15.787  46.886  92.130  1.00  0.00     0.000 C 
BRANCH   9  10
ATOM     10  C   UNL     1      15.886  45.410  91.712  1.00  0.00     0.000 C 
BRANCH  10  11
ATOM     11  C   UNL     1      16.194  44.480  92.899  1.00  0.00     0.000 C 
BRANCH  11  12
ATOM     12  C   UNL     1      16.008  42.996  92.548  1.00  0.00     0.006 C 
BRANCH  12  13
ATOM     13  C   UNL     1      14.529  42.588  92.488  1.00  0.00     0.053 C 
BRANCH  13  14
ATOM     14  C   UNL     1      13.943  42.545  93.863  1.00  0.00     0.041 C 
ATOM     15  O   UNL     1      12.779  42.976  94.070  1.00  0.00    -0.550 OA
ATOM     16  O   UNL     1      14.669  41.993  94.911  1.00  0.00    -0.550 OA
ENDBRANCH  13  14
ENDBRANCH  12  13
ENDBRANCH  11  12
ENDBRANCH  10  11
ENDBRANCH   9  10
ENDBRANCH   8   9
ENDBRANCH   7   8
ENDBRANCH   6   7
ENDBRANCH   5   6
ENDBRANCH   4   5
ENDBRANCH   3   4
ENDBRANCH   2   3
ENDBRANCH   1   2
BRANCH   1  17
ATOM     17  C   UNL     1      10.363  49.308  98.260  1.00  0.00     0.000 C 
BRANCH  17  18
ATOM     18  C   UNL     1       9.010  48.875  97.674  1.00  0.00     0.000 C 
BRANCH  18  19
ATOM     19  C   UNL     1       8.303  50.014  96.918  1.00  0.00     0.000 C 
BRANCH  19  20
ATOM     20  C   UNL     1       7.739  49.566  95.560  1.00  0.00     0.000 C 
BRANCH  20  21
ATOM     21  C   UNL     1       7.298  50.708  94.624  1.00  0.00     0.000 C 
BRANCH  21  22
ATOM     22  C   UNL     1       7.774  50.540  93.165  1.00  0.00    -0.000 C 
BRANCH  22  23
ATOM     23  C   UNL     1       8.682  51.696  92.707  1.00  0.00    -0.000 C 
BRANCH  23  24
ATOM     24  C   UNL     1      10.115  51.220  92.386  1.00  0.00    -0.000 C 
BRANCH  24  25
ATOM     25  C   UNL     1      10.333  49.717  92.628  1.00  0.00    -0.000 C 
BRANCH  25  26
ATOM     26  C   UNL     1      11.429  49.432  93.665  1.00  0.00    -0.000 C 
BRANCH  26  27
ATOM     27  C   UNL     1      11.547  47.929  93.944  1.00  0.00    -0.000 C 
BRANCH  27  28
ATOM     28  C   UNL     1      10.189  47.338  94.352  1.00  0.00    -0.000 C 
BRANCH  28  29
ATOM     29  C   UNL     1      10.058  45.852  93.987  1.00  0.00    -0.003 C 
ATOM     30  C   UNL     1       9.900  44.954  95.214  1.00  0.00     0.004 C 
ENDBRANCH  28  29
ENDBRANCH  27  28
ENDBRANCH  26  27
ENDBRANCH  25  26
ENDBRANCH  24  25
ENDBRANCH  23  24
ENDBRANCH  22  23
ENDBRANCH  21  22
ENDBRANCH  20  21
ENDBRANCH  19  20
ENDBRANCH  18  19
ENDBRANCH  17  18
ENDBRANCH   1  17
TORSDOF 26
ENDMDL
MODEL 6
REMARK VINA RESULT:    -4.083      1.884      2.698
REMARK INTER + INTRA:         -13.414
REMARK INTER:                 -10.074
REMARK INTRA:                  -3.340
REMARK UNBOUND:                -3.124
REMARK SMILES CCCCCCCCCCCCCCCCCCCCCCCCCCCC(=O)[O-]
REMARK SMILES IDX 15 1 16 2 17 3 18 4 19 5 20 6 21 7 22 8 23 9 24 10 25 11
REMARK SMILES IDX 26 12 27 13 28 14 29 15 30 16 14 17 13 18 12 19 11 20 10 21
REMARK SMILES IDX 9 22 8 23 7 24 6 25 5 26 4 27 3 28 2 29 1 30
REMARK H PARENT
REMARK Flexibility Score: inf
ROOT
ATOM      1  C   UNL     1       9.953  49.635  92.724  1.00  0.00     0.000 C 
ENDROOT
BRANCH   1   2
ATOM      2  C   UNL     1       9.581  48.559  91.687  1.00  0.00     0.000 C 
BRANCH   2   3
ATOM      3  C   UNL     1       9.612  47.106  92.206  1.00  0.00     0.000 C 
BRANCH   3   4
ATOM      4  C   UNL     1      10.679  46.817  93.279  1.00  0.00     0.000 C 
BRANCH   4   5
ATOM      5  C   UNL     1      10.763  45.348  93.732  1.00  0.00     0.000 C 
BRANCH   5   6
ATOM      6  C   UNL     1       9.971  45.048  95.022  1.00  0.00     0.000 C 
BRANCH   6   7
ATOM      7  C   UNL     1      10.352  43.699  95.649  1.00  0.00     0.000 C 
BRANCH   7   8
ATOM      8  C   UNL     1      11.578  43.095  94.953  1.00  0.00     0.000 C 
BRANCH   8   9
ATOM      9  C   UNL     1      12.303  42.103  95.875  1.00  0.00     0.000 C 
BRANCH   9  10
ATOM     10  C   UNL     1      13.821  42.340  95.919  1.00  0.00     0.000 C 
BRANCH  10  11
ATOM     11  C   UNL     1      14.541  41.786  94.677  1.00  0.00     0.000 C 
BRANCH  11  12
ATOM     12  C   UNL     1      14.932  42.890  93.683  1.00  0.00     0.006 C 
BRANCH  12  13
ATOM     13  C   UNL     1      15.260  42.335  92.290  1.00  0.00     0.053 C 
BRANCH  13  14
ATOM     14  C   UNL     1      14.042  42.348  91.422  1.00  0.00     0.041 C 
ATOM     15  O   UNL     1      13.928  41.523  90.478  1.00  0.00    -0.550 OA
ATOM     16  O   UNL     1      13.013  43.245  91.682  1.00  0.00    -0.550 OA
ENDBRANCH  13  14
ENDBRANCH  12  13
ENDBRANCH  11  12
ENDBRANCH  10  11
ENDBRANCH   9  10
ENDBRANCH   8   9
ENDBRANCH   7   8
ENDBRANCH   6   7
ENDBRANCH   5   6
ENDBRANCH   4   5
ENDBRANCH   3   4
ENDBRANCH   2   3
ENDBRANCH   1   2
BRANCH   1  17
ATOM     17  C   UNL     1       8.858  50.703  92.898  1.00  0.00     0.000 C 
BRANCH  17  18
ATOM     18  C   UNL     1       8.214  50.667  94.293  1.00  0.00     0.000 C 
BRANCH  18  19
ATOM     19  C   UNL     1       6.966  49.768  94.343  1.00  0.00     0.000 C 
BRANCH  19  20
ATOM     20  C   UNL     1       7.252  48.387  94.958  1.00  0.00     0.000 C 
BRANCH  20  21
ATOM     21  C   UNL     1       8.545  48.296  95.790  1.00  0.00     0.000 C 
BRANCH  21  22
ATOM     22  C   UNL     1       8.311  48.341  97.316  1.00  0.00    -0.000 C 
BRANCH  22  23
ATOM     23  C   UNL     1       8.544  49.744  97.904  1.00  0.00    -0.000 C 
BRANCH  23  24
ATOM     24  C   UNL     1       9.991  49.934  98.406  1.00  0.00    -0.000 C 
BRANCH  24  25
ATOM     25  C   UNL     1      10.927  48.770  98.038  1.00  0.00    -0.000 C 
BRANCH  25  26
ATOM     26  C   UNL     1      12.188  49.231  97.293  1.00  0.00    -0.000 C 
BRANCH  26  27
ATOM     27  C   UNL     1      12.147  48.799  95.822  1.00  0.00    -0.000 C 
BRANCH  27  28
ATOM     28  C   UNL     1      13.237  49.515  95.009  1.00  0.00    -0.000 C 
BRANCH  28  29
ATOM     29  C   UNL     1      14.544  49.687  95.797  1.00  0.00    -0.003 C 
ATOM     30  C   UNL     1      15.540  50.611  95.095  1.00  0.00     0.004 C 
ENDBRANCH  28  29
ENDBRANCH  27  28
ENDBRANCH  26  27
ENDBRANCH  25  26
ENDBRANCH  24  25
ENDBRANCH  23  24
ENDBRANCH  22  23
ENDBRANCH  21  22
ENDBRANCH  20  21
ENDBRANCH  19  20
ENDBRANCH  18  19
ENDBRANCH  17  18
ENDBRANCH   1  17
TORSDOF 26
ENDMDL
MODEL 7
REMARK VINA RESULT:    -4.074      2.116      5.489
REMARK INTER + INTRA:         -13.390
REMARK INTER:                 -10.490
REMARK INTRA:                  -2.900
REMARK UNBOUND:                -3.124
REMARK SMILES CCCCCCCCCCCCCCCCCCCCCCCCCCCC(=O)[O-]
REMARK SMILES IDX 15 1 16 2 17 3 18 4 19 5 20 6 21 7 22 8 23 9 24 10 25 11
REMARK SMILES IDX 26 12 27 13 28 14 29 15 30 16 14 17 13 18 12 19 11 20 10 21
REMARK SMILES IDX 9 22 8 23 7 24 6 25 5 26 4 27 3 28 2 29 1 30
REMARK H PARENT
REMARK Flexibility Score: inf
ROOT
ATOM      1  C   UNL     1       9.108  49.988  98.314  1.00  0.00     0.000 C 
ENDROOT
BRANCH   1   2
ATOM      2  C   UNL     1       9.647  49.069  97.202  1.00  0.00     0.000 C 
BRANCH   2   3
ATOM      3  C   UNL     1      11.078  48.535  97.425  1.00  0.00     0.000 C 
BRANCH   3   4
ATOM      4  C   UNL     1      12.152  49.615  97.651  1.00  0.00     0.000 C 
BRANCH   4   5
ATOM      5  C   UNL     1      13.435  49.439  96.818  1.00  0.00     0.000 C 
BRANCH   5   6
ATOM      6  C   UNL     1      14.254  50.738  96.656  1.00  0.00     0.000 C 
BRANCH   6   7
ATOM      7  C   UNL     1      15.093  50.750  95.370  1.00  0.00     0.000 C 
BRANCH   7   8
ATOM      8  C   UNL     1      15.034  49.390  94.661  1.00  0.00     0.000 C 
BRANCH   8   9
ATOM      9  C   UNL     1      16.386  48.666  94.745  1.00  0.00     0.000 C 
BRANCH   9  10
ATOM     10  C   UNL     1      16.542  47.581  93.667  1.00  0.00     0.000 C 
BRANCH  10  11
ATOM     11  C   UNL     1      15.880  47.974  92.335  1.00  0.00     0.000 C 
BRANCH  11  12
ATOM     12  C   UNL     1      16.617  47.394  91.118  1.00  0.00     0.006 C 
BRANCH  12  13
ATOM     13  C   UNL     1      18.114  47.734  91.122  1.00  0.00     0.053 C 
BRANCH  13  14
ATOM     14  C   UNL     1      18.923  46.524  91.466  1.00  0.00     0.041 C 
ATOM     15  O   UNL     1      18.717  45.434  90.872  1.00  0.00    -0.550 OA
ATOM     16  O   UNL     1      19.932  46.610  92.418  1.00  0.00    -0.550 OA
ENDBRANCH  13  14
ENDBRANCH  12  13
ENDBRANCH  11  12
ENDBRANCH  10  11
ENDBRANCH   9  10
ENDBRANCH   8   9
ENDBRANCH   7   8
ENDBRANCH   6   7
ENDBRANCH   5   6
ENDBRANCH   4   5
ENDBRANCH   3   4
ENDBRANCH   2   3
ENDBRANCH   1   2
BRANCH   1  17
ATOM     17  C   UNL     1       7.618  50.329  98.139  1.00  0.00     0.000 C 
BRANCH  17  18
ATOM     18  C   UNL     1       7.399  51.701  97.481  1.00  0.00     0.000 C 
BRANCH  18  19
ATOM     19  C   UNL     1       7.127  51.594  95.970  1.00  0.00     0.000 C 
BRANCH  19  20
ATOM     20  C   UNL     1       6.511  50.242  95.572  1.00  0.00     0.000 C 
BRANCH  20  21
ATOM     21  C   UNL     1       7.244  49.496  94.440  1.00  0.00     0.000 C 
BRANCH  21  22
ATOM     22  C   UNL     1       8.511  50.218  93.933  1.00  0.00    -0.000 C 
BRANCH  22  23
ATOM     23  C   UNL     1       9.340  49.344  92.974  1.00  0.00    -0.000 C 
BRANCH  23  24
ATOM     24  C   UNL     1      10.854  49.441  93.259  1.00  0.00    -0.000 C 
BRANCH  24  25
ATOM     25  C   UNL     1      11.409  48.246  94.052  1.00  0.00    -0.000 C 
BRANCH  25  26
ATOM     26  C   UNL     1      11.048  46.892  93.423  1.00  0.00    -0.000 C 
BRANCH  26  27
ATOM     27  C   UNL     1      10.320  45.994  94.430  1.00  0.00    -0.000 C 
BRANCH  27  28
ATOM     28  C   UNL     1      10.898  44.571  94.416  1.00  0.00    -0.000 C 
BRANCH  28  29
ATOM     29  C   UNL     1      10.432  43.732  95.615  1.00  0.00    -0.003 C 
ATOM     30  C   UNL     1      11.160  42.392  95.717  1.00  0.00     0.004 C 
ENDBRANCH  28  29
ENDBRANCH  27  28
ENDBRANCH  26  27
ENDBRANCH  25  26
ENDBRANCH  24  25
ENDBRANCH  23  24
ENDBRANCH  22  23
ENDBRANCH  21  22
ENDBRANCH  20  21
ENDBRANCH  19  20
ENDBRANCH  18  19
ENDBRANCH  17  18
ENDBRANCH   1  17
TORSDOF 26
ENDMDL
MODEL 8
REMARK VINA RESULT:    -4.056      3.195      7.407
REMARK INTER + INTRA:         -13.345
REMARK INTER:                 -10.097
REMARK INTRA:                  -3.247
REMARK UNBOUND:                -3.124
REMARK SMILES CCCCCCCCCCCCCCCCCCCCCCCCCCCC(=O)[O-]
REMARK SMILES IDX 15 1 16 2 17 3 18 4 19 5 20 6 21 7 22 8 23 9 24 10 25 11
REMARK SMILES IDX 26 12 27 13 28 14 29 15 30 16 14 17 13 18 12 19 11 20 10 21
REMARK SMILES IDX 9 22 8 23 7 24 6 25 5 26 4 27 3 28 2 29 1 30
REMARK H PARENT
REMARK Flexibility Score: inf
ROOT
ATOM      1  C   UNL     1      11.397  48.936  97.340  1.00  0.00     0.000 C 
ENDROOT
BRANCH   1   2
ATOM      2  C   UNL     1      10.462  49.453  98.449  1.00  0.00     0.000 C 
BRANCH   2   3
ATOM      3  C   UNL     1       9.102  49.997  97.964  1.00  0.00     0.000 C 
BRANCH   3   4
ATOM      4  C   UNL     1       8.349  49.087  96.975  1.00  0.00     0.000 C 
BRANCH   4   5
ATOM      5  C   UNL     1       7.489  47.989  97.628  1.00  0.00     0.000 C 
BRANCH   5   6
ATOM      6  C   UNL     1       7.718  46.584  97.031  1.00  0.00     0.000 C 
BRANCH   6   7
ATOM      7  C   UNL     1       9.206  46.216  96.937  1.00  0.00     0.000 C 
BRANCH   7   8
ATOM      8  C   UNL     1       9.516  45.514  95.609  1.00  0.00     0.000 C 
BRANCH   8   9
ATOM      9  C   UNL     1       9.457  46.503  94.435  1.00  0.00     0.000 C 
BRANCH   9  10
ATOM     10  C   UNL     1      10.804  47.200  94.184  1.00  0.00     0.000 C 
BRANCH  10  11
ATOM     11  C   UNL     1      10.650  48.713  93.948  1.00  0.00     0.000 C 
BRANCH  11  12
ATOM     12  C   UNL     1       9.386  49.057  93.143  1.00  0.00     0.006 C 
BRANCH  12  13
ATOM     13  C   UNL     1       9.617  48.979  91.627  1.00  0.00     0.053 C 
BRANCH  13  14
ATOM     14  C   UNL     1       8.338  49.224  90.892  1.00  0.00     0.041 C 
ATOM     15  O   UNL     1       7.784  48.290  90.255  1.00  0.00    -0.550 OA
ATOM     16  O   UNL     1       7.736  50.475  90.941  1.00  0.00    -0.550 OA
ENDBRANCH  13  14
ENDBRANCH  12  13
ENDBRANCH  11  12
ENDBRANCH  10  11
ENDBRANCH   9  10
ENDBRANCH   8   9
ENDBRANCH   7   8
ENDBRANCH   6   7
ENDBRANCH   5   6
ENDBRANCH   4   5
ENDBRANCH   3   4
ENDBRANCH   2   3
ENDBRANCH   1   2
BRANCH   1  17
ATOM     17  C   UNL     1      12.797  49.572  97.393  1.00  0.00     0.000 C 
BRANCH  17  18
ATOM     18  C   UNL     1      13.499  49.570  96.025  1.00  0.00     0.000 C 
BRANCH  18  19
ATOM     19  C   UNL     1      14.358  50.826  95.800  1.00  0.00     0.000 C 
BRANCH  19  20
ATOM     20  C   UNL     1      15.591  50.554  94.921  1.00  0.00     0.000 C 
BRANCH  20  21
ATOM     21  C   UNL     1      15.948  49.066  94.736  1.00  0.00     0.000 C 
BRANCH  21  22
ATOM     22  C   UNL     1      15.731  48.545  93.299  1.00  0.00    -0.000 C 
BRANCH  22  23
ATOM     23  C   UNL     1      16.754  47.464  92.906  1.00  0.00    -0.000 C 
BRANCH  23  24
ATOM     24  C   UNL     1      17.404  46.801  94.139  1.00  0.00    -0.000 C 
BRANCH  24  25
ATOM     25  C   UNL     1      18.682  46.010  93.812  1.00  0.00    -0.000 C 
BRANCH  25  26
ATOM     26  C   UNL     1      19.306  46.415  92.468  1.00  0.00    -0.000 C 
BRANCH  26  27
ATOM     27  C   UNL     1      19.510  45.193  91.565  1.00  0.00    -0.000 C 
BRANCH  27  28
ATOM     28  C   UNL     1      18.581  44.042  91.981  1.00  0.00    -0.000 C 
BRANCH  28  29
ATOM     29  C   UNL     1      17.287  44.001  91.156  1.00  0.00    -0.003 C 
ATOM     30  C   UNL     1      16.039  43.831  92.022  1.00  0.00     0.004 C 
ENDBRANCH  28  29
ENDBRANCH  27  28
ENDBRANCH  26  27
ENDBRANCH  25  26
ENDBRANCH  24  25
ENDBRANCH  23  24
ENDBRANCH  22  23
ENDBRANCH  21  22
ENDBRANCH  20  21
ENDBRANCH  19  20
ENDBRANCH  18  19
ENDBRANCH  17  18
ENDBRANCH   1  17
TORSDOF 26
ENDMDL
MODEL 9
REMARK VINA RESULT:    -4.054      2.059      6.184
REMARK INTER + INTRA:         -13.340
REMARK INTER:                 -10.602
REMARK INTRA:                  -2.738
REMARK UNBOUND:                -3.124
REMARK SMILES CCCCCCCCCCCCCCCCCCCCCCCCCCCC(=O)[O-]
REMARK SMILES IDX 15 1 16 2 17 3 18 4 19 5 20 6 21 7 22 8 23 9 24 10 25 11
REMARK SMILES IDX 26 12 27 13 28 14 29 15 30 16 14 17 13 18 12 19 11 20 10 21
REMARK SMILES IDX 9 22 8 23 7 24 6 25 5 26 4 27 3 28 2 29 1 30
REMARK H PARENT
REMARK Flexibility Score: inf
ROOT
ATOM      1  C   UNL     1      10.934  49.196  98.007  1.00  0.00     0.000 C 
ENDROOT
BRANCH   1   2
ATOM      2  C   UNL     1       9.490  49.421  97.522  1.00  0.00     0.000 C 
BRANCH   2   3
ATOM      3  C   UNL     1       8.671  48.137  97.273  1.00  0.00     0.000 C 
BRANCH   3   4
ATOM      4  C   UNL     1       8.097  47.993  95.850  1.00  0.00     0.000 C 
BRANCH   4   5
ATOM      5  C   UNL     1       8.625  49.018  94.830  1.00  0.00     0.000 C 
BRANCH   5   6
ATOM      6  C   UNL     1       9.285  48.379  93.590  1.00  0.00     0.000 C 
BRANCH   6   7
ATOM      7  C   UNL     1      10.609  47.676  93.923  1.00  0.00     0.000 C 
BRANCH   7   8
ATOM      8  C   UNL     1      10.905  46.555  92.918  1.00  0.00     0.000 C 
BRANCH   8   9
ATOM      9  C   UNL     1      10.859  45.179  93.599  1.00  0.00     0.000 C 
BRANCH   9  10
ATOM     10  C   UNL     1      10.174  45.223  94.974  1.00  0.00     0.000 C 
BRANCH  10  11
ATOM     11  C   UNL     1      10.277  43.887  95.729  1.00  0.00     0.000 C 
BRANCH  11  12
ATOM     12  C   UNL     1      11.270  42.915  95.071  1.00  0.00     0.006 C 
BRANCH  12  13
ATOM     13  C   UNL     1      12.129  42.168  96.101  1.00  0.00     0.053 C 
BRANCH  13  14
ATOM     14  C   UNL     1      13.581  42.312  95.772  1.00  0.00     0.041 C 
ATOM     15  O   UNL     1      14.445  42.261  96.686  1.00  0.00    -0.550 OA
ATOM     16  O   UNL     1      13.983  42.463  94.451  1.00  0.00    -0.550 OA
ENDBRANCH  13  14
ENDBRANCH  12  13
ENDBRANCH  11  12
ENDBRANCH  10  11
ENDBRANCH   9  10
ENDBRANCH   8   9
ENDBRANCH   7   8
ENDBRANCH   6   7
ENDBRANCH   5   6
ENDBRANCH   4   5
ENDBRANCH   3   4
ENDBRANCH   2   3
ENDBRANCH   1   2
BRANCH   1  17
ATOM     17  C   UNL     1      11.909  48.879  96.859  1.00  0.00     0.000 C 
BRANCH  17  18
ATOM     18  C   UNL     1      13.333  49.385  97.137  1.00  0.00     0.000 C 
BRANCH  18  19
ATOM     19  C   UNL     1      13.636  50.715  96.424  1.00  0.00     0.000 C 
BRANCH  19  20
ATOM     20  C   UNL     1      14.415  50.522  95.112  1.00  0.00     0.000 C 
BRANCH  20  21
ATOM     21  C   UNL     1      15.825  49.921  95.269  1.00  0.00     0.000 C 
BRANCH  21  22
ATOM     22  C   UNL     1      16.007  48.561  94.561  1.00  0.00    -0.000 C 
BRANCH  22  23
ATOM     23  C   UNL     1      15.919  48.681  93.028  1.00  0.00    -0.000 C 
BRANCH  23  24
ATOM     24  C   UNL     1      15.612  47.327  92.354  1.00  0.00    -0.000 C 
BRANCH  24  25
ATOM     25  C   UNL     1      16.389  47.101  91.046  1.00  0.00    -0.000 C 
BRANCH  25  26
ATOM     26  C   UNL     1      17.104  45.742  91.004  1.00  0.00    -0.000 C 
BRANCH  26  27
ATOM     27  C   UNL     1      18.066  45.589  92.187  1.00  0.00    -0.000 C 
BRANCH  27  28
ATOM     28  C   UNL     1      19.069  46.752  92.235  1.00  0.00    -0.000 C 
BRANCH  28  29
ATOM     29  C   UNL     1      20.076  46.712  91.076  1.00  0.00    -0.003 C 
ATOM     30  C   UNL     1      20.626  48.093  90.722  1.00  0.00     0.004 C 
ENDBRANCH  28  29
ENDBRANCH  27  28
ENDBRANCH  26  27
ENDBRANCH  25  26
ENDBRANCH  24  25
ENDBRANCH  23  24
ENDBRANCH  22  23
ENDBRANCH  21  22
ENDBRANCH  20  21
ENDBRANCH  19  20
ENDBRANCH  18  19
ENDBRANCH  17  18
ENDBRANCH   1  17
TORSDOF 26
ENDMDL
