MODEL 1
REMARK VINA RESULT:    10.773      0.000      0.000
REMARK INTER + INTRA:          27.414
REMARK INTER:                  28.408
REMARK INTRA:                  -0.994
REMARK UNBOUND:                -0.994
REMARK SMILES CCCCCCCCCCCCCCCCCCCCCCCCCCCCCC(=O)[O-]
REMARK SMILES IDX 16 1 17 2 18 3 19 4 20 5 21 6 22 7 23 8 24 9 25 10 26 11
REMARK SMILES IDX 27 12 28 13 29 14 30 15 31 16 32 17 15 18 14 19 13 20 12 21
REMARK SMILES IDX 11 22 10 23 9 24 8 25 7 26 6 27 5 28 4 29 3 30 2 31 1 32
REMARK H PARENT
REMARK Flexibility Score: inf
ROOT
ATOM      1  C   UNL     1       5.777 -36.320  22.711  1.00  0.00     0.000 C 
ENDROOT
BRANCH   1   2
ATOM      2  C   UNL     1       6.016 -34.998  23.456  1.00  0.00     0.000 C 
BRANCH   2   3
ATOM      3  C   UNL     1       5.319 -33.801  22.781  1.00  0.00     0.000 C 
BRANCH   3   4
ATOM      4  C   UNL     1       3.931 -34.173  22.233  1.00  0.00     0.000 C 
BRANCH   4   5
ATOM      5  C   UNL     1       3.486 -33.250  21.088  1.00  0.00     0.000 C 
BRANCH   5   6
ATOM      6  C   UNL     1       3.153 -34.063  19.828  1.00  0.00     0.000 C 
BRANCH   6   7
ATOM      7  C   UNL     1       4.405 -34.485  19.037  1.00  0.00     0.000 C 
BRANCH   7   8
ATOM      8  C   UNL     1       4.233 -34.523  17.504  1.00  0.00     0.000 C 
BRANCH   8   9
ATOM      9  C   UNL     1       3.873 -35.915  16.940  1.00  0.00     0.000 C 
BRANCH   9  10
ATOM     10  C   UNL     1       3.097 -35.829  15.615  1.00  0.00     0.000 C 
BRANCH  10  11
ATOM     11  C   UNL     1       3.981 -36.218  14.426  1.00  0.00     0.000 C 
BRANCH  11  12
ATOM     12  C   UNL     1       3.617 -37.620  13.912  1.00  0.00     0.000 C 
BRANCH  12  13
ATOM     13  C   UNL     1       4.587 -38.709  14.408  1.00  0.00     0.006 C 
BRANCH  13  14
ATOM     14  C   UNL     1       3.940 -40.088  14.604  1.00  0.00     0.053 C 
BRANCH  14  15
ATOM     15  C   UNL     1       4.955 -41.190  14.613  1.00  0.00     0.041 C 
ATOM     16  O   UNL     1       6.125 -40.971  15.026  1.00  0.00    -0.550 OA
ATOM     17  O   UNL     1       4.619 -42.446  14.126  1.00  0.00    -0.550 OA
ENDBRANCH  14  15
ENDBRANCH  13  14
ENDBRANCH  12  13
ENDBRANCH  11  12
ENDBRANCH  10  11
ENDBRANCH   9  10
ENDBRANCH   8   9
ENDBRANCH   7   8
ENDBRANCH   6   7
ENDBRANCH   5   6
ENDBRANCH   4   5
ENDBRANCH   3   4
ENDBRANCH   2   3
ENDBRANCH   1   2
BRANCH   1  18
ATOM     18  C   UNL     1       6.119 -36.229  21.216  1.00  0.00     0.000 C 
BRANCH  18  19
ATOM     19  C   UNL     1       4.990 -36.821  20.359  1.00  0.00     0.000 C 
BRANCH  19  20
ATOM     20  C   UNL     1       4.846 -38.344  20.530  1.00  0.00     0.000 C 
BRANCH  20  21
ATOM     21  C   UNL     1       5.846 -39.189  19.715  1.00  0.00     0.000 C 
BRANCH  21  22
ATOM     22  C   UNL     1       5.840 -40.696  20.035  1.00  0.00     0.000 C 
BRANCH  22  23
ATOM     23  C   UNL     1       6.101 -41.047  21.513  1.00  0.00     0.000 C 
BRANCH  23  24
ATOM     24  C   UNL     1       4.967 -40.665  22.485  1.00  0.00    -0.000 C 
BRANCH  24  25
ATOM     25  C   UNL     1       5.391 -40.544  23.960  1.00  0.00    -0.000 C 
BRANCH  25  26
ATOM     26  C   UNL     1       4.588 -39.485  24.729  1.00  0.00    -0.000 C 
BRANCH  26  27
ATOM     27  C   UNL     1       5.521 -38.460  25.390  1.00  0.00    -0.000 C 
BRANCH  27  28
ATOM     28  C   UNL     1       4.764 -37.401  26.211  1.00  0.00    -0.000 C 
BRANCH  28  29
ATOM     29  C   UNL     1       3.261 -37.674  26.404  1.00  0.00    -0.000 C 
BRANCH  29  30
ATOM     30  C   UNL     1       2.809 -37.527  27.867  1.00  0.00    -0.000 C 
BRANCH  30  31
ATOM     31  C   UNL     1       1.807 -36.379  28.063  1.00  0.00    -0.003 C 
ATOM     32  C   UNL     1       2.276 -35.349  29.091  1.00  0.00     0.004 C 
ENDBRANCH  30  31
ENDBRANCH  29  30
ENDBRANCH  28  29
ENDBRANCH  27  28
ENDBRANCH  26  27
ENDBRANCH  25  26
ENDBRANCH  24  25
ENDBRANCH  23  24
ENDBRANCH  22  23
ENDBRANCH  21  22
ENDBRANCH  20  21
ENDBRANCH  19  20
ENDBRANCH  18  19
ENDBRANCH   1  18
TORSDOF 28
ENDMDL
MODEL 2
REMARK VINA RESULT:    11.372      3.477      6.704
REMARK INTER + INTRA:          28.992
REMARK INTER:                  28.842
REMARK INTRA:                   0.150
REMARK UNBOUND:                -0.994
REMARK SMILES CCCCCCCCCCCCCCCCCCCCCCCCCCCCCC(=O)[O-]
REMARK SMILES IDX 16 1 17 2 18 3 19 4 20 5 21 6 22 7 23 8 24 9 25 10 26 11
REMARK SMILES IDX 27 12 28 13 29 14 30 15 31 16 32 17 15 18 14 19 13 20 12 21
REMARK SMILES IDX 11 22 10 23 9 24 8 25 7 26 6 27 5 28 4 29 3 30 2 31 1 32
REMARK H PARENT
REMARK Flexibility Score: inf
ROOT
ATOM      1  C   UNL     1       6.051 -35.871  24.030  1.00  0.00     0.000 C 
ENDROOT
BRANCH   1   2
ATOM      2  C   UNL     1       6.108 -34.338  23.955  1.00  0.00     0.000 C 
BRANCH   2   3
ATOM      3  C   UNL     1       5.694 -33.794  22.575  1.00  0.00     0.000 C 
BRANCH   3   4
ATOM      4  C   UNL     1       4.171 -33.611  22.458  1.00  0.00     0.000 C 
BRANCH   4   5
ATOM      5  C   UNL     1       3.671 -33.769  21.014  1.00  0.00     0.000 C 
BRANCH   5   6
ATOM      6  C   UNL     1       4.823 -34.163  20.076  1.00  0.00     0.000 C 
BRANCH   6   7
ATOM      7  C   UNL     1       4.432 -34.108  18.589  1.00  0.00     0.000 C 
BRANCH   7   8
ATOM      8  C   UNL     1       4.328 -35.477  17.884  1.00  0.00     0.000 C 
BRANCH   8   9
ATOM      9  C   UNL     1       4.851 -36.664  18.723  1.00  0.00     0.000 C 
BRANCH   9  10
ATOM     10  C   UNL     1       4.396 -36.592  20.190  1.00  0.00     0.000 C 
BRANCH  10  11
ATOM     11  C   UNL     1       4.887 -37.805  20.986  1.00  0.00     0.000 C 
BRANCH  11  12
ATOM     12  C   UNL     1       5.831 -38.670  20.135  1.00  0.00     0.000 C 
BRANCH  12  13
ATOM     13  C   UNL     1       5.738 -40.168  20.475  1.00  0.00     0.006 C 
BRANCH  13  14
ATOM     14  C   UNL     1       6.121 -40.512  21.923  1.00  0.00     0.053 C 
BRANCH  14  15
ATOM     15  C   UNL     1       4.976 -40.323  22.869  1.00  0.00     0.041 C 
ATOM     16  O   UNL     1       3.812 -40.132  22.425  1.00  0.00    -0.550 OA
ATOM     17  O   UNL     1       5.200 -40.318  24.239  1.00  0.00    -0.550 OA
ENDBRANCH  14  15
ENDBRANCH  13  14
ENDBRANCH  12  13
ENDBRANCH  11  12
ENDBRANCH  10  11
ENDBRANCH   9  10
ENDBRANCH   8   9
ENDBRANCH   7   8
ENDBRANCH   6   7
ENDBRANCH   5   6
ENDBRANCH   4   5
ENDBRANCH   3   4
ENDBRANCH   2   3
ENDBRANCH   1   2
BRANCH   1  18
ATOM     18  C   UNL     1       5.892 -36.390  25.467  1.00  0.00     0.000 C 
BRANCH  18  19
ATOM     19  C   UNL     1       4.411 -36.441  25.871  1.00  0.00     0.000 C 
BRANCH  19  20
ATOM     20  C   UNL     1       4.054 -37.701  26.678  1.00  0.00     0.000 C 
BRANCH  20  21
ATOM     21  C   UNL     1       2.546 -37.927  26.903  1.00  0.00     0.000 C 
BRANCH  21  22
ATOM     22  C   UNL     1       1.759 -36.680  27.350  1.00  0.00     0.000 C 
BRANCH  22  23
ATOM     23  C   UNL     1       2.214 -36.070  28.690  1.00  0.00     0.000 C 
BRANCH  23  24
ATOM     24  C   UNL     1       1.911 -34.568  28.861  1.00  0.00    -0.000 C 
BRANCH  24  25
ATOM     25  C   UNL     1       0.909 -34.232  29.980  1.00  0.00    -0.000 C 
BRANCH  25  26
ATOM     26  C   UNL     1      -0.476 -33.840  29.446  1.00  0.00    -0.000 C 
BRANCH  26  27
ATOM     27  C   UNL     1      -1.536 -34.875  29.852  1.00  0.00    -0.000 C 
BRANCH  27  28
ATOM     28  C   UNL     1      -2.973 -34.412  29.553  1.00  0.00    -0.000 C 
BRANCH  28  29
ATOM     29  C   UNL     1      -3.512 -34.809  28.167  1.00  0.00    -0.000 C 
BRANCH  29  30
ATOM     30  C   UNL     1      -4.592 -35.903  28.236  1.00  0.00    -0.000 C 
BRANCH  30  31
ATOM     31  C   UNL     1      -4.253 -37.123  27.366  1.00  0.00    -0.003 C 
ATOM     32  C   UNL     1      -5.269 -38.256  27.510  1.00  0.00     0.004 C 
ENDBRANCH  30  31
ENDBRANCH  29  30
ENDBRANCH  28  29
ENDBRANCH  27  28
ENDBRANCH  26  27
ENDBRANCH  25  26
ENDBRANCH  24  25
ENDBRANCH  23  24
ENDBRANCH  22  23
ENDBRANCH  21  22
ENDBRANCH  20  21
ENDBRANCH  19  20
ENDBRANCH  18  19
ENDBRANCH   1  18
TORSDOF 28
ENDMDL
MODEL 3
REMARK VINA RESULT:    11.473      2.224      2.955
REMARK INTER + INTRA:          29.258
REMARK INTER:                  27.360
REMARK INTRA:                   1.897
REMARK UNBOUND:                -0.994
REMARK SMILES CCCCCCCCCCCCCCCCCCCCCCCCCCCCCC(=O)[O-]
REMARK SMILES IDX 16 1 17 2 18 3 19 4 20 5 21 6 22 7 23 8 24 9 25 10 26 11
REMARK SMILES IDX 27 12 28 13 29 14 30 15 31 16 32 17 15 18 14 19 13 20 12 21
REMARK SMILES IDX 11 22 10 23 9 24 8 25 7 26 6 27 5 28 4 29 3 30 2 31 1 32
REMARK H PARENT
REMARK Flexibility Score: inf
ROOT
ATOM      1  C   UNL     1       5.539 -36.355  22.759  1.00  0.00     0.000 C 
ENDROOT
BRANCH   1   2
ATOM      2  C   UNL     1       6.010 -35.242  23.707  1.00  0.00     0.000 C 
BRANCH   2   3
ATOM      3  C   UNL     1       5.504 -33.849  23.288  1.00  0.00     0.000 C 
BRANCH   3   4
ATOM      4  C   UNL     1       4.072 -33.899  22.727  1.00  0.00     0.000 C 
BRANCH   4   5
ATOM      5  C   UNL     1       3.883 -32.969  21.518  1.00  0.00     0.000 C 
BRANCH   5   6
ATOM      6  C   UNL     1       3.645 -33.781  20.236  1.00  0.00     0.000 C 
BRANCH   6   7
ATOM      7  C   UNL     1       4.950 -34.282  19.592  1.00  0.00     0.000 C 
BRANCH   7   8
ATOM      8  C   UNL     1       4.865 -34.585  18.082  1.00  0.00     0.000 C 
BRANCH   8   9
ATOM      9  C   UNL     1       4.426 -36.027  17.746  1.00  0.00     0.000 C 
BRANCH   9  10
ATOM     10  C   UNL     1       4.063 -36.200  16.262  1.00  0.00     0.000 C 
BRANCH  10  11
ATOM     11  C   UNL     1       4.321 -37.634  15.788  1.00  0.00     0.000 C 
BRANCH  11  12
ATOM     12  C   UNL     1       3.466 -37.963  14.555  1.00  0.00     0.000 C 
BRANCH  12  13
ATOM     13  C   UNL     1       2.828 -36.715  13.919  1.00  0.00     0.006 C 
BRANCH  13  14
ATOM     14  C   UNL     1       1.350 -36.506  14.282  1.00  0.00     0.053 C 
BRANCH  14  15
ATOM     15  C   UNL     1       1.186 -35.742  15.560  1.00  0.00     0.041 C 
ATOM     16  O   UNL     1       0.162 -35.913  16.274  1.00  0.00    -0.550 OA
ATOM     17  O   UNL     1       2.143 -34.811  15.940  1.00  0.00    -0.550 OA
ENDBRANCH  14  15
ENDBRANCH  13  14
ENDBRANCH  12  13
ENDBRANCH  11  12
ENDBRANCH  10  11
ENDBRANCH   9  10
ENDBRANCH   8   9
ENDBRANCH   7   8
ENDBRANCH   6   7
ENDBRANCH   5   6
ENDBRANCH   4   5
ENDBRANCH   3   4
ENDBRANCH   2   3
ENDBRANCH   1   2
BRANCH   1  18
ATOM     18  C   UNL     1       6.038 -36.160  21.320  1.00  0.00     0.000 C 
BRANCH  18  19
ATOM     19  C   UNL     1       5.194 -36.978  20.331  1.00  0.00     0.000 C 
BRANCH  19  20
ATOM     20  C   UNL     1       4.576 -38.234  20.969  1.00  0.00     0.000 C 
BRANCH  20  21
ATOM     21  C   UNL     1       5.389 -39.530  20.779  1.00  0.00     0.000 C 
BRANCH  21  22
ATOM     22  C   UNL     1       5.254 -40.558  21.918  1.00  0.00     0.000 C 
BRANCH  22  23
ATOM     23  C   UNL     1       5.788 -40.087  23.285  1.00  0.00     0.000 C 
BRANCH  23  24
ATOM     24  C   UNL     1       4.704 -39.669  24.300  1.00  0.00    -0.000 C 
BRANCH  24  25
ATOM     25  C   UNL     1       4.989 -38.353  25.046  1.00  0.00    -0.000 C 
BRANCH  25  26
ATOM     26  C   UNL     1       4.387 -38.323  26.458  1.00  0.00    -0.000 C 
BRANCH  26  27
ATOM     27  C   UNL     1       3.466 -37.107  26.638  1.00  0.00    -0.000 C 
BRANCH  27  28
ATOM     28  C   UNL     1       2.347 -37.348  27.667  1.00  0.00    -0.000 C 
BRANCH  28  29
ATOM     29  C   UNL     1       1.387 -36.163  27.879  1.00  0.00    -0.000 C 
BRANCH  29  30
ATOM     30  C   UNL     1       2.104 -34.895  28.373  1.00  0.00    -0.000 C 
BRANCH  30  31
ATOM     31  C   UNL     1       1.391 -34.241  29.567  1.00  0.00    -0.003 C 
ATOM     32  C   UNL     1       2.224 -34.275  30.848  1.00  0.00     0.004 C 
ENDBRANCH  30  31
ENDBRANCH  29  30
ENDBRANCH  28  29
ENDBRANCH  27  28
ENDBRANCH  26  27
ENDBRANCH  25  26
ENDBRANCH  24  25
ENDBRANCH  23  24
ENDBRANCH  22  23
ENDBRANCH  21  22
ENDBRANCH  20  21
ENDBRANCH  19  20
ENDBRANCH  18  19
ENDBRANCH   1  18
TORSDOF 28
ENDMDL
MODEL 4
REMARK VINA RESULT:    11.932      3.268      6.719
REMARK INTER + INTRA:          30.470
REMARK INTER:                  31.631
REMARK INTRA:                  -1.161
REMARK UNBOUND:                -0.994
REMARK SMILES CCCCCCCCCCCCCCCCCCCCCCCCCCCCCC(=O)[O-]
REMARK SMILES IDX 16 1 17 2 18 3 19 4 20 5 21 6 22 7 23 8 24 9 25 10 26 11
REMARK SMILES IDX 27 12 28 13 29 14 30 15 31 16 32 17 15 18 14 19 13 20 12 21
REMARK SMILES IDX 11 22 10 23 9 24 8 25 7 26 6 27 5 28 4 29 3 30 2 31 1 32
REMARK H PARENT
REMARK Flexibility Score: inf
ROOT
ATOM      1  C   UNL     1       4.748 -37.537  25.219  1.00  0.00     0.000 C 
ENDROOT
BRANCH   1   2
ATOM      2  C   UNL     1       5.850 -36.479  25.057  1.00  0.00     0.000 C 
BRANCH   2   3
ATOM      3  C   UNL     1       5.780 -35.751  23.701  1.00  0.00     0.000 C 
BRANCH   3   4
ATOM      4  C   UNL     1       5.727 -34.222  23.868  1.00  0.00     0.000 C 
BRANCH   4   5
ATOM      5  C   UNL     1       4.759 -33.557  22.877  1.00  0.00     0.000 C 
BRANCH   5   6
ATOM      6  C   UNL     1       5.104 -33.945  21.431  1.00  0.00     0.000 C 
BRANCH   6   7
ATOM      7  C   UNL     1       4.166 -35.020  20.857  1.00  0.00     0.000 C 
BRANCH   7   8
ATOM      8  C   UNL     1       4.870 -36.212  20.175  1.00  0.00     0.000 C 
BRANCH   8   9
ATOM      9  C   UNL     1       4.819 -36.182  18.631  1.00  0.00     0.000 C 
BRANCH   9  10
ATOM     10  C   UNL     1       4.228 -34.870  18.089  1.00  0.00     0.000 C 
BRANCH  10  11
ATOM     11  C   UNL     1       3.842 -35.002  16.612  1.00  0.00     0.000 C 
BRANCH  11  12
ATOM     12  C   UNL     1       2.962 -36.242  16.388  1.00  0.00     0.000 C 
BRANCH  12  13
ATOM     13  C   UNL     1       2.160 -36.176  15.075  1.00  0.00     0.006 C 
BRANCH  13  14
ATOM     14  C   UNL     1       2.835 -36.878  13.887  1.00  0.00     0.053 C 
BRANCH  14  15
ATOM     15  C   UNL     1       3.827 -37.909  14.330  1.00  0.00     0.041 C 
ATOM     16  O   UNL     1       5.004 -37.891  13.880  1.00  0.00    -0.550 OA
ATOM     17  O   UNL     1       3.440 -38.913  15.208  1.00  0.00    -0.550 OA
ENDBRANCH  14  15
ENDBRANCH  13  14
ENDBRANCH  12  13
ENDBRANCH  11  12
ENDBRANCH  10  11
ENDBRANCH   9  10
ENDBRANCH   8   9
ENDBRANCH   7   8
ENDBRANCH   6   7
ENDBRANCH   5   6
ENDBRANCH   4   5
ENDBRANCH   3   4
ENDBRANCH   2   3
ENDBRANCH   1   2
BRANCH   1  18
ATOM     18  C   UNL     1       4.182 -37.589  26.646  1.00  0.00     0.000 C 
BRANCH  18  19
ATOM     19  C   UNL     1       2.647 -37.652  26.626  1.00  0.00     0.000 C 
BRANCH  19  20
ATOM     20  C   UNL     1       2.015 -37.261  27.973  1.00  0.00     0.000 C 
BRANCH  20  21
ATOM     21  C   UNL     1       1.637 -35.772  28.108  1.00  0.00     0.000 C 
BRANCH  21  22
ATOM     22  C   UNL     1       2.479 -34.974  29.123  1.00  0.00     0.000 C 
BRANCH  22  23
ATOM     23  C   UNL     1       1.664 -34.143  30.132  1.00  0.00     0.000 C 
BRANCH  23  24
ATOM     24  C   UNL     1       0.457 -33.392  29.535  1.00  0.00    -0.000 C 
BRANCH  24  25
ATOM     25  C   UNL     1      -0.883 -33.645  30.251  1.00  0.00    -0.000 C 
BRANCH  25  26
ATOM     26  C   UNL     1      -2.099 -33.259  29.398  1.00  0.00    -0.000 C 
BRANCH  26  27
ATOM     27  C   UNL     1      -2.765 -34.503  28.793  1.00  0.00    -0.000 C 
BRANCH  27  28
ATOM     28  C   UNL     1      -4.187 -34.745  29.330  1.00  0.00    -0.000 C 
BRANCH  28  29
ATOM     29  C   UNL     1      -5.207 -35.234  28.286  1.00  0.00    -0.000 C 
BRANCH  29  30
ATOM     30  C   UNL     1      -4.592 -36.196  27.255  1.00  0.00    -0.000 C 
BRANCH  30  31
ATOM     31  C   UNL     1      -5.162 -37.619  27.360  1.00  0.00    -0.003 C 
ATOM     32  C   UNL     1      -4.079 -38.697  27.333  1.00  0.00     0.004 C 
ENDBRANCH  30  31
ENDBRANCH  29  30
ENDBRANCH  28  29
ENDBRANCH  27  28
ENDBRANCH  26  27
ENDBRANCH  25  26
ENDBRANCH  24  25
ENDBRANCH  23  24
ENDBRANCH  22  23
ENDBRANCH  21  22
ENDBRANCH  20  21
ENDBRANCH  19  20
ENDBRANCH  18  19
ENDBRANCH   1  18
TORSDOF 28
ENDMDL
MODEL 5
REMARK VINA RESULT:    12.053      4.238      8.165
REMARK INTER + INTRA:          30.788
REMARK INTER:                  32.671
REMARK INTRA:                  -1.883
REMARK UNBOUND:                -0.994
REMARK SMILES CCCCCCCCCCCCCCCCCCCCCCCCCCCCCC(=O)[O-]
REMARK SMILES IDX 16 1 17 2 18 3 19 4 20 5 21 6 22 7 23 8 24 9 25 10 26 11
REMARK SMILES IDX 27 12 28 13 29 14 30 15 31 16 32 17 15 18 14 19 13 20 12 21
REMARK SMILES IDX 11 22 10 23 9 24 8 25 7 26 6 27 5 28 4 29 3 30 2 31 1 32
REMARK H PARENT
REMARK Flexibility Score: inf
ROOT
ATOM      1  C   UNL     1       3.794 -37.779  25.968  1.00  0.00     0.000 C 
ENDROOT
BRANCH   1   2
ATOM      2  C   UNL     1       5.120 -37.290  26.572  1.00  0.00     0.000 C 
BRANCH   2   3
ATOM      3  C   UNL     1       6.124 -36.824  25.501  1.00  0.00     0.000 C 
BRANCH   3   4
ATOM      4  C   UNL     1       6.043 -35.308  25.252  1.00  0.00     0.000 C 
BRANCH   4   5
ATOM      5  C   UNL     1       5.488 -34.972  23.859  1.00  0.00     0.000 C 
BRANCH   5   6
ATOM      6  C   UNL     1       6.022 -35.954  22.805  1.00  0.00     0.000 C 
BRANCH   6   7
ATOM      7  C   UNL     1       4.990 -37.021  22.400  1.00  0.00     0.000 C 
BRANCH   7   8
ATOM      8  C   UNL     1       5.448 -38.483  22.582  1.00  0.00     0.000 C 
BRANCH   8   9
ATOM      9  C   UNL     1       5.218 -39.380  21.346  1.00  0.00     0.000 C 
BRANCH   9  10
ATOM     10  C   UNL     1       5.705 -38.723  20.044  1.00  0.00     0.000 C 
BRANCH  10  11
ATOM     11  C   UNL     1       4.642 -37.787  19.461  1.00  0.00     0.000 C 
BRANCH  11  12
ATOM     12  C   UNL     1       5.282 -36.487  18.948  1.00  0.00     0.000 C 
BRANCH  12  13
ATOM     13  C   UNL     1       4.342 -35.273  19.059  1.00  0.00     0.006 C 
BRANCH  13  14
ATOM     14  C   UNL     1       4.787 -34.222  20.088  1.00  0.00     0.053 C 
BRANCH  14  15
ATOM     15  C   UNL     1       3.661 -33.788  20.974  1.00  0.00     0.041 C 
ATOM     16  O   UNL     1       3.453 -32.562  21.180  1.00  0.00    -0.550 OA
ATOM     17  O   UNL     1       2.867 -34.737  21.605  1.00  0.00    -0.550 OA
ENDBRANCH  14  15
ENDBRANCH  13  14
ENDBRANCH  12  13
ENDBRANCH  11  12
ENDBRANCH  10  11
ENDBRANCH   9  10
ENDBRANCH   8   9
ENDBRANCH   7   8
ENDBRANCH   6   7
ENDBRANCH   5   6
ENDBRANCH   4   5
ENDBRANCH   3   4
ENDBRANCH   2   3
ENDBRANCH   1   2
BRANCH   1  18
ATOM     18  C   UNL     1       2.779 -38.210  27.037  1.00  0.00     0.000 C 
BRANCH  18  19
ATOM     19  C   UNL     1       1.732 -37.111  27.275  1.00  0.00     0.000 C 
BRANCH  19  20
ATOM     20  C   UNL     1       1.996 -36.302  28.556  1.00  0.00     0.000 C 
BRANCH  20  21
ATOM     21  C   UNL     1       2.083 -34.775  28.357  1.00  0.00     0.000 C 
BRANCH  21  22
ATOM     22  C   UNL     1       2.166 -33.951  29.657  1.00  0.00     0.000 C 
BRANCH  22  23
ATOM     23  C   UNL     1       0.850 -33.857  30.451  1.00  0.00     0.000 C 
BRANCH  23  24
ATOM     24  C   UNL     1      -0.362 -33.343  29.647  1.00  0.00    -0.000 C 
BRANCH  24  25
ATOM     25  C   UNL     1      -1.437 -34.403  29.347  1.00  0.00    -0.000 C 
BRANCH  25  26
ATOM     26  C   UNL     1      -2.855 -33.937  29.707  1.00  0.00    -0.000 C 
BRANCH  26  27
ATOM     27  C   UNL     1      -3.904 -34.964  29.256  1.00  0.00    -0.000 C 
BRANCH  27  28
ATOM     28  C   UNL     1      -3.970 -35.124  27.727  1.00  0.00    -0.000 C 
BRANCH  28  29
ATOM     29  C   UNL     1      -4.818 -36.310  27.230  1.00  0.00    -0.000 C 
BRANCH  29  30
ATOM     30  C   UNL     1      -4.082 -37.657  27.335  1.00  0.00    -0.000 C 
BRANCH  30  31
ATOM     31  C   UNL     1      -5.035 -38.858  27.252  1.00  0.00    -0.003 C 
ATOM     32  C   UNL     1      -6.396 -38.583  27.893  1.00  0.00     0.004 C 
ENDBRANCH  30  31
ENDBRANCH  29  30
ENDBRANCH  28  29
ENDBRANCH  27  28
ENDBRANCH  26  27
ENDBRANCH  25  26
ENDBRANCH  24  25
ENDBRANCH  23  24
ENDBRANCH  22  23
ENDBRANCH  21  22
ENDBRANCH  20  21
ENDBRANCH  19  20
ENDBRANCH  18  19
ENDBRANCH   1  18
TORSDOF 28
ENDMDL
MODEL 6
REMARK VINA RESULT:    12.221      5.630     10.852
REMARK INTER + INTRA:          31.231
REMARK INTER:                  33.646
REMARK INTRA:                  -2.415
REMARK UNBOUND:                -0.994
REMARK SMILES CCCCCCCCCCCCCCCCCCCCCCCCCCCCCC(=O)[O-]
REMARK SMILES IDX 16 1 17 2 18 3 19 4 20 5 21 6 22 7 23 8 24 9 25 10 26 11
REMARK SMILES IDX 27 12 28 13 29 14 30 15 31 16 32 17 15 18 14 19 13 20 12 21
REMARK SMILES IDX 11 22 10 23 9 24 8 25 7 26 6 27 5 28 4 29 3 30 2 31 1 32
REMARK H PARENT
REMARK Flexibility Score: inf
ROOT
ATOM      1  C   UNL     1       3.637 -36.658  26.372  1.00  0.00     0.000 C 
ENDROOT
BRANCH   1   2
ATOM      2  C   UNL     1       2.632 -37.580  27.080  1.00  0.00     0.000 C 
BRANCH   2   3
ATOM      3  C   UNL     1       1.873 -36.870  28.217  1.00  0.00     0.000 C 
BRANCH   3   4
ATOM      4  C   UNL     1       2.022 -35.340  28.145  1.00  0.00     0.000 C 
BRANCH   4   5
ATOM      5  C   UNL     1       1.944 -34.678  29.530  1.00  0.00     0.000 C 
BRANCH   5   6
ATOM      6  C   UNL     1       0.975 -33.486  29.512  1.00  0.00     0.000 C 
BRANCH   6   7
ATOM      7  C   UNL     1      -0.503 -33.913  29.499  1.00  0.00     0.000 C 
BRANCH   7   8
ATOM      8  C   UNL     1      -1.520 -32.774  29.720  1.00  0.00     0.000 C 
BRANCH   8   9
ATOM      9  C   UNL     1      -2.928 -33.252  30.141  1.00  0.00     0.000 C 
BRANCH   9  10
ATOM     10  C   UNL     1      -3.257 -34.654  29.603  1.00  0.00     0.000 C 
BRANCH  10  11
ATOM     11  C   UNL     1      -4.226 -34.582  28.418  1.00  0.00     0.000 C 
BRANCH  11  12
ATOM     12  C   UNL     1      -4.050 -35.798  27.495  1.00  0.00     0.000 C 
BRANCH  12  13
ATOM     13  C   UNL     1      -5.316 -36.670  27.408  1.00  0.00     0.006 C 
BRANCH  13  14
ATOM     14  C   UNL     1      -5.048 -38.136  27.033  1.00  0.00     0.053 C 
BRANCH  14  15
ATOM     15  C   UNL     1      -6.073 -39.062  27.610  1.00  0.00     0.041 C 
ATOM     16  O   UNL     1      -6.643 -39.913  26.876  1.00  0.00    -0.550 OA
ATOM     17  O   UNL     1      -6.428 -38.958  28.948  1.00  0.00    -0.550 OA
ENDBRANCH  14  15
ENDBRANCH  13  14
ENDBRANCH  12  13
ENDBRANCH  11  12
ENDBRANCH  10  11
ENDBRANCH   9  10
ENDBRANCH   8   9
ENDBRANCH   7   8
ENDBRANCH   6   7
ENDBRANCH   5   6
ENDBRANCH   4   5
ENDBRANCH   3   4
ENDBRANCH   2   3
ENDBRANCH   1   2
BRANCH   1  18
ATOM     18  C   UNL     1       4.532 -37.410  25.376  1.00  0.00     0.000 C 
BRANCH  18  19
ATOM     19  C   UNL     1       5.908 -36.738  25.259  1.00  0.00     0.000 C 
BRANCH  19  20
ATOM     20  C   UNL     1       5.815 -35.243  24.907  1.00  0.00     0.000 C 
BRANCH  20  21
ATOM     21  C   UNL     1       6.125 -34.899  23.437  1.00  0.00     0.000 C 
BRANCH  21  22
ATOM     22  C   UNL     1       5.454 -33.614  22.912  1.00  0.00     0.000 C 
BRANCH  22  23
ATOM     23  C   UNL     1       3.954 -33.750  22.589  1.00  0.00     0.000 C 
BRANCH  23  24
ATOM     24  C   UNL     1       3.619 -34.719  21.437  1.00  0.00    -0.000 C 
BRANCH  24  25
ATOM     25  C   UNL     1       3.743 -34.115  20.026  1.00  0.00    -0.000 C 
BRANCH  25  26
ATOM     26  C   UNL     1       5.050 -34.507  19.321  1.00  0.00    -0.000 C 
BRANCH  26  27
ATOM     27  C   UNL     1       5.710 -35.708  20.012  1.00  0.00    -0.000 C 
BRANCH  27  28
ATOM     28  C   UNL     1       5.263 -37.059  19.425  1.00  0.00    -0.000 C 
BRANCH  28  29
ATOM     29  C   UNL     1       5.534 -38.282  20.320  1.00  0.00    -0.000 C 
BRANCH  29  30
ATOM     30  C   UNL     1       4.682 -38.287  21.601  1.00  0.00    -0.000 C 
BRANCH  30  31
ATOM     31  C   UNL     1       4.753 -39.624  22.353  1.00  0.00    -0.003 C 
ATOM     32  C   UNL     1       5.649 -40.650  21.659  1.00  0.00     0.004 C 
ENDBRANCH  30  31
ENDBRANCH  29  30
ENDBRANCH  28  29
ENDBRANCH  27  28
ENDBRANCH  26  27
ENDBRANCH  25  26
ENDBRANCH  24  25
ENDBRANCH  23  24
ENDBRANCH  22  23
ENDBRANCH  21  22
ENDBRANCH  20  21
ENDBRANCH  19  20
ENDBRANCH  18  19
ENDBRANCH   1  18
TORSDOF 28
ENDMDL
MODEL 7
REMARK VINA RESULT:    12.314      2.538      5.498
REMARK INTER + INTRA:          31.475
REMARK INTER:                  32.563
REMARK INTRA:                  -1.088
REMARK UNBOUND:                -0.994
REMARK SMILES CCCCCCCCCCCCCCCCCCCCCCCCCCCCCC(=O)[O-]
REMARK SMILES IDX 16 1 17 2 18 3 19 4 20 5 21 6 22 7 23 8 24 9 25 10 26 11
REMARK SMILES IDX 27 12 28 13 29 14 30 15 31 16 32 17 15 18 14 19 13 20 12 21
REMARK SMILES IDX 11 22 10 23 9 24 8 25 7 26 6 27 5 28 4 29 3 30 2 31 1 32
REMARK H PARENT
REMARK Flexibility Score: inf
ROOT
ATOM      1  C   UNL     1       6.090 -34.801  23.876  1.00  0.00     0.000 C 
ENDROOT
BRANCH   1   2
ATOM      2  C   UNL     1       5.065 -34.211  22.896  1.00  0.00     0.000 C 
BRANCH   2   3
ATOM      3  C   UNL     1       4.219 -35.293  22.198  1.00  0.00     0.000 C 
BRANCH   3   4
ATOM      4  C   UNL     1       4.761 -36.709  22.459  1.00  0.00     0.000 C 
BRANCH   4   5
ATOM      5  C   UNL     1       4.141 -37.756  21.521  1.00  0.00     0.000 C 
BRANCH   5   6
ATOM      6  C   UNL     1       5.173 -38.254  20.498  1.00  0.00     0.000 C 
BRANCH   6   7
ATOM      7  C   UNL     1       5.619 -37.158  19.513  1.00  0.00     0.000 C 
BRANCH   7   8
ATOM      8  C   UNL     1       4.694 -35.927  19.435  1.00  0.00     0.000 C 
BRANCH   8   9
ATOM      9  C   UNL     1       5.063 -34.924  18.319  1.00  0.00     0.000 C 
BRANCH   9  10
ATOM     10  C   UNL     1       3.894 -34.662  17.355  1.00  0.00     0.000 C 
BRANCH  10  11
ATOM     11  C   UNL     1       3.356 -35.969  16.764  1.00  0.00     0.000 C 
BRANCH  11  12
ATOM     12  C   UNL     1       2.295 -35.686  15.689  1.00  0.00     0.000 C 
BRANCH  12  13
ATOM     13  C   UNL     1       2.628 -36.338  14.334  1.00  0.00     0.006 C 
BRANCH  13  14
ATOM     14  C   UNL     1       4.069 -36.856  14.220  1.00  0.00     0.053 C 
BRANCH  14  15
ATOM     15  C   UNL     1       4.133 -38.352  14.238  1.00  0.00     0.041 C 
ATOM     16  O   UNL     1       3.137 -39.025  14.616  1.00  0.00    -0.550 OA
ATOM     17  O   UNL     1       5.306 -39.002  13.876  1.00  0.00    -0.550 OA
ENDBRANCH  14  15
ENDBRANCH  13  14
ENDBRANCH  12  13
ENDBRANCH  11  12
ENDBRANCH  10  11
ENDBRANCH   9  10
ENDBRANCH   8   9
ENDBRANCH   7   8
ENDBRANCH   6   7
ENDBRANCH   5   6
ENDBRANCH   4   5
ENDBRANCH   3   4
ENDBRANCH   2   3
ENDBRANCH   1   2
BRANCH   1  18
ATOM     18  C   UNL     1       5.481 -35.124  25.249  1.00  0.00     0.000 C 
BRANCH  18  19
ATOM     19  C   UNL     1       6.125 -36.381  25.852  1.00  0.00     0.000 C 
BRANCH  19  20
ATOM     20  C   UNL     1       5.143 -37.562  25.960  1.00  0.00     0.000 C 
BRANCH  20  21
ATOM     21  C   UNL     1       3.652 -37.180  25.868  1.00  0.00     0.000 C 
BRANCH  21  22
ATOM     22  C   UNL     1       2.816 -37.508  27.121  1.00  0.00     0.000 C 
BRANCH  22  23
ATOM     23  C   UNL     1       1.816 -36.413  27.538  1.00  0.00     0.000 C 
BRANCH  23  24
ATOM     24  C   UNL     1       2.060 -35.804  28.935  1.00  0.00    -0.000 C 
BRANCH  24  25
ATOM     25  C   UNL     1       2.133 -34.267  28.967  1.00  0.00    -0.000 C 
BRANCH  25  26
ATOM     26  C   UNL     1       1.209 -33.646  30.025  1.00  0.00    -0.000 C 
BRANCH  26  27
ATOM     27  C   UNL     1      -0.095 -34.448  30.156  1.00  0.00    -0.000 C 
BRANCH  27  28
ATOM     28  C   UNL     1      -1.211 -33.935  29.229  1.00  0.00    -0.000 C 
BRANCH  28  29
ATOM     29  C   UNL     1      -2.645 -34.200  29.724  1.00  0.00    -0.000 C 
BRANCH  29  30
ATOM     30  C   UNL     1      -3.271 -35.457  29.096  1.00  0.00    -0.000 C 
BRANCH  30  31
ATOM     31  C   UNL     1      -3.798 -35.208  27.675  1.00  0.00    -0.003 C 
ATOM     32  C   UNL     1      -5.290 -35.507  27.532  1.00  0.00     0.004 C 
ENDBRANCH  30  31
ENDBRANCH  29  30
ENDBRANCH  28  29
ENDBRANCH  27  28
ENDBRANCH  26  27
ENDBRANCH  25  26
ENDBRANCH  24  25
ENDBRANCH  23  24
ENDBRANCH  22  23
ENDBRANCH  21  22
ENDBRANCH  20  21
ENDBRANCH  19  20
ENDBRANCH  18  19
ENDBRANCH   1  18
TORSDOF 28
ENDMDL
MODEL 8
REMARK VINA RESULT:    12.337      3.323      6.961
REMARK INTER + INTRA:          31.538
REMARK INTER:                  29.971
REMARK INTRA:                   1.567
REMARK UNBOUND:                -0.994
REMARK SMILES CCCCCCCCCCCCCCCCCCCCCCCCCCCCCC(=O)[O-]
REMARK SMILES IDX 16 1 17 2 18 3 19 4 20 5 21 6 22 7 23 8 24 9 25 10 26 11
REMARK SMILES IDX 27 12 28 13 29 14 30 15 31 16 32 17 15 18 14 19 13 20 12 21
REMARK SMILES IDX 11 22 10 23 9 24 8 25 7 26 6 27 5 28 4 29 3 30 2 31 1 32
REMARK H PARENT
REMARK Flexibility Score: inf
ROOT
ATOM      1  C   UNL     1       4.575 -37.146  25.181  1.00  0.00     0.000 C 
ENDROOT
BRANCH   1   2
ATOM      2  C   UNL     1       5.649 -36.054  25.311  1.00  0.00     0.000 C 
BRANCH   2   3
ATOM      3  C   UNL     1       6.124 -35.522  23.946  1.00  0.00     0.000 C 
BRANCH   3   4
ATOM      4  C   UNL     1       5.966 -33.996  23.833  1.00  0.00     0.000 C 
BRANCH   4   5
ATOM      5  C   UNL     1       4.864 -33.592  22.841  1.00  0.00     0.000 C 
BRANCH   5   6
ATOM      6  C   UNL     1       5.055 -34.303  21.493  1.00  0.00     0.000 C 
BRANCH   6   7
ATOM      7  C   UNL     1       4.201 -35.576  21.359  1.00  0.00     0.000 C 
BRANCH   7   8
ATOM      8  C   UNL     1       4.957 -36.903  21.577  1.00  0.00     0.000 C 
BRANCH   8   9
ATOM      9  C   UNL     1       5.019 -37.812  20.330  1.00  0.00     0.000 C 
BRANCH   9  10
ATOM     10  C   UNL     1       4.408 -37.146  19.086  1.00  0.00     0.000 C 
BRANCH  10  11
ATOM     11  C   UNL     1       4.638 -35.631  19.097  1.00  0.00     0.000 C 
BRANCH  11  12
ATOM     12  C   UNL     1       4.518 -35.052  17.678  1.00  0.00     0.000 C 
BRANCH  12  13
ATOM     13  C   UNL     1       4.117 -36.109  16.633  1.00  0.00     0.006 C 
BRANCH  13  14
ATOM     14  C   UNL     1       2.934 -35.698  15.742  1.00  0.00     0.053 C 
BRANCH  14  15
ATOM     15  C   UNL     1       2.740 -36.640  14.594  1.00  0.00     0.041 C 
ATOM     16  O   UNL     1       1.584 -36.857  14.141  1.00  0.00    -0.550 OA
ATOM     17  O   UNL     1       3.829 -37.308  14.052  1.00  0.00    -0.550 OA
ENDBRANCH  14  15
ENDBRANCH  13  14
ENDBRANCH  12  13
ENDBRANCH  11  12
ENDBRANCH  10  11
ENDBRANCH   9  10
ENDBRANCH   8   9
ENDBRANCH   7   8
ENDBRANCH   6   7
ENDBRANCH   5   6
ENDBRANCH   4   5
ENDBRANCH   3   4
ENDBRANCH   2   3
ENDBRANCH   1   2
BRANCH   1  18
ATOM     18  C   UNL     1       4.129 -37.704  26.541  1.00  0.00     0.000 C 
BRANCH  18  19
ATOM     19  C   UNL     1       2.597 -37.710  26.655  1.00  0.00     0.000 C 
BRANCH  19  20
ATOM     20  C   UNL     1       2.102 -37.411  28.081  1.00  0.00     0.000 C 
BRANCH  20  21
ATOM     21  C   UNL     1       1.576 -35.978  28.302  1.00  0.00     0.000 C 
BRANCH  21  22
ATOM     22  C   UNL     1       2.630 -34.964  28.788  1.00  0.00     0.000 C 
BRANCH  22  23
ATOM     23  C   UNL     1       2.313 -34.297  30.140  1.00  0.00     0.000 C 
BRANCH  23  24
ATOM     24  C   UNL     1       0.812 -34.165  30.468  1.00  0.00    -0.000 C 
BRANCH  24  25
ATOM     25  C   UNL     1      -0.029 -33.466  29.384  1.00  0.00    -0.000 C 
BRANCH  25  26
ATOM     26  C   UNL     1      -0.976 -32.402  29.955  1.00  0.00    -0.000 C 
BRANCH  26  27
ATOM     27  C   UNL     1      -2.422 -32.651  29.502  1.00  0.00    -0.000 C 
BRANCH  27  28
ATOM     28  C   UNL     1      -2.840 -34.127  29.612  1.00  0.00    -0.000 C 
BRANCH  28  29
ATOM     29  C   UNL     1      -4.306 -34.363  30.019  1.00  0.00    -0.000 C 
BRANCH  29  30
ATOM     30  C   UNL     1      -5.163 -34.925  28.871  1.00  0.00    -0.000 C 
BRANCH  30  31
ATOM     31  C   UNL     1      -4.315 -35.547  27.751  1.00  0.00    -0.003 C 
ATOM     32  C   UNL     1      -4.863 -36.890  27.268  1.00  0.00     0.004 C 
ENDBRANCH  30  31
ENDBRANCH  29  30
ENDBRANCH  28  29
ENDBRANCH  27  28
ENDBRANCH  26  27
ENDBRANCH  25  26
ENDBRANCH  24  25
ENDBRANCH  23  24
ENDBRANCH  22  23
ENDBRANCH  21  22
ENDBRANCH  20  21
ENDBRANCH  19  20
ENDBRANCH  18  19
ENDBRANCH   1  18
TORSDOF 28
ENDMDL
