MODEL 1
REMARK VINA RESULT:     1.690      0.000      0.000
REMARK INTER + INTRA:           1.841
REMARK INTER:                   1.838
REMARK INTRA:                   0.003
REMARK UNBOUND:                 0.003
REMARK SMILES CC1(C)CC[C@]2(C(=O)[O-])CC[C@]3(C)C(=CC[C@@H]4[C@]5(C)CC[C@H](O)C(C)(C)[C@@H]5CC[C@@]43C)[C@@H]2C1
REMARK SMILES IDX 6 1 5 2 10 3 32 4 4 5 11 6 14 7 33 8 2 9 12 10 15 11 1 12
REMARK SMILES IDX 3 13 13 14 30 15 16 16 17 17 29 18 31 19 18 20 28 21 27 22
REMARK SMILES IDX 20 23 19 24 24 25 21 26 22 27 25 28 26 29 7 30 8 31 9 32
REMARK SMILES IDX 23 33
REMARK H PARENT 23 34
REMARK Flexibility Score: inf
ROOT
ATOM      1  C   UNL     1       6.095  23.553  45.203  1.00  0.00     0.017 C 
ATOM      2  C   UNL     1       7.454  22.765  45.226  1.00  0.00     0.014 C 
ATOM      3  C   UNL     1       4.977  22.568  44.801  1.00  0.00     0.014 C 
ATOM      4  C   UNL     1       6.157  24.732  44.171  1.00  0.00     0.028 C 
ATOM      5  C   UNL     1       8.652  23.647  44.846  1.00  0.00     0.007 C 
ATOM      6  C   UNL     1       3.608  23.245  44.686  1.00  0.00     0.013 C 
ATOM      7  C   UNL     1       4.793  25.281  43.735  1.00  0.00    -0.064 C 
ATOM      8  C   UNL     1       7.049  24.374  42.961  1.00  0.00     0.015 C 
ATOM      9  C   UNL     1       8.543  24.186  43.384  1.00  0.00    -0.035 C 
ATOM     10  C   UNL     1       3.535  24.408  43.631  1.00  0.00    -0.006 C 
ATOM     11  C   UNL     1       4.775  26.545  43.278  1.00  0.00    -0.027 C 
ATOM     12  C   UNL     1       9.220  23.195  42.413  1.00  0.00     0.011 C 
ATOM     13  C   UNL     1       9.286  25.536  43.290  1.00  0.00     0.011 C 
ATOM     14  C   UNL     1       3.568  23.764  42.211  1.00  0.00     0.017 C 
ATOM     15  C   UNL     1       2.196  25.296  43.833  1.00  0.00    -0.020 C 
ATOM     16  C   UNL     1       3.536  27.338  43.016  1.00  0.00     0.032 C 
ATOM     17  C   UNL     1       2.200  26.547  42.870  1.00  0.00     0.006 C 
ATOM     18  C   UNL     1       2.089  25.829  45.304  1.00  0.00     0.008 C 
ATOM     19  C   UNL     1       0.958  24.386  43.527  1.00  0.00     0.012 C 
ATOM     20  C   UNL     1       0.881  27.485  42.970  1.00  0.00    -0.025 C 
ATOM     21  C   UNL     1       1.388  27.199  45.504  1.00  0.00     0.005 C 
ATOM     22  C   UNL     1       0.286  27.513  44.458  1.00  0.00     0.003 C 
ATOM     23  C   UNL     1       1.203  28.936  42.447  1.00  0.00     0.010 C 
ATOM     24  C   UNL     1      -0.193  26.907  41.982  1.00  0.00     0.012 C 
ATOM     25  C   UNL     1      -0.649  28.757  44.831  1.00  0.00    -0.006 C 
ATOM     26  C   UNL     1       0.132  29.987  42.734  1.00  0.00     0.033 C 
ATOM     27  C   UNL     1      -0.122  30.094  44.238  1.00  0.00     0.120 C 
ATOM     28  C   UNL     1      -0.802  28.949  46.368  1.00  0.00     0.014 C 
ATOM     29  C   UNL     1      -2.100  28.503  44.327  1.00  0.00     0.014 C 
ENDROOT
BRANCH   1  30
ATOM     30  C   UNL     1       5.811  24.081  46.608  1.00  0.00     0.048 C 
ATOM     31  O   UNL     1       6.211  23.439  47.617  1.00  0.00    -0.550 OA
ATOM     32  O   UNL     1       5.079  25.246  46.809  1.00  0.00    -0.550 OA
ENDBRANCH   1  30
BRANCH  27  33
ATOM     33  O   UNL     1       1.067  30.482  44.887  1.00  0.00    -0.393 OA
ATOM     34  H   UNL     1       0.816  31.114  45.613  1.00  0.00     0.210 HD
ENDBRANCH  27  33
TORSDOF 2
ENDMDL
MODEL 2
REMARK VINA RESULT:     1.942      1.356      7.866
REMARK INTER + INTRA:           2.115
REMARK INTER:                   2.019
REMARK INTRA:                   0.097
REMARK UNBOUND:                 0.003
REMARK SMILES CC1(C)CC[C@]2(C(=O)[O-])CC[C@]3(C)C(=CC[C@@H]4[C@]5(C)CC[C@H](O)C(C)(C)[C@@H]5CC[C@@]43C)[C@@H]2C1
REMARK SMILES IDX 6 1 5 2 10 3 32 4 4 5 11 6 14 7 33 8 2 9 12 10 15 11 1 12
REMARK SMILES IDX 3 13 13 14 30 15 16 16 17 17 29 18 31 19 18 20 28 21 27 22
REMARK SMILES IDX 20 23 19 24 24 25 21 26 22 27 25 28 26 29 7 30 8 31 9 32
REMARK SMILES IDX 23 33
REMARK H PARENT 23 34
REMARK Flexibility Score: inf
ROOT
ATOM      1  C   UNL     1       1.232  28.486  42.658  1.00  0.00     0.017 C 
ATOM      2  C   UNL     1       0.019  29.467  42.469  1.00  0.00     0.014 C 
ATOM      3  C   UNL     1       1.064  27.320  41.661  1.00  0.00     0.014 C 
ATOM      4  C   UNL     1       1.268  27.928  44.123  1.00  0.00     0.028 C 
ATOM      5  C   UNL     1      -0.378  30.169  43.775  1.00  0.00     0.007 C 
ATOM      6  C   UNL     1       2.165  26.263  41.799  1.00  0.00     0.013 C 
ATOM      7  C   UNL     1       2.104  26.655  44.308  1.00  0.00    -0.064 C 
ATOM      8  C   UNL     1      -0.156  27.772  44.701  1.00  0.00     0.015 C 
ATOM      9  C   UNL     1      -0.866  29.157  44.861  1.00  0.00    -0.035 C 
ATOM     10  C   UNL     1       2.255  25.589  43.215  1.00  0.00    -0.006 C 
ATOM     11  C   UNL     1       2.573  26.422  45.546  1.00  0.00    -0.027 C 
ATOM     12  C   UNL     1      -2.392  28.958  44.739  1.00  0.00     0.011 C 
ATOM     13  C   UNL     1      -0.567  29.739  46.260  1.00  0.00     0.011 C 
ATOM     14  C   UNL     1       1.032  24.634  43.365  1.00  0.00     0.017 C 
ATOM     15  C   UNL     1       3.647  24.778  43.387  1.00  0.00    -0.020 C 
ATOM     16  C   UNL     1       3.580  25.373  45.892  1.00  0.00     0.032 C 
ATOM     17  C   UNL     1       3.798  24.226  44.858  1.00  0.00     0.006 C 
ATOM     18  C   UNL     1       4.879  25.703  43.097  1.00  0.00     0.008 C 
ATOM     19  C   UNL     1       3.648  23.590  42.365  1.00  0.00     0.012 C 
ATOM     20  C   UNL     1       5.147  23.366  45.125  1.00  0.00    -0.025 C 
ATOM     21  C   UNL     1       6.184  25.400  43.881  1.00  0.00     0.005 C 
ATOM     22  C   UNL     1       6.376  23.906  44.250  1.00  0.00     0.003 C 
ATOM     23  C   UNL     1       5.492  23.357  46.663  1.00  0.00     0.010 C 
ATOM     24  C   UNL     1       4.845  21.873  44.748  1.00  0.00     0.012 C 
ATOM     25  C   UNL     1       7.843  23.534  44.770  1.00  0.00    -0.006 C 
ATOM     26  C   UNL     1       6.875  22.813  47.020  1.00  0.00     0.033 C 
ATOM     27  C   UNL     1       7.964  23.623  46.317  1.00  0.00     0.120 C 
ATOM     28  C   UNL     1       8.944  24.446  44.156  1.00  0.00     0.014 C 
ATOM     29  C   UNL     1       8.226  22.098  44.302  1.00  0.00     0.014 C 
ENDROOT
BRANCH   1  30
ATOM     30  C   UNL     1       2.523  29.236  42.334  1.00  0.00     0.048 C 
ATOM     31  O   UNL     1       3.608  28.889  42.875  1.00  0.00    -0.550 OA
ATOM     32  O   UNL     1       2.528  30.330  41.477  1.00  0.00    -0.550 OA
ENDBRANCH   1  30
BRANCH  27  33
ATOM     33  O   UNL     1       7.892  24.966  46.736  1.00  0.00    -0.393 OA
ATOM     34  H   UNL     1       6.965  25.128  47.058  1.00  0.00     0.210 HD
ENDBRANCH  27  33
TORSDOF 2
ENDMDL
MODEL 3
REMARK VINA RESULT:     2.194      2.482      7.869
REMARK INTER + INTRA:           2.389
REMARK INTER:                   2.258
REMARK INTRA:                   0.131
REMARK UNBOUND:                 0.003
REMARK SMILES CC1(C)CC[C@]2(C(=O)[O-])CC[C@]3(C)C(=CC[C@@H]4[C@]5(C)CC[C@H](O)C(C)(C)[C@@H]5CC[C@@]43C)[C@@H]2C1
REMARK SMILES IDX 6 1 5 2 10 3 32 4 4 5 11 6 14 7 33 8 2 9 12 10 15 11 1 12
REMARK SMILES IDX 3 13 13 14 30 15 16 16 17 17 29 18 31 19 18 20 28 21 27 22
REMARK SMILES IDX 20 23 19 24 24 25 21 26 22 27 25 28 26 29 7 30 8 31 9 32
REMARK SMILES IDX 23 33
REMARK H PARENT 23 34
REMARK Flexibility Score: inf
ROOT
ATOM      1  C   UNL     1       0.147  27.407  43.463  1.00  0.00     0.017 C 
ATOM      2  C   UNL     1      -0.882  28.568  43.208  1.00  0.00     0.014 C 
ATOM      3  C   UNL     1       1.070  27.834  44.624  1.00  0.00     0.014 C 
ATOM      4  C   UNL     1       1.004  27.137  42.179  1.00  0.00     0.028 C 
ATOM      5  C   UNL     1      -1.301  28.668  41.735  1.00  0.00     0.007 C 
ATOM      6  C   UNL     1       2.160  26.798  44.922  1.00  0.00     0.013 C 
ATOM      7  C   UNL     1       2.308  26.367  42.423  1.00  0.00    -0.064 C 
ATOM      8  C   UNL     1       1.243  28.436  41.377  1.00  0.00     0.015 C 
ATOM      9  C   UNL     1      -0.094  29.011  40.804  1.00  0.00    -0.035 C 
ATOM     10  C   UNL     1       3.122  26.491  43.718  1.00  0.00    -0.006 C 
ATOM     11  C   UNL     1       2.810  25.693  41.373  1.00  0.00    -0.027 C 
ATOM     12  C   UNL     1       0.035  30.543  40.663  1.00  0.00     0.011 C 
ATOM     13  C   UNL     1      -0.359  28.420  39.402  1.00  0.00     0.011 C 
ATOM     14  C   UNL     1       4.055  27.726  43.529  1.00  0.00     0.017 C 
ATOM     15  C   UNL     1       3.985  25.148  43.989  1.00  0.00    -0.020 C 
ATOM     16  C   UNL     1       3.933  24.710  41.452  1.00  0.00     0.032 C 
ATOM     17  C   UNL     1       4.840  24.763  42.719  1.00  0.00     0.006 C 
ATOM     18  C   UNL     1       3.051  23.934  44.320  1.00  0.00     0.008 C 
ATOM     19  C   UNL     1       4.929  25.415  45.211  1.00  0.00     0.012 C 
ATOM     20  C   UNL     1       5.771  23.447  42.902  1.00  0.00    -0.025 C 
ATOM     21  C   UNL     1       3.546  22.529  43.884  1.00  0.00     0.005 C 
ATOM     22  C   UNL     1       5.089  22.369  43.872  1.00  0.00     0.003 C 
ATOM     23  C   UNL     1       6.115  22.825  41.495  1.00  0.00     0.010 C 
ATOM     24  C   UNL     1       7.142  23.911  43.507  1.00  0.00     0.012 C 
ATOM     25  C   UNL     1       5.600  20.859  43.735  1.00  0.00    -0.006 C 
ATOM     26  C   UNL     1       6.757  21.438  41.534  1.00  0.00     0.033 C 
ATOM     27  C   UNL     1       5.844  20.448  42.256  1.00  0.00     0.120 C 
ATOM     28  C   UNL     1       4.607  19.834  44.353  1.00  0.00     0.014 C 
ATOM     29  C   UNL     1       6.913  20.665  44.550  1.00  0.00     0.014 C 
ENDROOT
BRANCH   1  30
ATOM     30  C   UNL     1      -0.622  26.153  43.874  1.00  0.00     0.048 C 
ATOM     31  O   UNL     1      -0.122  25.012  43.673  1.00  0.00    -0.550 OA
ATOM     32  O   UNL     1      -1.891  26.233  44.436  1.00  0.00    -0.550 OA
ENDBRANCH   1  30
BRANCH  27  33
ATOM     33  O   UNL     1       4.619  20.352  41.567  1.00  0.00    -0.393 OA
ATOM     34  H   UNL     1       4.294  19.417  41.667  1.00  0.00     0.210 HD
ENDBRANCH  27  33
TORSDOF 2
ENDMDL
MODEL 4
REMARK VINA RESULT:     2.331      2.559      4.293
REMARK INTER + INTRA:           2.539
REMARK INTER:                   2.541
REMARK INTRA:                  -0.002
REMARK UNBOUND:                 0.003
REMARK SMILES CC1(C)CC[C@]2(C(=O)[O-])CC[C@]3(C)C(=CC[C@@H]4[C@]5(C)CC[C@H](O)C(C)(C)[C@@H]5CC[C@@]43C)[C@@H]2C1
REMARK SMILES IDX 6 1 5 2 10 3 32 4 4 5 11 6 14 7 33 8 2 9 12 10 15 11 1 12
REMARK SMILES IDX 3 13 13 14 30 15 16 16 17 17 29 18 31 19 18 20 28 21 27 22
REMARK SMILES IDX 20 23 19 24 24 25 21 26 22 27 25 28 26 29 7 30 8 31 9 32
REMARK SMILES IDX 23 33
REMARK H PARENT 23 34
REMARK Flexibility Score: inf
ROOT
ATOM      1  C   UNL     1       5.639  22.624  43.057  1.00  0.00     0.017 C 
ATOM      2  C   UNL     1       6.471  21.366  43.502  1.00  0.00     0.014 C 
ATOM      3  C   UNL     1       6.466  23.885  43.387  1.00  0.00     0.014 C 
ATOM      4  C   UNL     1       4.269  22.677  43.816  1.00  0.00     0.028 C 
ATOM      5  C   UNL     1       5.579  20.203  43.957  1.00  0.00     0.007 C 
ATOM      6  C   UNL     1       5.722  25.182  43.050  1.00  0.00     0.013 C 
ATOM      7  C   UNL     1       3.581  24.048  43.812  1.00  0.00    -0.064 C 
ATOM      8  C   UNL     1       4.394  22.098  45.244  1.00  0.00     0.015 C 
ATOM      9  C   UNL     1       4.732  20.571  45.217  1.00  0.00    -0.035 C 
ATOM     10  C   UNL     1       4.356  25.372  43.804  1.00  0.00    -0.006 C 
ATOM     11  C   UNL     1       2.248  24.049  43.989  1.00  0.00    -0.027 C 
ATOM     12  C   UNL     1       5.516  20.206  46.495  1.00  0.00     0.011 C 
ATOM     13  C   UNL     1       3.426  19.746  45.202  1.00  0.00     0.011 C 
ATOM     14  C   UNL     1       4.679  25.698  45.294  1.00  0.00     0.017 C 
ATOM     15  C   UNL     1       3.477  26.552  43.129  1.00  0.00    -0.020 C 
ATOM     16  C   UNL     1       1.365  25.240  43.799  1.00  0.00     0.032 C 
ATOM     17  C   UNL     1       2.049  26.641  43.795  1.00  0.00     0.006 C 
ATOM     18  C   UNL     1       3.272  26.297  41.596  1.00  0.00     0.008 C 
ATOM     19  C   UNL     1       4.246  27.904  43.324  1.00  0.00     0.012 C 
ATOM     20  C   UNL     1       1.100  27.820  43.212  1.00  0.00    -0.025 C 
ATOM     21  C   UNL     1       1.949  26.814  40.970  1.00  0.00     0.005 C 
ATOM     22  C   UNL     1       1.369  28.080  41.654  1.00  0.00     0.003 C 
ATOM     23  C   UNL     1      -0.415  27.487  43.490  1.00  0.00     0.010 C 
ATOM     24  C   UNL     1       1.404  29.126  44.027  1.00  0.00     0.012 C 
ATOM     25  C   UNL     1       0.197  28.800  40.836  1.00  0.00    -0.006 C 
ATOM     26  C   UNL     1      -1.424  28.375  42.762  1.00  0.00     0.033 C 
ATOM     27  C   UNL     1      -1.213  28.294  41.250  1.00  0.00     0.120 C 
ATOM     28  C   UNL     1       0.336  28.606  39.298  1.00  0.00     0.014 C 
ATOM     29  C   UNL     1       0.274  30.342  41.039  1.00  0.00     0.014 C 
ENDROOT
BRANCH   1  30
ATOM     30  C   UNL     1       5.417  22.555  41.547  1.00  0.00     0.048 C 
ATOM     31  O   UNL     1       6.281  22.013  40.805  1.00  0.00    -0.550 OA
ATOM     32  O   UNL     1       4.290  23.116  40.956  1.00  0.00    -0.550 OA
ENDBRANCH   1  30
BRANCH  27  33
ATOM     33  O   UNL     1      -1.400  26.964  40.823  1.00  0.00    -0.393 OA
ATOM     34  H   UNL     1      -0.531  26.492  40.932  1.00  0.00     0.210 HD
ENDBRANCH  27  33
TORSDOF 2
ENDMDL
MODEL 5
REMARK VINA RESULT:     2.647      6.195     10.021
REMARK INTER + INTRA:           2.883
REMARK INTER:                   2.812
REMARK INTRA:                   0.071
REMARK UNBOUND:                 0.003
REMARK SMILES CC1(C)CC[C@]2(C(=O)[O-])CC[C@]3(C)C(=CC[C@@H]4[C@]5(C)CC[C@H](O)C(C)(C)[C@@H]5CC[C@@]43C)[C@@H]2C1
REMARK SMILES IDX 6 1 5 2 10 3 32 4 4 5 11 6 14 7 33 8 2 9 12 10 15 11 1 12
REMARK SMILES IDX 3 13 13 14 30 15 16 16 17 17 29 18 31 19 18 20 28 21 27 22
REMARK SMILES IDX 20 23 19 24 24 25 21 26 22 27 25 28 26 29 7 30 8 31 9 32
REMARK SMILES IDX 23 33
REMARK H PARENT 23 34
REMARK Flexibility Score: inf
ROOT
ATOM      1  C   UNL     1      13.168  17.067  46.072  1.00  0.00     0.017 C 
ATOM      2  C   UNL     1      14.236  15.926  46.241  1.00  0.00     0.014 C 
ATOM      3  C   UNL     1      11.897  16.649  46.841  1.00  0.00     0.014 C 
ATOM      4  C   UNL     1      12.823  17.281  44.558  1.00  0.00     0.028 C 
ATOM      5  C   UNL     1      15.156  15.796  45.019  1.00  0.00     0.007 C 
ATOM      6  C   UNL     1      10.759  17.665  46.695  1.00  0.00     0.013 C 
ATOM      7  C   UNL     1      11.507  18.024  44.294  1.00  0.00    -0.064 C 
ATOM      8  C   UNL     1      12.904  15.954  43.769  1.00  0.00     0.015 C 
ATOM      9  C   UNL     1      14.366  15.398  43.731  1.00  0.00    -0.035 C 
ATOM     10  C   UNL     1      10.286  17.915  45.217  1.00  0.00    -0.006 C 
ATOM     11  C   UNL     1      11.404  18.656  43.112  1.00  0.00    -0.027 C 
ATOM     12  C   UNL     1      14.317  13.860  43.606  1.00  0.00     0.011 C 
ATOM     13  C   UNL     1      15.106  15.957  42.496  1.00  0.00     0.011 C 
ATOM     14  C   UNL     1       9.499  16.652  44.751  1.00  0.00     0.017 C 
ATOM     15  C   UNL     1       9.364  19.242  45.116  1.00  0.00    -0.020 C 
ATOM     16  C   UNL     1      10.313  19.612  42.751  1.00  0.00     0.032 C 
ATOM     17  C   UNL     1       9.015  19.571  43.613  1.00  0.00     0.006 C 
ATOM     18  C   UNL     1      10.102  20.489  45.716  1.00  0.00     0.008 C 
ATOM     19  C   UNL     1       8.050  18.985  45.930  1.00  0.00     0.012 C 
ATOM     20  C   UNL     1       8.062  20.867  43.405  1.00  0.00    -0.025 C 
ATOM     21  C   UNL     1       9.776  21.868  45.084  1.00  0.00     0.005 C 
ATOM     22  C   UNL     1       8.337  21.988  44.517  1.00  0.00     0.003 C 
ATOM     23  C   UNL     1       8.235  21.442  41.948  1.00  0.00     0.010 C 
ATOM     24  C   UNL     1       6.571  20.385  43.497  1.00  0.00     0.012 C 
ATOM     25  C   UNL     1       7.888  23.480  44.155  1.00  0.00    -0.006 C 
ATOM     26  C   UNL     1       7.602  22.813  41.707  1.00  0.00     0.033 C 
ATOM     27  C   UNL     1       8.183  23.845  42.673  1.00  0.00     0.120 C 
ATOM     28  C   UNL     1       8.580  24.547  45.051  1.00  0.00     0.014 C 
ATOM     29  C   UNL     1       6.368  23.664  44.441  1.00  0.00     0.014 C 
ENDROOT
BRANCH   1  30
ATOM     30  C   UNL     1      13.721  18.352  46.687  1.00  0.00     0.048 C 
ATOM     31  O   UNL     1      13.368  19.473  46.231  1.00  0.00    -0.550 OA
ATOM     32  O   UNL     1      14.647  18.317  47.723  1.00  0.00    -0.550 OA
ENDBRANCH   1  30
BRANCH  27  33
ATOM     33  O   UNL     1       9.572  23.953  42.463  1.00  0.00    -0.393 OA
ATOM     34  H   UNL     1       9.770  24.910  42.275  1.00  0.00     0.210 HD
ENDBRANCH  27  33
TORSDOF 2
ENDMDL
MODEL 6
REMARK VINA RESULT:     2.779      6.332     10.273
REMARK INTER + INTRA:           3.026
REMARK INTER:                   2.929
REMARK INTRA:                   0.097
REMARK UNBOUND:                 0.003
REMARK SMILES CC1(C)CC[C@]2(C(=O)[O-])CC[C@]3(C)C(=CC[C@@H]4[C@]5(C)CC[C@H](O)C(C)(C)[C@@H]5CC[C@@]43C)[C@@H]2C1
REMARK SMILES IDX 6 1 5 2 10 3 32 4 4 5 11 6 14 7 33 8 2 9 12 10 15 11 1 12
REMARK SMILES IDX 3 13 13 14 30 15 16 16 17 17 29 18 31 19 18 20 28 21 27 22
REMARK SMILES IDX 20 23 19 24 24 25 21 26 22 27 25 28 26 29 7 30 8 31 9 32
REMARK SMILES IDX 23 33
REMARK H PARENT 23 34
REMARK Flexibility Score: inf
ROOT
ATOM      1  C   UNL     1      12.223  16.036  44.901  1.00  0.00     0.017 C 
ATOM      2  C   UNL     1      13.408  15.042  45.179  1.00  0.00     0.014 C 
ATOM      3  C   UNL     1      12.748  17.162  43.985  1.00  0.00     0.014 C 
ATOM      4  C   UNL     1      11.691  16.651  46.242  1.00  0.00     0.028 C 
ATOM      5  C   UNL     1      13.314  14.389  46.566  1.00  0.00     0.007 C 
ATOM      6  C   UNL     1      11.687  18.229  43.695  1.00  0.00     0.013 C 
ATOM      7  C   UNL     1      10.867  17.936  46.081  1.00  0.00    -0.064 C 
ATOM      8  C   UNL     1      12.830  16.822  47.273  1.00  0.00     0.015 C 
ATOM      9  C   UNL     1      13.414  15.440  47.717  1.00  0.00    -0.035 C 
ATOM     10  C   UNL     1      11.125  18.959  44.968  1.00  0.00    -0.006 C 
ATOM     11  C   UNL     1      10.003  18.219  47.071  1.00  0.00    -0.027 C 
ATOM     12  C   UNL     1      14.891  15.625  48.125  1.00  0.00     0.011 C 
ATOM     13  C   UNL     1      12.637  14.914  48.944  1.00  0.00     0.011 C 
ATOM     14  C   UNL     1      12.238  19.912  45.500  1.00  0.00     0.017 C 
ATOM     15  C   UNL     1       9.775  19.784  44.618  1.00  0.00    -0.020 C 
ATOM     16  C   UNL     1       8.959  19.286  47.009  1.00  0.00     0.032 C 
ATOM     17  C   UNL     1       9.134  20.393  45.925  1.00  0.00     0.006 C 
ATOM     18  C   UNL     1       8.703  18.855  43.951  1.00  0.00     0.008 C 
ATOM     19  C   UNL     1      10.151  20.931  43.619  1.00  0.00     0.012 C 
ATOM     20  C   UNL     1       7.792  21.271  45.677  1.00  0.00    -0.025 C 
ATOM     21  C   UNL     1       7.214  19.196  44.222  1.00  0.00     0.005 C 
ATOM     22  C   UNL     1       6.933  20.704  44.449  1.00  0.00     0.003 C 
ATOM     23  C   UNL     1       6.936  21.342  46.998  1.00  0.00     0.010 C 
ATOM     24  C   UNL     1       8.234  22.746  45.377  1.00  0.00     0.012 C 
ATOM     25  C   UNL     1       5.384  21.105  44.414  1.00  0.00    -0.006 C 
ATOM     26  C   UNL     1       5.526  21.907  46.834  1.00  0.00     0.033 C 
ATOM     27  C   UNL     1       4.733  21.076  45.825  1.00  0.00     0.120 C 
ATOM     28  C   UNL     1       4.547  20.176  43.488  1.00  0.00     0.014 C 
ATOM     29  C   UNL     1       5.214  22.523  43.793  1.00  0.00     0.014 C 
ENDROOT
BRANCH   1  30
ATOM     30  C   UNL     1      11.110  15.282  44.175  1.00  0.00     0.048 C 
ATOM     31  O   UNL     1       9.912  15.657  44.293  1.00  0.00    -0.550 OA
ATOM     32  O   UNL     1      11.382  14.155  43.409  1.00  0.00    -0.550 OA
ENDBRANCH   1  30
BRANCH  27  33
ATOM     33  O   UNL     1       4.629  19.750  46.289  1.00  0.00    -0.393 OA
ATOM     34  H   UNL     1       3.672  19.486  46.224  1.00  0.00     0.210 HD
ENDBRANCH  27  33
TORSDOF 2
ENDMDL
MODEL 7
REMARK VINA RESULT:     2.927      6.156     12.355
REMARK INTER + INTRA:           3.186
REMARK INTER:                   3.105
REMARK INTRA:                   0.081
REMARK UNBOUND:                 0.003
REMARK SMILES CC1(C)CC[C@]2(C(=O)[O-])CC[C@]3(C)C(=CC[C@@H]4[C@]5(C)CC[C@H](O)C(C)(C)[C@@H]5CC[C@@]43C)[C@@H]2C1
REMARK SMILES IDX 6 1 5 2 10 3 32 4 4 5 11 6 14 7 33 8 2 9 12 10 15 11 1 12
REMARK SMILES IDX 3 13 13 14 30 15 16 16 17 17 29 18 31 19 18 20 28 21 27 22
REMARK SMILES IDX 20 23 19 24 24 25 21 26 22 27 25 28 26 29 7 30 8 31 9 32
REMARK SMILES IDX 23 33
REMARK H PARENT 23 34
REMARK Flexibility Score: inf
ROOT
ATOM      1  C   UNL     1       6.937  20.961  45.367  1.00  0.00     0.017 C 
ATOM      2  C   UNL     1       5.669  21.750  44.875  1.00  0.00     0.014 C 
ATOM      3  C   UNL     1       8.139  21.929  45.350  1.00  0.00     0.014 C 
ATOM      4  C   UNL     1       7.228  19.741  44.426  1.00  0.00     0.028 C 
ATOM      5  C   UNL     1       4.672  20.853  44.128  1.00  0.00     0.007 C 
ATOM      6  C   UNL     1       9.450  21.247  45.755  1.00  0.00     0.013 C 
ATOM      7  C   UNL     1       8.650  19.175  44.524  1.00  0.00    -0.064 C 
ATOM      8  C   UNL     1       6.829  20.050  42.965  1.00  0.00     0.015 C 
ATOM      9  C   UNL     1       5.285  20.255  42.822  1.00  0.00    -0.035 C 
ATOM     10  C   UNL     1       9.875  20.043  44.840  1.00  0.00    -0.006 C 
ATOM     11  C   UNL     1       8.810  17.893  44.151  1.00  0.00    -0.027 C 
ATOM     12  C   UNL     1       5.011  21.205  41.636  1.00  0.00     0.011 C 
ATOM     13  C   UNL     1       4.604  18.902  42.522  1.00  0.00     0.011 C 
ATOM     14  C   UNL     1      10.358  20.628  43.478  1.00  0.00     0.017 C 
ATOM     15  C   UNL     1      11.042  19.163  45.538  1.00  0.00    -0.020 C 
ATOM     16  C   UNL     1      10.050  17.090  44.377  1.00  0.00     0.032 C 
ATOM     17  C   UNL     1      11.362  17.874  44.685  1.00  0.00     0.006 C 
ATOM     18  C   UNL     1      10.613  18.691  46.970  1.00  0.00     0.008 C 
ATOM     19  C   UNL     1      12.322  20.060  45.658  1.00  0.00     0.012 C 
ATOM     20  C   UNL     1      12.546  16.941  45.283  1.00  0.00    -0.025 C 
ATOM     21  C   UNL     1      11.177  17.331  47.459  1.00  0.00     0.005 C 
ATOM     22  C   UNL     1      12.573  16.973  46.885  1.00  0.00     0.003 C 
ATOM     23  C   UNL     1      12.409  15.470  44.736  1.00  0.00     0.010 C 
ATOM     24  C   UNL     1      13.909  17.478  44.720  1.00  0.00     0.012 C 
ATOM     25  C   UNL     1      13.297  15.746  47.613  1.00  0.00    -0.006 C 
ATOM     26  C   UNL     1      13.293  14.431  45.425  1.00  0.00     0.033 C 
ATOM     27  C   UNL     1      12.995  14.386  46.924  1.00  0.00     0.120 C 
ATOM     28  C   UNL     1      12.892  15.617  49.111  1.00  0.00     0.014 C 
ATOM     29  C   UNL     1      14.836  15.979  47.648  1.00  0.00     0.014 C 
ENDROOT
BRANCH   1  30
ATOM     30  C   UNL     1       6.696  20.491  46.800  1.00  0.00     0.048 C 
ATOM     31  O   UNL     1       5.900  21.123  47.547  1.00  0.00    -0.550 OA
ATOM     32  O   UNL     1       7.369  19.393  47.324  1.00  0.00    -0.550 OA
ENDBRANCH   1  30
BRANCH  27  33
ATOM     33  O   UNL     1      11.648  14.025  47.122  1.00  0.00    -0.393 OA
ATOM     34  H   UNL     1      11.298  13.693  46.252  1.00  0.00     0.210 HD
ENDBRANCH  27  33
TORSDOF 2
ENDMDL
MODEL 8
REMARK VINA RESULT:     2.953      6.025     12.203
REMARK INTER + INTRA:           3.215
REMARK INTER:                   3.277
REMARK INTRA:                  -0.063
REMARK UNBOUND:                 0.003
REMARK SMILES CC1(C)CC[C@]2(C(=O)[O-])CC[C@]3(C)C(=CC[C@@H]4[C@]5(C)CC[C@H](O)C(C)(C)[C@@H]5CC[C@@]43C)[C@@H]2C1
REMARK SMILES IDX 6 1 5 2 10 3 32 4 4 5 11 6 14 7 33 8 2 9 12 10 15 11 1 12
REMARK SMILES IDX 3 13 13 14 30 15 16 16 17 17 29 18 31 19 18 20 28 21 27 22
REMARK SMILES IDX 20 23 19 24 24 25 21 26 22 27 25 28 26 29 7 30 8 31 9 32
REMARK SMILES IDX 23 33
REMARK H PARENT 23 34
REMARK Flexibility Score: inf
ROOT
ATOM      1  C   UNL     1       7.940  21.967  43.427  1.00  0.00     0.017 C 
ATOM      2  C   UNL     1       7.013  23.235  43.480  1.00  0.00     0.014 C 
ATOM      3  C   UNL     1       7.041  20.714  43.497  1.00  0.00     0.014 C 
ATOM      4  C   UNL     1       8.943  21.965  44.633  1.00  0.00     0.028 C 
ATOM      5  C   UNL     1       7.688  24.429  44.170  1.00  0.00     0.007 C 
ATOM      6  C   UNL     1       7.848  19.411  43.515  1.00  0.00     0.013 C 
ATOM      7  C   UNL     1       9.576  20.603  44.944  1.00  0.00    -0.064 C 
ATOM      8  C   UNL     1       8.315  22.610  45.889  1.00  0.00     0.015 C 
ATOM      9  C   UNL     1       8.019  24.130  45.667  1.00  0.00    -0.035 C 
ATOM     10  C   UNL     1       8.847  19.272  44.720  1.00  0.00    -0.006 C 
ATOM     11  C   UNL     1      10.755  20.625  45.590  1.00  0.00    -0.027 C 
ATOM     12  C   UNL     1       6.829  24.547  46.556  1.00  0.00     0.011 C 
ATOM     13  C   UNL     1       9.248  24.967  46.085  1.00  0.00     0.011 C 
ATOM     14  C   UNL     1       8.005  19.013  46.007  1.00  0.00     0.017 C 
ATOM     15  C   UNL     1       9.902  18.070  44.467  1.00  0.00    -0.020 C 
ATOM     16  C   UNL     1      11.638  19.436  45.790  1.00  0.00     0.032 C 
ATOM     17  C   UNL     1      10.992  18.029  45.607  1.00  0.00     0.006 C 
ATOM     18  C   UNL     1      10.650  18.254  43.101  1.00  0.00     0.008 C 
ATOM     19  C   UNL     1       9.106  16.721  44.436  1.00  0.00     0.012 C 
ATOM     20  C   UNL     1      12.080  16.834  45.465  1.00  0.00    -0.025 C 
ATOM     21  C   UNL     1      12.106  17.722  43.021  1.00  0.00     0.005 C 
ATOM     22  C   UNL     1      12.390  16.497  43.929  1.00  0.00     0.003 C 
ATOM     23  C   UNL     1      13.394  17.197  46.255  1.00  0.00     0.010 C 
ATOM     24  C   UNL     1      11.492  15.565  46.177  1.00  0.00     0.012 C 
ATOM     25  C   UNL     1      13.773  15.752  43.626  1.00  0.00    -0.006 C 
ATOM     26  C   UNL     1      14.591  16.286  45.985  1.00  0.00     0.033 C 
ATOM     27  C   UNL     1      14.942  16.293  44.497  1.00  0.00     0.120 C 
ATOM     28  C   UNL     1      14.202  15.870  42.134  1.00  0.00     0.014 C 
ATOM     29  C   UNL     1      13.617  14.220  43.862  1.00  0.00     0.014 C 
ENDROOT
BRANCH   1  30
ATOM     30  C   UNL     1       8.694  21.966  42.099  1.00  0.00     0.048 C 
ATOM     31  O   UNL     1       8.128  22.381  41.051  1.00  0.00    -0.550 OA
ATOM     32  O   UNL     1       9.992  21.477  42.004  1.00  0.00    -0.550 OA
ENDBRANCH   1  30
BRANCH  27  33
ATOM     33  O   UNL     1      15.280  17.602  44.102  1.00  0.00    -0.393 OA
ATOM     34  H   UNL     1      15.954  17.943  44.749  1.00  0.00     0.210 HD
ENDBRANCH  27  33
TORSDOF 2
ENDMDL
MODEL 9
REMARK VINA RESULT:     4.221      2.180      3.413
REMARK INTER + INTRA:           4.594
REMARK INTER:                   4.828
REMARK INTRA:                  -0.234
REMARK UNBOUND:                 0.003
REMARK SMILES CC1(C)CC[C@]2(C(=O)[O-])CC[C@]3(C)C(=CC[C@@H]4[C@]5(C)CC[C@H](O)C(C)(C)[C@@H]5CC[C@@]43C)[C@@H]2C1
REMARK SMILES IDX 6 1 5 2 10 3 32 4 4 5 11 6 14 7 33 8 2 9 12 10 15 11 1 12
REMARK SMILES IDX 3 13 13 14 30 15 16 16 17 17 29 18 31 19 18 20 28 21 27 22
REMARK SMILES IDX 20 23 19 24 24 25 21 26 22 27 25 28 26 29 7 30 8 31 9 32
REMARK SMILES IDX 23 33
REMARK H PARENT 23 34
REMARK Flexibility Score: inf
ROOT
ATOM      1  C   UNL     1       7.247  23.429  44.336  1.00  0.00     0.017 C 
ATOM      2  C   UNL     1       8.298  22.282  44.563  1.00  0.00     0.014 C 
ATOM      3  C   UNL     1       6.715  23.870  45.717  1.00  0.00     0.014 C 
ATOM      4  C   UNL     1       6.058  22.921  43.450  1.00  0.00     0.028 C 
ATOM      5  C   UNL     1       8.325  21.272  43.408  1.00  0.00     0.007 C 
ATOM      6  C   UNL     1       5.632  24.949  45.613  1.00  0.00     0.013 C 
ATOM      7  C   UNL     1       4.785  23.774  43.527  1.00  0.00    -0.064 C 
ATOM      8  C   UNL     1       5.766  21.424  43.703  1.00  0.00     0.015 C 
ATOM      9  C   UNL     1       6.963  20.522  43.253  1.00  0.00    -0.035 C 
ATOM     10  C   UNL     1       4.359  24.526  44.794  1.00  0.00    -0.006 C 
ATOM     11  C   UNL     1       3.952  23.701  42.474  1.00  0.00    -0.027 C 
ATOM     12  C   UNL     1       6.976  19.239  44.110  1.00  0.00     0.011 C 
ATOM     13  C   UNL     1       6.781  20.112  41.775  1.00  0.00     0.011 C 
ATOM     14  C   UNL     1       3.555  23.507  45.658  1.00  0.00     0.017 C 
ATOM     15  C   UNL     1       3.450  25.814  44.423  1.00  0.00    -0.020 C 
ATOM     16  C   UNL     1       2.785  24.606  42.248  1.00  0.00     0.032 C 
ATOM     17  C   UNL     1       2.255  25.406  43.478  1.00  0.00     0.006 C 
ATOM     18  C   UNL     1       4.295  26.905  43.678  1.00  0.00     0.008 C 
ATOM     19  C   UNL     1       2.897  26.420  45.758  1.00  0.00     0.012 C 
ATOM     20  C   UNL     1       1.261  26.623  43.075  1.00  0.00    -0.025 C 
ATOM     21  C   UNL     1       3.546  27.783  42.639  1.00  0.00     0.005 C 
ATOM     22  C   UNL     1       2.046  28.015  42.960  1.00  0.00     0.003 C 
ATOM     23  C   UNL     1       0.491  26.280  41.743  1.00  0.00     0.010 C 
ATOM     24  C   UNL     1       0.159  26.728  44.187  1.00  0.00     0.012 C 
ATOM     25  C   UNL     1       1.349  29.160  42.086  1.00  0.00    -0.006 C 
ATOM     26  C   UNL     1      -0.271  27.444  41.111  1.00  0.00     0.033 C 
ATOM     27  C   UNL     1       0.681  28.599  40.799  1.00  0.00     0.120 C 
ATOM     28  C   UNL     1       2.347  30.273  41.653  1.00  0.00     0.014 C 
ATOM     29  C   UNL     1       0.283  29.908  42.940  1.00  0.00     0.014 C 
ENDROOT
BRANCH   1  30
ATOM     30  C   UNL     1       7.949  24.612  43.672  1.00  0.00     0.048 C 
ATOM     31  O   UNL     1       7.671  24.925  42.482  1.00  0.00    -0.550 OA
ATOM     32  O   UNL     1       8.927  25.340  44.340  1.00  0.00    -0.550 OA
ENDBRANCH   1  30
BRANCH  27  33
ATOM     33  O   UNL     1       1.663  28.163  39.888  1.00  0.00    -0.393 OA
ATOM     34  H   UNL     1       2.170  28.966  39.592  1.00  0.00     0.210 HD
ENDBRANCH  27  33
TORSDOF 2
ENDMDL
