MODEL 1
REMARK VINA RESULT:     3.464      0.000      0.000
REMARK INTER + INTRA:           6.993
REMARK INTER:                   5.084
REMARK INTRA:                   1.909
REMARK UNBOUND:                 1.909
REMARK SMILES O=c1c(O[C@@H]2O[C@@H](CO)[C@@H](O)[C@@H](O)[C@H]2O)c(-c2ccc(O)c(O)c2)oc2cc(O)cc(O)c12
REMARK SMILES IDX 4 1 3 2 16 3 25 4 2 5 26 6 1 7 33 8 27 9 31 10 28 11 30 12
REMARK SMILES IDX 17 13 18 14 19 15 20 16 24 17 22 18 21 19 23 21 32 23 29 25
REMARK SMILES IDX 5 27 14 28 6 29 12 30 7 31 10 32 15 33 13 35 8 37 9 38 11 40
REMARK H PARENT 21 20 23 22 32 24 29 26 15 34 13 36 9 39 11 41
REMARK Flexibility Score: inf
ROOT
ATOM      1  O   UNL     1       1.729   5.158   1.898  1.00  0.00    -0.454 OA
ENDROOT
BRANCH   1   2
ATOM      2  C   UNL     1       0.551   5.631   1.296  1.00  0.00     0.214 A 
ATOM      3  C   UNL     1      -0.412   4.692   0.894  1.00  0.00     0.180 A 
ATOM      4  O   UNL     1      -1.562   5.097   0.363  1.00  0.00    -0.452 OA
ATOM      5  C   UNL     1       0.289   6.999   1.080  1.00  0.00     0.239 A 
ATOM      6  C   UNL     1      -1.865   6.373   0.170  1.00  0.00     0.146 A 
ATOM      7  O   UNL     1       1.187   7.841   1.320  1.00  0.00    -0.285 OA
ATOM      8  C   UNL     1      -0.962   7.401   0.544  1.00  0.00     0.111 A 
ATOM      9  C   UNL     1      -3.092   6.683  -0.424  1.00  0.00     0.094 A 
ATOM     10  C   UNL     1      -1.355   8.757   0.333  1.00  0.00     0.134 A 
ATOM     11  C   UNL     1      -3.438   8.009  -0.674  1.00  0.00     0.123 A 
ATOM     12  C   UNL     1      -2.572   9.035  -0.301  1.00  0.00     0.093 A 
BRANCH   3  13
ATOM     13  C   UNL     1      -0.199   3.242   1.068  1.00  0.00     0.025 A 
ATOM     14  C   UNL     1      -0.764   2.553   2.152  1.00  0.00     0.016 A 
ATOM     15  C   UNL     1      -0.547   1.182   2.303  1.00  0.00     0.051 A 
ATOM     16  C   UNL     1       0.227   0.482   1.366  1.00  0.00     0.157 A 
ATOM     17  C   UNL     1       0.599   2.545   0.148  1.00  0.00     0.062 A 
ATOM     18  C   UNL     1       0.803   1.168   0.284  1.00  0.00     0.158 A 
BRANCH  16  19
ATOM     19  O   UNL     1       0.421  -0.890   1.507  1.00  0.00    -0.504 OA
ATOM     20  H   UNL     1       0.664  -1.474   0.716  1.00  0.00     0.293 HD
ENDBRANCH  16  19
BRANCH  18  21
ATOM     21  O   UNL     1       1.578   0.501  -0.665  1.00  0.00    -0.504 OA
ATOM     22  H   UNL     1       1.338   0.497  -1.648  1.00  0.00     0.293 HD
ENDBRANCH  18  21
ENDBRANCH   3  13
BRANCH  10  23
ATOM     23  O   UNL     1      -0.610   9.863   0.752  1.00  0.00    -0.507 OA
ATOM     24  H   UNL     1      -0.166  10.528   0.137  1.00  0.00     0.293 HD
ENDBRANCH  10  23
BRANCH  11  25
ATOM     25  O   UNL     1      -4.649   8.322  -1.290  1.00  0.00    -0.508 OA
ATOM     26  H   UNL     1      -4.741   9.133  -1.886  1.00  0.00     0.293 HD
ENDBRANCH  11  25
ENDBRANCH   1   2
BRANCH   1  27
ATOM     27  C   UNL     1       2.914   5.918   2.147  1.00  0.00     0.339 C 
ATOM     28  C   UNL     1       4.124   4.970   2.260  1.00  0.00     0.214 C 
ATOM     29  O   UNL     1       3.121   6.910   1.155  1.00  0.00    -0.332 OA
ATOM     30  C   UNL     1       4.437   4.360   0.877  1.00  0.00     0.180 C 
ATOM     31  C   UNL     1       3.282   6.341  -0.135  1.00  0.00     0.179 C 
ATOM     32  C   UNL     1       4.547   5.457  -0.202  1.00  0.00     0.177 C 
BRANCH  28  33
ATOM     33  O   UNL     1       5.225   5.692   2.751  1.00  0.00    -0.384 OA
ATOM     34  H   UNL     1       5.050   5.864   3.714  1.00  0.00     0.211 HD
ENDBRANCH  28  33
BRANCH  30  35
ATOM     35  O   UNL     1       5.577   3.536   0.913  1.00  0.00    -0.387 OA
ATOM     36  H   UNL     1       5.426   2.818   1.570  1.00  0.00     0.211 HD
ENDBRANCH  30  35
BRANCH  31  37
ATOM     37  C   UNL     1       3.314   7.462  -1.180  1.00  0.00     0.191 C 
BRANCH  37  38
ATOM     38  O   UNL     1       2.849   8.674  -0.651  1.00  0.00    -0.394 OA
ATOM     39  H   UNL     1       3.594   9.323  -0.732  1.00  0.00     0.210 HD
ENDBRANCH  37  38
ENDBRANCH  31  37
BRANCH  32  40
ATOM     40  O   UNL     1       5.696   6.241   0.010  1.00  0.00    -0.387 OA
ATOM     41  H   UNL     1       5.697   6.958  -0.675  1.00  0.00     0.211 HD
ENDBRANCH  32  40
ENDBRANCH   1  27
TORSDOF 12
ENDMDL
MODEL 2
REMARK VINA RESULT:     4.395      1.013      2.062
REMARK INTER + INTRA:           8.359
REMARK INTER:                   9.313
REMARK INTRA:                  -0.954
REMARK UNBOUND:                 1.909
REMARK SMILES O=c1c(O[C@@H]2O[C@@H](CO)[C@@H](O)[C@@H](O)[C@H]2O)c(-c2ccc(O)c(O)c2)oc2cc(O)cc(O)c12
REMARK SMILES IDX 4 1 3 2 16 3 25 4 2 5 26 6 1 7 33 8 27 9 31 10 28 11 30 12
REMARK SMILES IDX 17 13 18 14 19 15 20 16 24 17 22 18 21 19 23 21 32 23 29 25
REMARK SMILES IDX 5 27 14 28 6 29 12 30 7 31 10 32 15 33 13 35 8 37 9 38 11 40
REMARK H PARENT 21 20 23 22 32 24 29 26 15 34 13 36 9 39 11 41
REMARK Flexibility Score: inf
ROOT
ATOM      1  O   UNL     1       1.835   5.331   1.305  1.00  0.00    -0.454 OA
ENDROOT
BRANCH   1   2
ATOM      2  C   UNL     1       0.574   5.854   0.972  1.00  0.00     0.214 A 
ATOM      3  C   UNL     1      -0.506   4.963   0.866  1.00  0.00     0.180 A 
ATOM      4  O   UNL     1      -1.726   5.419   0.600  1.00  0.00    -0.452 OA
ATOM      5  C   UNL     1       0.341   7.225   0.745  1.00  0.00     0.239 A 
ATOM      6  C   UNL     1      -1.998   6.702   0.409  1.00  0.00     0.146 A 
ATOM      7  O   UNL     1       1.315   8.016   0.715  1.00  0.00    -0.285 OA
ATOM      8  C   UNL     1      -0.978   7.684   0.497  1.00  0.00     0.111 A 
ATOM      9  C   UNL     1      -3.314   7.066   0.105  1.00  0.00     0.094 A 
ATOM     10  C   UNL     1      -1.337   9.052   0.306  1.00  0.00     0.134 A 
ATOM     11  C   UNL     1      -3.638   8.399  -0.133  1.00  0.00     0.123 A 
ATOM     12  C   UNL     1      -2.654   9.381  -0.037  1.00  0.00     0.093 A 
BRANCH   3  13
ATOM     13  C   UNL     1      -0.336   3.511   1.070  1.00  0.00     0.025 A 
ATOM     14  C   UNL     1      -0.534   2.930   2.332  1.00  0.00     0.016 A 
ATOM     15  C   UNL     1      -0.362   1.555   2.506  1.00  0.00     0.051 A 
ATOM     16  C   UNL     1      -0.002   0.744   1.420  1.00  0.00     0.157 A 
ATOM     17  C   UNL     1       0.053   2.702  -0.009  1.00  0.00     0.062 A 
ATOM     18  C   UNL     1       0.207   1.322   0.157  1.00  0.00     0.158 A 
BRANCH  16  19
ATOM     19  O   UNL     1       0.144  -0.630   1.593  1.00  0.00    -0.504 OA
ATOM     20  H   UNL     1      -0.570  -1.185   2.049  1.00  0.00     0.293 HD
ENDBRANCH  16  19
BRANCH  18  21
ATOM     21  O   UNL     1       0.565   0.544  -0.944  1.00  0.00    -0.504 OA
ATOM     22  H   UNL     1       0.421  -0.457  -0.965  1.00  0.00     0.293 HD
ENDBRANCH  18  21
ENDBRANCH   3  13
BRANCH  10  23
ATOM     23  O   UNL     1      -0.455  10.124   0.471  1.00  0.00    -0.507 OA
ATOM     24  H   UNL     1       0.199  10.447  -0.226  1.00  0.00     0.293 HD
ENDBRANCH  10  23
BRANCH  11  25
ATOM     25  O   UNL     1      -4.943   8.764  -0.462  1.00  0.00    -0.508 OA
ATOM     26  H   UNL     1      -5.602   9.054   0.246  1.00  0.00     0.293 HD
ENDBRANCH  11  25
ENDBRANCH   1   2
BRANCH   1  27
ATOM     27  C   UNL     1       3.065   5.596   0.627  1.00  0.00     0.339 C 
ATOM     28  C   UNL     1       4.195   5.787   1.657  1.00  0.00     0.214 C 
ATOM     29  O   UNL     1       3.381   4.576  -0.308  1.00  0.00    -0.332 OA
ATOM     30  C   UNL     1       4.508   4.440   2.342  1.00  0.00     0.180 C 
ATOM     31  C   UNL     1       3.542   3.315   0.322  1.00  0.00     0.179 C 
ATOM     32  C   UNL     1       4.737   3.327   1.300  1.00  0.00     0.177 C 
BRANCH  28  33
ATOM     33  O   UNL     1       5.331   6.292   1.001  1.00  0.00    -0.384 OA
ATOM     34  H   UNL     1       5.848   6.807   1.675  1.00  0.00     0.211 HD
ENDBRANCH  28  33
BRANCH  30  35
ATOM     35  O   UNL     1       5.580   4.547   3.247  1.00  0.00    -0.387 OA
ATOM     36  H   UNL     1       5.840   5.495   3.317  1.00  0.00     0.211 HD
ENDBRANCH  30  35
BRANCH  31  37
ATOM     37  C   UNL     1       3.693   2.231  -0.752  1.00  0.00     0.191 C 
BRANCH  37  38
ATOM     38  O   UNL     1       3.130   1.016  -0.339  1.00  0.00    -0.394 OA
ATOM     39  H   UNL     1       3.558   0.306  -0.884  1.00  0.00     0.210 HD
ENDBRANCH  37  38
ENDBRANCH  31  37
BRANCH  32  40
ATOM     40  O   UNL     1       5.934   3.552   0.595  1.00  0.00    -0.387 OA
ATOM     41  H   UNL     1       6.557   4.020   1.209  1.00  0.00     0.211 HD
ENDBRANCH  32  40
ENDBRANCH   1  27
TORSDOF 12
ENDMDL
MODEL 3
REMARK VINA RESULT:     6.106      1.039      2.269
REMARK INTER + INTRA:          10.871
REMARK INTER:                  11.106
REMARK INTRA:                  -0.235
REMARK UNBOUND:                 1.909
REMARK SMILES O=c1c(O[C@@H]2O[C@@H](CO)[C@@H](O)[C@@H](O)[C@H]2O)c(-c2ccc(O)c(O)c2)oc2cc(O)cc(O)c12
REMARK SMILES IDX 4 1 3 2 16 3 25 4 2 5 26 6 1 7 33 8 27 9 31 10 28 11 30 12
REMARK SMILES IDX 17 13 18 14 19 15 20 16 24 17 22 18 21 19 23 21 32 23 29 25
REMARK SMILES IDX 5 27 14 28 6 29 12 30 7 31 10 32 15 33 13 35 8 37 9 38 11 40
REMARK H PARENT 21 20 23 22 32 24 29 26 15 34 13 36 9 39 11 41
REMARK Flexibility Score: inf
ROOT
ATOM      1  O   UNL     1       1.559   5.558   1.392  1.00  0.00    -0.454 OA
ENDROOT
BRANCH   1   2
ATOM      2  C   UNL     1       0.266   5.966   1.022  1.00  0.00     0.214 A 
ATOM      3  C   UNL     1      -0.731   4.984   0.906  1.00  0.00     0.180 A 
ATOM      4  O   UNL     1      -1.979   5.330   0.604  1.00  0.00    -0.452 OA
ATOM      5  C   UNL     1      -0.078   7.308   0.767  1.00  0.00     0.239 A 
ATOM      6  C   UNL     1      -2.355   6.582   0.386  1.00  0.00     0.146 A 
ATOM      7  O   UNL     1       0.824   8.180   0.747  1.00  0.00    -0.285 OA
ATOM      8  C   UNL     1      -1.426   7.649   0.482  1.00  0.00     0.111 A 
ATOM      9  C   UNL     1      -3.689   6.827   0.047  1.00  0.00     0.094 A 
ATOM     10  C   UNL     1      -1.895   8.979   0.261  1.00  0.00     0.134 A 
ATOM     11  C   UNL     1      -4.121   8.124  -0.220  1.00  0.00     0.123 A 
ATOM     12  C   UNL     1      -3.227   9.188  -0.117  1.00  0.00     0.093 A 
BRANCH   3  13
ATOM     13  C   UNL     1      -0.442   3.555   1.136  1.00  0.00     0.025 A 
ATOM     14  C   UNL     1      -0.934   2.892   2.270  1.00  0.00     0.016 A 
ATOM     15  C   UNL     1      -0.645   1.541   2.475  1.00  0.00     0.051 A 
ATOM     16  C   UNL     1       0.129   0.835   1.542  1.00  0.00     0.157 A 
ATOM     17  C   UNL     1       0.356   2.855   0.219  1.00  0.00     0.062 A 
ATOM     18  C   UNL     1       0.632   1.497   0.410  1.00  0.00     0.158 A 
BRANCH  16  19
ATOM     19  O   UNL     1       0.394  -0.518   1.737  1.00  0.00    -0.504 OA
ATOM     20  H   UNL     1       0.988  -1.038   1.101  1.00  0.00     0.293 HD
ENDBRANCH  16  19
BRANCH  18  21
ATOM     21  O   UNL     1       1.405   0.824  -0.537  1.00  0.00    -0.504 OA
ATOM     22  H   UNL     1       1.820   1.298  -1.329  1.00  0.00     0.293 HD
ENDBRANCH  18  21
ENDBRANCH   3  13
BRANCH  10  23
ATOM     23  O   UNL     1      -1.113  10.125   0.429  1.00  0.00    -0.507 OA
ATOM     24  H   UNL     1      -0.195  10.142   0.845  1.00  0.00     0.293 HD
ENDBRANCH  10  23
BRANCH  11  25
ATOM     25  O   UNL     1      -5.443   8.370  -0.585  1.00  0.00    -0.508 OA
ATOM     26  H   UNL     1      -5.863   9.281  -0.458  1.00  0.00     0.293 HD
ENDBRANCH  11  25
ENDBRANCH   1   2
BRANCH   1  27
ATOM     27  C   UNL     1       2.617   5.195   0.502  1.00  0.00     0.339 C 
ATOM     28  C   UNL     1       3.054   6.425  -0.315  1.00  0.00     0.214 C 
ATOM     29  O   UNL     1       3.711   4.616   1.197  1.00  0.00    -0.332 OA
ATOM     30  C   UNL     1       3.765   7.438   0.609  1.00  0.00     0.180 C 
ATOM     31  C   UNL     1       4.277   5.517   2.135  1.00  0.00     0.179 C 
ATOM     32  C   UNL     1       4.876   6.754   1.430  1.00  0.00     0.177 C 
BRANCH  28  33
ATOM     33  O   UNL     1       3.906   6.006  -1.351  1.00  0.00    -0.384 OA
ATOM     34  H   UNL     1       3.657   6.528  -2.158  1.00  0.00     0.211 HD
ENDBRANCH  28  33
BRANCH  30  35
ATOM     35  O   UNL     1       4.242   8.553  -0.104  1.00  0.00    -0.387 OA
ATOM     36  H   UNL     1       3.532   9.235  -0.135  1.00  0.00     0.211 HD
ENDBRANCH  30  35
BRANCH  31  37
ATOM     37  C   UNL     1       5.323   4.777   2.977  1.00  0.00     0.191 C 
BRANCH  37  38
ATOM     38  O   UNL     1       4.739   4.141   4.081  1.00  0.00    -0.394 OA
ATOM     39  H   UNL     1       3.975   4.707   4.363  1.00  0.00     0.210 HD
ENDBRANCH  37  38
ENDBRANCH  31  37
BRANCH  32  40
ATOM     40  O   UNL     1       5.938   6.365   0.593  1.00  0.00    -0.387 OA
ATOM     41  H   UNL     1       6.602   7.102   0.593  1.00  0.00     0.211 HD
ENDBRANCH  32  40
ENDBRANCH   1  27
TORSDOF 12
ENDMDL
