MODEL 1
REMARK VINA RESULT:    -7.584      0.000      0.000
REMARK INTER + INTRA:         -11.651
REMARK INTER:                 -10.022
REMARK INTRA:                  -1.629
REMARK UNBOUND:                -1.629
REMARK SMILES CC[C@H](C=C[C@@H](C)[C@@H]1CC[C@@H]2C3=CC[C@@H]4C[C@@H](O)CC[C@@]4(C)[C@H]3CC[C@]21C)C(C)C
REMARK SMILES IDX 6 1 7 2 5 3 4 4 3 5 2 6 1 7 28 8 29 9 30 10 8 11 9 12 26 13
REMARK SMILES IDX 10 14 11 15 25 16 27 17 12 18 24 19 23 20 13 21 21 22 14 23
REMARK SMILES IDX 15 24 20 25 22 26 16 27 19 28 17 29 18 30
REMARK H PARENT 18 31
REMARK Flexibility Score: inf
ROOT
ATOM      1  C   UNL     1     112.889 116.631 126.424  1.00  0.00     0.012 C 
ATOM      2  C   UNL     1     112.385 115.923 125.160  1.00  0.00     0.012 C 
ENDROOT
BRANCH   1   3
ATOM      3  C   UNL     1     112.263 115.968 127.643  1.00  0.00    -0.028 C 
ATOM      4  C   UNL     1     112.725 116.029 128.909  1.00  0.00    -0.027 C 
BRANCH   4   5
ATOM      5  C   UNL     1     113.962 116.782 129.381  1.00  0.00     0.014 C 
BRANCH   5   6
ATOM      6  C   UNL     1     113.641 117.497 130.722  1.00  0.00     0.004 C 
ATOM      7  C   UNL     1     112.166 117.452 131.125  1.00  0.00     0.004 C 
ENDBRANCH   5   6
BRANCH   5   8
ATOM      8  C   UNL     1     115.182 115.797 129.425  1.00  0.00    -0.011 C 
ATOM      9  C   UNL     1     115.923 115.776 130.772  1.00  0.00     0.008 C 
ATOM     10  C   UNL     1     116.175 116.006 128.266  1.00  0.00     0.008 C 
ENDBRANCH   5   8
ENDBRANCH   4   5
ENDBRANCH   1   3
BRANCH   1  11
ATOM     11  C   UNL     1     112.740 118.194 126.353  1.00  0.00     0.002 C 
ATOM     12  C   UNL     1     111.582 118.680 125.446  1.00  0.00     0.005 C 
ATOM     13  C   UNL     1     113.941 119.115 125.967  1.00  0.00    -0.023 C 
ATOM     14  C   UNL     1     111.951 120.103 124.986  1.00  0.00     0.009 C 
ATOM     15  C   UNL     1     113.189 120.444 125.806  1.00  0.00     0.021 C 
ATOM     16  C   UNL     1     115.028 119.300 127.080  1.00  0.00     0.008 C 
ATOM     17  C   UNL     1     114.575 118.648 124.618  1.00  0.00     0.012 C 
ATOM     18  C   UNL     1     114.074 121.611 125.404  1.00  0.00    -0.067 C 
ATOM     19  C   UNL     1     115.626 120.741 127.183  1.00  0.00     0.009 C 
ATOM     20  C   UNL     1     115.556 121.531 125.846  1.00  0.00     0.021 C 
ATOM     21  C   UNL     1     113.463 122.791 125.122  1.00  0.00    -0.027 C 
ATOM     22  C   UNL     1     116.297 122.931 125.800  1.00  0.00    -0.023 C 
ATOM     23  C   UNL     1     114.134 124.132 125.267  1.00  0.00     0.031 C 
ATOM     24  C   UNL     1     115.302 124.032 126.262  1.00  0.00     0.002 C 
ATOM     25  C   UNL     1     117.523 122.994 126.746  1.00  0.00     0.010 C 
ATOM     26  C   UNL     1     116.774 123.133 124.321  1.00  0.00     0.012 C 
ATOM     27  C   UNL     1     115.929 125.412 126.626  1.00  0.00     0.036 C 
ATOM     28  C   UNL     1     118.291 124.329 126.672  1.00  0.00     0.032 C 
ATOM     29  C   UNL     1     117.435 125.578 126.341  1.00  0.00     0.114 C 
BRANCH  29  30
ATOM     30  O   UNL     1     117.910 126.680 127.071  1.00  0.00    -0.393 OA
ATOM     31  H   UNL     1     117.182 127.359 127.083  1.00  0.00     0.210 HD
ENDBRANCH  29  30
ENDBRANCH   1  11
TORSDOF 6
ENDMDL
MODEL 2
REMARK VINA RESULT:    -7.059      2.988      7.534
REMARK INTER + INTRA:         -10.958
REMARK INTER:                  -9.078
REMARK INTRA:                  -1.880
REMARK UNBOUND:                -1.629
REMARK SMILES CC[C@H](C=C[C@@H](C)[C@@H]1CC[C@@H]2C3=CC[C@@H]4C[C@@H](O)CC[C@@]4(C)[C@H]3CC[C@]21C)C(C)C
REMARK SMILES IDX 6 1 7 2 5 3 4 4 3 5 2 6 1 7 28 8 29 9 30 10 8 11 9 12 26 13
REMARK SMILES IDX 10 14 11 15 25 16 27 17 12 18 24 19 23 20 13 21 21 22 14 23
REMARK SMILES IDX 15 24 20 25 22 26 16 27 19 28 17 29 18 30
REMARK H PARENT 18 31
REMARK Flexibility Score: inf
ROOT
ATOM      1  C   UNL     1     112.432 120.400 124.985  1.00  0.00     0.012 C 
ATOM      2  C   UNL     1     111.047 120.637 124.369  1.00  0.00     0.012 C 
ENDROOT
BRANCH   1   3
ATOM      3  C   UNL     1     113.479 120.460 123.882  1.00  0.00    -0.028 C 
ATOM      4  C   UNL     1     114.648 121.132 123.928  1.00  0.00    -0.027 C 
BRANCH   4   5
ATOM      5  C   UNL     1     115.165 121.962 125.096  1.00  0.00     0.014 C 
BRANCH   5   6
ATOM      6  C   UNL     1     116.634 121.559 125.395  1.00  0.00     0.004 C 
ATOM      7  C   UNL     1     117.298 120.729 124.296  1.00  0.00     0.004 C 
ENDBRANCH   5   6
BRANCH   5   8
ATOM      8  C   UNL     1     114.938 123.485 124.790  1.00  0.00    -0.011 C 
ATOM      9  C   UNL     1     115.982 124.413 125.431  1.00  0.00     0.008 C 
ATOM     10  C   UNL     1     113.512 123.966 125.119  1.00  0.00     0.008 C 
ENDBRANCH   5   8
ENDBRANCH   4   5
ENDBRANCH   1   3
BRANCH   1  11
ATOM     11  C   UNL     1     112.487 119.123 125.901  1.00  0.00     0.002 C 
ATOM     12  C   UNL     1     111.177 118.847 126.683  1.00  0.00     0.005 C 
ATOM     13  C   UNL     1     113.615 118.923 126.961  1.00  0.00    -0.023 C 
ATOM     14  C   UNL     1     111.574 118.033 127.929  1.00  0.00     0.009 C 
ATOM     15  C   UNL     1     113.044 117.705 127.701  1.00  0.00     0.021 C 
ATOM     16  C   UNL     1     115.017 118.529 126.381  1.00  0.00     0.008 C 
ATOM     17  C   UNL     1     113.712 120.170 127.898  1.00  0.00     0.012 C 
ATOM     18  C   UNL     1     113.906 117.220 128.854  1.00  0.00    -0.067 C 
ATOM     19  C   UNL     1     115.811 117.483 127.230  1.00  0.00     0.009 C 
ATOM     20  C   UNL     1     115.426 117.498 128.737  1.00  0.00     0.021 C 
ATOM     21  C   UNL     1     113.408 116.226 129.633  1.00  0.00    -0.027 C 
ATOM     22  C   UNL     1     116.299 116.602 129.709  1.00  0.00    -0.023 C 
ATOM     23  C   UNL     1     114.269 115.262 130.406  1.00  0.00     0.031 C 
ATOM     24  C   UNL     1     115.668 115.183 129.774  1.00  0.00     0.002 C 
ATOM     25  C   UNL     1     117.760 116.432 129.220  1.00  0.00     0.010 C 
ATOM     26  C   UNL     1     116.299 117.324 131.099  1.00  0.00     0.012 C 
ATOM     27  C   UNL     1     116.564 114.063 130.385  1.00  0.00     0.036 C 
ATOM     28  C   UNL     1     118.641 115.612 130.183  1.00  0.00     0.032 C 
ATOM     29  C   UNL     1     117.906 114.514 130.994  1.00  0.00     0.114 C 
BRANCH  29  30
ATOM     30  O   UNL     1     118.739 113.390 131.125  1.00  0.00    -0.393 OA
ATOM     31  H   UNL     1     119.259 113.312 130.280  1.00  0.00     0.210 HD
ENDBRANCH  29  30
ENDBRANCH   1  11
TORSDOF 6
ENDMDL
MODEL 3
REMARK VINA RESULT:    -6.985      3.323      9.327
REMARK INTER + INTRA:         -10.860
REMARK INTER:                 -10.317
REMARK INTRA:                  -0.543
REMARK UNBOUND:                -1.629
REMARK SMILES CC[C@H](C=C[C@@H](C)[C@@H]1CC[C@@H]2C3=CC[C@@H]4C[C@@H](O)CC[C@@]4(C)[C@H]3CC[C@]21C)C(C)C
REMARK SMILES IDX 6 1 7 2 5 3 4 4 3 5 2 6 1 7 28 8 29 9 30 10 8 11 9 12 26 13
REMARK SMILES IDX 10 14 11 15 25 16 27 17 12 18 24 19 23 20 13 21 21 22 14 23
REMARK SMILES IDX 15 24 20 25 22 26 16 27 19 28 17 29 18 30
REMARK H PARENT 18 31
REMARK Flexibility Score: inf
ROOT
ATOM      1  C   UNL     1     117.116 125.945 126.018  1.00  0.00     0.012 C 
ATOM      2  C   UNL     1     118.165 125.235 125.151  1.00  0.00     0.012 C 
ENDROOT
BRANCH   1   3
ATOM      3  C   UNL     1     117.827 126.688 127.141  1.00  0.00    -0.028 C 
ATOM      4  C   UNL     1     118.244 127.971 127.109  1.00  0.00    -0.027 C 
BRANCH   4   5
ATOM      5  C   UNL     1     118.081 128.942 125.947  1.00  0.00     0.014 C 
BRANCH   5   6
ATOM      6  C   UNL     1     116.854 129.854 126.216  1.00  0.00     0.004 C 
ATOM      7  C   UNL     1     116.549 130.851 125.097  1.00  0.00     0.004 C 
ENDBRANCH   5   6
BRANCH   5   8
ATOM      8  C   UNL     1     119.436 129.698 125.709  1.00  0.00    -0.011 C 
ATOM      9  C   UNL     1     120.632 128.769 125.444  1.00  0.00     0.008 C 
ATOM     10  C   UNL     1     119.772 130.708 126.822  1.00  0.00     0.008 C 
ENDBRANCH   5   8
ENDBRANCH   4   5
ENDBRANCH   1   3
BRANCH   1  11
ATOM     11  C   UNL     1     115.948 124.996 126.469  1.00  0.00     0.002 C 
ATOM     12  C   UNL     1     115.476 125.221 127.928  1.00  0.00     0.005 C 
ATOM     13  C   UNL     1     116.056 123.444 126.337  1.00  0.00    -0.023 C 
ATOM     14  C   UNL     1     114.852 123.893 128.397  1.00  0.00     0.009 C 
ATOM     15  C   UNL     1     114.807 123.043 127.135  1.00  0.00     0.021 C 
ATOM     16  C   UNL     1     115.907 122.883 124.882  1.00  0.00     0.008 C 
ATOM     17  C   UNL     1     117.363 122.927 127.019  1.00  0.00     0.012 C 
ATOM     18  C   UNL     1     114.590 121.542 127.233  1.00  0.00    -0.067 C 
ATOM     19  C   UNL     1     115.105 121.545 124.770  1.00  0.00     0.009 C 
ATOM     20  C   UNL     1     115.155 120.691 126.068  1.00  0.00     0.021 C 
ATOM     21  C   UNL     1     113.578 121.106 128.025  1.00  0.00    -0.027 C 
ATOM     22  C   UNL     1     114.525 119.238 125.995  1.00  0.00    -0.023 C 
ATOM     23  C   UNL     1     112.863 119.796 127.821  1.00  0.00     0.031 C 
ATOM     24  C   UNL     1     113.018 119.334 126.363  1.00  0.00     0.002 C 
ATOM     25  C   UNL     1     114.614 118.615 124.579  1.00  0.00     0.010 C 
ATOM     26  C   UNL     1     115.334 118.353 127.002  1.00  0.00     0.012 C 
ATOM     27  C   UNL     1     112.147 118.091 126.008  1.00  0.00     0.036 C 
ATOM     28  C   UNL     1     114.059 117.179 124.502  1.00  0.00     0.032 C 
ATOM     29  C   UNL     1     112.900 116.854 125.480  1.00  0.00     0.114 C 
BRANCH  29  30
ATOM     30  O   UNL     1     111.977 116.004 124.848  1.00  0.00    -0.393 OA
ATOM     31  H   UNL     1     112.301 115.860 123.918  1.00  0.00     0.210 HD
ENDBRANCH  29  30
ENDBRANCH   1  11
TORSDOF 6
ENDMDL
MODEL 4
REMARK VINA RESULT:    -6.887      3.906      6.601
REMARK INTER + INTRA:         -10.731
REMARK INTER:                  -9.069
REMARK INTRA:                  -1.662
REMARK UNBOUND:                -1.629
REMARK SMILES CC[C@H](C=C[C@@H](C)[C@@H]1CC[C@@H]2C3=CC[C@@H]4C[C@@H](O)CC[C@@]4(C)[C@H]3CC[C@]21C)C(C)C
REMARK SMILES IDX 6 1 7 2 5 3 4 4 3 5 2 6 1 7 28 8 29 9 30 10 8 11 9 12 26 13
REMARK SMILES IDX 10 14 11 15 25 16 27 17 12 18 24 19 23 20 13 21 21 22 14 23
REMARK SMILES IDX 15 24 20 25 22 26 16 27 19 28 17 29 18 30
REMARK H PARENT 18 31
REMARK Flexibility Score: inf
ROOT
ATOM      1  C   UNL     1     112.541 117.273 127.364  1.00  0.00     0.012 C 
ATOM      2  C   UNL     1     112.007 116.052 128.123  1.00  0.00     0.012 C 
ENDROOT
BRANCH   1   3
ATOM      3  C   UNL     1     111.476 118.361 127.370  1.00  0.00    -0.028 C 
ATOM      4  C   UNL     1     111.269 119.279 126.403  1.00  0.00    -0.027 C 
BRANCH   4   5
ATOM      5  C   UNL     1     112.051 119.410 125.102  1.00  0.00     0.014 C 
BRANCH   5   6
ATOM      6  C   UNL     1     111.082 119.208 123.905  1.00  0.00     0.004 C 
ATOM      7  C   UNL     1     111.565 118.198 122.863  1.00  0.00     0.004 C 
ENDBRANCH   5   6
BRANCH   5   8
ATOM      8  C   UNL     1     112.837 120.767 125.105  1.00  0.00    -0.011 C 
ATOM      9  C   UNL     1     113.847 120.907 123.954  1.00  0.00     0.008 C 
ATOM     10  C   UNL     1     113.510 121.078 126.455  1.00  0.00     0.008 C 
ENDBRANCH   5   8
ENDBRANCH   4   5
ENDBRANCH   1   3
BRANCH   1  11
ATOM     11  C   UNL     1     113.127 116.910 125.952  1.00  0.00     0.002 C 
ATOM     12  C   UNL     1     112.600 115.573 125.370  1.00  0.00     0.005 C 
ATOM     13  C   UNL     1     114.666 116.859 125.692  1.00  0.00    -0.023 C 
ATOM     14  C   UNL     1     113.673 115.069 124.387  1.00  0.00     0.009 C 
ATOM     15  C   UNL     1     114.659 116.226 124.293  1.00  0.00     0.021 C 
ATOM     16  C   UNL     1     115.375 118.253 125.594  1.00  0.00     0.008 C 
ATOM     17  C   UNL     1     115.366 115.933 126.738  1.00  0.00     0.012 C 
ATOM     18  C   UNL     1     116.042 116.005 123.706  1.00  0.00    -0.067 C 
ATOM     19  C   UNL     1     116.498 118.346 124.510  1.00  0.00     0.009 C 
ATOM     20  C   UNL     1     117.153 116.973 124.186  1.00  0.00     0.021 C 
ATOM     21  C   UNL     1     116.122 115.337 122.527  1.00  0.00    -0.027 C 
ATOM     22  C   UNL     1     118.420 116.988 123.235  1.00  0.00    -0.023 C 
ATOM     23  C   UNL     1     117.252 115.510 121.545  1.00  0.00     0.031 C 
ATOM     24  C   UNL     1     117.934 116.870 121.764  1.00  0.00     0.002 C 
ATOM     25  C   UNL     1     119.238 118.300 123.345  1.00  0.00     0.010 C 
ATOM     26  C   UNL     1     119.318 115.781 123.671  1.00  0.00     0.012 C 
ATOM     27  C   UNL     1     118.985 117.222 120.666  1.00  0.00     0.036 C 
ATOM     28  C   UNL     1     120.507 118.310 122.470  1.00  0.00     0.032 C 
ATOM     29  C   UNL     1     120.421 117.495 121.154  1.00  0.00     0.114 C 
BRANCH  29  30
ATOM     30  O   UNL     1     121.119 118.168 120.137  1.00  0.00    -0.393 OA
ATOM     31  H   UNL     1     120.438 118.573 119.535  1.00  0.00     0.210 HD
ENDBRANCH  29  30
ENDBRANCH   1  11
TORSDOF 6
ENDMDL
MODEL 5
REMARK VINA RESULT:    -6.887      1.419      2.006
REMARK INTER + INTRA:         -10.730
REMARK INTER:                  -8.793
REMARK INTRA:                  -1.938
REMARK UNBOUND:                -1.629
REMARK SMILES CC[C@H](C=C[C@@H](C)[C@@H]1CC[C@@H]2C3=CC[C@@H]4C[C@@H](O)CC[C@@]4(C)[C@H]3CC[C@]21C)C(C)C
REMARK SMILES IDX 6 1 7 2 5 3 4 4 3 5 2 6 1 7 28 8 29 9 30 10 8 11 9 12 26 13
REMARK SMILES IDX 10 14 11 15 25 16 27 17 12 18 24 19 23 20 13 21 21 22 14 23
REMARK SMILES IDX 15 24 20 25 22 26 16 27 19 28 17 29 18 30
REMARK H PARENT 18 31
REMARK Flexibility Score: inf
ROOT
ATOM      1  C   UNL     1     115.258 116.553 125.293  1.00  0.00     0.012 C 
ATOM      2  C   UNL     1     114.186 115.595 124.759  1.00  0.00     0.012 C 
ENDROOT
BRANCH   1   3
ATOM      3  C   UNL     1     115.850 115.969 126.568  1.00  0.00    -0.028 C 
ATOM      4  C   UNL     1     115.342 116.092 127.812  1.00  0.00    -0.027 C 
BRANCH   4   5
ATOM      5  C   UNL     1     114.067 116.833 128.195  1.00  0.00     0.014 C 
BRANCH   5   6
ATOM      6  C   UNL     1     113.080 115.834 128.859  1.00  0.00     0.004 C 
ATOM      7  C   UNL     1     111.610 116.069 128.508  1.00  0.00     0.004 C 
ENDBRANCH   5   6
BRANCH   5   8
ATOM      8  C   UNL     1     114.436 118.086 129.065  1.00  0.00    -0.011 C 
ATOM      9  C   UNL     1     114.237 117.880 130.575  1.00  0.00     0.008 C 
ATOM     10  C   UNL     1     113.739 119.377 128.598  1.00  0.00     0.008 C 
ENDBRANCH   5   8
ENDBRANCH   4   5
ENDBRANCH   1   3
BRANCH   1  11
ATOM     11  C   UNL     1     114.755 118.039 125.400  1.00  0.00     0.002 C 
ATOM     12  C   UNL     1     113.553 118.370 124.478  1.00  0.00     0.005 C 
ATOM     13  C   UNL     1     115.726 119.248 125.212  1.00  0.00    -0.023 C 
ATOM     14  C   UNL     1     113.604 119.887 124.220  1.00  0.00     0.009 C 
ATOM     15  C   UNL     1     114.694 120.384 125.160  1.00  0.00     0.021 C 
ATOM     16  C   UNL     1     116.694 119.522 126.413  1.00  0.00     0.008 C 
ATOM     17  C   UNL     1     116.505 119.118 123.864  1.00  0.00     0.012 C 
ATOM     18  C   UNL     1     115.302 121.763 124.963  1.00  0.00    -0.067 C 
ATOM     19  C   UNL     1     116.939 121.033 126.730  1.00  0.00     0.009 C 
ATOM     20  C   UNL     1     116.744 121.958 125.495  1.00  0.00     0.021 C 
ATOM     21  C   UNL     1     114.448 122.802 124.783  1.00  0.00    -0.027 C 
ATOM     22  C   UNL     1     117.143 123.481 125.669  1.00  0.00    -0.023 C 
ATOM     23  C   UNL     1     114.784 124.228 125.134  1.00  0.00     0.031 C 
ATOM     24  C   UNL     1     115.902 124.261 126.189  1.00  0.00     0.002 C 
ATOM     25  C   UNL     1     118.281 123.691 126.699  1.00  0.00     0.010 C 
ATOM     26  C   UNL     1     117.619 123.980 124.262  1.00  0.00     0.012 C 
ATOM     27  C   UNL     1     116.178 125.685 126.759  1.00  0.00     0.036 C 
ATOM     28  C   UNL     1     118.723 125.161 126.840  1.00  0.00     0.032 C 
ATOM     29  C   UNL     1     117.615 126.220 126.602  1.00  0.00     0.114 C 
BRANCH  29  30
ATOM     30  O   UNL     1     117.793 127.294 127.491  1.00  0.00    -0.393 OA
ATOM     31  H   UNL     1     118.686 127.177 127.914  1.00  0.00     0.210 HD
ENDBRANCH  29  30
ENDBRANCH   1  11
TORSDOF 6
ENDMDL
MODEL 6
REMARK VINA RESULT:    -6.879      1.955      3.663
REMARK INTER + INTRA:         -10.720
REMARK INTER:                  -8.906
REMARK INTRA:                  -1.814
REMARK UNBOUND:                -1.629
REMARK SMILES CC[C@H](C=C[C@@H](C)[C@@H]1CC[C@@H]2C3=CC[C@@H]4C[C@@H](O)CC[C@@]4(C)[C@H]3CC[C@]21C)C(C)C
REMARK SMILES IDX 6 1 7 2 5 3 4 4 3 5 2 6 1 7 28 8 29 9 30 10 8 11 9 12 26 13
REMARK SMILES IDX 10 14 11 15 25 16 27 17 12 18 24 19 23 20 13 21 21 22 14 23
REMARK SMILES IDX 15 24 20 25 22 26 16 27 19 28 17 29 18 30
REMARK H PARENT 18 31
REMARK Flexibility Score: inf
ROOT
ATOM      1  C   UNL     1     114.824 115.498 124.935  1.00  0.00     0.012 C 
ATOM      2  C   UNL     1     115.475 114.152 124.590  1.00  0.00     0.012 C 
ENDROOT
BRANCH   1   3
ATOM      3  C   UNL     1     113.325 115.396 124.689  1.00  0.00    -0.028 C 
ATOM      4  C   UNL     1     112.359 116.043 125.374  1.00  0.00    -0.027 C 
BRANCH   4   5
ATOM      5  C   UNL     1     112.570 117.015 126.528  1.00  0.00     0.014 C 
BRANCH   5   6
ATOM      6  C   UNL     1     111.406 118.042 126.546  1.00  0.00     0.004 C 
ATOM      7  C   UNL     1     111.494 119.118 125.462  1.00  0.00     0.004 C 
ENDBRANCH   5   6
BRANCH   5   8
ATOM      8  C   UNL     1     112.767 116.205 127.858  1.00  0.00    -0.011 C 
ATOM      9  C   UNL     1     111.622 116.373 128.869  1.00  0.00     0.008 C 
ATOM     10  C   UNL     1     114.127 116.467 128.533  1.00  0.00     0.008 C 
ENDBRANCH   5   8
ENDBRANCH   4   5
ENDBRANCH   1   3
BRANCH   1  11
ATOM     11  C   UNL     1     115.539 116.720 124.252  1.00  0.00     0.002 C 
ATOM     12  C   UNL     1     116.696 116.326 123.299  1.00  0.00     0.005 C 
ATOM     13  C   UNL     1     116.121 117.901 125.091  1.00  0.00    -0.023 C 
ATOM     14  C   UNL     1     117.646 117.536 123.237  1.00  0.00     0.009 C 
ATOM     15  C   UNL     1     116.894 118.631 123.983  1.00  0.00     0.021 C 
ATOM     16  C   UNL     1     115.059 118.892 125.679  1.00  0.00     0.008 C 
ATOM     17  C   UNL     1     117.080 117.363 126.201  1.00  0.00     0.012 C 
ATOM     18  C   UNL     1     117.628 119.874 124.456  1.00  0.00    -0.067 C 
ATOM     19  C   UNL     1     115.479 120.398 125.657  1.00  0.00     0.009 C 
ATOM     20  C   UNL     1     117.020 120.604 125.680  1.00  0.00     0.021 C 
ATOM     21  C   UNL     1     118.434 120.503 123.563  1.00  0.00    -0.027 C 
ATOM     22  C   UNL     1     117.542 122.092 125.841  1.00  0.00    -0.023 C 
ATOM     23  C   UNL     1     118.768 121.971 123.630  1.00  0.00     0.031 C 
ATOM     24  C   UNL     1     117.687 122.720 124.427  1.00  0.00     0.002 C 
ATOM     25  C   UNL     1     116.566 122.989 126.643  1.00  0.00     0.010 C 
ATOM     26  C   UNL     1     118.908 122.004 126.603  1.00  0.00     0.012 C 
ATOM     27  C   UNL     1     117.843 124.270 124.379  1.00  0.00     0.036 C 
ATOM     28  C   UNL     1     117.083 124.424 126.860  1.00  0.00     0.032 C 
ATOM     29  C   UNL     1     117.991 124.987 125.736  1.00  0.00     0.114 C 
BRANCH  29  30
ATOM     30  O   UNL     1     117.720 126.353 125.553  1.00  0.00    -0.393 OA
ATOM     31  H   UNL     1     117.418 126.711 126.431  1.00  0.00     0.210 HD
ENDBRANCH  29  30
ENDBRANCH   1  11
TORSDOF 6
ENDMDL
MODEL 7
REMARK VINA RESULT:    -6.818      1.585      4.414
REMARK INTER + INTRA:         -10.640
REMARK INTER:                  -8.834
REMARK INTRA:                  -1.805
REMARK UNBOUND:                -1.629
REMARK SMILES CC[C@H](C=C[C@@H](C)[C@@H]1CC[C@@H]2C3=CC[C@@H]4C[C@@H](O)CC[C@@]4(C)[C@H]3CC[C@]21C)C(C)C
REMARK SMILES IDX 6 1 7 2 5 3 4 4 3 5 2 6 1 7 28 8 29 9 30 10 8 11 9 12 26 13
REMARK SMILES IDX 10 14 11 15 25 16 27 17 12 18 24 19 23 20 13 21 21 22 14 23
REMARK SMILES IDX 15 24 20 25 22 26 16 27 19 28 17 29 18 30
REMARK H PARENT 18 31
REMARK Flexibility Score: inf
ROOT
ATOM      1  C   UNL     1     112.390 116.598 127.018  1.00  0.00     0.012 C 
ATOM      2  C   UNL     1     111.963 116.009 128.368  1.00  0.00     0.012 C 
ENDROOT
BRANCH   1   3
ATOM      3  C   UNL     1     112.219 115.535 125.941  1.00  0.00    -0.028 C 
ATOM      4  C   UNL     1     112.600 115.639 124.650  1.00  0.00    -0.027 C 
BRANCH   4   5
ATOM      5  C   UNL     1     113.288 116.837 124.008  1.00  0.00     0.014 C 
BRANCH   5   6
ATOM      6  C   UNL     1     114.691 116.405 123.503  1.00  0.00     0.004 C 
ATOM      7  C   UNL     1     115.858 117.118 124.189  1.00  0.00     0.004 C 
ENDBRANCH   5   6
BRANCH   5   8
ATOM      8  C   UNL     1     112.344 117.453 122.916  1.00  0.00    -0.011 C 
ATOM      9  C   UNL     1     111.417 118.560 123.442  1.00  0.00     0.008 C 
ATOM     10  C   UNL     1     111.537 116.393 122.143  1.00  0.00     0.008 C 
ENDBRANCH   5   8
ENDBRANCH   4   5
ENDBRANCH   1   3
BRANCH   1  11
ATOM     11  C   UNL     1     113.801 117.288 127.067  1.00  0.00     0.002 C 
ATOM     12  C   UNL     1     114.768 116.680 128.115  1.00  0.00     0.005 C 
ATOM     13  C   UNL     1     113.952 118.831 127.257  1.00  0.00    -0.023 C 
ATOM     14  C   UNL     1     115.773 117.789 128.481  1.00  0.00     0.009 C 
ATOM     15  C   UNL     1     115.469 118.902 127.487  1.00  0.00     0.021 C 
ATOM     16  C   UNL     1     113.607 119.698 125.999  1.00  0.00     0.008 C 
ATOM     17  C   UNL     1     113.158 119.307 128.516  1.00  0.00     0.012 C 
ATOM     18  C   UNL     1     115.992 120.308 127.730  1.00  0.00    -0.067 C 
ATOM     19  C   UNL     1     114.537 120.934 125.775  1.00  0.00     0.009 C 
ATOM     20  C   UNL     1     115.182 121.461 127.088  1.00  0.00     0.021 C 
ATOM     21  C   UNL     1     117.302 120.438 128.064  1.00  0.00    -0.027 C 
ATOM     22  C   UNL     1     115.997 122.817 126.993  1.00  0.00    -0.023 C 
ATOM     23  C   UNL     1     118.112 121.679 127.791  1.00  0.00     0.031 C 
ATOM     24  C   UNL     1     117.475 122.482 126.646  1.00  0.00     0.002 C 
ATOM     25  C   UNL     1     115.468 123.761 125.883  1.00  0.00     0.010 C 
ATOM     26  C   UNL     1     115.851 123.522 128.384  1.00  0.00     0.012 C 
ATOM     27  C   UNL     1     118.352 123.677 126.161  1.00  0.00     0.036 C 
ATOM     28  C   UNL     1     116.211 125.109 125.814  1.00  0.00     0.032 C 
ATOM     29  C   UNL     1     117.705 125.074 126.228  1.00  0.00     0.114 C 
BRANCH  29  30
ATOM     30  O   UNL     1     118.440 125.948 125.410  1.00  0.00    -0.393 OA
ATOM     31  H   UNL     1     117.783 126.522 124.931  1.00  0.00     0.210 HD
ENDBRANCH  29  30
ENDBRANCH   1  11
TORSDOF 6
ENDMDL
MODEL 8
REMARK VINA RESULT:    -6.757      3.115      5.128
REMARK INTER + INTRA:         -10.559
REMARK INTER:                  -8.756
REMARK INTRA:                  -1.803
REMARK UNBOUND:                -1.629
REMARK SMILES CC[C@H](C=C[C@@H](C)[C@@H]1CC[C@@H]2C3=CC[C@@H]4C[C@@H](O)CC[C@@]4(C)[C@H]3CC[C@]21C)C(C)C
REMARK SMILES IDX 6 1 7 2 5 3 4 4 3 5 2 6 1 7 28 8 29 9 30 10 8 11 9 12 26 13
REMARK SMILES IDX 10 14 11 15 25 16 27 17 12 18 24 19 23 20 13 21 21 22 14 23
REMARK SMILES IDX 15 24 20 25 22 26 16 27 19 28 17 29 18 30
REMARK H PARENT 18 31
REMARK Flexibility Score: inf
ROOT
ATOM      1  C   UNL     1     112.106 118.699 126.529  1.00  0.00     0.012 C 
ATOM      2  C   UNL     1     110.886 119.220 127.300  1.00  0.00     0.012 C 
ENDROOT
BRANCH   1   3
ATOM      3  C   UNL     1     112.067 117.177 126.517  1.00  0.00    -0.028 C 
ATOM      4  C   UNL     1     112.381 116.380 125.474  1.00  0.00    -0.027 C 
BRANCH   4   5
ATOM      5  C   UNL     1     112.849 116.839 124.098  1.00  0.00     0.014 C 
BRANCH   5   6
ATOM      6  C   UNL     1     113.716 115.721 123.458  1.00  0.00     0.004 C 
ATOM      7  C   UNL     1     113.985 114.527 124.374  1.00  0.00     0.004 C 
ENDBRANCH   5   6
BRANCH   5   8
ATOM      8  C   UNL     1     111.607 117.290 123.252  1.00  0.00    -0.011 C 
ATOM      9  C   UNL     1     111.322 116.396 122.034  1.00  0.00     0.008 C 
ATOM     10  C   UNL     1     111.660 118.771 122.835  1.00  0.00     0.008 C 
ENDBRANCH   5   8
ENDBRANCH   4   5
ENDBRANCH   1   3
BRANCH   1  11
ATOM     11  C   UNL     1     113.458 119.336 127.015  1.00  0.00     0.002 C 
ATOM     12  C   UNL     1     113.284 120.616 127.873  1.00  0.00     0.005 C 
ATOM     13  C   UNL     1     114.599 119.699 126.014  1.00  0.00    -0.023 C 
ATOM     14  C   UNL     1     114.585 121.426 127.720  1.00  0.00     0.009 C 
ATOM     15  C   UNL     1     115.514 120.489 126.960  1.00  0.00     0.021 C 
ATOM     16  C   UNL     1     115.411 118.482 125.453  1.00  0.00     0.008 C 
ATOM     17  C   UNL     1     114.049 120.601 124.862  1.00  0.00     0.012 C 
ATOM     18  C   UNL     1     116.770 121.030 126.298  1.00  0.00    -0.067 C 
ATOM     19  C   UNL     1     116.945 118.731 125.291  1.00  0.00     0.009 C 
ATOM     20  C   UNL     1     117.304 120.230 125.084  1.00  0.00     0.021 C 
ATOM     21  C   UNL     1     117.566 121.843 127.039  1.00  0.00    -0.027 C 
ATOM     22  C   UNL     1     118.812 120.565 124.731  1.00  0.00    -0.023 C 
ATOM     23  C   UNL     1     119.046 122.003 126.801  1.00  0.00     0.031 C 
ATOM     24  C   UNL     1     119.595 120.775 126.058  1.00  0.00     0.002 C 
ATOM     25  C   UNL     1     119.517 119.422 123.958  1.00  0.00     0.010 C 
ATOM     26  C   UNL     1     118.785 121.853 123.840  1.00  0.00     0.012 C 
ATOM     27  C   UNL     1     121.150 120.760 125.944  1.00  0.00     0.036 C 
ATOM     28  C   UNL     1     120.968 119.753 123.555  1.00  0.00     0.032 C 
ATOM     29  C   UNL     1     121.733 120.696 124.519  1.00  0.00     0.114 C 
BRANCH  29  30
ATOM     30  O   UNL     1     123.077 120.294 124.602  1.00  0.00    -0.393 OA
ATOM     31  H   UNL     1     123.100 119.316 124.419  1.00  0.00     0.210 HD
ENDBRANCH  29  30
ENDBRANCH   1  11
TORSDOF 6
ENDMDL
MODEL 9
REMARK VINA RESULT:    -6.576      2.047      3.494
REMARK INTER + INTRA:         -10.319
REMARK INTER:                  -8.846
REMARK INTRA:                  -1.473
REMARK UNBOUND:                -1.629
REMARK SMILES CC[C@H](C=C[C@@H](C)[C@@H]1CC[C@@H]2C3=CC[C@@H]4C[C@@H](O)CC[C@@]4(C)[C@H]3CC[C@]21C)C(C)C
REMARK SMILES IDX 6 1 7 2 5 3 4 4 3 5 2 6 1 7 28 8 29 9 30 10 8 11 9 12 26 13
REMARK SMILES IDX 10 14 11 15 25 16 27 17 12 18 24 19 23 20 13 21 21 22 14 23
REMARK SMILES IDX 15 24 20 25 22 26 16 27 19 28 17 29 18 30
REMARK H PARENT 18 31
REMARK Flexibility Score: inf
ROOT
ATOM      1  C   UNL     1     112.662 116.642 124.621  1.00  0.00     0.012 C 
ATOM      2  C   UNL     1     112.373 115.302 125.311  1.00  0.00     0.012 C 
ENDROOT
BRANCH   1   3
ATOM      3  C   UNL     1     113.551 116.390 123.411  1.00  0.00    -0.028 C 
ATOM      4  C   UNL     1     114.674 115.642 123.389  1.00  0.00    -0.027 C 
BRANCH   4   5
ATOM      5  C   UNL     1     115.277 114.887 124.567  1.00  0.00     0.014 C 
BRANCH   5   6
ATOM      6  C   UNL     1     115.540 113.416 124.146  1.00  0.00     0.004 C 
ATOM      7  C   UNL     1     114.294 112.657 123.685  1.00  0.00     0.004 C 
ENDBRANCH   5   6
BRANCH   5   8
ATOM      8  C   UNL     1     116.533 115.666 125.093  1.00  0.00    -0.011 C 
ATOM      9  C   UNL     1     116.277 116.470 126.379  1.00  0.00     0.008 C 
ATOM     10  C   UNL     1     117.190 116.556 124.021  1.00  0.00     0.008 C 
ENDBRANCH   5   8
ENDBRANCH   4   5
ENDBRANCH   1   3
BRANCH   1  11
ATOM     11  C   UNL     1     113.170 117.748 125.615  1.00  0.00     0.002 C 
ATOM     12  C   UNL     1     112.220 118.011 126.811  1.00  0.00     0.005 C 
ATOM     13  C   UNL     1     113.565 119.175 125.119  1.00  0.00    -0.023 C 
ATOM     14  C   UNL     1     112.494 119.452 127.281  1.00  0.00     0.009 C 
ATOM     15  C   UNL     1     113.718 119.873 126.478  1.00  0.00     0.021 C 
ATOM     16  C   UNL     1     114.935 119.268 124.365  1.00  0.00     0.008 C 
ATOM     17  C   UNL     1     112.405 119.802 124.280  1.00  0.00     0.012 C 
ATOM     18  C   UNL     1     114.099 121.341 126.381  1.00  0.00    -0.067 C 
ATOM     19  C   UNL     1     115.775 120.549 124.679  1.00  0.00     0.009 C 
ATOM     20  C   UNL     1     114.904 121.758 125.125  1.00  0.00     0.021 C 
ATOM     21  C   UNL     1     114.132 122.056 127.535  1.00  0.00    -0.027 C 
ATOM     22  C   UNL     1     115.641 123.150 125.292  1.00  0.00    -0.023 C 
ATOM     23  C   UNL     1     114.990 123.278 127.734  1.00  0.00     0.031 C 
ATOM     24  C   UNL     1     116.170 123.258 126.749  1.00  0.00     0.002 C 
ATOM     25  C   UNL     1     116.862 123.301 124.348  1.00  0.00     0.010 C 
ATOM     26  C   UNL     1     114.585 124.256 124.952  1.00  0.00     0.012 C 
ATOM     27  C   UNL     1     117.221 124.379 127.015  1.00  0.00     0.036 C 
ATOM     28  C   UNL     1     117.558 124.673 124.455  1.00  0.00     0.032 C 
ATOM     29  C   UNL     1     117.500 125.348 125.849  1.00  0.00     0.114 C 
BRANCH  29  30
ATOM     30  O   UNL     1     118.712 126.013 126.099  1.00  0.00    -0.393 OA
ATOM     31  H   UNL     1     118.728 126.236 127.069  1.00  0.00     0.210 HD
ENDBRANCH  29  30
ENDBRANCH   1  11
TORSDOF 6
ENDMDL
