MODEL 1
REMARK VINA RESULT:    31.266      0.000      0.000
REMARK INTER + INTRA:          81.640
REMARK INTER:                  82.444
REMARK INTRA:                  -0.804
REMARK UNBOUND:                -0.804
REMARK SMILES CCCCCCCCCCCCCCCCCCCCCCCCCCCCCC(=O)[O-]
REMARK SMILES IDX 16 1 17 2 18 3 19 4 20 5 21 6 22 7 23 8 24 9 25 10 26 11
REMARK SMILES IDX 27 12 28 13 29 14 30 15 31 16 32 17 15 18 14 19 13 20 12 21
REMARK SMILES IDX 11 22 10 23 9 24 8 25 7 26 6 27 5 28 4 29 3 30 2 31 1 32
REMARK H PARENT
REMARK Flexibility Score: inf
ROOT
ATOM      1  C   UNL     1      -8.940 -15.833  17.877  1.00  0.00     0.000 C 
ENDROOT
BRANCH   1   2
ATOM      2  C   UNL     1      -9.252 -14.360  17.562  1.00  0.00     0.000 C 
BRANCH   2   3
ATOM      3  C   UNL     1      -9.182 -13.456  18.805  1.00  0.00     0.000 C 
BRANCH   3   4
ATOM      4  C   UNL     1      -8.340 -14.075  19.936  1.00  0.00     0.000 C 
BRANCH   4   5
ATOM      5  C   UNL     1      -8.802 -13.624  21.332  1.00  0.00     0.000 C 
BRANCH   5   6
ATOM      6  C   UNL     1      -8.368 -12.183  21.645  1.00  0.00     0.000 C 
BRANCH   6   7
ATOM      7  C   UNL     1      -7.043 -12.157  22.421  1.00  0.00     0.000 C 
BRANCH   7   8
ATOM      8  C   UNL     1      -7.250 -12.187  23.946  1.00  0.00     0.000 C 
BRANCH   8   9
ATOM      9  C   UNL     1      -5.960 -12.516  24.712  1.00  0.00     0.000 C 
BRANCH   9  10
ATOM     10  C   UNL     1      -5.818 -14.025  24.941  1.00  0.00     0.000 C 
BRANCH  10  11
ATOM     11  C   UNL     1      -5.065 -14.311  26.251  1.00  0.00     0.000 C 
BRANCH  11  12
ATOM     12  C   UNL     1      -4.505 -15.740  26.314  1.00  0.00     0.000 C 
BRANCH  12  13
ATOM     13  C   UNL     1      -5.603 -16.811  26.214  1.00  0.00     0.006 C 
BRANCH  13  14
ATOM     14  C   UNL     1      -5.083 -18.121  25.606  1.00  0.00     0.053 C 
BRANCH  14  15
ATOM     15  C   UNL     1      -5.444 -18.245  24.157  1.00  0.00     0.041 C 
ATOM     16  O   UNL     1      -4.807 -17.592  23.288  1.00  0.00    -0.550 OA
ATOM     17  O   UNL     1      -6.518 -19.036  23.773  1.00  0.00    -0.550 OA
ENDBRANCH  14  15
ENDBRANCH  13  14
ENDBRANCH  12  13
ENDBRANCH  11  12
ENDBRANCH  10  11
ENDBRANCH   9  10
ENDBRANCH   8   9
ENDBRANCH   7   8
ENDBRANCH   6   7
ENDBRANCH   5   6
ENDBRANCH   4   5
ENDBRANCH   3   4
ENDBRANCH   2   3
ENDBRANCH   1   2
BRANCH   1  18
ATOM     18  C   UNL     1     -10.091 -16.772  17.472  1.00  0.00     0.000 C 
BRANCH  18  19
ATOM     19  C   UNL     1      -9.897 -18.196  18.022  1.00  0.00     0.000 C 
BRANCH  19  20
ATOM     20  C   UNL     1      -9.186 -19.136  17.030  1.00  0.00     0.000 C 
BRANCH  20  21
ATOM     21  C   UNL     1      -7.916 -18.556  16.378  1.00  0.00     0.000 C 
BRANCH  21  22
ATOM     22  C   UNL     1      -6.660 -19.412  16.639  1.00  0.00     0.000 C 
BRANCH  22  23
ATOM     23  C   UNL     1      -5.989 -19.903  15.340  1.00  0.00     0.000 C 
BRANCH  23  24
ATOM     24  C   UNL     1      -6.973 -20.218  14.193  1.00  0.00    -0.000 C 
BRANCH  24  25
ATOM     25  C   UNL     1      -7.914 -19.067  13.784  1.00  0.00    -0.000 C 
BRANCH  25  26
ATOM     26  C   UNL     1      -9.164 -19.527  13.012  1.00  0.00    -0.000 C 
BRANCH  26  27
ATOM     27  C   UNL     1      -9.831 -20.766  13.648  1.00  0.00    -0.000 C 
BRANCH  27  28
ATOM     28  C   UNL     1     -11.157 -21.142  12.965  1.00  0.00    -0.000 C 
BRANCH  28  29
ATOM     29  C   UNL     1     -11.182 -22.622  12.540  1.00  0.00    -0.000 C 
BRANCH  29  30
ATOM     30  C   UNL     1      -9.776 -23.219  12.357  1.00  0.00    -0.000 C 
BRANCH  30  31
ATOM     31  C   UNL     1      -9.615 -24.121  11.121  1.00  0.00    -0.003 C 
ATOM     32  C   UNL     1      -8.614 -23.569  10.105  1.00  0.00     0.004 C 
ENDBRANCH  30  31
ENDBRANCH  29  30
ENDBRANCH  28  29
ENDBRANCH  27  28
ENDBRANCH  26  27
ENDBRANCH  25  26
ENDBRANCH  24  25
ENDBRANCH  23  24
ENDBRANCH  22  23
ENDBRANCH  21  22
ENDBRANCH  20  21
ENDBRANCH  19  20
ENDBRANCH  18  19
ENDBRANCH   1  18
TORSDOF 28
ENDMDL
MODEL 2
REMARK VINA RESULT:    31.661      4.505     12.484
REMARK INTER + INTRA:          82.682
REMARK INTER:                  83.782
REMARK INTRA:                  -1.100
REMARK UNBOUND:                -0.804
REMARK SMILES CCCCCCCCCCCCCCCCCCCCCCCCCCCCCC(=O)[O-]
REMARK SMILES IDX 16 1 17 2 18 3 19 4 20 5 21 6 22 7 23 8 24 9 25 10 26 11
REMARK SMILES IDX 27 12 28 13 29 14 30 15 31 16 32 17 15 18 14 19 13 20 12 21
REMARK SMILES IDX 11 22 10 23 9 24 8 25 7 26 6 27 5 28 4 29 3 30 2 31 1 32
REMARK H PARENT
REMARK Flexibility Score: inf
ROOT
ATOM      1  C   UNL     1      -8.731 -12.646  21.768  1.00  0.00     0.000 C 
ENDROOT
BRANCH   1   2
ATOM      2  C   UNL     1      -8.202 -13.957  21.159  1.00  0.00     0.000 C 
BRANCH   2   3
ATOM      3  C   UNL     1      -9.036 -14.436  19.958  1.00  0.00     0.000 C 
BRANCH   3   4
ATOM      4  C   UNL     1      -8.477 -13.931  18.615  1.00  0.00     0.000 C 
BRANCH   4   5
ATOM      5  C   UNL     1      -9.559 -13.291  17.728  1.00  0.00     0.000 C 
BRANCH   5   6
ATOM      6  C   UNL     1     -10.394 -14.347  16.986  1.00  0.00     0.000 C 
BRANCH   6   7
ATOM      7  C   UNL     1      -9.629 -15.673  16.860  1.00  0.00     0.000 C 
BRANCH   7   8
ATOM      8  C   UNL     1     -10.030 -16.691  17.943  1.00  0.00     0.000 C 
BRANCH   8   9
ATOM      9  C   UNL     1      -9.618 -18.128  17.586  1.00  0.00     0.000 C 
BRANCH   9  10
ATOM     10  C   UNL     1      -8.241 -18.160  16.912  1.00  0.00     0.000 C 
BRANCH  10  11
ATOM     11  C   UNL     1      -8.017 -19.500  16.192  1.00  0.00     0.000 C 
BRANCH  11  12
ATOM     12  C   UNL     1      -6.559 -19.977  16.266  1.00  0.00     0.000 C 
BRANCH  12  13
ATOM     13  C   UNL     1      -6.101 -20.684  14.979  1.00  0.00     0.006 C 
BRANCH  13  14
ATOM     14  C   UNL     1      -7.023 -20.378  13.791  1.00  0.00     0.053 C 
BRANCH  14  15
ATOM     15  C   UNL     1      -6.664 -19.084  13.125  1.00  0.00     0.041 C 
ATOM     16  O   UNL     1      -5.474 -18.671  13.145  1.00  0.00    -0.550 OA
ATOM     17  O   UNL     1      -7.652 -18.309  12.534  1.00  0.00    -0.550 OA
ENDBRANCH  14  15
ENDBRANCH  13  14
ENDBRANCH  12  13
ENDBRANCH  11  12
ENDBRANCH  10  11
ENDBRANCH   9  10
ENDBRANCH   8   9
ENDBRANCH   7   8
ENDBRANCH   6   7
ENDBRANCH   5   6
ENDBRANCH   4   5
ENDBRANCH   3   4
ENDBRANCH   2   3
ENDBRANCH   1   2
BRANCH   1  18
ATOM     18  C   UNL     1      -7.626 -11.852  22.488  1.00  0.00     0.000 C 
BRANCH  18  19
ATOM     19  C   UNL     1      -7.074 -12.606  23.711  1.00  0.00     0.000 C 
BRANCH  19  20
ATOM     20  C   UNL     1      -5.868 -11.904  24.362  1.00  0.00     0.000 C 
BRANCH  20  21
ATOM     21  C   UNL     1      -6.192 -10.575  25.072  1.00  0.00     0.000 C 
BRANCH  21  22
ATOM     22  C   UNL     1      -5.394  -9.380  24.512  1.00  0.00     0.000 C 
BRANCH  22  23
ATOM     23  C   UNL     1      -4.443  -8.755  25.552  1.00  0.00     0.000 C 
BRANCH  23  24
ATOM     24  C   UNL     1      -3.158  -8.141  24.955  1.00  0.00    -0.000 C 
BRANCH  24  25
ATOM     25  C   UNL     1      -2.112  -9.150  24.442  1.00  0.00    -0.000 C 
BRANCH  25  26
ATOM     26  C   UNL     1      -1.084  -8.543  23.469  1.00  0.00    -0.000 C 
BRANCH  26  27
ATOM     27  C   UNL     1      -0.659  -9.532  22.362  1.00  0.00    -0.000 C 
BRANCH  27  28
ATOM     28  C   UNL     1      -0.949  -9.000  20.948  1.00  0.00    -0.000 C 
BRANCH  28  29
ATOM     29  C   UNL     1      -1.185  -7.479  20.946  1.00  0.00    -0.000 C 
BRANCH  29  30
ATOM     30  C   UNL     1      -2.585  -7.088  20.440  1.00  0.00    -0.000 C 
BRANCH  30  31
ATOM     31  C   UNL     1      -3.136  -7.982  19.315  1.00  0.00    -0.003 C 
ATOM     32  C   UNL     1      -4.545  -7.585  18.874  1.00  0.00     0.004 C 
ENDBRANCH  30  31
ENDBRANCH  29  30
ENDBRANCH  28  29
ENDBRANCH  27  28
ENDBRANCH  26  27
ENDBRANCH  25  26
ENDBRANCH  24  25
ENDBRANCH  23  24
ENDBRANCH  22  23
ENDBRANCH  21  22
ENDBRANCH  20  21
ENDBRANCH  19  20
ENDBRANCH  18  19
ENDBRANCH   1  18
TORSDOF 28
ENDMDL
MODEL 3
REMARK VINA RESULT:    31.960      2.373      4.071
REMARK INTER + INTRA:          83.470
REMARK INTER:                  84.778
REMARK INTRA:                  -1.308
REMARK UNBOUND:                -0.804
REMARK SMILES CCCCCCCCCCCCCCCCCCCCCCCCCCCCCC(=O)[O-]
REMARK SMILES IDX 16 1 17 2 18 3 19 4 20 5 21 6 22 7 23 8 24 9 25 10 26 11
REMARK SMILES IDX 27 12 28 13 29 14 30 15 31 16 32 17 15 18 14 19 13 20 12 21
REMARK SMILES IDX 11 22 10 23 9 24 8 25 7 26 6 27 5 28 4 29 3 30 2 31 1 32
REMARK H PARENT
REMARK Flexibility Score: inf
ROOT
ATOM      1  C   UNL     1      -9.709 -14.128  17.632  1.00  0.00     0.000 C 
ENDROOT
BRANCH   1   2
ATOM      2  C   UNL     1      -8.498 -13.958  18.566  1.00  0.00     0.000 C 
BRANCH   2   3
ATOM      3  C   UNL     1      -8.752 -14.509  19.979  1.00  0.00     0.000 C 
BRANCH   3   4
ATOM      4  C   UNL     1      -9.089 -13.400  20.992  1.00  0.00     0.000 C 
BRANCH   4   5
ATOM      5  C   UNL     1      -7.846 -12.611  21.440  1.00  0.00     0.000 C 
BRANCH   5   6
ATOM      6  C   UNL     1      -7.633 -12.685  22.960  1.00  0.00     0.000 C 
BRANCH   6   7
ATOM      7  C   UNL     1      -6.340 -11.967  23.376  1.00  0.00     0.000 C 
BRANCH   7   8
ATOM      8  C   UNL     1      -6.381 -11.473  24.832  1.00  0.00     0.000 C 
BRANCH   8   9
ATOM      9  C   UNL     1      -6.726 -12.592  25.828  1.00  0.00     0.000 C 
BRANCH   9  10
ATOM     10  C   UNL     1      -5.635 -13.669  25.853  1.00  0.00     0.000 C 
BRANCH  10  11
ATOM     11  C   UNL     1      -6.125 -14.925  26.593  1.00  0.00     0.000 C 
BRANCH  11  12
ATOM     12  C   UNL     1      -4.985 -15.899  26.927  1.00  0.00     0.000 C 
BRANCH  12  13
ATOM     13  C   UNL     1      -4.500 -16.686  25.698  1.00  0.00     0.006 C 
BRANCH  13  14
ATOM     14  C   UNL     1      -5.221 -18.033  25.551  1.00  0.00     0.053 C 
BRANCH  14  15
ATOM     15  C   UNL     1      -5.590 -18.315  24.126  1.00  0.00     0.041 C 
ATOM     16  O   UNL     1      -6.599 -19.021  23.862  1.00  0.00    -0.550 OA
ATOM     17  O   UNL     1      -4.788 -17.848  23.094  1.00  0.00    -0.550 OA
ENDBRANCH  14  15
ENDBRANCH  13  14
ENDBRANCH  12  13
ENDBRANCH  11  12
ENDBRANCH  10  11
ENDBRANCH   9  10
ENDBRANCH   8   9
ENDBRANCH   7   8
ENDBRANCH   6   7
ENDBRANCH   5   6
ENDBRANCH   4   5
ENDBRANCH   3   4
ENDBRANCH   2   3
ENDBRANCH   1   2
BRANCH   1  18
ATOM     18  C   UNL     1      -9.764 -15.530  16.999  1.00  0.00     0.000 C 
BRANCH  18  19
ATOM     19  C   UNL     1      -9.696 -16.645  18.057  1.00  0.00     0.000 C 
BRANCH  19  20
ATOM     20  C   UNL     1      -9.334 -18.020  17.464  1.00  0.00     0.000 C 
BRANCH  20  21
ATOM     21  C   UNL     1      -8.026 -18.057  16.651  1.00  0.00     0.000 C 
BRANCH  21  22
ATOM     22  C   UNL     1      -7.335 -19.435  16.681  1.00  0.00     0.000 C 
BRANCH  22  23
ATOM     23  C   UNL     1      -7.331 -20.133  15.306  1.00  0.00     0.000 C 
BRANCH  23  24
ATOM     24  C   UNL     1      -6.052 -19.900  14.475  1.00  0.00    -0.000 C 
BRANCH  24  25
ATOM     25  C   UNL     1      -6.217 -19.003  13.232  1.00  0.00    -0.000 C 
BRANCH  25  26
ATOM     26  C   UNL     1      -7.538 -18.213  13.203  1.00  0.00    -0.000 C 
BRANCH  26  27
ATOM     27  C   UNL     1      -7.782 -17.513  11.848  1.00  0.00    -0.000 C 
BRANCH  27  28
ATOM     28  C   UNL     1      -8.704 -16.289  11.970  1.00  0.00    -0.000 C 
BRANCH  28  29
ATOM     29  C   UNL     1      -7.984 -15.092  12.617  1.00  0.00    -0.000 C 
BRANCH  29  30
ATOM     30  C   UNL     1      -8.423 -13.737  12.032  1.00  0.00    -0.000 C 
BRANCH  30  31
ATOM     31  C   UNL     1      -9.079 -12.781  13.043  1.00  0.00    -0.003 C 
ATOM     32  C   UNL     1     -10.413 -12.216  12.551  1.00  0.00     0.004 C 
ENDBRANCH  30  31
ENDBRANCH  29  30
ENDBRANCH  28  29
ENDBRANCH  27  28
ENDBRANCH  26  27
ENDBRANCH  25  26
ENDBRANCH  24  25
ENDBRANCH  23  24
ENDBRANCH  22  23
ENDBRANCH  21  22
ENDBRANCH  20  21
ENDBRANCH  19  20
ENDBRANCH  18  19
ENDBRANCH   1  18
TORSDOF 28
ENDMDL
MODEL 4
REMARK VINA RESULT:    32.312      4.352      5.367
REMARK INTER + INTRA:          84.399
REMARK INTER:                  86.152
REMARK INTRA:                  -1.753
REMARK UNBOUND:                -0.804
REMARK SMILES CCCCCCCCCCCCCCCCCCCCCCCCCCCCCC(=O)[O-]
REMARK SMILES IDX 16 1 17 2 18 3 19 4 20 5 21 6 22 7 23 8 24 9 25 10 26 11
REMARK SMILES IDX 27 12 28 13 29 14 30 15 31 16 32 17 15 18 14 19 13 20 12 21
REMARK SMILES IDX 11 22 10 23 9 24 8 25 7 26 6 27 5 28 4 29 3 30 2 31 1 32
REMARK H PARENT
REMARK Flexibility Score: inf
ROOT
ATOM      1  C   UNL     1      -9.529 -15.321  17.808  1.00  0.00     0.000 C 
ENDROOT
BRANCH   1   2
ATOM      2  C   UNL     1      -9.288 -15.185  19.322  1.00  0.00     0.000 C 
BRANCH   2   3
ATOM      3  C   UNL     1      -8.376 -13.998  19.676  1.00  0.00     0.000 C 
BRANCH   3   4
ATOM      4  C   UNL     1      -8.768 -13.332  21.008  1.00  0.00     0.000 C 
BRANCH   4   5
ATOM      5  C   UNL     1      -7.615 -13.324  22.026  1.00  0.00     0.000 C 
BRANCH   5   6
ATOM      6  C   UNL     1      -7.596 -12.036  22.865  1.00  0.00     0.000 C 
BRANCH   6   7
ATOM      7  C   UNL     1      -6.343 -11.967  23.751  1.00  0.00     0.000 C 
BRANCH   7   8
ATOM      8  C   UNL     1      -6.542 -12.655  25.113  1.00  0.00     0.000 C 
BRANCH   8   9
ATOM      9  C   UNL     1      -5.724 -13.949  25.247  1.00  0.00     0.000 C 
BRANCH   9  10
ATOM     10  C   UNL     1      -5.000 -14.012  26.597  1.00  0.00     0.000 C 
BRANCH  10  11
ATOM     11  C   UNL     1      -4.846 -15.468  27.067  1.00  0.00     0.000 C 
BRANCH  11  12
ATOM     12  C   UNL     1      -5.450 -16.477  26.078  1.00  0.00     0.000 C 
BRANCH  12  13
ATOM     13  C   UNL     1      -4.383 -17.163  25.208  1.00  0.00     0.006 C 
BRANCH  13  14
ATOM     14  C   UNL     1      -4.913 -17.512  23.811  1.00  0.00     0.053 C 
BRANCH  14  15
ATOM     15  C   UNL     1      -5.891 -18.647  23.852  1.00  0.00     0.041 C 
ATOM     16  O   UNL     1      -6.853 -18.683  23.040  1.00  0.00    -0.550 OA
ATOM     17  O   UNL     1      -5.773 -19.631  24.824  1.00  0.00    -0.550 OA
ENDBRANCH  14  15
ENDBRANCH  13  14
ENDBRANCH  12  13
ENDBRANCH  11  12
ENDBRANCH  10  11
ENDBRANCH   9  10
ENDBRANCH   8   9
ENDBRANCH   7   8
ENDBRANCH   6   7
ENDBRANCH   5   6
ENDBRANCH   4   5
ENDBRANCH   3   4
ENDBRANCH   2   3
ENDBRANCH   1   2
BRANCH   1  18
ATOM     18  C   UNL     1      -9.124 -14.051  17.037  1.00  0.00     0.000 C 
BRANCH  18  19
ATOM     19  C   UNL     1     -10.347 -13.285  16.502  1.00  0.00     0.000 C 
BRANCH  19  20
ATOM     20  C   UNL     1      -9.977 -12.186  15.489  1.00  0.00     0.000 C 
BRANCH  20  21
ATOM     21  C   UNL     1      -9.177 -12.670  14.264  1.00  0.00     0.000 C 
BRANCH  21  22
ATOM     22  C   UNL     1      -9.817 -12.259  12.923  1.00  0.00     0.000 C 
BRANCH  22  23
ATOM     23  C   UNL     1      -9.538 -13.270  11.792  1.00  0.00     0.000 C 
BRANCH  23  24
ATOM     24  C   UNL     1     -10.471 -14.499  11.790  1.00  0.00    -0.000 C 
BRANCH  24  25
ATOM     25  C   UNL     1     -11.841 -14.299  12.467  1.00  0.00    -0.000 C 
BRANCH  25  26
ATOM     26  C   UNL     1     -12.901 -13.656  11.553  1.00  0.00    -0.000 C 
BRANCH  26  27
ATOM     27  C   UNL     1     -12.642 -13.937  10.057  1.00  0.00    -0.000 C 
BRANCH  27  28
ATOM     28  C   UNL     1     -13.906 -13.774   9.195  1.00  0.00    -0.000 C 
BRANCH  28  29
ATOM     29  C   UNL     1     -13.968 -14.819   8.066  1.00  0.00    -0.000 C 
BRANCH  29  30
ATOM     30  C   UNL     1     -12.866 -15.888   8.175  1.00  0.00    -0.000 C 
BRANCH  30  31
ATOM     31  C   UNL     1     -12.925 -16.986   7.099  1.00  0.00    -0.003 C 
ATOM     32  C   UNL     1     -14.323 -17.587   6.937  1.00  0.00     0.004 C 
ENDBRANCH  30  31
ENDBRANCH  29  30
ENDBRANCH  28  29
ENDBRANCH  27  28
ENDBRANCH  26  27
ENDBRANCH  25  26
ENDBRANCH  24  25
ENDBRANCH  23  24
ENDBRANCH  22  23
ENDBRANCH  21  22
ENDBRANCH  20  21
ENDBRANCH  19  20
ENDBRANCH  18  19
ENDBRANCH   1  18
TORSDOF 28
ENDMDL
MODEL 5
REMARK VINA RESULT:    32.417      1.536      2.128
REMARK INTER + INTRA:          84.675
REMARK INTER:                  86.611
REMARK INTRA:                  -1.935
REMARK UNBOUND:                -0.804
REMARK SMILES CCCCCCCCCCCCCCCCCCCCCCCCCCCCCC(=O)[O-]
REMARK SMILES IDX 16 1 17 2 18 3 19 4 20 5 21 6 22 7 23 8 24 9 25 10 26 11
REMARK SMILES IDX 27 12 28 13 29 14 30 15 31 16 32 17 15 18 14 19 13 20 12 21
REMARK SMILES IDX 11 22 10 23 9 24 8 25 7 26 6 27 5 28 4 29 3 30 2 31 1 32
REMARK H PARENT
REMARK Flexibility Score: inf
ROOT
ATOM      1  C   UNL     1      -8.776 -15.800  17.713  1.00  0.00     0.000 C 
ENDROOT
BRANCH   1   2
ATOM      2  C   UNL     1      -9.039 -14.315  17.405  1.00  0.00     0.000 C 
BRANCH   2   3
ATOM      3  C   UNL     1      -9.683 -13.566  18.584  1.00  0.00     0.000 C 
BRANCH   3   4
ATOM      4  C   UNL     1      -9.212 -14.101  19.949  1.00  0.00     0.000 C 
BRANCH   4   5
ATOM      5  C   UNL     1      -7.974 -13.359  20.480  1.00  0.00     0.000 C 
BRANCH   5   6
ATOM      6  C   UNL     1      -8.249 -12.667  21.824  1.00  0.00     0.000 C 
BRANCH   6   7
ATOM      7  C   UNL     1      -7.130 -12.953  22.837  1.00  0.00     0.000 C 
BRANCH   7   8
ATOM      8  C   UNL     1      -6.914 -11.792  23.823  1.00  0.00     0.000 C 
BRANCH   8   9
ATOM      9  C   UNL     1      -6.077 -12.202  25.045  1.00  0.00     0.000 C 
BRANCH   9  10
ATOM     10  C   UNL     1      -6.435 -13.617  25.516  1.00  0.00     0.000 C 
BRANCH  10  11
ATOM     11  C   UNL     1      -5.277 -14.236  26.316  1.00  0.00     0.000 C 
BRANCH  11  12
ATOM     12  C   UNL     1      -4.565 -15.363  25.553  1.00  0.00     0.000 C 
BRANCH  12  13
ATOM     13  C   UNL     1      -4.593 -16.700  26.311  1.00  0.00     0.006 C 
BRANCH  13  14
ATOM     14  C   UNL     1      -5.693 -17.637  25.794  1.00  0.00     0.053 C 
BRANCH  14  15
ATOM     15  C   UNL     1      -5.378 -18.166  24.427  1.00  0.00     0.041 C 
ATOM     16  O   UNL     1      -4.495 -17.610  23.721  1.00  0.00    -0.550 OA
ATOM     17  O   UNL     1      -6.098 -19.235  23.912  1.00  0.00    -0.550 OA
ENDBRANCH  14  15
ENDBRANCH  13  14
ENDBRANCH  12  13
ENDBRANCH  11  12
ENDBRANCH  10  11
ENDBRANCH   9  10
ENDBRANCH   8   9
ENDBRANCH   7   8
ENDBRANCH   6   7
ENDBRANCH   5   6
ENDBRANCH   4   5
ENDBRANCH   3   4
ENDBRANCH   2   3
ENDBRANCH   1   2
BRANCH   1  18
ATOM     18  C   UNL     1     -10.077 -16.621  17.775  1.00  0.00     0.000 C 
BRANCH  18  19
ATOM     19  C   UNL     1      -9.815 -18.131  17.633  1.00  0.00     0.000 C 
BRANCH  19  20
ATOM     20  C   UNL     1      -8.319 -18.478  17.518  1.00  0.00     0.000 C 
BRANCH  20  21
ATOM     21  C   UNL     1      -7.925 -19.256  16.248  1.00  0.00     0.000 C 
BRANCH  21  22
ATOM     22  C   UNL     1      -6.613 -20.050  16.409  1.00  0.00     0.000 C 
BRANCH  22  23
ATOM     23  C   UNL     1      -6.405 -21.095  15.294  1.00  0.00     0.000 C 
BRANCH  23  24
ATOM     24  C   UNL     1      -5.495 -20.624  14.139  1.00  0.00    -0.000 C 
BRANCH  24  25
ATOM     25  C   UNL     1      -6.218 -19.982  12.939  1.00  0.00    -0.000 C 
BRANCH  25  26
ATOM     26  C   UNL     1      -6.114 -18.446  12.897  1.00  0.00    -0.000 C 
BRANCH  26  27
ATOM     27  C   UNL     1      -7.496 -17.759  12.877  1.00  0.00    -0.000 C 
BRANCH  27  28
ATOM     28  C   UNL     1      -8.345 -18.165  11.660  1.00  0.00    -0.000 C 
BRANCH  28  29
ATOM     29  C   UNL     1      -9.844 -18.231  12.003  1.00  0.00    -0.000 C 
BRANCH  29  30
ATOM     30  C   UNL     1     -10.349 -19.669  12.218  1.00  0.00    -0.000 C 
BRANCH  30  31
ATOM     31  C   UNL     1      -9.845 -20.343  13.506  1.00  0.00    -0.003 C 
ATOM     32  C   UNL     1     -10.903 -21.226  14.170  1.00  0.00     0.004 C 
ENDBRANCH  30  31
ENDBRANCH  29  30
ENDBRANCH  28  29
ENDBRANCH  27  28
ENDBRANCH  26  27
ENDBRANCH  25  26
ENDBRANCH  24  25
ENDBRANCH  23  24
ENDBRANCH  22  23
ENDBRANCH  21  22
ENDBRANCH  20  21
ENDBRANCH  19  20
ENDBRANCH  18  19
ENDBRANCH   1  18
TORSDOF 28
ENDMDL
MODEL 6
REMARK VINA RESULT:    32.619      4.421      6.528
REMARK INTER + INTRA:          85.209
REMARK INTER:                  87.126
REMARK INTRA:                  -1.917
REMARK UNBOUND:                -0.804
REMARK SMILES CCCCCCCCCCCCCCCCCCCCCCCCCCCCCC(=O)[O-]
REMARK SMILES IDX 16 1 17 2 18 3 19 4 20 5 21 6 22 7 23 8 24 9 25 10 26 11
REMARK SMILES IDX 27 12 28 13 29 14 30 15 31 16 32 17 15 18 14 19 13 20 12 21
REMARK SMILES IDX 11 22 10 23 9 24 8 25 7 26 6 27 5 28 4 29 3 30 2 31 1 32
REMARK H PARENT
REMARK Flexibility Score: inf
ROOT
ATOM      1  C   UNL     1     -10.320 -14.048  17.024  1.00  0.00     0.000 C 
ENDROOT
BRANCH   1   2
ATOM      2  C   UNL     1      -9.176 -14.776  17.753  1.00  0.00     0.000 C 
BRANCH   2   3
ATOM      3  C   UNL     1      -8.359 -13.844  18.663  1.00  0.00     0.000 C 
BRANCH   3   4
ATOM      4  C   UNL     1      -8.611 -14.112  20.158  1.00  0.00     0.000 C 
BRANCH   4   5
ATOM      5  C   UNL     1      -9.245 -12.909  20.876  1.00  0.00     0.000 C 
BRANCH   5   6
ATOM      6  C   UNL     1      -8.656 -12.699  22.280  1.00  0.00     0.000 C 
BRANCH   6   7
ATOM      7  C   UNL     1      -7.153 -12.390  22.213  1.00  0.00     0.000 C 
BRANCH   7   8
ATOM      8  C   UNL     1      -6.531 -12.174  23.603  1.00  0.00     0.000 C 
BRANCH   8   9
ATOM      9  C   UNL     1      -6.076 -13.487  24.258  1.00  0.00     0.000 C 
BRANCH   9  10
ATOM     10  C   UNL     1      -5.807 -13.299  25.755  1.00  0.00     0.000 C 
BRANCH  10  11
ATOM     11  C   UNL     1      -5.513 -14.648  26.432  1.00  0.00     0.000 C 
BRANCH  11  12
ATOM     12  C   UNL     1      -4.929 -15.685  25.460  1.00  0.00     0.000 C 
BRANCH  12  13
ATOM     13  C   UNL     1      -4.682 -17.048  26.127  1.00  0.00     0.006 C 
BRANCH  13  14
ATOM     14  C   UNL     1      -5.552 -18.156  25.519  1.00  0.00     0.053 C 
BRANCH  14  15
ATOM     15  C   UNL     1      -5.512 -18.139  24.021  1.00  0.00     0.041 C 
ATOM     16  O   UNL     1      -4.476 -17.746  23.420  1.00  0.00    -0.550 OA
ATOM     17  O   UNL     1      -6.635 -18.501  23.290  1.00  0.00    -0.550 OA
ENDBRANCH  14  15
ENDBRANCH  13  14
ENDBRANCH  12  13
ENDBRANCH  11  12
ENDBRANCH  10  11
ENDBRANCH   9  10
ENDBRANCH   8   9
ENDBRANCH   7   8
ENDBRANCH   6   7
ENDBRANCH   5   6
ENDBRANCH   4   5
ENDBRANCH   3   4
ENDBRANCH   2   3
ENDBRANCH   1   2
BRANCH   1  18
ATOM     18  C   UNL     1     -10.490 -12.597  17.512  1.00  0.00     0.000 C 
BRANCH  18  19
ATOM     19  C   UNL     1     -11.966 -12.161  17.526  1.00  0.00     0.000 C 
BRANCH  19  20
ATOM     20  C   UNL     1     -12.947 -13.342  17.402  1.00  0.00     0.000 C 
BRANCH  20  21
ATOM     21  C   UNL     1     -14.334 -12.982  16.836  1.00  0.00     0.000 C 
BRANCH  21  22
ATOM     22  C   UNL     1     -14.567 -13.530  15.414  1.00  0.00     0.000 C 
BRANCH  22  23
ATOM     23  C   UNL     1     -13.338 -14.273  14.850  1.00  0.00     0.000 C 
BRANCH  23  24
ATOM     24  C   UNL     1     -13.258 -14.295  13.309  1.00  0.00    -0.000 C 
BRANCH  24  25
ATOM     25  C   UNL     1     -12.130 -15.160  12.712  1.00  0.00    -0.000 C 
BRANCH  25  26
ATOM     26  C   UNL     1     -11.643 -14.683  11.332  1.00  0.00    -0.000 C 
BRANCH  26  27
ATOM     27  C   UNL     1     -10.862 -13.352  11.405  1.00  0.00    -0.000 C 
BRANCH  27  28
ATOM     28  C   UNL     1      -9.952 -13.265  12.641  1.00  0.00    -0.000 C 
BRANCH  28  29
ATOM     29  C   UNL     1      -9.132 -11.962  12.659  1.00  0.00    -0.000 C 
BRANCH  29  30
ATOM     30  C   UNL     1      -9.567 -10.993  13.773  1.00  0.00    -0.000 C 
BRANCH  30  31
ATOM     31  C   UNL     1     -10.229  -9.697  13.276  1.00  0.00    -0.003 C 
ATOM     32  C   UNL     1      -9.254  -8.520  13.200  1.00  0.00     0.004 C 
ENDBRANCH  30  31
ENDBRANCH  29  30
ENDBRANCH  28  29
ENDBRANCH  27  28
ENDBRANCH  26  27
ENDBRANCH  25  26
ENDBRANCH  24  25
ENDBRANCH  23  24
ENDBRANCH  22  23
ENDBRANCH  21  22
ENDBRANCH  20  21
ENDBRANCH  19  20
ENDBRANCH  18  19
ENDBRANCH   1  18
TORSDOF 28
ENDMDL
MODEL 7
REMARK VINA RESULT:    32.773      4.602      6.550
REMARK INTER + INTRA:          85.614
REMARK INTER:                  86.705
REMARK INTRA:                  -1.090
REMARK UNBOUND:                -0.804
REMARK SMILES CCCCCCCCCCCCCCCCCCCCCCCCCCCCCC(=O)[O-]
REMARK SMILES IDX 16 1 17 2 18 3 19 4 20 5 21 6 22 7 23 8 24 9 25 10 26 11
REMARK SMILES IDX 27 12 28 13 29 14 30 15 31 16 32 17 15 18 14 19 13 20 12 21
REMARK SMILES IDX 11 22 10 23 9 24 8 25 7 26 6 27 5 28 4 29 3 30 2 31 1 32
REMARK H PARENT
REMARK Flexibility Score: inf
ROOT
ATOM      1  C   UNL     1     -10.162 -15.388  17.403  1.00  0.00     0.000 C 
ENDROOT
BRANCH   1   2
ATOM      2  C   UNL     1      -8.938 -15.092  18.286  1.00  0.00     0.000 C 
BRANCH   2   3
ATOM      3  C   UNL     1      -8.787 -13.597  18.614  1.00  0.00     0.000 C 
BRANCH   3   4
ATOM      4  C   UNL     1      -9.288 -13.251  20.028  1.00  0.00     0.000 C 
BRANCH   4   5
ATOM      5  C   UNL     1      -8.290 -13.659  21.126  1.00  0.00     0.000 C 
BRANCH   5   6
ATOM      6  C   UNL     1      -8.298 -12.676  22.307  1.00  0.00     0.000 C 
BRANCH   6   7
ATOM      7  C   UNL     1      -6.909 -12.057  22.526  1.00  0.00     0.000 C 
BRANCH   7   8
ATOM      8  C   UNL     1      -6.497 -12.040  24.008  1.00  0.00     0.000 C 
BRANCH   8   9
ATOM      9  C   UNL     1      -6.014 -13.411  24.505  1.00  0.00     0.000 C 
BRANCH   9  10
ATOM     10  C   UNL     1      -6.058 -13.496  26.035  1.00  0.00     0.000 C 
BRANCH  10  11
ATOM     11  C   UNL     1      -4.925 -14.390  26.565  1.00  0.00     0.000 C 
BRANCH  11  12
ATOM     12  C   UNL     1      -4.577 -15.539  25.606  1.00  0.00     0.000 C 
BRANCH  12  13
ATOM     13  C   UNL     1      -4.681 -16.920  26.276  1.00  0.00     0.006 C 
BRANCH  13  14
ATOM     14  C   UNL     1      -5.830 -17.758  25.700  1.00  0.00     0.053 C 
BRANCH  14  15
ATOM     15  C   UNL     1      -5.470 -18.367  24.379  1.00  0.00     0.041 C 
ATOM     16  O   UNL     1      -5.781 -19.562  24.127  1.00  0.00    -0.550 OA
ATOM     17  O   UNL     1      -4.741 -17.636  23.452  1.00  0.00    -0.550 OA
ENDBRANCH  14  15
ENDBRANCH  13  14
ENDBRANCH  12  13
ENDBRANCH  11  12
ENDBRANCH  10  11
ENDBRANCH   9  10
ENDBRANCH   8   9
ENDBRANCH   7   8
ENDBRANCH   6   7
ENDBRANCH   5   6
ENDBRANCH   4   5
ENDBRANCH   3   4
ENDBRANCH   2   3
ENDBRANCH   1   2
BRANCH   1  18
ATOM     18  C   UNL     1     -10.575 -14.172  16.553  1.00  0.00     0.000 C 
BRANCH  18  19
ATOM     19  C   UNL     1      -9.717 -14.036  15.283  1.00  0.00     0.000 C 
BRANCH  19  20
ATOM     20  C   UNL     1     -10.532 -14.171  13.984  1.00  0.00     0.000 C 
BRANCH  20  21
ATOM     21  C   UNL     1      -9.717 -14.030  12.683  1.00  0.00     0.000 C 
BRANCH  21  22
ATOM     22  C   UNL     1      -8.894 -12.727  12.624  1.00  0.00     0.000 C 
BRANCH  22  23
ATOM     23  C   UNL     1      -9.417 -11.645  13.591  1.00  0.00     0.000 C 
BRANCH  23  24
ATOM     24  C   UNL     1      -9.267 -10.199  13.073  1.00  0.00    -0.000 C 
BRANCH  24  25
ATOM     25  C   UNL     1     -10.096  -9.134  13.816  1.00  0.00    -0.000 C 
BRANCH  25  26
ATOM     26  C   UNL     1     -11.457  -8.834  13.162  1.00  0.00    -0.000 C 
BRANCH  26  27
ATOM     27  C   UNL     1     -11.439  -9.046  11.632  1.00  0.00    -0.000 C 
BRANCH  27  28
ATOM     28  C   UNL     1     -12.338 -10.210  11.184  1.00  0.00    -0.000 C 
BRANCH  28  29
ATOM     29  C   UNL     1     -11.516 -11.454  10.802  1.00  0.00    -0.000 C 
BRANCH  29  30
ATOM     30  C   UNL     1     -12.314 -12.764  10.929  1.00  0.00    -0.000 C 
BRANCH  30  31
ATOM     31  C   UNL     1     -12.520 -13.523   9.606  1.00  0.00    -0.003 C 
ATOM     32  C   UNL     1     -11.906 -12.804   8.404  1.00  0.00     0.004 C 
ENDBRANCH  30  31
ENDBRANCH  29  30
ENDBRANCH  28  29
ENDBRANCH  27  28
ENDBRANCH  26  27
ENDBRANCH  25  26
ENDBRANCH  24  25
ENDBRANCH  23  24
ENDBRANCH  22  23
ENDBRANCH  21  22
ENDBRANCH  20  21
ENDBRANCH  19  20
ENDBRANCH  18  19
ENDBRANCH   1  18
TORSDOF 28
ENDMDL
MODEL 8
REMARK VINA RESULT:    33.076      4.521      6.271
REMARK INTER + INTRA:          86.415
REMARK INTER:                  88.536
REMARK INTRA:                  -2.121
REMARK UNBOUND:                -0.804
REMARK SMILES CCCCCCCCCCCCCCCCCCCCCCCCCCCCCC(=O)[O-]
REMARK SMILES IDX 16 1 17 2 18 3 19 4 20 5 21 6 22 7 23 8 24 9 25 10 26 11
REMARK SMILES IDX 27 12 28 13 29 14 30 15 31 16 32 17 15 18 14 19 13 20 12 21
REMARK SMILES IDX 11 22 10 23 9 24 8 25 7 26 6 27 5 28 4 29 3 30 2 31 1 32
REMARK H PARENT
REMARK Flexibility Score: inf
ROOT
ATOM      1  C   UNL     1      -9.525 -15.141  17.733  1.00  0.00     0.000 C 
ENDROOT
BRANCH   1   2
ATOM      2  C   UNL     1      -9.075 -15.027  19.201  1.00  0.00     0.000 C 
BRANCH   2   3
ATOM      3  C   UNL     1      -8.213 -13.780  19.465  1.00  0.00     0.000 C 
BRANCH   3   4
ATOM      4  C   UNL     1      -8.846 -12.837  20.505  1.00  0.00     0.000 C 
BRANCH   4   5
ATOM      5  C   UNL     1      -8.519 -13.248  21.951  1.00  0.00     0.000 C 
BRANCH   5   6
ATOM      6  C   UNL     1      -7.146 -12.726  22.402  1.00  0.00     0.000 C 
BRANCH   6   7
ATOM      7  C   UNL     1      -7.287 -11.687  23.525  1.00  0.00     0.000 C 
BRANCH   7   8
ATOM      8  C   UNL     1      -6.666 -12.162  24.851  1.00  0.00     0.000 C 
BRANCH   8   9
ATOM      9  C   UNL     1      -5.688 -13.331  24.661  1.00  0.00     0.000 C 
BRANCH   9  10
ATOM     10  C   UNL     1      -5.213 -13.884  26.010  1.00  0.00     0.000 C 
BRANCH  10  11
ATOM     11  C   UNL     1      -4.623 -15.294  25.845  1.00  0.00     0.000 C 
BRANCH  11  12
ATOM     12  C   UNL     1      -5.104 -16.270  26.930  1.00  0.00     0.000 C 
BRANCH  12  13
ATOM     13  C   UNL     1      -4.904 -17.742  26.533  1.00  0.00     0.006 C 
BRANCH  13  14
ATOM     14  C   UNL     1      -6.016 -18.249  25.605  1.00  0.00     0.053 C 
BRANCH  14  15
ATOM     15  C   UNL     1      -5.527 -18.442  24.202  1.00  0.00     0.041 C 
ATOM     16  O   UNL     1      -5.984 -19.381  23.496  1.00  0.00    -0.550 OA
ATOM     17  O   UNL     1      -4.528 -17.623  23.694  1.00  0.00    -0.550 OA
ENDBRANCH  14  15
ENDBRANCH  13  14
ENDBRANCH  12  13
ENDBRANCH  11  12
ENDBRANCH  10  11
ENDBRANCH   9  10
ENDBRANCH   8   9
ENDBRANCH   7   8
ENDBRANCH   6   7
ENDBRANCH   5   6
ENDBRANCH   4   5
ENDBRANCH   3   4
ENDBRANCH   2   3
ENDBRANCH   1   2
BRANCH   1  18
ATOM     18  C   UNL     1      -9.449 -13.793  16.994  1.00  0.00     0.000 C 
BRANCH  18  19
ATOM     19  C   UNL     1     -10.809 -13.381  16.402  1.00  0.00     0.000 C 
BRANCH  19  20
ATOM     20  C   UNL     1     -11.433 -14.468  15.507  1.00  0.00     0.000 C 
BRANCH  20  21
ATOM     21  C   UNL     1     -12.122 -13.946  14.230  1.00  0.00     0.000 C 
BRANCH  21  22
ATOM     22  C   UNL     1     -11.418 -14.400  12.936  1.00  0.00     0.000 C 
BRANCH  22  23
ATOM     23  C   UNL     1     -12.131 -13.904  11.662  1.00  0.00     0.000 C 
BRANCH  23  24
ATOM     24  C   UNL     1     -11.372 -12.803  10.892  1.00  0.00    -0.000 C 
BRANCH  24  25
ATOM     25  C   UNL     1     -12.214 -11.583  10.467  1.00  0.00    -0.000 C 
BRANCH  25  26
ATOM     26  C   UNL     1     -11.724 -10.250  11.059  1.00  0.00    -0.000 C 
BRANCH  26  27
ATOM     27  C   UNL     1     -11.523 -10.318  12.589  1.00  0.00    -0.000 C 
BRANCH  27  28
ATOM     28  C   UNL     1     -10.054 -10.132  13.004  1.00  0.00    -0.000 C 
BRANCH  28  29
ATOM     29  C   UNL     1      -9.437 -11.441  13.529  1.00  0.00    -0.000 C 
BRANCH  29  30
ATOM     30  C   UNL     1      -8.627 -12.195  12.458  1.00  0.00    -0.000 C 
BRANCH  30  31
ATOM     31  C   UNL     1      -8.556 -13.718  12.660  1.00  0.00    -0.003 C 
ATOM     32  C   UNL     1      -7.601 -14.128  13.782  1.00  0.00     0.004 C 
ENDBRANCH  30  31
ENDBRANCH  29  30
ENDBRANCH  28  29
ENDBRANCH  27  28
ENDBRANCH  26  27
ENDBRANCH  25  26
ENDBRANCH  24  25
ENDBRANCH  23  24
ENDBRANCH  22  23
ENDBRANCH  21  22
ENDBRANCH  20  21
ENDBRANCH  19  20
ENDBRANCH  18  19
ENDBRANCH   1  18
TORSDOF 28
ENDMDL
MODEL 9
REMARK VINA RESULT:    33.116      3.659     12.057
REMARK INTER + INTRA:          86.519
REMARK INTER:                  88.455
REMARK INTRA:                  -1.935
REMARK UNBOUND:                -0.804
REMARK SMILES CCCCCCCCCCCCCCCCCCCCCCCCCCCCCC(=O)[O-]
REMARK SMILES IDX 16 1 17 2 18 3 19 4 20 5 21 6 22 7 23 8 24 9 25 10 26 11
REMARK SMILES IDX 27 12 28 13 29 14 30 15 31 16 32 17 15 18 14 19 13 20 12 21
REMARK SMILES IDX 11 22 10 23 9 24 8 25 7 26 6 27 5 28 4 29 3 30 2 31 1 32
REMARK H PARENT
REMARK Flexibility Score: inf
ROOT
ATOM      1  C   UNL     1      -4.973 -18.038  24.106  1.00  0.00     0.000 C 
ENDROOT
BRANCH   1   2
ATOM      2  C   UNL     1      -6.142 -17.908  23.113  1.00  0.00     0.000 C 
BRANCH   2   3
ATOM      3  C   UNL     1      -5.966 -16.732  22.137  1.00  0.00     0.000 C 
BRANCH   3   4
ATOM      4  C   UNL     1      -7.289 -15.994  21.861  1.00  0.00     0.000 C 
BRANCH   4   5
ATOM      5  C   UNL     1      -7.156 -14.468  22.007  1.00  0.00     0.000 C 
BRANCH   5   6
ATOM      6  C   UNL     1      -8.095 -13.714  21.052  1.00  0.00     0.000 C 
BRANCH   6   7
ATOM      7  C   UNL     1      -8.800 -14.679  20.088  1.00  0.00     0.000 C 
BRANCH   7   8
ATOM      8  C   UNL     1      -8.990 -14.079  18.684  1.00  0.00     0.000 C 
BRANCH   8   9
ATOM      9  C   UNL     1      -8.681 -15.084  17.564  1.00  0.00     0.000 C 
BRANCH   9  10
ATOM     10  C   UNL     1      -9.870 -16.018  17.310  1.00  0.00     0.000 C 
BRANCH  10  11
ATOM     11  C   UNL     1      -9.692 -17.345  18.067  1.00  0.00     0.000 C 
BRANCH  11  12
ATOM     12  C   UNL     1      -9.187 -18.480  17.163  1.00  0.00     0.000 C 
BRANCH  12  13
ATOM     13  C   UNL     1      -7.802 -18.187  16.563  1.00  0.00     0.006 C 
BRANCH  13  14
ATOM     14  C   UNL     1      -6.903 -19.430  16.545  1.00  0.00     0.053 C 
BRANCH  14  15
ATOM     15  C   UNL     1      -6.619 -19.894  15.148  1.00  0.00     0.041 C 
ATOM     16  O   UNL     1      -6.736 -19.096  14.181  1.00  0.00    -0.550 OA
ATOM     17  O   UNL     1      -6.283 -21.219  14.910  1.00  0.00    -0.550 OA
ENDBRANCH  14  15
ENDBRANCH  13  14
ENDBRANCH  12  13
ENDBRANCH  11  12
ENDBRANCH  10  11
ENDBRANCH   9  10
ENDBRANCH   8   9
ENDBRANCH   7   8
ENDBRANCH   6   7
ENDBRANCH   5   6
ENDBRANCH   4   5
ENDBRANCH   3   4
ENDBRANCH   2   3
ENDBRANCH   1   2
BRANCH   1  18
ATOM     18  C   UNL     1      -5.455 -18.357  25.533  1.00  0.00     0.000 C 
BRANCH  18  19
ATOM     19  C   UNL     1      -5.386 -17.126  26.455  1.00  0.00     0.000 C 
BRANCH  19  20
ATOM     20  C   UNL     1      -4.818 -15.877  25.756  1.00  0.00     0.000 C 
BRANCH  20  21
ATOM     21  C   UNL     1      -5.342 -14.532  26.294  1.00  0.00     0.000 C 
BRANCH  21  22
ATOM     22  C   UNL     1      -5.168 -13.372  25.295  1.00  0.00     0.000 C 
BRANCH  22  23
ATOM     23  C   UNL     1      -6.506 -12.713  24.902  1.00  0.00     0.000 C 
BRANCH  23  24
ATOM     24  C   UNL     1      -6.389 -11.236  24.472  1.00  0.00    -0.000 C 
BRANCH  24  25
ATOM     25  C   UNL     1      -5.660 -10.307  25.463  1.00  0.00    -0.000 C 
BRANCH  25  26
ATOM     26  C   UNL     1      -5.600  -8.837  25.012  1.00  0.00    -0.000 C 
BRANCH  26  27
ATOM     27  C   UNL     1      -4.405  -8.552  24.075  1.00  0.00    -0.000 C 
BRANCH  27  28
ATOM     28  C   UNL     1      -3.059  -8.981  24.683  1.00  0.00    -0.000 C 
BRANCH  28  29
ATOM     29  C   UNL     1      -1.871  -8.556  23.801  1.00  0.00    -0.000 C 
BRANCH  29  30
ATOM     30  C   UNL     1      -2.224  -7.420  22.824  1.00  0.00    -0.000 C 
BRANCH  30  31
ATOM     31  C   UNL     1      -2.001  -7.755  21.340  1.00  0.00    -0.003 C 
ATOM     32  C   UNL     1      -3.068  -7.151  20.425  1.00  0.00     0.004 C 
ENDBRANCH  30  31
ENDBRANCH  29  30
ENDBRANCH  28  29
ENDBRANCH  27  28
ENDBRANCH  26  27
ENDBRANCH  25  26
ENDBRANCH  24  25
ENDBRANCH  23  24
ENDBRANCH  22  23
ENDBRANCH  21  22
ENDBRANCH  20  21
ENDBRANCH  19  20
ENDBRANCH  18  19
ENDBRANCH   1  18
TORSDOF 28
ENDMDL
