MODEL 1
REMARK VINA RESULT:    -4.827      0.000      0.000
REMARK INTER + INTRA:         -17.224
REMARK INTER:                 -12.164
REMARK INTRA:                  -5.061
REMARK UNBOUND:                -5.061
REMARK SMILES CCCCCCCCCCCCCCCCCCCCCCCCCCCC(=O)[O-]
REMARK SMILES IDX 15 1 16 2 17 3 18 4 19 5 20 6 21 7 22 8 23 9 24 10 25 11
REMARK SMILES IDX 26 12 27 13 28 14 29 15 30 16 14 17 13 18 12 19 11 20 10 21
REMARK SMILES IDX 9 22 8 23 7 24 6 25 5 26 4 27 3 28 2 29 1 30
REMARK H PARENT
REMARK Flexibility Score: inf
ROOT
ATOM      1  C   UNL     1    -104.582 -85.963  35.089  1.00  0.00     0.000 C 
ENDROOT
BRANCH   1   2
ATOM      2  C   UNL     1    -104.797 -87.162  36.024  1.00  0.00     0.000 C 
BRANCH   2   3
ATOM      3  C   UNL     1    -105.135 -86.707  37.456  1.00  0.00     0.000 C 
BRANCH   3   4
ATOM      4  C   UNL     1    -104.007 -87.007  38.454  1.00  0.00     0.000 C 
BRANCH   4   5
ATOM      5  C   UNL     1    -103.946 -85.995  39.613  1.00  0.00     0.000 C 
BRANCH   5   6
ATOM      6  C   UNL     1    -105.089 -84.972  39.530  1.00  0.00     0.000 C 
BRANCH   6   7
ATOM      7  C   UNL     1    -104.580 -83.531  39.375  1.00  0.00     0.000 C 
BRANCH   7   8
ATOM      8  C   UNL     1    -103.045 -83.498  39.306  1.00  0.00     0.000 C 
BRANCH   8   9
ATOM      9  C   UNL     1    -102.439 -82.213  39.887  1.00  0.00     0.000 C 
BRANCH   9  10
ATOM     10  C   UNL     1    -103.447 -81.383  40.705  1.00  0.00     0.000 C 
BRANCH  10  11
ATOM     11  C   UNL     1    -103.562 -79.939  40.187  1.00  0.00     0.000 C 
BRANCH  11  12
ATOM     12  C   UNL     1    -104.929 -79.647  39.527  1.00  0.00     0.006 C 
BRANCH  12  13
ATOM     13  C   UNL     1    -104.770 -79.107  38.096  1.00  0.00     0.053 C 
BRANCH  13  14
ATOM     14  C   UNL     1    -104.451 -80.191  37.110  1.00  0.00     0.041 C 
ATOM     15  O   UNL     1    -105.325 -81.030  36.760  1.00  0.00    -0.550 OA
ATOM     16  O   UNL     1    -103.148 -80.321  36.639  1.00  0.00    -0.550 OA
ENDBRANCH  13  14
ENDBRANCH  12  13
ENDBRANCH  11  12
ENDBRANCH  10  11
ENDBRANCH   9  10
ENDBRANCH   8   9
ENDBRANCH   7   8
ENDBRANCH   6   7
ENDBRANCH   5   6
ENDBRANCH   4   5
ENDBRANCH   3   4
ENDBRANCH   2   3
ENDBRANCH   1   2
BRANCH   1  17
ATOM     17  C   UNL     1    -104.666 -84.607  35.825  1.00  0.00     0.000 C 
BRANCH  17  18
ATOM     18  C   UNL     1    -103.415 -83.721  35.660  1.00  0.00     0.000 C 
BRANCH  18  19
ATOM     19  C   UNL     1    -102.105 -84.526  35.620  1.00  0.00     0.000 C 
BRANCH  19  20
ATOM     20  C   UNL     1    -101.437 -84.480  34.235  1.00  0.00     0.000 C 
BRANCH  20  21
ATOM     21  C   UNL     1    -102.188 -83.547  33.271  1.00  0.00     0.000 C 
BRANCH  21  22
ATOM     22  C   UNL     1    -102.824 -84.295  32.092  1.00  0.00    -0.000 C 
BRANCH  22  23
ATOM     23  C   UNL     1    -104.310 -83.942  31.901  1.00  0.00    -0.000 C 
BRANCH  23  24
ATOM     24  C   UNL     1    -104.648 -82.526  32.415  1.00  0.00    -0.000 C 
BRANCH  24  25
ATOM     25  C   UNL     1    -106.020 -82.427  33.113  1.00  0.00    -0.000 C 
BRANCH  25  26
ATOM     26  C   UNL     1    -106.841 -83.731  33.128  1.00  0.00    -0.000 C 
BRANCH  26  27
ATOM     27  C   UNL     1    -108.225 -83.634  32.457  1.00  0.00    -0.000 C 
BRANCH  27  28
ATOM     28  C   UNL     1    -108.213 -82.734  31.213  1.00  0.00    -0.000 C 
BRANCH  28  29
ATOM     29  C   UNL     1    -107.761 -83.487  29.953  1.00  0.00    -0.003 C 
ATOM     30  C   UNL     1    -106.645 -82.763  29.205  1.00  0.00     0.004 C 
ENDBRANCH  28  29
ENDBRANCH  27  28
ENDBRANCH  26  27
ENDBRANCH  25  26
ENDBRANCH  24  25
ENDBRANCH  23  24
ENDBRANCH  22  23
ENDBRANCH  21  22
ENDBRANCH  20  21
ENDBRANCH  19  20
ENDBRANCH  18  19
ENDBRANCH  17  18
ENDBRANCH   1  17
TORSDOF 26
ENDMDL
MODEL 2
REMARK VINA RESULT:    -4.810      2.857      7.844
REMARK INTER + INTRA:         -17.182
REMARK INTER:                 -12.332
REMARK INTRA:                  -4.849
REMARK UNBOUND:                -5.061
REMARK SMILES CCCCCCCCCCCCCCCCCCCCCCCCCCCC(=O)[O-]
REMARK SMILES IDX 15 1 16 2 17 3 18 4 19 5 20 6 21 7 22 8 23 9 24 10 25 11
REMARK SMILES IDX 26 12 27 13 28 14 29 15 30 16 14 17 13 18 12 19 11 20 10 21
REMARK SMILES IDX 9 22 8 23 7 24 6 25 5 26 4 27 3 28 2 29 1 30
REMARK H PARENT
REMARK Flexibility Score: inf
ROOT
ATOM      1  C   UNL     1    -102.221 -84.708  34.908  1.00  0.00     0.000 C 
ENDROOT
BRANCH   1   2
ATOM      2  C   UNL     1    -102.267 -83.680  33.767  1.00  0.00     0.000 C 
BRANCH   2   3
ATOM      3  C   UNL     1    -102.831 -84.298  32.474  1.00  0.00     0.000 C 
BRANCH   3   4
ATOM      4  C   UNL     1    -104.280 -83.868  32.196  1.00  0.00     0.000 C 
BRANCH   4   5
ATOM      5  C   UNL     1    -104.642 -82.523  32.853  1.00  0.00     0.000 C 
BRANCH   5   6
ATOM      6  C   UNL     1    -105.941 -82.623  33.667  1.00  0.00     0.000 C 
BRANCH   6   7
ATOM      7  C   UNL     1    -106.872 -83.733  33.157  1.00  0.00     0.000 C 
BRANCH   7   8
ATOM      8  C   UNL     1    -107.847 -83.185  32.102  1.00  0.00     0.000 C 
BRANCH   8   9
ATOM      9  C   UNL     1    -108.157 -81.693  32.280  1.00  0.00     0.000 C 
BRANCH   9  10
ATOM     10  C   UNL     1    -107.916 -80.867  31.002  1.00  0.00     0.000 C 
BRANCH  10  11
ATOM     11  C   UNL     1    -106.864 -81.514  30.085  1.00  0.00     0.000 C 
BRANCH  11  12
ATOM     12  C   UNL     1    -107.372 -81.710  28.638  1.00  0.00     0.006 C 
BRANCH  12  13
ATOM     13  C   UNL     1    -108.904 -81.605  28.550  1.00  0.00     0.053 C 
BRANCH  13  14
ATOM     14  C   UNL     1    -109.548 -82.920  28.227  1.00  0.00     0.041 C 
ATOM     15  O   UNL     1    -109.586 -83.852  29.076  1.00  0.00    -0.550 OA
ATOM     16  O   UNL     1    -110.037 -83.142  26.944  1.00  0.00    -0.550 OA
ENDBRANCH  13  14
ENDBRANCH  12  13
ENDBRANCH  11  12
ENDBRANCH  10  11
ENDBRANCH   9  10
ENDBRANCH   8   9
ENDBRANCH   7   8
ENDBRANCH   6   7
ENDBRANCH   5   6
ENDBRANCH   4   5
ENDBRANCH   3   4
ENDBRANCH   2   3
ENDBRANCH   1   2
BRANCH   1  17
ATOM     17  C   UNL     1    -103.109 -84.310  36.108  1.00  0.00     0.000 C 
BRANCH  17  18
ATOM     18  C   UNL     1    -104.558 -84.829  36.019  1.00  0.00     0.000 C 
BRANCH  18  19
ATOM     19  C   UNL     1    -104.680 -86.154  35.247  1.00  0.00     0.000 C 
BRANCH  19  20
ATOM     20  C   UNL     1    -104.775 -87.367  36.187  1.00  0.00     0.000 C 
BRANCH  20  21
ATOM     21  C   UNL     1    -105.052 -86.944  37.639  1.00  0.00     0.000 C 
BRANCH  21  22
ATOM     22  C   UNL     1    -103.812 -87.038  38.536  1.00  0.00    -0.000 C 
BRANCH  22  23
ATOM     23  C   UNL     1    -103.720 -85.878  39.543  1.00  0.00    -0.000 C 
BRANCH  23  24
ATOM     24  C   UNL     1    -105.098 -85.247  39.839  1.00  0.00    -0.000 C 
BRANCH  24  25
ATOM     25  C   UNL     1    -105.160 -83.729  39.566  1.00  0.00    -0.000 C 
BRANCH  25  26
ATOM     26  C   UNL     1    -103.793 -83.024  39.487  1.00  0.00    -0.000 C 
BRANCH  26  27
ATOM     27  C   UNL     1    -103.842 -81.574  38.965  1.00  0.00    -0.000 C 
BRANCH  27  28
ATOM     28  C   UNL     1    -105.115 -81.282  38.158  1.00  0.00    -0.000 C 
BRANCH  28  29
ATOM     29  C   UNL     1    -104.806 -80.880  36.708  1.00  0.00    -0.003 C 
ATOM     30  C   UNL     1    -103.317 -80.652  36.466  1.00  0.00     0.004 C 
ENDBRANCH  28  29
ENDBRANCH  27  28
ENDBRANCH  26  27
ENDBRANCH  25  26
ENDBRANCH  24  25
ENDBRANCH  23  24
ENDBRANCH  22  23
ENDBRANCH  21  22
ENDBRANCH  20  21
ENDBRANCH  19  20
ENDBRANCH  18  19
ENDBRANCH  17  18
ENDBRANCH   1  17
TORSDOF 26
ENDMDL
MODEL 3
REMARK VINA RESULT:    -4.643      2.602      7.111
REMARK INTER + INTRA:         -16.762
REMARK INTER:                 -12.069
REMARK INTRA:                  -4.693
REMARK UNBOUND:                -5.061
REMARK SMILES CCCCCCCCCCCCCCCCCCCCCCCCCCCC(=O)[O-]
REMARK SMILES IDX 15 1 16 2 17 3 18 4 19 5 20 6 21 7 22 8 23 9 24 10 25 11
REMARK SMILES IDX 26 12 27 13 28 14 29 15 30 16 14 17 13 18 12 19 11 20 10 21
REMARK SMILES IDX 9 22 8 23 7 24 6 25 5 26 4 27 3 28 2 29 1 30
REMARK H PARENT
REMARK Flexibility Score: inf
ROOT
ATOM      1  C   UNL     1    -105.017 -87.447  37.582  1.00  0.00     0.000 C 
ENDROOT
BRANCH   1   2
ATOM      2  C   UNL     1    -104.646 -87.120  36.127  1.00  0.00     0.000 C 
BRANCH   2   3
ATOM      3  C   UNL     1    -105.577 -86.045  35.536  1.00  0.00     0.000 C 
BRANCH   3   4
ATOM      4  C   UNL     1    -104.857 -84.711  35.284  1.00  0.00     0.000 C 
BRANCH   4   5
ATOM      5  C   UNL     1    -103.323 -84.837  35.351  1.00  0.00     0.000 C 
BRANCH   5   6
ATOM      6  C   UNL     1    -102.670 -84.505  34.001  1.00  0.00     0.000 C 
BRANCH   6   7
ATOM      7  C   UNL     1    -103.605 -84.771  32.812  1.00  0.00     0.000 C 
BRANCH   7   8
ATOM      8  C   UNL     1    -103.685 -83.541  31.894  1.00  0.00     0.000 C 
BRANCH   8   9
ATOM      9  C   UNL     1    -104.409 -82.351  32.537  1.00  0.00     0.000 C 
BRANCH   9  10
ATOM     10  C   UNL     1    -105.854 -82.174  32.031  1.00  0.00     0.000 C 
BRANCH  10  11
ATOM     11  C   UNL     1    -106.850 -83.051  32.810  1.00  0.00     0.000 C 
BRANCH  11  12
ATOM     12  C   UNL     1    -108.213 -83.186  32.093  1.00  0.00     0.006 C 
BRANCH  12  13
ATOM     13  C   UNL     1    -108.135 -82.740  30.624  1.00  0.00     0.053 C 
BRANCH  13  14
ATOM     14  C   UNL     1    -109.005 -83.571  29.728  1.00  0.00     0.041 C 
ATOM     15  O   UNL     1    -109.731 -83.036  28.847  1.00  0.00    -0.550 OA
ATOM     16  O   UNL     1    -109.073 -84.946  29.930  1.00  0.00    -0.550 OA
ENDBRANCH  13  14
ENDBRANCH  12  13
ENDBRANCH  11  12
ENDBRANCH  10  11
ENDBRANCH   9  10
ENDBRANCH   8   9
ENDBRANCH   7   8
ENDBRANCH   6   7
ENDBRANCH   5   6
ENDBRANCH   4   5
ENDBRANCH   3   4
ENDBRANCH   2   3
ENDBRANCH   1   2
BRANCH   1  17
ATOM     17  C   UNL     1    -103.809 -87.362  38.541  1.00  0.00     0.000 C 
BRANCH  17  18
ATOM     18  C   UNL     1    -103.865 -86.173  39.521  1.00  0.00     0.000 C 
BRANCH  18  19
ATOM     19  C   UNL     1    -105.072 -85.250  39.284  1.00  0.00     0.000 C 
BRANCH  19  20
ATOM     20  C   UNL     1    -104.652 -83.783  39.091  1.00  0.00     0.000 C 
BRANCH  20  21
ATOM     21  C   UNL     1    -103.124 -83.618  39.129  1.00  0.00     0.000 C 
BRANCH  21  22
ATOM     22  C   UNL     1    -102.679 -82.356  39.879  1.00  0.00    -0.000 C 
BRANCH  22  23
ATOM     23  C   UNL     1    -103.861 -81.454  40.274  1.00  0.00    -0.000 C 
BRANCH  23  24
ATOM     24  C   UNL     1    -103.407 -80.034  40.676  1.00  0.00    -0.000 C 
BRANCH  24  25
ATOM     25  C   UNL     1    -102.831 -79.209  39.506  1.00  0.00    -0.000 C 
BRANCH  25  26
ATOM     26  C   UNL     1    -103.707 -79.173  38.239  1.00  0.00    -0.000 C 
BRANCH  26  27
ATOM     27  C   UNL     1    -103.007 -79.658  36.953  1.00  0.00    -0.000 C 
BRANCH  27  28
ATOM     28  C   UNL     1    -103.506 -81.036  36.497  1.00  0.00    -0.000 C 
BRANCH  28  29
ATOM     29  C   UNL     1    -105.028 -81.182  36.640  1.00  0.00    -0.003 C 
ATOM     30  C   UNL     1    -105.791 -80.550  35.479  1.00  0.00     0.004 C 
ENDBRANCH  28  29
ENDBRANCH  27  28
ENDBRANCH  26  27
ENDBRANCH  25  26
ENDBRANCH  24  25
ENDBRANCH  23  24
ENDBRANCH  22  23
ENDBRANCH  21  22
ENDBRANCH  20  21
ENDBRANCH  19  20
ENDBRANCH  18  19
ENDBRANCH  17  18
ENDBRANCH   1  17
TORSDOF 26
ENDMDL
MODEL 4
REMARK VINA RESULT:    -4.631      2.703      7.223
REMARK INTER + INTRA:         -16.730
REMARK INTER:                 -12.516
REMARK INTRA:                  -4.213
REMARK UNBOUND:                -5.061
REMARK SMILES CCCCCCCCCCCCCCCCCCCCCCCCCCCC(=O)[O-]
REMARK SMILES IDX 15 1 16 2 17 3 18 4 19 5 20 6 21 7 22 8 23 9 24 10 25 11
REMARK SMILES IDX 26 12 27 13 28 14 29 15 30 16 14 17 13 18 12 19 11 20 10 21
REMARK SMILES IDX 9 22 8 23 7 24 6 25 5 26 4 27 3 28 2 29 1 30
REMARK H PARENT
REMARK Flexibility Score: inf
ROOT
ATOM      1  C   UNL     1    -105.166 -87.060  37.047  1.00  0.00     0.000 C 
ENDROOT
BRANCH   1   2
ATOM      2  C   UNL     1    -105.309 -87.073  35.518  1.00  0.00     0.000 C 
BRANCH   2   3
ATOM      3  C   UNL     1    -105.439 -85.647  34.951  1.00  0.00     0.000 C 
BRANCH   3   4
ATOM      4  C   UNL     1    -104.311 -85.294  33.970  1.00  0.00     0.000 C 
BRANCH   4   5
ATOM      5  C   UNL     1    -102.985 -84.956  34.677  1.00  0.00     0.000 C 
BRANCH   5   6
ATOM      6  C   UNL     1    -102.135 -83.982  33.849  1.00  0.00     0.000 C 
BRANCH   6   7
ATOM      7  C   UNL     1    -102.927 -83.339  32.700  1.00  0.00     0.000 C 
BRANCH   7   8
ATOM      8  C   UNL     1    -102.272 -83.652  31.345  1.00  0.00     0.000 C 
BRANCH   8   9
ATOM      9  C   UNL     1    -103.169 -84.482  30.416  1.00  0.00     0.000 C 
BRANCH   9  10
ATOM     10  C   UNL     1    -103.987 -83.621  29.434  1.00  0.00     0.000 C 
BRANCH  10  11
ATOM     11  C   UNL     1    -105.453 -84.079  29.347  1.00  0.00     0.000 C 
BRANCH  11  12
ATOM     12  C   UNL     1    -106.447 -82.896  29.305  1.00  0.00     0.006 C 
BRANCH  12  13
ATOM     13  C   UNL     1    -107.839 -83.301  29.818  1.00  0.00     0.053 C 
BRANCH  13  14
ATOM     14  C   UNL     1    -108.943 -82.594  29.089  1.00  0.00     0.041 C 
ATOM     15  O   UNL     1    -109.222 -81.390  29.340  1.00  0.00    -0.550 OA
ATOM     16  O   UNL     1    -109.724 -83.304  28.183  1.00  0.00    -0.550 OA
ENDBRANCH  13  14
ENDBRANCH  12  13
ENDBRANCH  11  12
ENDBRANCH  10  11
ENDBRANCH   9  10
ENDBRANCH   8   9
ENDBRANCH   7   8
ENDBRANCH   6   7
ENDBRANCH   5   6
ENDBRANCH   4   5
ENDBRANCH   3   4
ENDBRANCH   2   3
ENDBRANCH   1   2
BRANCH   1  17
ATOM     17  C   UNL     1    -105.101 -85.631  37.630  1.00  0.00     0.000 C 
BRANCH  17  18
ATOM     18  C   UNL     1    -104.954 -85.582  39.164  1.00  0.00     0.000 C 
BRANCH  18  19
ATOM     19  C   UNL     1    -103.518 -85.855  39.643  1.00  0.00     0.000 C 
BRANCH  19  20
ATOM     20  C   UNL     1    -102.468 -85.437  38.600  1.00  0.00     0.000 C 
BRANCH  20  21
ATOM     21  C   UNL     1    -102.148 -83.936  38.683  1.00  0.00     0.000 C 
BRANCH  21  22
ATOM     22  C   UNL     1    -102.289 -83.373  40.103  1.00  0.00    -0.000 C 
BRANCH  22  23
ATOM     23  C   UNL     1    -103.000 -82.009  40.131  1.00  0.00    -0.000 C 
BRANCH  23  24
ATOM     24  C   UNL     1    -104.508 -82.127  39.820  1.00  0.00    -0.000 C 
BRANCH  24  25
ATOM     25  C   UNL     1    -104.948 -81.346  38.564  1.00  0.00    -0.000 C 
BRANCH  25  26
ATOM     26  C   UNL     1    -103.801 -80.715  37.752  1.00  0.00    -0.000 C 
BRANCH  26  27
ATOM     27  C   UNL     1    -103.563 -81.348  36.367  1.00  0.00    -0.000 C 
BRANCH  27  28
ATOM     28  C   UNL     1    -104.827 -82.008  35.798  1.00  0.00    -0.000 C 
BRANCH  28  29
ATOM     29  C   UNL     1    -105.315 -81.321  34.513  1.00  0.00    -0.003 C 
ATOM     30  C   UNL     1    -106.312 -82.174  33.734  1.00  0.00     0.004 C 
ENDBRANCH  28  29
ENDBRANCH  27  28
ENDBRANCH  26  27
ENDBRANCH  25  26
ENDBRANCH  24  25
ENDBRANCH  23  24
ENDBRANCH  22  23
ENDBRANCH  21  22
ENDBRANCH  20  21
ENDBRANCH  19  20
ENDBRANCH  18  19
ENDBRANCH  17  18
ENDBRANCH   1  17
TORSDOF 26
ENDMDL
MODEL 5
REMARK VINA RESULT:    -4.601      2.409      6.066
REMARK INTER + INTRA:         -16.655
REMARK INTER:                 -11.425
REMARK INTRA:                  -5.230
REMARK UNBOUND:                -5.061
REMARK SMILES CCCCCCCCCCCCCCCCCCCCCCCCCCCC(=O)[O-]
REMARK SMILES IDX 15 1 16 2 17 3 18 4 19 5 20 6 21 7 22 8 23 9 24 10 25 11
REMARK SMILES IDX 26 12 27 13 28 14 29 15 30 16 14 17 13 18 12 19 11 20 10 21
REMARK SMILES IDX 9 22 8 23 7 24 6 25 5 26 4 27 3 28 2 29 1 30
REMARK H PARENT
REMARK Flexibility Score: inf
ROOT
ATOM      1  C   UNL     1    -102.681 -81.873  39.757  1.00  0.00     0.000 C 
ENDROOT
BRANCH   1   2
ATOM      2  C   UNL     1    -104.106 -81.576  40.246  1.00  0.00     0.000 C 
BRANCH   2   3
ATOM      3  C   UNL     1    -105.126 -81.662  39.096  1.00  0.00     0.000 C 
BRANCH   3   4
ATOM      4  C   UNL     1    -105.014 -80.484  38.115  1.00  0.00     0.000 C 
BRANCH   4   5
ATOM      5  C   UNL     1    -104.869 -80.936  36.650  1.00  0.00     0.000 C 
BRANCH   5   6
ATOM      6  C   UNL     1    -104.375 -82.386  36.552  1.00  0.00     0.000 C 
BRANCH   6   7
ATOM      7  C   UNL     1    -103.088 -82.516  35.722  1.00  0.00     0.000 C 
BRANCH   7   8
ATOM      8  C   UNL     1    -103.033 -81.438  34.628  1.00  0.00     0.000 C 
BRANCH   8   9
ATOM      9  C   UNL     1    -102.593 -81.983  33.262  1.00  0.00     0.000 C 
BRANCH   9  10
ATOM     10  C   UNL     1    -102.058 -83.426  33.328  1.00  0.00     0.000 C 
BRANCH  10  11
ATOM     11  C   UNL     1    -101.234 -83.794  32.083  1.00  0.00     0.000 C 
BRANCH  11  12
ATOM     12  C   UNL     1    -101.964 -83.458  30.762  1.00  0.00     0.006 C 
BRANCH  12  13
ATOM     13  C   UNL     1    -103.203 -84.345  30.551  1.00  0.00     0.053 C 
BRANCH  13  14
ATOM     14  C   UNL     1    -104.240 -83.680  29.695  1.00  0.00     0.041 C 
ATOM     15  O   UNL     1    -105.053 -84.361  29.011  1.00  0.00    -0.550 OA
ATOM     16  O   UNL     1    -104.251 -82.293  29.592  1.00  0.00    -0.550 OA
ENDBRANCH  13  14
ENDBRANCH  12  13
ENDBRANCH  11  12
ENDBRANCH  10  11
ENDBRANCH   9  10
ENDBRANCH   8   9
ENDBRANCH   7   8
ENDBRANCH   6   7
ENDBRANCH   5   6
ENDBRANCH   4   5
ENDBRANCH   3   4
ENDBRANCH   2   3
ENDBRANCH   1   2
BRANCH   1  17
ATOM     17  C   UNL     1    -102.176 -83.266  40.195  1.00  0.00     0.000 C 
BRANCH  17  18
ATOM     18  C   UNL     1    -102.557 -84.406  39.230  1.00  0.00     0.000 C 
BRANCH  18  19
ATOM     19  C   UNL     1    -103.483 -85.455  39.869  1.00  0.00     0.000 C 
BRANCH  19  20
ATOM     20  C   UNL     1    -104.946 -85.286  39.427  1.00  0.00     0.000 C 
BRANCH  20  21
ATOM     21  C   UNL     1    -105.117 -85.523  37.917  1.00  0.00     0.000 C 
BRANCH  21  22
ATOM     22  C   UNL     1    -105.112 -87.010  37.542  1.00  0.00    -0.000 C 
BRANCH  22  23
ATOM     23  C   UNL     1    -104.864 -87.240  36.040  1.00  0.00    -0.000 C 
BRANCH  23  24
ATOM     24  C   UNL     1    -104.131 -86.054  35.378  1.00  0.00    -0.000 C 
BRANCH  24  25
ATOM     25  C   UNL     1    -104.722 -85.639  34.014  1.00  0.00    -0.000 C 
BRANCH  25  26
ATOM     26  C   UNL     1    -105.921 -84.676  34.087  1.00  0.00    -0.000 C 
BRANCH  26  27
ATOM     27  C   UNL     1    -105.962 -83.607  32.977  1.00  0.00    -0.000 C 
BRANCH  27  28
ATOM     28  C   UNL     1    -106.462 -82.248  33.488  1.00  0.00    -0.000 C 
BRANCH  28  29
ATOM     29  C   UNL     1    -106.491 -81.183  32.380  1.00  0.00    -0.003 C 
ATOM     30  C   UNL     1    -107.324 -81.611  31.176  1.00  0.00     0.004 C 
ENDBRANCH  28  29
ENDBRANCH  27  28
ENDBRANCH  26  27
ENDBRANCH  25  26
ENDBRANCH  24  25
ENDBRANCH  23  24
ENDBRANCH  22  23
ENDBRANCH  21  22
ENDBRANCH  20  21
ENDBRANCH  19  20
ENDBRANCH  18  19
ENDBRANCH  17  18
ENDBRANCH   1  17
TORSDOF 26
ENDMDL
MODEL 6
REMARK VINA RESULT:    -4.587      2.362      5.614
REMARK INTER + INTRA:         -16.619
REMARK INTER:                 -11.653
REMARK INTRA:                  -4.966
REMARK UNBOUND:                -5.061
REMARK SMILES CCCCCCCCCCCCCCCCCCCCCCCCCCCC(=O)[O-]
REMARK SMILES IDX 15 1 16 2 17 3 18 4 19 5 20 6 21 7 22 8 23 9 24 10 25 11
REMARK SMILES IDX 26 12 27 13 28 14 29 15 30 16 14 17 13 18 12 19 11 20 10 21
REMARK SMILES IDX 9 22 8 23 7 24 6 25 5 26 4 27 3 28 2 29 1 30
REMARK H PARENT
REMARK Flexibility Score: inf
ROOT
ATOM      1  C   UNL     1    -103.543 -85.232  39.287  1.00  0.00     0.000 C 
ENDROOT
BRANCH   1   2
ATOM      2  C   UNL     1    -105.003 -84.756  39.347  1.00  0.00     0.000 C 
BRANCH   2   3
ATOM      3  C   UNL     1    -105.101 -83.223  39.236  1.00  0.00     0.000 C 
BRANCH   3   4
ATOM      4  C   UNL     1    -103.741 -82.561  38.963  1.00  0.00     0.000 C 
BRANCH   4   5
ATOM      5  C   UNL     1    -103.840 -81.364  37.999  1.00  0.00     0.000 C 
BRANCH   5   6
ATOM      6  C   UNL     1    -105.296 -81.075  37.605  1.00  0.00     0.000 C 
BRANCH   6   7
ATOM      7  C   UNL     1    -105.405 -80.308  36.278  1.00  0.00     0.000 C 
BRANCH   7   8
ATOM      8  C   UNL     1    -104.707 -81.076  35.144  1.00  0.00     0.000 C 
BRANCH   8   9
ATOM      9  C   UNL     1    -105.639 -81.404  33.970  1.00  0.00     0.000 C 
BRANCH   9  10
ATOM     10  C   UNL     1    -107.072 -80.871  34.165  1.00  0.00     0.000 C 
BRANCH  10  11
ATOM     11  C   UNL     1    -108.126 -81.810  33.556  1.00  0.00     0.000 C 
BRANCH  11  12
ATOM     12  C   UNL     1    -107.508 -83.097  32.960  1.00  0.00     0.006 C 
BRANCH  12  13
ATOM     13  C   UNL     1    -108.484 -83.815  32.013  1.00  0.00     0.053 C 
BRANCH  13  14
ATOM     14  C   UNL     1    -108.368 -83.328  30.599  1.00  0.00     0.041 C 
ATOM     15  O   UNL     1    -108.113 -82.119  30.346  1.00  0.00    -0.550 OA
ATOM     16  O   UNL     1    -108.630 -84.207  29.553  1.00  0.00    -0.550 OA
ENDBRANCH  13  14
ENDBRANCH  12  13
ENDBRANCH  11  12
ENDBRANCH  10  11
ENDBRANCH   9  10
ENDBRANCH   8   9
ENDBRANCH   7   8
ENDBRANCH   6   7
ENDBRANCH   5   6
ENDBRANCH   4   5
ENDBRANCH   3   4
ENDBRANCH   2   3
ENDBRANCH   1   2
BRANCH   1  17
ATOM     17  C   UNL     1    -103.389 -86.604  38.595  1.00  0.00     0.000 C 
BRANCH  17  18
ATOM     18  C   UNL     1    -104.726 -87.300  38.270  1.00  0.00     0.000 C 
BRANCH  18  19
ATOM     19  C   UNL     1    -104.786 -87.857  36.837  1.00  0.00     0.000 C 
BRANCH  19  20
ATOM     20  C   UNL     1    -105.795 -87.096  35.960  1.00  0.00     0.000 C 
BRANCH  20  21
ATOM     21  C   UNL     1    -105.169 -86.649  34.629  1.00  0.00     0.000 C 
BRANCH  21  22
ATOM     22  C   UNL     1    -105.062 -85.124  34.503  1.00  0.00    -0.000 C 
BRANCH  22  23
ATOM     23  C   UNL     1    -104.429 -84.471  35.745  1.00  0.00    -0.000 C 
BRANCH  23  24
ATOM     24  C   UNL     1    -102.905 -84.276  35.593  1.00  0.00    -0.000 C 
BRANCH  24  25
ATOM     25  C   UNL     1    -102.396 -84.446  34.147  1.00  0.00    -0.000 C 
BRANCH  25  26
ATOM     26  C   UNL     1    -102.041 -83.134  33.421  1.00  0.00    -0.000 C 
BRANCH  26  27
ATOM     27  C   UNL     1    -102.292 -83.147  31.900  1.00  0.00    -0.000 C 
BRANCH  27  28
ATOM     28  C   UNL     1    -103.284 -84.240  31.477  1.00  0.00    -0.000 C 
BRANCH  28  29
ATOM     29  C   UNL     1    -104.596 -83.657  30.929  1.00  0.00    -0.003 C 
ATOM     30  C   UNL     1    -104.798 -83.958  29.447  1.00  0.00     0.004 C 
ENDBRANCH  28  29
ENDBRANCH  27  28
ENDBRANCH  26  27
ENDBRANCH  25  26
ENDBRANCH  24  25
ENDBRANCH  23  24
ENDBRANCH  22  23
ENDBRANCH  21  22
ENDBRANCH  20  21
ENDBRANCH  19  20
ENDBRANCH  18  19
ENDBRANCH  17  18
ENDBRANCH   1  17
TORSDOF 26
ENDMDL
MODEL 7
REMARK VINA RESULT:    -4.554      1.087      2.114
REMARK INTER + INTRA:         -16.538
REMARK INTER:                 -11.983
REMARK INTRA:                  -4.555
REMARK UNBOUND:                -5.061
REMARK SMILES CCCCCCCCCCCCCCCCCCCCCCCCCCCC(=O)[O-]
REMARK SMILES IDX 15 1 16 2 17 3 18 4 19 5 20 6 21 7 22 8 23 9 24 10 25 11
REMARK SMILES IDX 26 12 27 13 28 14 29 15 30 16 14 17 13 18 12 19 11 20 10 21
REMARK SMILES IDX 9 22 8 23 7 24 6 25 5 26 4 27 3 28 2 29 1 30
REMARK H PARENT
REMARK Flexibility Score: inf
ROOT
ATOM      1  C   UNL     1    -105.064 -86.135  34.256  1.00  0.00     0.000 C 
ENDROOT
BRANCH   1   2
ATOM      2  C   UNL     1    -105.865 -87.054  35.190  1.00  0.00     0.000 C 
BRANCH   2   3
ATOM      3  C   UNL     1    -104.972 -87.657  36.290  1.00  0.00     0.000 C 
BRANCH   3   4
ATOM      4  C   UNL     1    -105.143 -86.953  37.645  1.00  0.00     0.000 C 
BRANCH   4   5
ATOM      5  C   UNL     1    -103.831 -86.867  38.446  1.00  0.00     0.000 C 
BRANCH   5   6
ATOM      6  C   UNL     1    -103.949 -85.884  39.620  1.00  0.00     0.000 C 
BRANCH   6   7
ATOM      7  C   UNL     1    -105.174 -84.964  39.499  1.00  0.00     0.000 C 
BRANCH   7   8
ATOM      8  C   UNL     1    -104.741 -83.503  39.299  1.00  0.00     0.000 C 
BRANCH   8   9
ATOM      9  C   UNL     1    -103.238 -83.346  39.033  1.00  0.00     0.000 C 
BRANCH   9  10
ATOM     10  C   UNL     1    -102.589 -82.222  39.862  1.00  0.00     0.000 C 
BRANCH  10  11
ATOM     11  C   UNL     1    -103.631 -81.232  40.409  1.00  0.00     0.000 C 
BRANCH  11  12
ATOM     12  C   UNL     1    -103.751 -79.953  39.549  1.00  0.00     0.006 C 
BRANCH  12  13
ATOM     13  C   UNL     1    -105.214 -79.509  39.385  1.00  0.00     0.053 C 
BRANCH  13  14
ATOM     14  C   UNL     1    -105.801 -79.950  38.077  1.00  0.00     0.041 C 
ATOM     15  O   UNL     1    -107.008 -79.719  37.794  1.00  0.00    -0.550 OA
ATOM     16  O   UNL     1    -105.023 -80.698  37.199  1.00  0.00    -0.550 OA
ENDBRANCH  13  14
ENDBRANCH  12  13
ENDBRANCH  11  12
ENDBRANCH  10  11
ENDBRANCH   9  10
ENDBRANCH   8   9
ENDBRANCH   7   8
ENDBRANCH   6   7
ENDBRANCH   5   6
ENDBRANCH   4   5
ENDBRANCH   3   4
ENDBRANCH   2   3
ENDBRANCH   1   2
BRANCH   1  17
ATOM     17  C   UNL     1    -105.432 -84.644  34.423  1.00  0.00     0.000 C 
BRANCH  17  18
ATOM     18  C   UNL     1    -104.775 -83.965  35.641  1.00  0.00     0.000 C 
BRANCH  18  19
ATOM     19  C   UNL     1    -103.495 -83.190  35.285  1.00  0.00     0.000 C 
BRANCH  19  20
ATOM     20  C   UNL     1    -102.229 -84.044  35.468  1.00  0.00     0.000 C 
BRANCH  20  21
ATOM     21  C   UNL     1    -101.640 -84.487  34.118  1.00  0.00     0.000 C 
BRANCH  21  22
ATOM     22  C   UNL     1    -102.160 -83.657  32.939  1.00  0.00    -0.000 C 
BRANCH  22  23
ATOM     23  C   UNL     1    -102.849 -84.519  31.866  1.00  0.00    -0.000 C 
BRANCH  23  24
ATOM     24  C   UNL     1    -103.086 -83.743  30.552  1.00  0.00    -0.000 C 
BRANCH  24  25
ATOM     25  C   UNL     1    -104.562 -83.714  30.104  1.00  0.00    -0.000 C 
BRANCH  25  26
ATOM     26  C   UNL     1    -105.452 -82.703  30.853  1.00  0.00    -0.000 C 
BRANCH  26  27
ATOM     27  C   UNL     1    -106.845 -83.234  31.246  1.00  0.00    -0.000 C 
BRANCH  27  28
ATOM     28  C   UNL     1    -107.526 -82.364  32.312  1.00  0.00    -0.000 C 
BRANCH  28  29
ATOM     29  C   UNL     1    -106.565 -81.334  32.925  1.00  0.00    -0.003 C 
ATOM     30  C   UNL     1    -106.988 -80.897  34.325  1.00  0.00     0.004 C 
ENDBRANCH  28  29
ENDBRANCH  27  28
ENDBRANCH  26  27
ENDBRANCH  25  26
ENDBRANCH  24  25
ENDBRANCH  23  24
ENDBRANCH  22  23
ENDBRANCH  21  22
ENDBRANCH  20  21
ENDBRANCH  19  20
ENDBRANCH  18  19
ENDBRANCH  17  18
ENDBRANCH   1  17
TORSDOF 26
ENDMDL
MODEL 8
REMARK VINA RESULT:    -4.545      2.910      6.368
REMARK INTER + INTRA:         -16.514
REMARK INTER:                 -12.080
REMARK INTRA:                  -4.434
REMARK UNBOUND:                -5.061
REMARK SMILES CCCCCCCCCCCCCCCCCCCCCCCCCCCC(=O)[O-]
REMARK SMILES IDX 15 1 16 2 17 3 18 4 19 5 20 6 21 7 22 8 23 9 24 10 25 11
REMARK SMILES IDX 26 12 27 13 28 14 29 15 30 16 14 17 13 18 12 19 11 20 10 21
REMARK SMILES IDX 9 22 8 23 7 24 6 25 5 26 4 27 3 28 2 29 1 30
REMARK H PARENT
REMARK Flexibility Score: inf
ROOT
ATOM      1  C   UNL     1    -103.109 -82.011  39.905  1.00  0.00     0.000 C 
ENDROOT
BRANCH   1   2
ATOM      2  C   UNL     1    -104.613 -82.150  39.628  1.00  0.00     0.000 C 
BRANCH   2   3
ATOM      3  C   UNL     1    -104.988 -81.581  38.247  1.00  0.00     0.000 C 
BRANCH   3   4
ATOM      4  C   UNL     1    -103.777 -81.460  37.309  1.00  0.00     0.000 C 
BRANCH   4   5
ATOM      5  C   UNL     1    -103.770 -82.526  36.198  1.00  0.00     0.000 C 
BRANCH   5   6
ATOM      6  C   UNL     1    -103.483 -81.907  34.822  1.00  0.00     0.000 C 
BRANCH   6   7
ATOM      7  C   UNL     1    -104.625 -81.003  34.333  1.00  0.00     0.000 C 
BRANCH   7   8
ATOM      8  C   UNL     1    -105.950 -81.780  34.273  1.00  0.00     0.000 C 
BRANCH   8   9
ATOM      9  C   UNL     1    -107.179 -80.871  34.139  1.00  0.00     0.000 C 
BRANCH   9  10
ATOM     10  C   UNL     1    -108.234 -81.419  33.158  1.00  0.00     0.000 C 
BRANCH  10  11
ATOM     11  C   UNL     1    -107.960 -82.882  32.772  1.00  0.00     0.000 C 
BRANCH  11  12
ATOM     12  C   UNL     1    -107.621 -83.051  31.273  1.00  0.00     0.006 C 
BRANCH  12  13
ATOM     13  C   UNL     1    -108.272 -81.955  30.412  1.00  0.00     0.053 C 
BRANCH  13  14
ATOM     14  C   UNL     1    -108.643 -82.448  29.045  1.00  0.00     0.041 C 
ATOM     15  O   UNL     1    -109.674 -83.152  28.866  1.00  0.00    -0.550 OA
ATOM     16  O   UNL     1    -107.792 -82.195  27.975  1.00  0.00    -0.550 OA
ENDBRANCH  13  14
ENDBRANCH  12  13
ENDBRANCH  11  12
ENDBRANCH  10  11
ENDBRANCH   9  10
ENDBRANCH   8   9
ENDBRANCH   7   8
ENDBRANCH   6   7
ENDBRANCH   5   6
ENDBRANCH   4   5
ENDBRANCH   3   4
ENDBRANCH   2   3
ENDBRANCH   1   2
BRANCH   1  17
ATOM     17  C   UNL     1    -102.435 -83.360  40.240  1.00  0.00     0.000 C 
BRANCH  17  18
ATOM     18  C   UNL     1    -102.503 -84.399  39.103  1.00  0.00     0.000 C 
BRANCH  18  19
ATOM     19  C   UNL     1    -103.204 -85.704  39.517  1.00  0.00     0.000 C 
BRANCH  19  20
ATOM     20  C   UNL     1    -104.726 -85.640  39.303  1.00  0.00     0.000 C 
BRANCH  20  21
ATOM     21  C   UNL     1    -105.093 -85.667  37.810  1.00  0.00     0.000 C 
BRANCH  21  22
ATOM     22  C   UNL     1    -104.981 -87.067  37.193  1.00  0.00    -0.000 C 
BRANCH  22  23
ATOM     23  C   UNL     1    -105.466 -87.111  35.733  1.00  0.00    -0.000 C 
BRANCH  23  24
ATOM     24  C   UNL     1    -105.488 -85.712  35.080  1.00  0.00    -0.000 C 
BRANCH  24  25
ATOM     25  C   UNL     1    -104.366 -85.492  34.043  1.00  0.00    -0.000 C 
BRANCH  25  26
ATOM     26  C   UNL     1    -104.782 -84.698  32.790  1.00  0.00    -0.000 C 
BRANCH  26  27
ATOM     27  C   UNL     1    -103.630 -84.368  31.821  1.00  0.00    -0.000 C 
BRANCH  27  28
ATOM     28  C   UNL     1    -103.762 -82.968  31.205  1.00  0.00    -0.000 C 
BRANCH  28  29
ATOM     29  C   UNL     1    -103.868 -83.012  29.673  1.00  0.00    -0.003 C 
ATOM     30  C   UNL     1    -104.793 -84.122  29.180  1.00  0.00     0.004 C 
ENDBRANCH  28  29
ENDBRANCH  27  28
ENDBRANCH  26  27
ENDBRANCH  25  26
ENDBRANCH  24  25
ENDBRANCH  23  24
ENDBRANCH  22  23
ENDBRANCH  21  22
ENDBRANCH  20  21
ENDBRANCH  19  20
ENDBRANCH  18  19
ENDBRANCH  17  18
ENDBRANCH   1  17
TORSDOF 26
ENDMDL
MODEL 9
REMARK VINA RESULT:    -4.539      2.322      6.415
REMARK INTER + INTRA:         -16.498
REMARK INTER:                 -11.697
REMARK INTRA:                  -4.800
REMARK UNBOUND:                -5.061
REMARK SMILES CCCCCCCCCCCCCCCCCCCCCCCCCCCC(=O)[O-]
REMARK SMILES IDX 15 1 16 2 17 3 18 4 19 5 20 6 21 7 22 8 23 9 24 10 25 11
REMARK SMILES IDX 26 12 27 13 28 14 29 15 30 16 14 17 13 18 12 19 11 20 10 21
REMARK SMILES IDX 9 22 8 23 7 24 6 25 5 26 4 27 3 28 2 29 1 30
REMARK H PARENT
REMARK Flexibility Score: inf
ROOT
ATOM      1  C   UNL     1    -103.864 -86.016  39.549  1.00  0.00     0.000 C 
ENDROOT
BRANCH   1   2
ATOM      2  C   UNL     1    -103.813 -87.030  38.396  1.00  0.00     0.000 C 
BRANCH   2   3
ATOM      3  C   UNL     1    -105.128 -87.039  37.594  1.00  0.00     0.000 C 
BRANCH   3   4
ATOM      4  C   UNL     1    -104.894 -87.058  36.075  1.00  0.00     0.000 C 
BRANCH   4   5
ATOM      5  C   UNL     1    -105.357 -85.763  35.381  1.00  0.00     0.000 C 
BRANCH   5   6
ATOM      6  C   UNL     1    -104.383 -84.604  35.639  1.00  0.00     0.000 C 
BRANCH   6   7
ATOM      7  C   UNL     1    -102.973 -84.889  35.101  1.00  0.00     0.000 C 
BRANCH   7   8
ATOM      8  C   UNL     1    -102.313 -83.598  34.588  1.00  0.00     0.000 C 
BRANCH   8   9
ATOM      9  C   UNL     1    -102.560 -83.344  33.094  1.00  0.00     0.000 C 
BRANCH   9  10
ATOM     10  C   UNL     1    -103.292 -84.504  32.394  1.00  0.00     0.000 C 
BRANCH  10  11
ATOM     11  C   UNL     1    -103.132 -84.450  30.865  1.00  0.00     0.000 C 
BRANCH  11  12
ATOM     12  C   UNL     1    -103.987 -83.339  30.213  1.00  0.00     0.006 C 
BRANCH  12  13
ATOM     13  C   UNL     1    -105.106 -83.921  29.333  1.00  0.00     0.053 C 
BRANCH  13  14
ATOM     14  C   UNL     1    -106.351 -83.086  29.367  1.00  0.00     0.041 C 
ATOM     15  O   UNL     1    -107.449 -83.570  29.757  1.00  0.00    -0.550 OA
ATOM     16  O   UNL     1    -106.310 -81.782  28.883  1.00  0.00    -0.550 OA
ENDBRANCH  13  14
ENDBRANCH  12  13
ENDBRANCH  11  12
ENDBRANCH  10  11
ENDBRANCH   9  10
ENDBRANCH   8   9
ENDBRANCH   7   8
ENDBRANCH   6   7
ENDBRANCH   5   6
ENDBRANCH   4   5
ENDBRANCH   3   4
ENDBRANCH   2   3
ENDBRANCH   1   2
BRANCH   1  17
ATOM     17  C   UNL     1    -105.116 -85.112  39.496  1.00  0.00     0.000 C 
BRANCH  17  18
ATOM     18  C   UNL     1    -104.803 -83.606  39.395  1.00  0.00     0.000 C 
BRANCH  18  19
ATOM     19  C   UNL     1    -103.370 -83.317  38.917  1.00  0.00     0.000 C 
BRANCH  19  20
ATOM     20  C   UNL     1    -102.615 -82.380  39.875  1.00  0.00     0.000 C 
BRANCH  20  21
ATOM     21  C   UNL     1    -103.546 -81.319  40.486  1.00  0.00     0.000 C 
BRANCH  21  22
ATOM     22  C   UNL     1    -103.092 -79.885  40.190  1.00  0.00    -0.000 C 
BRANCH  22  23
ATOM     23  C   UNL     1    -103.768 -79.297  38.938  1.00  0.00    -0.000 C 
BRANCH  23  24
ATOM     24  C   UNL     1    -105.306 -79.433  38.983  1.00  0.00    -0.000 C 
BRANCH  24  25
ATOM     25  C   UNL     1    -105.880 -80.381  37.910  1.00  0.00    -0.000 C 
BRANCH  25  26
ATOM     26  C   UNL     1    -104.942 -80.664  36.720  1.00  0.00    -0.000 C 
BRANCH  26  27
ATOM     27  C   UNL     1    -105.634 -81.261  35.479  1.00  0.00    -0.000 C 
BRANCH  27  28
ATOM     28  C   UNL     1    -104.921 -80.887  34.172  1.00  0.00    -0.000 C 
BRANCH  28  29
ATOM     29  C   UNL     1    -105.715 -81.319  32.929  1.00  0.00    -0.003 C 
ATOM     30  C   UNL     1    -106.389 -82.676  33.106  1.00  0.00     0.004 C 
ENDBRANCH  28  29
ENDBRANCH  27  28
ENDBRANCH  26  27
ENDBRANCH  25  26
ENDBRANCH  24  25
ENDBRANCH  23  24
ENDBRANCH  22  23
ENDBRANCH  21  22
ENDBRANCH  20  21
ENDBRANCH  19  20
ENDBRANCH  18  19
ENDBRANCH  17  18
ENDBRANCH   1  17
TORSDOF 26
ENDMDL
