MODEL 1
REMARK VINA RESULT:    -4.577      0.000      0.000
REMARK INTER + INTRA:         -10.059
REMARK INTER:                  -8.859
REMARK INTRA:                  -1.200
REMARK UNBOUND:                -1.200
REMARK SMILES CCCCCCCCCCCCCCCCCC(=O)[O-]
REMARK SMILES IDX 10 1 11 2 12 3 13 4 14 5 15 6 16 7 17 8 18 9 19 10 20 11
REMARK SMILES IDX 9 12 8 13 7 14 6 15 5 16 4 17 3 18 2 19 1 20
REMARK H PARENT
REMARK Flexibility Score: inf
ROOT
ATOM      1  C   UNL     1      15.969   7.518   5.453  1.00  0.00     0.000 C 
ENDROOT
BRANCH   1   2
ATOM      2  C   UNL     1      14.589   7.209   4.860  1.00  0.00     0.000 C 
BRANCH   2   3
ATOM      3  C   UNL     1      14.090   8.377   3.996  1.00  0.00     0.000 C 
BRANCH   3   4
ATOM      4  C   UNL     1      14.845   8.493   2.663  1.00  0.00     0.000 C 
BRANCH   4   5
ATOM      5  C   UNL     1      14.740   7.220   1.809  1.00  0.00     0.000 C 
BRANCH   5   6
ATOM      6  C   UNL     1      16.101   6.861   1.194  1.00  0.00     0.000 C 
BRANCH   6   7
ATOM      7  C   UNL     1      16.008   5.706   0.184  1.00  0.00     0.006 C 
BRANCH   7   8
ATOM      8  C   UNL     1      15.126   6.047  -1.024  1.00  0.00     0.053 C 
BRANCH   8   9
ATOM      9  C   UNL     1      15.937   6.707  -2.093  1.00  0.00     0.041 C 
ATOM     10  O   UNL     1      15.903   7.958  -2.232  1.00  0.00    -0.550 OA
ATOM     11  O   UNL     1      16.695   5.938  -2.965  1.00  0.00    -0.550 OA
ENDBRANCH   8   9
ENDBRANCH   7   8
ENDBRANCH   6   7
ENDBRANCH   5   6
ENDBRANCH   4   5
ENDBRANCH   3   4
ENDBRANCH   2   3
ENDBRANCH   1   2
BRANCH   1  12
ATOM     12  C   UNL     1      17.079   6.785   4.684  1.00  0.00     0.000 C 
BRANCH  12  13
ATOM     13  C   UNL     1      18.198   7.726   4.202  1.00  0.00    -0.000 C 
BRANCH  13  14
ATOM     14  C   UNL     1      18.716   8.726   5.254  1.00  0.00    -0.000 C 
BRANCH  14  15
ATOM     15  C   UNL     1      19.479   8.045   6.404  1.00  0.00    -0.000 C 
BRANCH  15  16
ATOM     16  C   UNL     1      20.367   9.024   7.197  1.00  0.00    -0.000 C 
BRANCH  16  17
ATOM     17  C   UNL     1      20.785   8.543   8.598  1.00  0.00    -0.000 C 
BRANCH  17  18
ATOM     18  C   UNL     1      22.307   8.532   8.800  1.00  0.00    -0.000 C 
BRANCH  18  19
ATOM     19  C   UNL     1      22.755   7.260   9.528  1.00  0.00    -0.003 C 
ATOM     20  C   UNL     1      21.787   6.899  10.653  1.00  0.00     0.004 C 
ENDBRANCH  18  19
ENDBRANCH  17  18
ENDBRANCH  16  17
ENDBRANCH  15  16
ENDBRANCH  14  15
ENDBRANCH  13  14
ENDBRANCH  12  13
ENDBRANCH   1  12
TORSDOF 16
ENDMDL
MODEL 2
REMARK VINA RESULT:    -4.421      2.512      4.263
REMARK INTER + INTRA:          -9.756
REMARK INTER:                  -7.602
REMARK INTRA:                  -2.154
REMARK UNBOUND:                -1.200
REMARK SMILES CCCCCCCCCCCCCCCCCC(=O)[O-]
REMARK SMILES IDX 10 1 11 2 12 3 13 4 14 5 15 6 16 7 17 8 18 9 19 10 20 11
REMARK SMILES IDX 9 12 8 13 7 14 6 15 5 16 4 17 3 18 2 19 1 20
REMARK H PARENT
REMARK Flexibility Score: inf
ROOT
ATOM      1  C   UNL     1      14.413   6.984   5.251  1.00  0.00     0.000 C 
ENDROOT
BRANCH   1   2
ATOM      2  C   UNL     1      13.517   7.648   4.198  1.00  0.00     0.000 C 
BRANCH   2   3
ATOM      3  C   UNL     1      14.351   8.488   3.219  1.00  0.00     0.000 C 
BRANCH   3   4
ATOM      4  C   UNL     1      14.674   7.736   1.918  1.00  0.00     0.000 C 
BRANCH   4   5
ATOM      5  C   UNL     1      16.171   7.423   1.770  1.00  0.00     0.000 C 
BRANCH   5   6
ATOM      6  C   UNL     1      16.382   6.007   1.214  1.00  0.00     0.000 C 
BRANCH   6   7
ATOM      7  C   UNL     1      15.421   5.673   0.061  1.00  0.00     0.006 C 
BRANCH   7   8
ATOM      8  C   UNL     1      16.117   5.677  -1.306  1.00  0.00     0.053 C 
BRANCH   8   9
ATOM      9  C   UNL     1      15.651   6.838  -2.125  1.00  0.00     0.041 C 
ATOM     10  O   UNL     1      16.273   7.932  -2.083  1.00  0.00    -0.550 OA
ATOM     11  O   UNL     1      14.504   6.727  -2.899  1.00  0.00    -0.550 OA
ENDBRANCH   8   9
ENDBRANCH   7   8
ENDBRANCH   6   7
ENDBRANCH   5   6
ENDBRANCH   4   5
ENDBRANCH   3   4
ENDBRANCH   2   3
ENDBRANCH   1   2
BRANCH   1  12
ATOM     12  C   UNL     1      15.724   7.765   5.435  1.00  0.00     0.000 C 
BRANCH  12  13
ATOM     13  C   UNL     1      16.976   6.899   5.210  1.00  0.00    -0.000 C 
BRANCH  13  14
ATOM     14  C   UNL     1      18.250   7.385   5.927  1.00  0.00    -0.000 C 
BRANCH  14  15
ATOM     15  C   UNL     1      18.745   8.747   5.411  1.00  0.00    -0.000 C 
BRANCH  15  16
ATOM     16  C   UNL     1      18.960   8.770   3.886  1.00  0.00    -0.000 C 
BRANCH  16  17
ATOM     17  C   UNL     1      18.423  10.020   3.165  1.00  0.00    -0.000 C 
BRANCH  17  18
ATOM     18  C   UNL     1      17.072  10.498   3.716  1.00  0.00    -0.000 C 
BRANCH  18  19
ATOM     19  C   UNL     1      16.616  11.781   3.013  1.00  0.00    -0.003 C 
ATOM     20  C   UNL     1      15.095  11.909   3.031  1.00  0.00     0.004 C 
ENDBRANCH  18  19
ENDBRANCH  17  18
ENDBRANCH  16  17
ENDBRANCH  15  16
ENDBRANCH  14  15
ENDBRANCH  13  14
ENDBRANCH  12  13
ENDBRANCH   1  12
TORSDOF 16
ENDMDL
MODEL 3
REMARK VINA RESULT:    -4.391      2.637      5.112
REMARK INTER + INTRA:          -9.698
REMARK INTER:                  -8.013
REMARK INTRA:                  -1.685
REMARK UNBOUND:                -1.200
REMARK SMILES CCCCCCCCCCCCCCCCCC(=O)[O-]
REMARK SMILES IDX 10 1 11 2 12 3 13 4 14 5 15 6 16 7 17 8 18 9 19 10 20 11
REMARK SMILES IDX 9 12 8 13 7 14 6 15 5 16 4 17 3 18 2 19 1 20
REMARK H PARENT
REMARK Flexibility Score: inf
ROOT
ATOM      1  C   UNL     1      15.862   6.979   4.806  1.00  0.00     0.000 C 
ENDROOT
BRANCH   1   2
ATOM      2  C   UNL     1      14.350   7.181   4.966  1.00  0.00     0.000 C 
BRANCH   2   3
ATOM      3  C   UNL     1      13.767   7.937   3.763  1.00  0.00     0.000 C 
BRANCH   3   4
ATOM      4  C   UNL     1      14.835   8.308   2.722  1.00  0.00     0.000 C 
BRANCH   4   5
ATOM      5  C   UNL     1      14.825   7.373   1.503  1.00  0.00     0.000 C 
BRANCH   5   6
ATOM      6  C   UNL     1      16.200   6.719   1.304  1.00  0.00     0.000 C 
BRANCH   6   7
ATOM      7  C   UNL     1      16.186   5.625   0.224  1.00  0.00     0.006 C 
BRANCH   7   8
ATOM      8  C   UNL     1      15.200   5.929  -0.911  1.00  0.00     0.053 C 
BRANCH   8   9
ATOM      9  C   UNL     1      15.913   6.555  -2.067  1.00  0.00     0.041 C 
ATOM     10  O   UNL     1      16.496   5.833  -2.918  1.00  0.00    -0.550 OA
ATOM     11  O   UNL     1      15.974   7.938  -2.179  1.00  0.00    -0.550 OA
ENDBRANCH   8   9
ENDBRANCH   7   8
ENDBRANCH   6   7
ENDBRANCH   5   6
ENDBRANCH   4   5
ENDBRANCH   3   4
ENDBRANCH   2   3
ENDBRANCH   1   2
BRANCH   1  12
ATOM     12  C   UNL     1      16.634   7.651   5.951  1.00  0.00     0.000 C 
BRANCH  12  13
ATOM     13  C   UNL     1      18.095   7.972   5.584  1.00  0.00    -0.000 C 
BRANCH  13  14
ATOM     14  C   UNL     1      18.370   8.156   4.080  1.00  0.00    -0.000 C 
BRANCH  14  15
ATOM     15  C   UNL     1      18.513   9.633   3.672  1.00  0.00    -0.000 C 
BRANCH  15  16
ATOM     16  C   UNL     1      17.230  10.449   3.916  1.00  0.00    -0.000 C 
BRANCH  16  17
ATOM     17  C   UNL     1      16.928  11.530   2.862  1.00  0.00    -0.000 C 
BRANCH  17  18
ATOM     18  C   UNL     1      15.461  11.980   2.865  1.00  0.00    -0.000 C 
BRANCH  18  19
ATOM     19  C   UNL     1      15.356  13.509   2.826  1.00  0.00    -0.003 C 
ATOM     20  C   UNL     1      15.023  14.003   1.420  1.00  0.00     0.004 C 
ENDBRANCH  18  19
ENDBRANCH  17  18
ENDBRANCH  16  17
ENDBRANCH  15  16
ENDBRANCH  14  15
ENDBRANCH  13  14
ENDBRANCH  12  13
ENDBRANCH   1  12
TORSDOF 16
ENDMDL
MODEL 4
REMARK VINA RESULT:    -4.346      3.955      7.688
REMARK INTER + INTRA:          -9.612
REMARK INTER:                  -8.049
REMARK INTRA:                  -1.563
REMARK UNBOUND:                -1.200
REMARK SMILES CCCCCCCCCCCCCCCCCC(=O)[O-]
REMARK SMILES IDX 10 1 11 2 12 3 13 4 14 5 15 6 16 7 17 8 18 9 19 10 20 11
REMARK SMILES IDX 9 12 8 13 7 14 6 15 5 16 4 17 3 18 2 19 1 20
REMARK H PARENT
REMARK Flexibility Score: inf
ROOT
ATOM      1  C   UNL     1      17.231   7.784   5.044  1.00  0.00     0.000 C 
ENDROOT
BRANCH   1   2
ATOM      2  C   UNL     1      17.891   9.166   4.960  1.00  0.00     0.000 C 
BRANCH   2   3
ATOM      3  C   UNL     1      18.236   9.522   3.507  1.00  0.00     0.000 C 
BRANCH   3   4
ATOM      4  C   UNL     1      17.803  10.946   3.125  1.00  0.00     0.000 C 
BRANCH   4   5
ATOM      5  C   UNL     1      16.277  11.121   3.124  1.00  0.00     0.000 C 
BRANCH   5   6
ATOM      6  C   UNL     1      15.897  12.609   3.152  1.00  0.00     0.000 C 
BRANCH   6   7
ATOM      7  C   UNL     1      14.882  12.983   2.059  1.00  0.00     0.006 C 
BRANCH   7   8
ATOM      8  C   UNL     1      15.067  14.417   1.548  1.00  0.00     0.053 C 
BRANCH   8   9
ATOM      9  C   UNL     1      14.688  14.510   0.104  1.00  0.00     0.041 C 
ATOM     10  O   UNL     1      15.487  15.014  -0.729  1.00  0.00    -0.550 OA
ATOM     11  O   UNL     1      13.435  14.083  -0.314  1.00  0.00    -0.550 OA
ENDBRANCH   8   9
ENDBRANCH   7   8
ENDBRANCH   6   7
ENDBRANCH   5   6
ENDBRANCH   4   5
ENDBRANCH   3   4
ENDBRANCH   2   3
ENDBRANCH   1   2
BRANCH   1  12
ATOM     12  C   UNL     1      15.825   7.878   5.654  1.00  0.00     0.000 C 
BRANCH  12  13
ATOM     13  C   UNL     1      14.754   7.162   4.809  1.00  0.00    -0.000 C 
BRANCH  13  14
ATOM     14  C   UNL     1      13.986   8.060   3.821  1.00  0.00    -0.000 C 
BRANCH  14  15
ATOM     15  C   UNL     1      14.689   8.192   2.460  1.00  0.00    -0.000 C 
BRANCH  15  16
ATOM     16  C   UNL     1      15.422   6.904   2.035  1.00  0.00    -0.000 C 
BRANCH  16  17
ATOM     17  C   UNL     1      15.981   6.909   0.601  1.00  0.00    -0.000 C 
BRANCH  17  18
ATOM     18  C   UNL     1      15.471   5.736  -0.247  1.00  0.00    -0.000 C 
BRANCH  18  19
ATOM     19  C   UNL     1      15.389   6.124  -1.728  1.00  0.00    -0.003 C 
ATOM     20  C   UNL     1      15.904   7.543  -1.955  1.00  0.00     0.004 C 
ENDBRANCH  18  19
ENDBRANCH  17  18
ENDBRANCH  16  17
ENDBRANCH  15  16
ENDBRANCH  14  15
ENDBRANCH  13  14
ENDBRANCH  12  13
ENDBRANCH   1  12
TORSDOF 16
ENDMDL
MODEL 5
REMARK VINA RESULT:    -4.297      1.268      1.702
REMARK INTER + INTRA:          -9.517
REMARK INTER:                  -8.160
REMARK INTRA:                  -1.357
REMARK UNBOUND:                -1.200
REMARK SMILES CCCCCCCCCCCCCCCCCC(=O)[O-]
REMARK SMILES IDX 10 1 11 2 12 3 13 4 14 5 15 6 16 7 17 8 18 9 19 10 20 11
REMARK SMILES IDX 9 12 8 13 7 14 6 15 5 16 4 17 3 18 2 19 1 20
REMARK H PARENT
REMARK Flexibility Score: inf
ROOT
ATOM      1  C   UNL     1      16.238  10.706   3.572  1.00  0.00     0.000 C 
ENDROOT
BRANCH   1   2
ATOM      2  C   UNL     1      15.313   9.826   2.722  1.00  0.00     0.000 C 
BRANCH   2   3
ATOM      3  C   UNL     1      14.596   8.784   3.592  1.00  0.00     0.000 C 
BRANCH   3   4
ATOM      4  C   UNL     1      14.721   7.357   3.033  1.00  0.00     0.000 C 
BRANCH   4   5
ATOM      5  C   UNL     1      16.178   6.877   2.956  1.00  0.00     0.000 C 
BRANCH   5   6
ATOM      6  C   UNL     1      16.556   6.505   1.514  1.00  0.00     0.000 C 
BRANCH   6   7
ATOM      7  C   UNL     1      15.422   6.782   0.514  1.00  0.00     0.006 C 
BRANCH   7   8
ATOM      8  C   UNL     1      15.462   5.843  -0.699  1.00  0.00     0.053 C 
BRANCH   8   9
ATOM      9  C   UNL     1      15.845   6.598  -1.931  1.00  0.00     0.041 C 
ATOM     10  O   UNL     1      15.516   7.807  -2.062  1.00  0.00    -0.550 OA
ATOM     11  O   UNL     1      16.525   5.956  -2.957  1.00  0.00    -0.550 OA
ENDBRANCH   8   9
ENDBRANCH   7   8
ENDBRANCH   6   7
ENDBRANCH   5   6
ENDBRANCH   4   5
ENDBRANCH   3   4
ENDBRANCH   2   3
ENDBRANCH   1   2
BRANCH   1  12
ATOM     12  C   UNL     1      17.703  10.548   3.139  1.00  0.00     0.000 C 
BRANCH  12  13
ATOM     13  C   UNL     1      18.419   9.384   3.849  1.00  0.00    -0.000 C 
BRANCH  13  14
ATOM     14  C   UNL     1      17.832   8.987   5.216  1.00  0.00    -0.000 C 
BRANCH  14  15
ATOM     15  C   UNL     1      18.740   8.026   6.002  1.00  0.00    -0.000 C 
BRANCH  15  16
ATOM     16  C   UNL     1      19.905   8.745   6.711  1.00  0.00    -0.000 C 
BRANCH  16  17
ATOM     17  C   UNL     1      20.442   8.042   7.971  1.00  0.00    -0.000 C 
BRANCH  17  18
ATOM     18  C   UNL     1      21.508   8.864   8.709  1.00  0.00    -0.000 C 
BRANCH  18  19
ATOM     19  C   UNL     1      22.557   7.949   9.352  1.00  0.00    -0.003 C 
ATOM     20  C   UNL     1      21.943   7.103  10.465  1.00  0.00     0.004 C 
ENDBRANCH  18  19
ENDBRANCH  17  18
ENDBRANCH  16  17
ENDBRANCH  15  16
ENDBRANCH  14  15
ENDBRANCH  13  14
ENDBRANCH  12  13
ENDBRANCH   1  12
TORSDOF 16
ENDMDL
MODEL 6
REMARK VINA RESULT:    -4.226      3.579      7.711
REMARK INTER + INTRA:          -9.380
REMARK INTER:                  -7.164
REMARK INTRA:                  -2.216
REMARK UNBOUND:                -1.200
REMARK SMILES CCCCCCCCCCCCCCCCCC(=O)[O-]
REMARK SMILES IDX 10 1 11 2 12 3 13 4 14 5 15 6 16 7 17 8 18 9 19 10 20 11
REMARK SMILES IDX 9 12 8 13 7 14 6 15 5 16 4 17 3 18 2 19 1 20
REMARK H PARENT
REMARK Flexibility Score: inf
ROOT
ATOM      1  C   UNL     1      14.809   7.117   4.924  1.00  0.00     0.000 C 
ENDROOT
BRANCH   1   2
ATOM      2  C   UNL     1      16.140   7.637   5.483  1.00  0.00     0.000 C 
BRANCH   2   3
ATOM      3  C   UNL     1      17.324   6.862   4.887  1.00  0.00     0.000 C 
BRANCH   3   4
ATOM      4  C   UNL     1      18.608   7.703   4.815  1.00  0.00     0.000 C 
BRANCH   4   5
ATOM      5  C   UNL     1      18.324   9.211   4.729  1.00  0.00     0.000 C 
BRANCH   5   6
ATOM      6  C   UNL     1      18.705   9.761   3.346  1.00  0.00     0.000 C 
BRANCH   6   7
ATOM      7  C   UNL     1      17.808  10.928   2.905  1.00  0.00     0.006 C 
BRANCH   7   8
ATOM      8  C   UNL     1      16.505  11.009   3.711  1.00  0.00     0.053 C 
BRANCH   8   9
ATOM      9  C   UNL     1      15.468  11.775   2.952  1.00  0.00     0.041 C 
ATOM     10  O   UNL     1      14.378  11.227   2.639  1.00  0.00    -0.550 OA
ATOM     11  O   UNL     1      15.724  13.078   2.549  1.00  0.00    -0.550 OA
ENDBRANCH   8   9
ENDBRANCH   7   8
ENDBRANCH   6   7
ENDBRANCH   5   6
ENDBRANCH   4   5
ENDBRANCH   3   4
ENDBRANCH   2   3
ENDBRANCH   1   2
BRANCH   1  12
ATOM     12  C   UNL     1      14.148   8.159   4.009  1.00  0.00     0.000 C 
BRANCH  12  13
ATOM     13  C   UNL     1      14.232   7.788   2.517  1.00  0.00    -0.000 C 
BRANCH  13  14
ATOM     14  C   UNL     1      15.638   7.873   1.895  1.00  0.00    -0.000 C 
BRANCH  14  15
ATOM     15  C   UNL     1      16.195   6.501   1.479  1.00  0.00    -0.000 C 
BRANCH  15  16
ATOM     16  C   UNL     1      15.362   5.825   0.372  1.00  0.00    -0.000 C 
BRANCH  16  17
ATOM     17  C   UNL     1      16.148   4.887  -0.562  1.00  0.00    -0.000 C 
BRANCH  17  18
ATOM     18  C   UNL     1      16.386   5.487  -1.954  1.00  0.00    -0.000 C 
BRANCH  18  19
ATOM     19  C   UNL     1      15.279   6.483  -2.319  1.00  0.00    -0.003 C 
ATOM     20  C   UNL     1      15.783   7.922  -2.239  1.00  0.00     0.004 C 
ENDBRANCH  18  19
ENDBRANCH  17  18
ENDBRANCH  16  17
ENDBRANCH  15  16
ENDBRANCH  14  15
ENDBRANCH  13  14
ENDBRANCH  12  13
ENDBRANCH   1  12
TORSDOF 16
ENDMDL
MODEL 7
REMARK VINA RESULT:    -4.111      2.618      4.279
REMARK INTER + INTRA:          -9.157
REMARK INTER:                  -7.475
REMARK INTRA:                  -1.682
REMARK UNBOUND:                -1.200
REMARK SMILES CCCCCCCCCCCCCCCCCC(=O)[O-]
REMARK SMILES IDX 10 1 11 2 12 3 13 4 14 5 15 6 16 7 17 8 18 9 19 10 20 11
REMARK SMILES IDX 9 12 8 13 7 14 6 15 5 16 4 17 3 18 2 19 1 20
REMARK H PARENT
REMARK Flexibility Score: inf
ROOT
ATOM      1  C   UNL     1      13.966   7.166   4.631  1.00  0.00     0.000 C 
ENDROOT
BRANCH   1   2
ATOM      2  C   UNL     1      14.173   8.376   3.712  1.00  0.00     0.000 C 
BRANCH   2   3
ATOM      3  C   UNL     1      14.645   7.933   2.320  1.00  0.00     0.000 C 
BRANCH   3   4
ATOM      4  C   UNL     1      16.148   7.614   2.276  1.00  0.00     0.000 C 
BRANCH   4   5
ATOM      5  C   UNL     1      16.459   6.335   1.484  1.00  0.00     0.000 C 
BRANCH   5   6
ATOM      6  C   UNL     1      15.379   6.072   0.423  1.00  0.00     0.000 C 
BRANCH   6   7
ATOM      7  C   UNL     1      15.762   4.940  -0.544  1.00  0.00     0.006 C 
BRANCH   7   8
ATOM      8  C   UNL     1      16.359   5.461  -1.857  1.00  0.00     0.053 C 
BRANCH   8   9
ATOM      9  C   UNL     1      15.648   6.701  -2.297  1.00  0.00     0.041 C 
ATOM     10  O   UNL     1      14.515   6.622  -2.841  1.00  0.00    -0.550 OA
ATOM     11  O   UNL     1      16.256   7.940  -2.150  1.00  0.00    -0.550 OA
ENDBRANCH   8   9
ENDBRANCH   7   8
ENDBRANCH   6   7
ENDBRANCH   5   6
ENDBRANCH   4   5
ENDBRANCH   3   4
ENDBRANCH   2   3
ENDBRANCH   1   2
BRANCH   1  12
ATOM     12  C   UNL     1      14.832   7.276   5.895  1.00  0.00     0.000 C 
BRANCH  12  13
ATOM     13  C   UNL     1      16.159   8.017   5.652  1.00  0.00    -0.000 C 
BRANCH  13  14
ATOM     14  C   UNL     1      17.361   7.119   5.306  1.00  0.00    -0.000 C 
BRANCH  14  15
ATOM     15  C   UNL     1      18.699   7.878   5.312  1.00  0.00    -0.000 C 
BRANCH  15  16
ATOM     16  C   UNL     1      18.550   9.360   4.916  1.00  0.00    -0.000 C 
BRANCH  16  17
ATOM     17  C   UNL     1      18.670   9.652   3.409  1.00  0.00    -0.000 C 
BRANCH  17  18
ATOM     18  C   UNL     1      17.995  10.967   2.996  1.00  0.00    -0.000 C 
BRANCH  18  19
ATOM     19  C   UNL     1      16.500  10.945   3.334  1.00  0.00    -0.003 C 
ATOM     20  C   UNL     1      15.817  12.239   2.899  1.00  0.00     0.004 C 
ENDBRANCH  18  19
ENDBRANCH  17  18
ENDBRANCH  16  17
ENDBRANCH  15  16
ENDBRANCH  14  15
ENDBRANCH  13  14
ENDBRANCH  12  13
ENDBRANCH   1  12
TORSDOF 16
ENDMDL
MODEL 8
REMARK VINA RESULT:    -3.989      3.368      6.799
REMARK INTER + INTRA:          -8.920
REMARK INTER:                  -6.982
REMARK INTRA:                  -1.938
REMARK UNBOUND:                -1.200
REMARK SMILES CCCCCCCCCCCCCCCCCC(=O)[O-]
REMARK SMILES IDX 10 1 11 2 12 3 13 4 14 5 15 6 16 7 17 8 18 9 19 10 20 11
REMARK SMILES IDX 9 12 8 13 7 14 6 15 5 16 4 17 3 18 2 19 1 20
REMARK H PARENT
REMARK Flexibility Score: inf
ROOT
ATOM      1  C   UNL     1      18.508   8.280   5.152  1.00  0.00     0.000 C 
ENDROOT
BRANCH   1   2
ATOM      2  C   UNL     1      17.504   7.178   5.511  1.00  0.00     0.000 C 
BRANCH   2   3
ATOM      3  C   UNL     1      16.100   7.762   5.722  1.00  0.00     0.000 C 
BRANCH   3   4
ATOM      4  C   UNL     1      15.037   7.084   4.844  1.00  0.00     0.000 C 
BRANCH   4   5
ATOM      5  C   UNL     1      14.329   8.070   3.903  1.00  0.00     0.000 C 
BRANCH   5   6
ATOM      6  C   UNL     1      14.601   7.716   2.433  1.00  0.00     0.000 C 
BRANCH   6   7
ATOM      7  C   UNL     1      16.101   7.586   2.123  1.00  0.00     0.006 C 
BRANCH   7   8
ATOM      8  C   UNL     1      16.447   6.266   1.423  1.00  0.00     0.053 C 
BRANCH   8   9
ATOM      9  C   UNL     1      15.683   6.138   0.144  1.00  0.00     0.041 C 
ATOM     10  O   UNL     1      14.974   5.119  -0.071  1.00  0.00    -0.550 OA
ATOM     11  O   UNL     1      15.789   7.120  -0.831  1.00  0.00    -0.550 OA
ENDBRANCH   8   9
ENDBRANCH   7   8
ENDBRANCH   6   7
ENDBRANCH   5   6
ENDBRANCH   4   5
ENDBRANCH   3   4
ENDBRANCH   2   3
ENDBRANCH   1   2
BRANCH   1  12
ATOM     12  C   UNL     1      17.793   9.611   4.874  1.00  0.00     0.000 C 
BRANCH  12  13
ATOM     13  C   UNL     1      18.051  10.148   3.455  1.00  0.00    -0.000 C 
BRANCH  13  14
ATOM     14  C   UNL     1      17.307  11.448   3.097  1.00  0.00    -0.000 C 
BRANCH  14  15
ATOM     15  C   UNL     1      15.777  11.286   3.106  1.00  0.00    -0.000 C 
BRANCH  15  16
ATOM     16  C   UNL     1      15.030  12.625   2.957  1.00  0.00    -0.000 C 
BRANCH  16  17
ATOM     17  C   UNL     1      15.597  13.579   1.889  1.00  0.00    -0.000 C 
BRANCH  17  18
ATOM     18  C   UNL     1      14.604  14.672   1.472  1.00  0.00    -0.000 C 
BRANCH  18  19
ATOM     19  C   UNL     1      14.432  14.704  -0.051  1.00  0.00    -0.003 C 
ATOM     20  C   UNL     1      13.007  14.332  -0.452  1.00  0.00     0.004 C 
ENDBRANCH  18  19
ENDBRANCH  17  18
ENDBRANCH  16  17
ENDBRANCH  15  16
ENDBRANCH  14  15
ENDBRANCH  13  14
ENDBRANCH  12  13
ENDBRANCH   1  12
TORSDOF 16
ENDMDL
MODEL 9
REMARK VINA RESULT:    -3.884      4.703      9.460
REMARK INTER + INTRA:          -8.717
REMARK INTER:                  -7.684
REMARK INTRA:                  -1.033
REMARK UNBOUND:                -1.200
REMARK SMILES CCCCCCCCCCCCCCCCCC(=O)[O-]
REMARK SMILES IDX 10 1 11 2 12 3 13 4 14 5 15 6 16 7 17 8 18 9 19 10 20 11
REMARK SMILES IDX 9 12 8 13 7 14 6 15 5 16 4 17 3 18 2 19 1 20
REMARK H PARENT
REMARK Flexibility Score: inf
ROOT
ATOM      1  C   UNL     1      17.287  10.589   3.382  1.00  0.00     0.000 C 
ENDROOT
BRANCH   1   2
ATOM      2  C   UNL     1      18.147   9.397   3.820  1.00  0.00     0.000 C 
BRANCH   2   3
ATOM      3  C   UNL     1      17.770   8.940   5.237  1.00  0.00     0.000 C 
BRANCH   3   4
ATOM      4  C   UNL     1      18.831   8.025   5.868  1.00  0.00     0.000 C 
BRANCH   4   5
ATOM      5  C   UNL     1      19.905   8.807   6.639  1.00  0.00     0.000 C 
BRANCH   5   6
ATOM      6  C   UNL     1      20.262   8.096   7.954  1.00  0.00     0.000 C 
BRANCH   6   7
ATOM      7  C   UNL     1      21.347   8.836   8.753  1.00  0.00     0.006 C 
BRANCH   7   8
ATOM      8  C   UNL     1      22.539   7.936   9.101  1.00  0.00     0.053 C 
BRANCH   8   9
ATOM      9  C   UNL     1      22.166   6.970  10.180  1.00  0.00     0.041 C 
ATOM     10  O   UNL     1      21.813   7.391  11.313  1.00  0.00    -0.550 OA
ATOM     11  O   UNL     1      22.252   5.603   9.950  1.00  0.00    -0.550 OA
ENDBRANCH   8   9
ENDBRANCH   7   8
ENDBRANCH   6   7
ENDBRANCH   5   6
ENDBRANCH   4   5
ENDBRANCH   3   4
ENDBRANCH   2   3
ENDBRANCH   1   2
BRANCH   1  12
ATOM     12  C   UNL     1      15.806  10.355   3.716  1.00  0.00     0.000 C 
BRANCH  12  13
ATOM     13  C   UNL     1      15.130   9.344   2.772  1.00  0.00    -0.000 C 
BRANCH  13  14
ATOM     14  C   UNL     1      14.654   8.039   3.438  1.00  0.00    -0.000 C 
BRANCH  14  15
ATOM     15  C   UNL     1      15.668   6.890   3.300  1.00  0.00    -0.000 C 
BRANCH  15  16
ATOM     16  C   UNL     1      16.373   6.874   1.930  1.00  0.00    -0.000 C 
BRANCH  16  17
ATOM     17  C   UNL     1      15.438   6.766   0.711  1.00  0.00    -0.000 C 
BRANCH  17  18
ATOM     18  C   UNL     1      15.692   5.509  -0.132  1.00  0.00    -0.000 C 
BRANCH  18  19
ATOM     19  C   UNL     1      15.746   5.851  -1.625  1.00  0.00    -0.003 C 
ATOM     20  C   UNL     1      15.763   7.362  -1.844  1.00  0.00     0.004 C 
ENDBRANCH  18  19
ENDBRANCH  17  18
ENDBRANCH  16  17
ENDBRANCH  15  16
ENDBRANCH  14  15
ENDBRANCH  13  14
ENDBRANCH  12  13
ENDBRANCH   1  12
TORSDOF 16
ENDMDL
