MODEL 1
REMARK VINA RESULT:    -4.172      0.000      0.000
REMARK INTER + INTRA:          -9.556
REMARK INTER:                  -7.831
REMARK INTRA:                  -1.725
REMARK UNBOUND:                -1.725
REMARK SMILES CCCCCCCCC=CCCCCCCCC(=O)[O-]
REMARK SMILES IDX 10 1 9 2 11 3 12 4 13 5 14 6 15 7 16 8 17 9 18 10 19 11
REMARK SMILES IDX 20 12 8 13 7 14 6 15 5 16 4 17 3 18 2 19 1 20
REMARK H PARENT
REMARK Flexibility Score: inf
ROOT
ATOM      1  C   UNL     1      32.860 168.022 157.622  1.00  0.00    -0.031 C 
ATOM      2  C   UNL     1      33.918 167.641 156.887  1.00  0.00    -0.031 C 
ENDROOT
BRANCH   1   3
ATOM      3  C   UNL     1      32.401 167.227 158.815  1.00  0.00     0.027 C 
BRANCH   3   4
ATOM      4  C   UNL     1      31.520 168.066 159.754  1.00  0.00     0.004 C 
BRANCH   4   5
ATOM      5  C   UNL     1      30.899 169.304 159.074  1.00  0.00     0.000 C 
BRANCH   5   6
ATOM      6  C   UNL     1      29.593 169.782 159.744  1.00  0.00     0.000 C 
BRANCH   6   7
ATOM      7  C   UNL     1      29.630 169.752 161.283  1.00  0.00     0.000 C 
BRANCH   7   8
ATOM      8  C   UNL     1      29.351 171.118 161.944  1.00  0.00     0.006 C 
BRANCH   8   9
ATOM      9  C   UNL     1      29.152 172.240 160.918  1.00  0.00     0.053 C 
BRANCH   9  10
ATOM     10  C   UNL     1      28.140 173.226 161.407  1.00  0.00     0.041 C 
ATOM     11  O   UNL     1      28.180 173.638 162.596  1.00  0.00    -0.550 OA
ATOM     12  O   UNL     1      27.119 173.648 160.566  1.00  0.00    -0.550 OA
ENDBRANCH   9  10
ENDBRANCH   8   9
ENDBRANCH   7   8
ENDBRANCH   6   7
ENDBRANCH   5   6
ENDBRANCH   4   5
ENDBRANCH   3   4
ENDBRANCH   1   3
BRANCH   2  13
ATOM     13  C   UNL     1      34.391 168.443 155.704  1.00  0.00     0.027 C 
BRANCH  13  14
ATOM     14  C   UNL     1      33.288 169.367 155.168  1.00  0.00     0.004 C 
BRANCH  14  15
ATOM     15  C   UNL     1      32.544 168.822 153.931  1.00  0.00     0.000 C 
BRANCH  15  16
ATOM     16  C   UNL     1      31.038 168.574 154.134  1.00  0.00     0.000 C 
BRANCH  16  17
ATOM     17  C   UNL     1      30.386 169.419 155.245  1.00  0.00    -0.000 C 
BRANCH  17  18
ATOM     18  C   UNL     1      29.122 168.777 155.853  1.00  0.00    -0.000 C 
BRANCH  18  19
ATOM     19  C   UNL     1      27.877 169.661 155.688  1.00  0.00    -0.003 C 
ATOM     20  C   UNL     1      28.016 170.592 154.487  1.00  0.00     0.004 C 
ENDBRANCH  18  19
ENDBRANCH  17  18
ENDBRANCH  16  17
ENDBRANCH  15  16
ENDBRANCH  14  15
ENDBRANCH  13  14
ENDBRANCH   2  13
TORSDOF 15
ENDMDL
MODEL 2
REMARK VINA RESULT:    -4.063      1.097      3.322
REMARK INTER + INTRA:          -9.349
REMARK INTER:                  -7.181
REMARK INTRA:                  -2.168
REMARK UNBOUND:                -1.725
REMARK SMILES CCCCCCCCC=CCCCCCCCC(=O)[O-]
REMARK SMILES IDX 10 1 9 2 11 3 12 4 13 5 14 6 15 7 16 8 17 9 18 10 19 11
REMARK SMILES IDX 20 12 8 13 7 14 6 15 5 16 4 17 3 18 2 19 1 20
REMARK H PARENT
REMARK Flexibility Score: inf
ROOT
ATOM      1  C   UNL     1      30.827 169.131 158.264  1.00  0.00    -0.031 C 
ATOM      2  C   UNL     1      29.750 168.598 157.665  1.00  0.00    -0.031 C 
ENDROOT
BRANCH   1   3
ATOM      3  C   UNL     1      31.702 168.319 159.182  1.00  0.00     0.027 C 
BRANCH   3   4
ATOM      4  C   UNL     1      30.870 167.471 160.158  1.00  0.00     0.004 C 
BRANCH   4   5
ATOM      5  C   UNL     1      30.519 168.206 161.467  1.00  0.00     0.000 C 
BRANCH   5   6
ATOM      6  C   UNL     1      29.039 168.639 161.550  1.00  0.00     0.000 C 
BRANCH   6   7
ATOM      7  C   UNL     1      28.839 170.143 161.813  1.00  0.00     0.000 C 
BRANCH   7   8
ATOM      8  C   UNL     1      29.032 171.029 160.566  1.00  0.00     0.006 C 
BRANCH   8   9
ATOM      9  C   UNL     1      29.334 172.491 160.921  1.00  0.00     0.053 C 
BRANCH   9  10
ATOM     10  C   UNL     1      28.101 173.177 161.414  1.00  0.00     0.041 C 
ATOM     11  O   UNL     1      27.169 173.457 160.615  1.00  0.00    -0.550 OA
ATOM     12  O   UNL     1      28.002 173.557 162.746  1.00  0.00    -0.550 OA
ENDBRANCH   9  10
ENDBRANCH   8   9
ENDBRANCH   7   8
ENDBRANCH   6   7
ENDBRANCH   5   6
ENDBRANCH   4   5
ENDBRANCH   3   4
ENDBRANCH   1   3
BRANCH   2  13
ATOM     13  C   UNL     1      28.883 169.402 156.733  1.00  0.00     0.027 C 
BRANCH  13  14
ATOM     14  C   UNL     1      29.266 169.174 155.264  1.00  0.00     0.004 C 
BRANCH  14  15
ATOM     15  C   UNL     1      29.530 170.468 154.465  1.00  0.00     0.000 C 
BRANCH  15  16
ATOM     16  C   UNL     1      30.991 170.671 154.020  1.00  0.00     0.000 C 
BRANCH  16  17
ATOM     17  C   UNL     1      31.870 169.408 154.086  1.00  0.00    -0.000 C 
BRANCH  17  18
ATOM     18  C   UNL     1      32.902 169.430 155.233  1.00  0.00    -0.000 C 
BRANCH  18  19
ATOM     19  C   UNL     1      33.213 168.024 155.770  1.00  0.00    -0.003 C 
ATOM     20  C   UNL     1      34.472 168.029 156.631  1.00  0.00     0.004 C 
ENDBRANCH  18  19
ENDBRANCH  17  18
ENDBRANCH  16  17
ENDBRANCH  15  16
ENDBRANCH  14  15
ENDBRANCH  13  14
ENDBRANCH   2  13
TORSDOF 15
ENDMDL
MODEL 3
REMARK VINA RESULT:    -3.985      1.579      2.452
REMARK INTER + INTRA:          -9.205
REMARK INTER:                  -7.214
REMARK INTRA:                  -1.990
REMARK UNBOUND:                -1.725
REMARK SMILES CCCCCCCCC=CCCCCCCCC(=O)[O-]
REMARK SMILES IDX 10 1 9 2 11 3 12 4 13 5 14 6 15 7 16 8 17 9 18 10 19 11
REMARK SMILES IDX 20 12 8 13 7 14 6 15 5 16 4 17 3 18 2 19 1 20
REMARK H PARENT
REMARK Flexibility Score: inf
ROOT
ATOM      1  C   UNL     1      32.034 168.553 158.241  1.00  0.00    -0.031 C 
ATOM      2  C   UNL     1      32.668 167.411 157.934  1.00  0.00    -0.031 C 
ENDROOT
BRANCH   1   3
ATOM      3  C   UNL     1      31.052 168.630 159.380  1.00  0.00     0.027 C 
BRANCH   3   4
ATOM      4  C   UNL     1      30.030 169.759 159.175  1.00  0.00     0.004 C 
BRANCH   4   5
ATOM      5  C   UNL     1      29.296 170.169 160.469  1.00  0.00     0.000 C 
BRANCH   5   6
ATOM      6  C   UNL     1      29.244 171.696 160.687  1.00  0.00     0.000 C 
BRANCH   6   7
ATOM      7  C   UNL     1      27.819 172.280 160.705  1.00  0.00     0.000 C 
BRANCH   7   8
ATOM      8  C   UNL     1      27.639 173.466 161.673  1.00  0.00     0.006 C 
BRANCH   8   9
ATOM      9  C   UNL     1      28.562 173.376 162.896  1.00  0.00     0.053 C 
BRANCH   9  10
ATOM     10  C   UNL     1      27.823 172.822 164.071  1.00  0.00     0.041 C 
ATOM     11  O   UNL     1      27.512 173.571 165.035  1.00  0.00    -0.550 OA
ATOM     12  O   UNL     1      27.526 171.467 164.129  1.00  0.00    -0.550 OA
ENDBRANCH   9  10
ENDBRANCH   8   9
ENDBRANCH   7   8
ENDBRANCH   6   7
ENDBRANCH   5   6
ENDBRANCH   4   5
ENDBRANCH   3   4
ENDBRANCH   1   3
BRANCH   2  13
ATOM     13  C   UNL     1      33.664 167.334 156.808  1.00  0.00     0.027 C 
BRANCH  13  14
ATOM     14  C   UNL     1      34.226 168.718 156.453  1.00  0.00     0.004 C 
BRANCH  14  15
ATOM     15  C   UNL     1      34.078 169.105 154.967  1.00  0.00     0.000 C 
BRANCH  15  16
ATOM     16  C   UNL     1      32.678 168.871 154.369  1.00  0.00     0.000 C 
BRANCH  16  17
ATOM     17  C   UNL     1      31.639 169.956 154.711  1.00  0.00    -0.000 C 
BRANCH  17  18
ATOM     18  C   UNL     1      30.275 169.389 155.161  1.00  0.00    -0.000 C 
BRANCH  18  19
ATOM     19  C   UNL     1      30.211 167.858 155.051  1.00  0.00    -0.003 C 
ATOM     20  C   UNL     1      29.336 167.263 156.150  1.00  0.00     0.004 C 
ENDBRANCH  18  19
ENDBRANCH  17  18
ENDBRANCH  16  17
ENDBRANCH  15  16
ENDBRANCH  14  15
ENDBRANCH  13  14
ENDBRANCH   2  13
TORSDOF 15
ENDMDL
MODEL 4
REMARK VINA RESULT:    -3.952      1.055      3.429
REMARK INTER + INTRA:          -9.142
REMARK INTER:                  -6.899
REMARK INTRA:                  -2.243
REMARK UNBOUND:                -1.725
REMARK SMILES CCCCCCCCC=CCCCCCCCC(=O)[O-]
REMARK SMILES IDX 10 1 9 2 11 3 12 4 13 5 14 6 15 7 16 8 17 9 18 10 19 11
REMARK SMILES IDX 20 12 8 13 7 14 6 15 5 16 4 17 3 18 2 19 1 20
REMARK H PARENT
REMARK Flexibility Score: inf
ROOT
ATOM      1  C   UNL     1      29.834 169.342 155.335  1.00  0.00    -0.031 C 
ATOM      2  C   UNL     1      30.387 168.150 155.056  1.00  0.00    -0.031 C 
ENDROOT
BRANCH   1   3
ATOM      3  C   UNL     1      28.648 169.467 156.253  1.00  0.00     0.027 C 
BRANCH   3   4
ATOM      4  C   UNL     1      28.427 168.187 157.076  1.00  0.00     0.004 C 
BRANCH   4   5
ATOM      5  C   UNL     1      28.119 168.456 158.563  1.00  0.00     0.000 C 
BRANCH   5   6
ATOM      6  C   UNL     1      28.186 169.951 158.943  1.00  0.00     0.000 C 
BRANCH   6   7
ATOM      7  C   UNL     1      29.025 170.241 160.202  1.00  0.00     0.000 C 
BRANCH   7   8
ATOM      8  C   UNL     1      29.002 171.718 160.644  1.00  0.00     0.006 C 
BRANCH   8   9
ATOM      9  C   UNL     1      27.578 172.275 160.769  1.00  0.00     0.053 C 
BRANCH   9  10
ATOM     10  C   UNL     1      27.536 173.394 161.759  1.00  0.00     0.041 C 
ATOM     11  O   UNL     1      26.659 174.292 161.663  1.00  0.00    -0.550 OA
ATOM     12  O   UNL     1      28.498 173.475 162.756  1.00  0.00    -0.550 OA
ENDBRANCH   9  10
ENDBRANCH   8   9
ENDBRANCH   7   8
ENDBRANCH   6   7
ENDBRANCH   5   6
ENDBRANCH   4   5
ENDBRANCH   3   4
ENDBRANCH   1   3
BRANCH   2  13
ATOM     13  C   UNL     1      31.583 168.023 154.152  1.00  0.00     0.027 C 
BRANCH  13  14
ATOM     14  C   UNL     1      32.321 169.360 153.996  1.00  0.00     0.004 C 
BRANCH  14  15
ATOM     15  C   UNL     1      33.525 169.540 154.944  1.00  0.00     0.000 C 
BRANCH  15  16
ATOM     16  C   UNL     1      34.197 168.230 155.397  1.00  0.00     0.000 C 
BRANCH  16  17
ATOM     17  C   UNL     1      34.208 168.002 156.920  1.00  0.00    -0.000 C 
BRANCH  17  18
ATOM     18  C   UNL     1      33.075 167.079 157.417  1.00  0.00    -0.000 C 
BRANCH  18  19
ATOM     19  C   UNL     1      32.342 167.655 158.638  1.00  0.00    -0.003 C 
ATOM     20  C   UNL     1      31.825 169.063 158.357  1.00  0.00     0.004 C 
ENDBRANCH  18  19
ENDBRANCH  17  18
ENDBRANCH  16  17
ENDBRANCH  15  16
ENDBRANCH  14  15
ENDBRANCH  13  14
ENDBRANCH   2  13
TORSDOF 15
ENDMDL
MODEL 5
REMARK VINA RESULT:    -3.915      2.724      4.534
REMARK INTER + INTRA:          -9.072
REMARK INTER:                  -7.316
REMARK INTRA:                  -1.756
REMARK UNBOUND:                -1.725
REMARK SMILES CCCCCCCCC=CCCCCCCCC(=O)[O-]
REMARK SMILES IDX 10 1 9 2 11 3 12 4 13 5 14 6 15 7 16 8 17 9 18 10 19 11
REMARK SMILES IDX 20 12 8 13 7 14 6 15 5 16 4 17 3 18 2 19 1 20
REMARK H PARENT
REMARK Flexibility Score: inf
ROOT
ATOM      1  C   UNL     1      30.281 169.447 159.904  1.00  0.00    -0.031 C 
ATOM      2  C   UNL     1      30.979 169.158 158.794  1.00  0.00    -0.031 C 
ENDROOT
BRANCH   1   3
ATOM      3  C   UNL     1      29.209 170.503 159.910  1.00  0.00     0.027 C 
BRANCH   3   4
ATOM      4  C   UNL     1      29.678 171.787 160.613  1.00  0.00     0.004 C 
BRANCH   4   5
ATOM      5  C   UNL     1      28.561 172.504 161.398  1.00  0.00     0.000 C 
BRANCH   5   6
ATOM      6  C   UNL     1      28.742 172.428 162.930  1.00  0.00     0.000 C 
BRANCH   6   7
ATOM      7  C   UNL     1      29.993 171.650 163.377  1.00  0.00     0.000 C 
BRANCH   7   8
ATOM      8  C   UNL     1      29.696 170.229 163.896  1.00  0.00     0.006 C 
BRANCH   8   9
ATOM      9  C   UNL     1      30.776 169.216 163.495  1.00  0.00     0.053 C 
BRANCH   9  10
ATOM     10  C   UNL     1      31.431 168.638 164.709  1.00  0.00     0.041 C 
ATOM     11  O   UNL     1      32.686 168.558 164.773  1.00  0.00    -0.550 OA
ATOM     12  O   UNL     1      30.655 168.140 165.746  1.00  0.00    -0.550 OA
ENDBRANCH   9  10
ENDBRANCH   8   9
ENDBRANCH   7   8
ENDBRANCH   6   7
ENDBRANCH   5   6
ENDBRANCH   4   5
ENDBRANCH   3   4
ENDBRANCH   1   3
BRANCH   2  13
ATOM     13  C   UNL     1      32.040 168.090 158.780  1.00  0.00     0.027 C 
BRANCH  13  14
ATOM     14  C   UNL     1      31.803 167.070 157.657  1.00  0.00     0.004 C 
BRANCH  14  15
ATOM     15  C   UNL     1      32.954 166.968 156.634  1.00  0.00     0.000 C 
BRANCH  15  16
ATOM     16  C   UNL     1      33.994 168.102 156.710  1.00  0.00     0.000 C 
BRANCH  16  17
ATOM     17  C   UNL     1      34.040 169.022 155.475  1.00  0.00    -0.000 C 
BRANCH  17  18
ATOM     18  C   UNL     1      32.851 168.825 154.511  1.00  0.00    -0.000 C 
BRANCH  18  19
ATOM     19  C   UNL     1      31.804 169.942 154.634  1.00  0.00    -0.003 C 
ATOM     20  C   UNL     1      30.466 169.392 155.120  1.00  0.00     0.004 C 
ENDBRANCH  18  19
ENDBRANCH  17  18
ENDBRANCH  16  17
ENDBRANCH  15  16
ENDBRANCH  14  15
ENDBRANCH  13  14
ENDBRANCH   2  13
TORSDOF 15
ENDMDL
MODEL 6
REMARK VINA RESULT:    -3.914      2.342      6.057
REMARK INTER + INTRA:          -9.070
REMARK INTER:                  -7.532
REMARK INTRA:                  -1.539
REMARK UNBOUND:                -1.725
REMARK SMILES CCCCCCCCC=CCCCCCCCC(=O)[O-]
REMARK SMILES IDX 10 1 9 2 11 3 12 4 13 5 14 6 15 7 16 8 17 9 18 10 19 11
REMARK SMILES IDX 20 12 8 13 7 14 6 15 5 16 4 17 3 18 2 19 1 20
REMARK H PARENT
REMARK Flexibility Score: inf
ROOT
ATOM      1  C   UNL     1      32.487 167.606 157.771  1.00  0.00    -0.031 C 
ATOM      2  C   UNL     1      32.353 167.497 159.102  1.00  0.00    -0.031 C 
ENDROOT
BRANCH   1   3
ATOM      3  C   UNL     1      33.656 166.998 157.042  1.00  0.00     0.027 C 
BRANCH   3   4
ATOM      4  C   UNL     1      34.371 168.028 156.154  1.00  0.00     0.004 C 
BRANCH   4   5
ATOM      5  C   UNL     1      33.475 169.213 155.740  1.00  0.00     0.000 C 
BRANCH   5   6
ATOM      6  C   UNL     1      33.059 169.178 154.254  1.00  0.00     0.000 C 
BRANCH   6   7
ATOM      7  C   UNL     1      31.600 168.746 154.020  1.00  0.00     0.000 C 
BRANCH   7   8
ATOM      8  C   UNL     1      30.558 169.807 154.427  1.00  0.00     0.006 C 
BRANCH   8   9
ATOM      9  C   UNL     1      29.799 169.430 155.706  1.00  0.00     0.053 C 
BRANCH   9  10
ATOM     10  C   UNL     1      28.335 169.680 155.541  1.00  0.00     0.041 C 
ATOM     11  O   UNL     1      27.506 169.114 156.303  1.00  0.00    -0.550 OA
ATOM     12  O   UNL     1      27.880 170.494 154.513  1.00  0.00    -0.550 OA
ENDBRANCH   9  10
ENDBRANCH   8   9
ENDBRANCH   7   8
ENDBRANCH   6   7
ENDBRANCH   5   6
ENDBRANCH   4   5
ENDBRANCH   3   4
ENDBRANCH   1   3
BRANCH   2  13
ATOM     13  C   UNL     1      31.177 168.088 159.832  1.00  0.00     0.027 C 
BRANCH  13  14
ATOM     14  C   UNL     1      30.778 169.453 159.252  1.00  0.00     0.004 C 
BRANCH  14  15
ATOM     15  C   UNL     1      29.304 169.842 159.491  1.00  0.00     0.000 C 
BRANCH  15  16
ATOM     16  C   UNL     1      29.038 170.617 160.795  1.00  0.00     0.000 C 
BRANCH  16  17
ATOM     17  C   UNL     1      29.278 172.136 160.705  1.00  0.00    -0.000 C 
BRANCH  17  18
ATOM     18  C   UNL     1      28.635 172.935 161.858  1.00  0.00    -0.000 C 
BRANCH  18  19
ATOM     19  C   UNL     1      27.100 172.923 161.796  1.00  0.00    -0.003 C 
ATOM     20  C   UNL     1      26.597 173.491 160.472  1.00  0.00     0.004 C 
ENDBRANCH  18  19
ENDBRANCH  17  18
ENDBRANCH  16  17
ENDBRANCH  15  16
ENDBRANCH  14  15
ENDBRANCH  13  14
ENDBRANCH   2  13
TORSDOF 15
ENDMDL
MODEL 7
REMARK VINA RESULT:    -3.882      1.344      2.045
REMARK INTER + INTRA:          -9.010
REMARK INTER:                  -7.230
REMARK INTRA:                  -1.780
REMARK UNBOUND:                -1.725
REMARK SMILES CCCCCCCCC=CCCCCCCCC(=O)[O-]
REMARK SMILES IDX 10 1 9 2 11 3 12 4 13 5 14 6 15 7 16 8 17 9 18 10 19 11
REMARK SMILES IDX 20 12 8 13 7 14 6 15 5 16 4 17 3 18 2 19 1 20
REMARK H PARENT
REMARK Flexibility Score: inf
ROOT
ATOM      1  C   UNL     1      31.991 168.578 158.465  1.00  0.00    -0.031 C 
ATOM      2  C   UNL     1      32.525 167.399 158.109  1.00  0.00    -0.031 C 
ENDROOT
BRANCH   1   3
ATOM      3  C   UNL     1      31.084 168.705 159.659  1.00  0.00     0.027 C 
BRANCH   3   4
ATOM      4  C   UNL     1      31.432 167.681 160.751  1.00  0.00     0.004 C 
BRANCH   4   5
ATOM      5  C   UNL     1      31.202 168.205 162.183  1.00  0.00     0.000 C 
BRANCH   5   6
ATOM      6  C   UNL     1      29.906 169.030 162.335  1.00  0.00     0.000 C 
BRANCH   6   7
ATOM      7  C   UNL     1      29.907 169.986 163.542  1.00  0.00     0.000 C 
BRANCH   7   8
ATOM      8  C   UNL     1      29.937 171.480 163.160  1.00  0.00     0.006 C 
BRANCH   8   9
ATOM      9  C   UNL     1      28.567 172.000 162.705  1.00  0.00     0.053 C 
BRANCH   9  10
ATOM     10  C   UNL     1      28.628 172.469 161.287  1.00  0.00     0.041 C 
ATOM     11  O   UNL     1      27.812 173.333 160.870  1.00  0.00    -0.550 OA
ATOM     12  O   UNL     1      29.549 171.912 160.410  1.00  0.00    -0.550 OA
ENDBRANCH   9  10
ENDBRANCH   8   9
ENDBRANCH   7   8
ENDBRANCH   6   7
ENDBRANCH   5   6
ENDBRANCH   4   5
ENDBRANCH   3   4
ENDBRANCH   1   3
BRANCH   2  13
ATOM     13  C   UNL     1      33.447 167.270 156.926  1.00  0.00     0.027 C 
BRANCH  13  14
ATOM     14  C   UNL     1      34.095 168.614 156.563  1.00  0.00     0.004 C 
BRANCH  14  15
ATOM     15  C   UNL     1      34.042 168.964 155.061  1.00  0.00     0.000 C 
BRANCH  15  16
ATOM     16  C   UNL     1      32.642 168.885 154.424  1.00  0.00     0.000 C 
BRANCH  16  17
ATOM     17  C   UNL     1      31.698 170.047 154.788  1.00  0.00    -0.000 C 
BRANCH  17  18
ATOM     18  C   UNL     1      30.206 169.730 154.558  1.00  0.00    -0.000 C 
BRANCH  18  19
ATOM     19  C   UNL     1      29.674 168.671 155.536  1.00  0.00    -0.003 C 
ATOM     20  C   UNL     1      28.846 169.312 156.646  1.00  0.00     0.004 C 
ENDBRANCH  18  19
ENDBRANCH  17  18
ENDBRANCH  16  17
ENDBRANCH  15  16
ENDBRANCH  14  15
ENDBRANCH  13  14
ENDBRANCH   2  13
TORSDOF 15
ENDMDL
MODEL 8
REMARK VINA RESULT:    -3.845      2.002      3.760
REMARK INTER + INTRA:          -8.941
REMARK INTER:                  -7.486
REMARK INTRA:                  -1.455
REMARK UNBOUND:                -1.725
REMARK SMILES CCCCCCCCC=CCCCCCCCC(=O)[O-]
REMARK SMILES IDX 10 1 9 2 11 3 12 4 13 5 14 6 15 7 16 8 17 9 18 10 19 11
REMARK SMILES IDX 20 12 8 13 7 14 6 15 5 16 4 17 3 18 2 19 1 20
REMARK H PARENT
REMARK Flexibility Score: inf
ROOT
ATOM      1  C   UNL     1      29.512 168.939 158.913  1.00  0.00    -0.031 C 
ATOM      2  C   UNL     1      30.731 168.919 158.352  1.00  0.00    -0.031 C 
ENDROOT
BRANCH   1   3
ATOM      3  C   UNL     1      28.882 170.221 159.389  1.00  0.00     0.027 C 
BRANCH   3   4
ATOM      4  C   UNL     1      29.523 170.719 160.694  1.00  0.00     0.004 C 
BRANCH   4   5
ATOM      5  C   UNL     1      29.462 172.251 160.865  1.00  0.00     0.000 C 
BRANCH   5   6
ATOM      6  C   UNL     1      28.022 172.810 160.880  1.00  0.00     0.000 C 
BRANCH   6   7
ATOM      7  C   UNL     1      27.722 173.741 162.069  1.00  0.00     0.000 C 
BRANCH   7   8
ATOM      8  C   UNL     1      28.371 173.294 163.395  1.00  0.00     0.006 C 
BRANCH   8   9
ATOM      9  C   UNL     1      27.583 172.176 164.090  1.00  0.00     0.053 C 
BRANCH   9  10
ATOM     10  C   UNL     1      28.497 171.064 164.494  1.00  0.00     0.041 C 
ATOM     11  O   UNL     1      29.720 171.110 164.198  1.00  0.00    -0.550 OA
ATOM     12  O   UNL     1      27.988 169.951 165.150  1.00  0.00    -0.550 OA
ENDBRANCH   9  10
ENDBRANCH   8   9
ENDBRANCH   7   8
ENDBRANCH   6   7
ENDBRANCH   5   6
ENDBRANCH   4   5
ENDBRANCH   3   4
ENDBRANCH   1   3
BRANCH   2  13
ATOM     13  C   UNL     1      31.357 167.641 157.860  1.00  0.00     0.027 C 
BRANCH  13  14
ATOM     14  C   UNL     1      32.888 167.680 157.968  1.00  0.00     0.004 C 
BRANCH  14  15
ATOM     15  C   UNL     1      33.628 167.467 156.631  1.00  0.00     0.000 C 
BRANCH  15  16
ATOM     16  C   UNL     1      34.198 168.747 155.991  1.00  0.00     0.000 C 
BRANCH  16  17
ATOM     17  C   UNL     1      33.335 169.349 154.867  1.00  0.00    -0.000 C 
BRANCH  17  18
ATOM     18  C   UNL     1      32.292 168.367 154.292  1.00  0.00    -0.000 C 
BRANCH  18  19
ATOM     19  C   UNL     1      30.953 169.051 153.976  1.00  0.00    -0.003 C 
ATOM     20  C   UNL     1      31.090 170.570 154.002  1.00  0.00     0.004 C 
ENDBRANCH  18  19
ENDBRANCH  17  18
ENDBRANCH  16  17
ENDBRANCH  15  16
ENDBRANCH  14  15
ENDBRANCH  13  14
ENDBRANCH   2  13
TORSDOF 15
ENDMDL
MODEL 9
REMARK VINA RESULT:    -3.748      2.941      5.476
REMARK INTER + INTRA:          -8.760
REMARK INTER:                  -7.108
REMARK INTRA:                  -1.651
REMARK UNBOUND:                -1.725
REMARK SMILES CCCCCCCCC=CCCCCCCCC(=O)[O-]
REMARK SMILES IDX 10 1 9 2 11 3 12 4 13 5 14 6 15 7 16 8 17 9 18 10 19 11
REMARK SMILES IDX 20 12 8 13 7 14 6 15 5 16 4 17 3 18 2 19 1 20
REMARK H PARENT
REMARK Flexibility Score: inf
ROOT
ATOM      1  C   UNL     1      28.065 170.439 160.454  1.00  0.00    -0.031 C 
ATOM      2  C   UNL     1      29.389 170.329 160.263  1.00  0.00    -0.031 C 
ENDROOT
BRANCH   1   3
ATOM      3  C   UNL     1      27.421 171.761 160.776  1.00  0.00     0.027 C 
BRANCH   3   4
ATOM      4  C   UNL     1      28.467 172.851 161.056  1.00  0.00     0.004 C 
BRANCH   4   5
ATOM      5  C   UNL     1      28.269 173.563 162.410  1.00  0.00     0.000 C 
BRANCH   5   6
ATOM      6  C   UNL     1      28.261 172.598 163.615  1.00  0.00     0.000 C 
BRANCH   6   7
ATOM      7  C   UNL     1      29.620 171.929 163.894  1.00  0.00     0.000 C 
BRANCH   7   8
ATOM      8  C   UNL     1      29.524 170.425 164.217  1.00  0.00     0.006 C 
BRANCH   8   9
ATOM      9  C   UNL     1      30.627 169.603 163.537  1.00  0.00     0.053 C 
BRANCH   9  10
ATOM     10  C   UNL     1      31.544 169.009 164.558  1.00  0.00     0.041 C 
ATOM     11  O   UNL     1      31.254 169.071 165.782  1.00  0.00    -0.550 OA
ATOM     12  O   UNL     1      32.743 168.434 164.163  1.00  0.00    -0.550 OA
ENDBRANCH   9  10
ENDBRANCH   8   9
ENDBRANCH   7   8
ENDBRANCH   6   7
ENDBRANCH   5   6
ENDBRANCH   4   5
ENDBRANCH   3   4
ENDBRANCH   1   3
BRANCH   2  13
ATOM     13  C   UNL     1      30.035 169.012 159.924  1.00  0.00     0.027 C 
BRANCH  13  14
ATOM     14  C   UNL     1      30.479 168.959 158.456  1.00  0.00     0.004 C 
BRANCH  14  15
ATOM     15  C   UNL     1      32.005 168.856 158.254  1.00  0.00     0.000 C 
BRANCH  15  16
ATOM     16  C   UNL     1      32.529 167.436 157.968  1.00  0.00     0.000 C 
BRANCH  16  17
ATOM     17  C   UNL     1      33.536 167.339 156.806  1.00  0.00    -0.000 C 
BRANCH  17  18
ATOM     18  C   UNL     1      34.174 168.691 156.424  1.00  0.00    -0.000 C 
BRANCH  18  19
ATOM     19  C   UNL     1      33.950 169.050 154.947  1.00  0.00    -0.003 C 
ATOM     20  C   UNL     1      32.499 169.446 154.691  1.00  0.00     0.004 C 
ENDBRANCH  18  19
ENDBRANCH  17  18
ENDBRANCH  16  17
ENDBRANCH  15  16
ENDBRANCH  14  15
ENDBRANCH  13  14
ENDBRANCH   2  13
TORSDOF 15
ENDMDL
