MODEL 1
REMARK VINA RESULT:    -5.366      0.000      0.000
REMARK INTER + INTRA:          -6.403
REMARK INTER:                  -6.307
REMARK INTRA:                  -0.096
REMARK UNBOUND:                -0.096
REMARK SMILES O=c1c(O)c(-c2ccc(O)cc2)oc2cc(O)cc(O)c12
REMARK SMILES IDX 5 1 3 2 2 3 1 4 21 5 19 6 18 7 16 8 15 9 14 10 13 11 6 12
REMARK SMILES IDX 7 13 8 14 9 15 12 16 11 17 10 18 4 20 20 22 17 24
REMARK H PARENT 10 19 4 21 20 23 17 25
REMARK Flexibility Score: inf
ROOT
ATOM      1  C   UNL     1      19.199   4.661   7.167  1.00  0.00     0.180 A 
ATOM      2  C   UNL     1      18.941   3.748   6.125  1.00  0.00     0.208 A 
ATOM      3  C   UNL     1      18.447   4.236   4.904  1.00  0.00     0.238 A 
ATOM      4  O   UNL     1      18.200   3.426   3.968  1.00  0.00    -0.285 OA
ATOM      5  C   UNL     1      18.240   5.620   4.739  1.00  0.00     0.111 A 
ATOM      6  C   UNL     1      17.749   6.191   3.539  1.00  0.00     0.134 A 
ATOM      7  C   UNL     1      17.579   7.581   3.450  1.00  0.00     0.093 A 
ATOM      8  C   UNL     1      17.890   8.408   4.531  1.00  0.00     0.123 A 
ATOM      9  C   UNL     1      18.374   7.850   5.718  1.00  0.00     0.094 A 
ATOM     10  C   UNL     1      18.549   6.467   5.829  1.00  0.00     0.146 A 
ATOM     11  O   UNL     1      19.007   5.962   6.968  1.00  0.00    -0.452 OA
ENDROOT
BRANCH   1  12
ATOM     12  C   UNL     1      19.703   4.224   8.488  1.00  0.00     0.021 A 
ATOM     13  C   UNL     1      20.936   3.560   8.622  1.00  0.00     0.016 A 
ATOM     14  C   UNL     1      21.379   3.136   9.878  1.00  0.00     0.047 A 
ATOM     15  C   UNL     1      20.592   3.355  11.013  1.00  0.00     0.115 A 
ATOM     16  C   UNL     1      18.909   4.423   9.631  1.00  0.00     0.016 A 
ATOM     17  C   UNL     1      19.354   3.998  10.886  1.00  0.00     0.047 A 
BRANCH  15  18
ATOM     18  O   UNL     1      21.047   2.928  12.258  1.00  0.00    -0.508 OA
ATOM     19  H   UNL     1      21.643   2.115  12.354  1.00  0.00     0.293 HD
ENDBRANCH  15  18
ENDBRANCH   1  12
BRANCH   2  20
ATOM     20  O   UNL     1      19.200   2.387   6.298  1.00  0.00    -0.502 OA
ATOM     21  H   UNL     1      19.627   2.019   7.140  1.00  0.00     0.293 HD
ENDBRANCH   2  20
BRANCH   6  22
ATOM     22  O   UNL     1      17.430   5.393   2.441  1.00  0.00    -0.507 OA
ATOM     23  H   UNL     1      16.642   5.603   1.839  1.00  0.00     0.293 HD
ENDBRANCH   6  22
BRANCH   8  24
ATOM     24  O   UNL     1      17.713   9.785   4.416  1.00  0.00    -0.508 OA
ATOM     25  H   UNL     1      18.419  10.439   4.733  1.00  0.00     0.293 HD
ENDBRANCH   8  24
TORSDOF 5
ENDMDL
MODEL 2
REMARK VINA RESULT:    -5.319      4.433      6.644
REMARK INTER + INTRA:          -6.347
REMARK INTER:                  -6.621
REMARK INTRA:                   0.274
REMARK UNBOUND:                -0.096
REMARK SMILES O=c1c(O)c(-c2ccc(O)cc2)oc2cc(O)cc(O)c12
REMARK SMILES IDX 5 1 3 2 2 3 1 4 21 5 19 6 18 7 16 8 15 9 14 10 13 11 6 12
REMARK SMILES IDX 7 13 8 14 9 15 12 16 11 17 10 18 4 20 20 22 17 24
REMARK H PARENT 10 19 4 21 20 23 17 25
REMARK Flexibility Score: inf
ROOT
ATOM      1  C   UNL     1      22.301   6.620   4.588  1.00  0.00     0.180 A 
ATOM      2  C   UNL     1      22.453   5.230   4.414  1.00  0.00     0.208 A 
ATOM      3  C   UNL     1      21.634   4.361   5.152  1.00  0.00     0.238 A 
ATOM      4  O   UNL     1      21.770   3.114   5.013  1.00  0.00    -0.285 OA
ATOM      5  C   UNL     1      20.668   4.891   6.030  1.00  0.00     0.111 A 
ATOM      6  C   UNL     1      19.800   4.083   6.806  1.00  0.00     0.134 A 
ATOM      7  C   UNL     1      18.858   4.688   7.651  1.00  0.00     0.093 A 
ATOM      8  C   UNL     1      18.764   6.078   7.735  1.00  0.00     0.123 A 
ATOM      9  C   UNL     1      19.618   6.881   6.972  1.00  0.00     0.094 A 
ATOM     10  C   UNL     1      20.566   6.298   6.125  1.00  0.00     0.146 A 
ATOM     11  O   UNL     1      21.367   7.083   5.415  1.00  0.00    -0.452 OA
ENDROOT
BRANCH   1  12
ATOM     12  C   UNL     1      23.139   7.600   3.862  1.00  0.00     0.021 A 
ATOM     13  C   UNL     1      23.612   7.341   2.562  1.00  0.00     0.016 A 
ATOM     14  C   UNL     1      24.422   8.273   1.906  1.00  0.00     0.047 A 
ATOM     15  C   UNL     1      24.781   9.465   2.542  1.00  0.00     0.115 A 
ATOM     16  C   UNL     1      23.521   8.791   4.502  1.00  0.00     0.016 A 
ATOM     17  C   UNL     1      24.331   9.721   3.843  1.00  0.00     0.047 A 
BRANCH  15  18
ATOM     18  O   UNL     1      25.588  10.385   1.876  1.00  0.00    -0.508 OA
ATOM     19  H   UNL     1      25.235  10.940   1.107  1.00  0.00     0.293 HD
ENDBRANCH  15  18
ENDBRANCH   1  12
BRANCH   2  20
ATOM     20  O   UNL     1      23.385   4.731   3.501  1.00  0.00    -0.502 OA
ATOM     21  H   UNL     1      23.762   3.793   3.567  1.00  0.00     0.293 HD
ENDBRANCH   2  20
BRANCH   6  22
ATOM     22  O   UNL     1      19.868   2.691   6.744  1.00  0.00    -0.507 OA
ATOM     23  H   UNL     1      20.537   2.215   6.149  1.00  0.00     0.293 HD
ENDBRANCH   6  22
BRANCH   8  24
ATOM     24  O   UNL     1      17.819   6.653   8.581  1.00  0.00    -0.508 OA
ATOM     25  H   UNL     1      18.092   7.187   9.398  1.00  0.00     0.293 HD
ENDBRANCH   8  24
TORSDOF 5
ENDMDL
MODEL 3
REMARK VINA RESULT:    -5.312      2.982      4.917
REMARK INTER + INTRA:          -6.339
REMARK INTER:                  -6.042
REMARK INTRA:                  -0.297
REMARK UNBOUND:                -0.096
REMARK SMILES O=c1c(O)c(-c2ccc(O)cc2)oc2cc(O)cc(O)c12
REMARK SMILES IDX 5 1 3 2 2 3 1 4 21 5 19 6 18 7 16 8 15 9 14 10 13 11 6 12
REMARK SMILES IDX 7 13 8 14 9 15 12 16 11 17 10 18 4 20 20 22 17 24
REMARK H PARENT 10 19 4 21 20 23 17 25
REMARK Flexibility Score: inf
ROOT
ATOM      1  C   UNL     1      18.539   4.919   9.474  1.00  0.00     0.180 A 
ATOM      2  C   UNL     1      19.505   4.006   9.943  1.00  0.00     0.208 A 
ATOM      3  C   UNL     1      20.484   3.539   9.052  1.00  0.00     0.238 A 
ATOM      4  O   UNL     1      21.347   2.712   9.457  1.00  0.00    -0.285 OA
ATOM      5  C   UNL     1      20.494   4.002   7.721  1.00  0.00     0.111 A 
ATOM      6  C   UNL     1      21.449   3.583   6.762  1.00  0.00     0.134 A 
ATOM      7  C   UNL     1      21.397   4.099   5.459  1.00  0.00     0.093 A 
ATOM      8  C   UNL     1      20.415   5.023   5.096  1.00  0.00     0.123 A 
ATOM      9  C   UNL     1      19.469   5.440   6.038  1.00  0.00     0.094 A 
ATOM     10  C   UNL     1      19.502   4.937   7.342  1.00  0.00     0.146 A 
ATOM     11  O   UNL     1      18.590   5.346   8.216  1.00  0.00    -0.452 OA
ENDROOT
BRANCH   1  12
ATOM     12  C   UNL     1      17.464   5.443  10.347  1.00  0.00     0.021 A 
ATOM     13  C   UNL     1      16.233   4.775  10.477  1.00  0.00     0.016 A 
ATOM     14  C   UNL     1      15.224   5.303  11.288  1.00  0.00     0.047 A 
ATOM     15  C   UNL     1      15.425   6.508  11.968  1.00  0.00     0.115 A 
ATOM     16  C   UNL     1      17.651   6.664  11.016  1.00  0.00     0.016 A 
ATOM     17  C   UNL     1      16.641   7.190  11.828  1.00  0.00     0.047 A 
BRANCH  15  18
ATOM     18  O   UNL     1      14.412   7.022  12.773  1.00  0.00    -0.508 OA
ATOM     19  H   UNL     1      14.317   6.749  13.744  1.00  0.00     0.293 HD
ENDBRANCH  15  18
ENDBRANCH   1  12
BRANCH   2  20
ATOM     20  O   UNL     1      19.503   3.600  11.279  1.00  0.00    -0.502 OA
ATOM     21  H   UNL     1      19.485   4.260  12.047  1.00  0.00     0.293 HD
ENDBRANCH   2  20
BRANCH   6  22
ATOM     22  O   UNL     1      22.443   2.662   7.093  1.00  0.00    -0.507 OA
ATOM     23  H   UNL     1      22.542   1.783   6.599  1.00  0.00     0.293 HD
ENDBRANCH   6  22
BRANCH   8  24
ATOM     24  O   UNL     1      20.387   5.521   3.795  1.00  0.00    -0.508 OA
ATOM     25  H   UNL     1      19.518   5.793   3.350  1.00  0.00     0.293 HD
ENDBRANCH   8  24
TORSDOF 5
ENDMDL
MODEL 4
REMARK VINA RESULT:    -5.276      8.488     10.105
REMARK INTER + INTRA:          -6.297
REMARK INTER:                  -6.150
REMARK INTRA:                  -0.147
REMARK UNBOUND:                -0.096
REMARK SMILES O=c1c(O)c(-c2ccc(O)cc2)oc2cc(O)cc(O)c12
REMARK SMILES IDX 5 1 3 2 2 3 1 4 21 5 19 6 18 7 16 8 15 9 14 10 13 11 6 12
REMARK SMILES IDX 7 13 8 14 9 15 12 16 11 17 10 18 4 20 20 22 17 24
REMARK H PARENT 10 19 4 21 20 23 17 25
REMARK Flexibility Score: inf
ROOT
ATOM      1  C   UNL     1      24.970   8.784   3.082  1.00  0.00     0.180 A 
ATOM      2  C   UNL     1      24.798  10.138   3.432  1.00  0.00     0.208 A 
ATOM      3  C   UNL     1      25.917  10.987   3.424  1.00  0.00     0.238 A 
ATOM      4  O   UNL     1      25.777  12.198   3.748  1.00  0.00    -0.285 OA
ATOM      5  C   UNL     1      27.176  10.477   3.050  1.00  0.00     0.111 A 
ATOM      6  C   UNL     1      28.351  11.268   3.012  1.00  0.00     0.134 A 
ATOM      7  C   UNL     1      29.566  10.687   2.619  1.00  0.00     0.093 A 
ATOM      8  C   UNL     1      29.630   9.339   2.263  1.00  0.00     0.123 A 
ATOM      9  C   UNL     1      28.474   8.553   2.299  1.00  0.00     0.094 A 
ATOM     10  C   UNL     1      27.253   9.111   2.689  1.00  0.00     0.146 A 
ATOM     11  O   UNL     1      26.171   8.343   2.719  1.00  0.00    -0.452 OA
ENDROOT
BRANCH   1  12
ATOM     12  C   UNL     1      23.844   7.823   3.084  1.00  0.00     0.021 A 
ATOM     13  C   UNL     1      23.155   7.502   4.268  1.00  0.00     0.016 A 
ATOM     14  C   UNL     1      22.111   6.573   4.250  1.00  0.00     0.047 A 
ATOM     15  C   UNL     1      21.751   5.942   3.054  1.00  0.00     0.115 A 
ATOM     16  C   UNL     1      23.490   7.169   1.892  1.00  0.00     0.016 A 
ATOM     17  C   UNL     1      22.445   6.241   1.875  1.00  0.00     0.047 A 
BRANCH  15  18
ATOM     18  O   UNL     1      20.708   5.019   3.050  1.00  0.00    -0.508 OA
ATOM     19  H   UNL     1      19.930   5.102   2.408  1.00  0.00     0.293 HD
ENDBRANCH  15  18
ENDBRANCH   1  12
BRANCH   2  20
ATOM     20  O   UNL     1      23.531  10.629   3.752  1.00  0.00    -0.502 OA
ATOM     21  H   UNL     1      22.876  10.110   4.325  1.00  0.00     0.293 HD
ENDBRANCH   2  20
BRANCH   6  22
ATOM     22  O   UNL     1      28.320  12.618   3.361  1.00  0.00    -0.507 OA
ATOM     23  H   UNL     1      27.448  13.103   3.537  1.00  0.00     0.293 HD
ENDBRANCH   6  22
BRANCH   8  24
ATOM     24  O   UNL     1      30.850   8.788   1.875  1.00  0.00    -0.508 OA
ATOM     25  H   UNL     1      31.638   9.372   1.619  1.00  0.00     0.293 HD
ENDBRANCH   8  24
TORSDOF 5
ENDMDL
MODEL 5
REMARK VINA RESULT:    -5.210      3.533      6.222
REMARK INTER + INTRA:          -6.220
REMARK INTER:                  -6.156
REMARK INTRA:                  -0.064
REMARK UNBOUND:                -0.096
REMARK SMILES O=c1c(O)c(-c2ccc(O)cc2)oc2cc(O)cc(O)c12
REMARK SMILES IDX 5 1 3 2 2 3 1 4 21 5 19 6 18 7 16 8 15 9 14 10 13 11 6 12
REMARK SMILES IDX 7 13 8 14 9 15 12 16 11 17 10 18 4 20 20 22 17 24
REMARK H PARENT 10 19 4 21 20 23 17 25
REMARK Flexibility Score: inf
ROOT
ATOM      1  C   UNL     1      21.199   5.201   5.233  1.00  0.00     0.180 A 
ATOM      2  C   UNL     1      21.415   4.734   6.544  1.00  0.00     0.208 A 
ATOM      3  C   UNL     1      20.505   3.817   7.095  1.00  0.00     0.238 A 
ATOM      4  O   UNL     1      20.681   3.401   8.273  1.00  0.00    -0.285 OA
ATOM      5  C   UNL     1      19.413   3.370   6.324  1.00  0.00     0.111 A 
ATOM      6  C   UNL     1      18.454   2.444   6.804  1.00  0.00     0.134 A 
ATOM      7  C   UNL     1      17.400   2.041   5.970  1.00  0.00     0.093 A 
ATOM      8  C   UNL     1      17.287   2.541   4.672  1.00  0.00     0.123 A 
ATOM      9  C   UNL     1      18.230   3.455   4.193  1.00  0.00     0.094 A 
ATOM     10  C   UNL     1      19.287   3.872   5.008  1.00  0.00     0.146 A 
ATOM     11  O   UNL     1      20.166   4.744   4.530  1.00  0.00    -0.452 OA
ENDROOT
BRANCH   1  12
ATOM     12  C   UNL     1      22.102   6.182   4.589  1.00  0.00     0.021 A 
ATOM     13  C   UNL     1      22.372   7.430   5.181  1.00  0.00     0.016 A 
ATOM     14  C   UNL     1      23.209   8.349   4.543  1.00  0.00     0.047 A 
ATOM     15  C   UNL     1      23.775   8.042   3.301  1.00  0.00     0.115 A 
ATOM     16  C   UNL     1      22.658   5.889   3.333  1.00  0.00     0.016 A 
ATOM     17  C   UNL     1      23.496   6.810   2.696  1.00  0.00     0.047 A 
BRANCH  15  18
ATOM     18  O   UNL     1      24.608   8.968   2.677  1.00  0.00    -0.508 OA
ATOM     19  H   UNL     1      25.331   8.677   2.030  1.00  0.00     0.293 HD
ENDBRANCH  15  18
ENDBRANCH   1  12
BRANCH   2  20
ATOM     20  O   UNL     1      22.531   5.156   7.270  1.00  0.00    -0.502 OA
ATOM     21  H   UNL     1      23.302   4.536   7.489  1.00  0.00     0.293 HD
ENDBRANCH   2  20
BRANCH   6  22
ATOM     22  O   UNL     1      18.541   1.925   8.096  1.00  0.00    -0.507 OA
ATOM     23  H   UNL     1      18.711   2.519   8.899  1.00  0.00     0.293 HD
ENDBRANCH   6  22
BRANCH   8  24
ATOM     24  O   UNL     1      16.231   2.122   3.865  1.00  0.00    -0.508 OA
ATOM     25  H   UNL     1      15.305   2.524   3.952  1.00  0.00     0.293 HD
ENDBRANCH   8  24
TORSDOF 5
ENDMDL
MODEL 6
REMARK VINA RESULT:    -5.138      3.722      6.659
REMARK INTER + INTRA:          -6.135
REMARK INTER:                  -5.905
REMARK INTRA:                  -0.231
REMARK UNBOUND:                -0.096
REMARK SMILES O=c1c(O)c(-c2ccc(O)cc2)oc2cc(O)cc(O)c12
REMARK SMILES IDX 5 1 3 2 2 3 1 4 21 5 19 6 18 7 16 8 15 9 14 10 13 11 6 12
REMARK SMILES IDX 7 13 8 14 9 15 12 16 11 17 10 18 4 20 20 22 17 24
REMARK H PARENT 10 19 4 21 20 23 17 25
REMARK Flexibility Score: inf
ROOT
ATOM      1  C   UNL     1      21.579   5.860   5.027  1.00  0.00     0.180 A 
ATOM      2  C   UNL     1      20.272   5.590   4.575  1.00  0.00     0.208 A 
ATOM      3  C   UNL     1      19.491   4.659   5.279  1.00  0.00     0.238 A 
ATOM      4  O   UNL     1      18.323   4.400   4.876  1.00  0.00    -0.285 OA
ATOM      5  C   UNL     1      20.017   4.033   6.426  1.00  0.00     0.111 A 
ATOM      6  C   UNL     1      19.292   3.088   7.194  1.00  0.00     0.134 A 
ATOM      7  C   UNL     1      19.884   2.516   8.330  1.00  0.00     0.093 A 
ATOM      8  C   UNL     1      21.179   2.869   8.714  1.00  0.00     0.123 A 
ATOM      9  C   UNL     1      21.899   3.802   7.961  1.00  0.00     0.094 A 
ATOM     10  C   UNL     1      21.329   4.382   6.824  1.00  0.00     0.146 A 
ATOM     11  O   UNL     1      22.035   5.261   6.123  1.00  0.00    -0.452 OA
ENDROOT
BRANCH   1  12
ATOM     12  C   UNL     1      22.471   6.813   4.329  1.00  0.00     0.021 A 
ATOM     13  C   UNL     1      23.060   6.496   3.091  1.00  0.00     0.016 A 
ATOM     14  C   UNL     1      23.918   7.403   2.463  1.00  0.00     0.047 A 
ATOM     15  C   UNL     1      24.210   8.629   3.066  1.00  0.00     0.115 A 
ATOM     16  C   UNL     1      22.786   8.039   4.939  1.00  0.00     0.016 A 
ATOM     17  C   UNL     1      23.644   8.945   4.308  1.00  0.00     0.047 A 
BRANCH  15  18
ATOM     18  O   UNL     1      25.066   9.524   2.428  1.00  0.00    -0.508 OA
ATOM     19  H   UNL     1      24.851  10.512   2.367  1.00  0.00     0.293 HD
ENDBRANCH  15  18
ENDBRANCH   1  12
BRANCH   2  20
ATOM     20  O   UNL     1      19.757   6.259   3.463  1.00  0.00    -0.502 OA
ATOM     21  H   UNL     1      20.144   7.134   3.129  1.00  0.00     0.293 HD
ENDBRANCH   2  20
BRANCH   6  22
ATOM     22  O   UNL     1      17.997   2.715   6.837  1.00  0.00    -0.507 OA
ATOM     23  H   UNL     1      17.670   1.761   6.937  1.00  0.00     0.293 HD
ENDBRANCH   6  22
BRANCH   8  24
ATOM     24  O   UNL     1      21.741   2.288   9.848  1.00  0.00    -0.508 OA
ATOM     25  H   UNL     1      21.250   2.269  10.734  1.00  0.00     0.293 HD
ENDBRANCH   8  24
TORSDOF 5
ENDMDL
