MODEL 1
REMARK VINA RESULT:    -3.388      0.000      0.000
REMARK INTER + INTRA:         -14.395
REMARK INTER:                  -8.537
REMARK INTRA:                  -5.858
REMARK UNBOUND:                -5.858
REMARK SMILES CCCCCCCCCCCCCCCCCCCCCCCCCCCC(=O)[O-]
REMARK SMILES IDX 15 1 16 2 17 3 18 4 19 5 20 6 21 7 22 8 23 9 24 10 25 11
REMARK SMILES IDX 26 12 27 13 28 14 29 15 30 16 14 17 13 18 12 19 11 20 10 21
REMARK SMILES IDX 9 22 8 23 7 24 6 25 5 26 4 27 3 28 2 29 1 30
REMARK H PARENT
REMARK Flexibility Score: inf
ROOT
ATOM      1  C   UNL     1      -0.677   8.479  35.707  1.00  0.00     0.000 C 
ENDROOT
BRANCH   1   2
ATOM      2  C   UNL     1      -1.865   8.796  36.633  1.00  0.00     0.000 C 
BRANCH   2   3
ATOM      3  C   UNL     1      -1.633  10.056  37.483  1.00  0.00     0.000 C 
BRANCH   3   4
ATOM      4  C   UNL     1      -0.209  10.124  38.061  1.00  0.00     0.000 C 
BRANCH   4   5
ATOM      5  C   UNL     1      -0.152   9.769  39.556  1.00  0.00     0.000 C 
BRANCH   5   6
ATOM      6  C   UNL     1       0.842   8.633  39.863  1.00  0.00     0.000 C 
BRANCH   6   7
ATOM      7  C   UNL     1       1.760   8.305  38.673  1.00  0.00     0.000 C 
BRANCH   7   8
ATOM      8  C   UNL     1       2.039   6.806  38.448  1.00  0.00     0.000 C 
BRANCH   8   9
ATOM      9  C   UNL     1       2.262   6.422  36.969  1.00  0.00     0.000 C 
BRANCH   9  10
ATOM     10  C   UNL     1       2.395   4.899  36.772  1.00  0.00     0.000 C 
BRANCH  10  11
ATOM     11  C   UNL     1       3.113   4.211  37.943  1.00  0.00     0.000 C 
BRANCH  11  12
ATOM     12  C   UNL     1       4.634   4.128  37.743  1.00  0.00     0.006 C 
BRANCH  12  13
ATOM     13  C   UNL     1       5.377   4.820  38.891  1.00  0.00     0.053 C 
BRANCH  13  14
ATOM     14  C   UNL     1       6.409   3.909  39.484  1.00  0.00     0.041 C 
ATOM     15  O   UNL     1       6.122   2.710  39.746  1.00  0.00    -0.550 OA
ATOM     16  O   UNL     1       7.691   4.382  39.736  1.00  0.00    -0.550 OA
ENDBRANCH  13  14
ENDBRANCH  12  13
ENDBRANCH  11  12
ENDBRANCH  10  11
ENDBRANCH   9  10
ENDBRANCH   8   9
ENDBRANCH   7   8
ENDBRANCH   6   7
ENDBRANCH   5   6
ENDBRANCH   4   5
ENDBRANCH   3   4
ENDBRANCH   2   3
ENDBRANCH   1   2
BRANCH   1  17
ATOM     17  C   UNL     1      -0.720   7.044  35.156  1.00  0.00     0.000 C 
BRANCH  17  18
ATOM     18  C   UNL     1      -1.767   6.169  35.863  1.00  0.00     0.000 C 
BRANCH  18  19
ATOM     19  C   UNL     1      -1.136   5.049  36.710  1.00  0.00     0.000 C 
BRANCH  19  20
ATOM     20  C   UNL     1      -1.712   4.901  38.134  1.00  0.00     0.000 C 
BRANCH  20  21
ATOM     21  C   UNL     1      -1.716   6.191  38.979  1.00  0.00     0.000 C 
BRANCH  21  22
ATOM     22  C   UNL     1      -3.097   6.608  39.520  1.00  0.00    -0.000 C 
BRANCH  22  23
ATOM     23  C   UNL     1      -3.068   7.714  40.596  1.00  0.00    -0.000 C 
BRANCH  23  24
ATOM     24  C   UNL     1      -2.716   7.227  42.014  1.00  0.00    -0.000 C 
BRANCH  24  25
ATOM     25  C   UNL     1      -1.658   8.107  42.700  1.00  0.00    -0.000 C 
BRANCH  25  26
ATOM     26  C   UNL     1      -0.377   7.331  43.047  1.00  0.00    -0.000 C 
BRANCH  26  27
ATOM     27  C   UNL     1      -0.391   5.894  42.494  1.00  0.00    -0.000 C 
BRANCH  27  28
ATOM     28  C   UNL     1       0.965   5.478  41.903  1.00  0.00    -0.000 C 
BRANCH  28  29
ATOM     29  C   UNL     1       0.844   4.324  40.897  1.00  0.00    -0.003 C 
ATOM     30  C   UNL     1      -0.320   3.403  41.254  1.00  0.00     0.004 C 
ENDBRANCH  28  29
ENDBRANCH  27  28
ENDBRANCH  26  27
ENDBRANCH  25  26
ENDBRANCH  24  25
ENDBRANCH  23  24
ENDBRANCH  22  23
ENDBRANCH  21  22
ENDBRANCH  20  21
ENDBRANCH  19  20
ENDBRANCH  18  19
ENDBRANCH  17  18
ENDBRANCH   1  17
TORSDOF 26
ENDMDL
MODEL 2
REMARK VINA RESULT:    -3.336      1.530      3.873
REMARK INTER + INTRA:         -14.265
REMARK INTER:                  -8.672
REMARK INTRA:                  -5.593
REMARK UNBOUND:                -5.858
REMARK SMILES CCCCCCCCCCCCCCCCCCCCCCCCCCCC(=O)[O-]
REMARK SMILES IDX 15 1 16 2 17 3 18 4 19 5 20 6 21 7 22 8 23 9 24 10 25 11
REMARK SMILES IDX 26 12 27 13 28 14 29 15 30 16 14 17 13 18 12 19 11 20 10 21
REMARK SMILES IDX 9 22 8 23 7 24 6 25 5 26 4 27 3 28 2 29 1 30
REMARK H PARENT
REMARK Flexibility Score: inf
ROOT
ATOM      1  C   UNL     1      -1.728   8.977  37.750  1.00  0.00     0.000 C 
ENDROOT
BRANCH   1   2
ATOM      2  C   UNL     1      -0.419   9.763  37.949  1.00  0.00     0.000 C 
BRANCH   2   3
ATOM      3  C   UNL     1       0.348   9.977  36.633  1.00  0.00     0.000 C 
BRANCH   3   4
ATOM      4  C   UNL     1      -0.019   8.939  35.559  1.00  0.00     0.000 C 
BRANCH   4   5
ATOM      5  C   UNL     1       0.703   9.177  34.224  1.00  0.00     0.000 C 
BRANCH   5   6
ATOM      6  C   UNL     1       1.141   7.869  33.539  1.00  0.00     0.000 C 
BRANCH   6   7
ATOM      7  C   UNL     1       0.288   6.660  33.960  1.00  0.00     0.000 C 
BRANCH   7   8
ATOM      8  C   UNL     1       1.038   5.316  34.036  1.00  0.00     0.000 C 
BRANCH   8   9
ATOM      9  C   UNL     1       2.568   5.439  33.862  1.00  0.00     0.000 C 
BRANCH   9  10
ATOM     10  C   UNL     1       3.338   5.028  35.132  1.00  0.00     0.000 C 
BRANCH  10  11
ATOM     11  C   UNL     1       2.813   3.720  35.745  1.00  0.00     0.000 C 
BRANCH  11  12
ATOM     12  C   UNL     1       3.185   3.566  37.228  1.00  0.00     0.006 C 
BRANCH  12  13
ATOM     13  C   UNL     1       4.262   4.579  37.631  1.00  0.00     0.053 C 
BRANCH  13  14
ATOM     14  C   UNL     1       5.238   3.968  38.589  1.00  0.00     0.041 C 
ATOM     15  O   UNL     1       5.250   2.721  38.773  1.00  0.00    -0.550 OA
ATOM     16  O   UNL     1       6.143   4.774  39.269  1.00  0.00    -0.550 OA
ENDBRANCH  13  14
ENDBRANCH  12  13
ENDBRANCH  11  12
ENDBRANCH  10  11
ENDBRANCH   9  10
ENDBRANCH   8   9
ENDBRANCH   7   8
ENDBRANCH   6   7
ENDBRANCH   5   6
ENDBRANCH   4   5
ENDBRANCH   3   4
ENDBRANCH   2   3
ENDBRANCH   1   2
BRANCH   1  17
ATOM     17  C   UNL     1      -2.449   8.680  39.074  1.00  0.00     0.000 C 
BRANCH  17  18
ATOM     18  C   UNL     1      -2.649   7.175  39.315  1.00  0.00     0.000 C 
BRANCH  18  19
ATOM     19  C   UNL     1      -2.939   6.838  40.789  1.00  0.00     0.000 C 
BRANCH  19  20
ATOM     20  C   UNL     1      -2.741   8.006  41.779  1.00  0.00     0.000 C 
BRANCH  20  21
ATOM     21  C   UNL     1      -1.438   7.957  42.602  1.00  0.00     0.000 C 
BRANCH  21  22
ATOM     22  C   UNL     1      -0.294   8.837  42.058  1.00  0.00    -0.000 C 
BRANCH  22  23
ATOM     23  C   UNL     1       0.671   8.124  41.089  1.00  0.00    -0.000 C 
BRANCH  23  24
ATOM     24  C   UNL     1       0.715   6.591  41.233  1.00  0.00    -0.000 C 
BRANCH  24  25
ATOM     25  C   UNL     1       1.452   5.905  40.069  1.00  0.00    -0.000 C 
BRANCH  25  26
ATOM     26  C   UNL     1       1.690   6.850  38.880  1.00  0.00    -0.000 C 
BRANCH  26  27
ATOM     27  C   UNL     1       0.927   6.412  37.617  1.00  0.00    -0.000 C 
BRANCH  27  28
ATOM     28  C   UNL     1       0.054   5.171  37.858  1.00  0.00    -0.000 C 
BRANCH  28  29
ATOM     29  C   UNL     1      -1.161   5.109  36.921  1.00  0.00    -0.003 C 
ATOM     30  C   UNL     1      -1.429   3.677  36.462  1.00  0.00     0.004 C 
ENDBRANCH  28  29
ENDBRANCH  27  28
ENDBRANCH  26  27
ENDBRANCH  25  26
ENDBRANCH  24  25
ENDBRANCH  23  24
ENDBRANCH  22  23
ENDBRANCH  21  22
ENDBRANCH  20  21
ENDBRANCH  19  20
ENDBRANCH  18  19
ENDBRANCH  17  18
ENDBRANCH   1  17
TORSDOF 26
ENDMDL
MODEL 3
REMARK VINA RESULT:    -3.328      3.074      6.951
REMARK INTER + INTRA:         -14.244
REMARK INTER:                  -8.452
REMARK INTRA:                  -5.792
REMARK UNBOUND:                -5.858
REMARK SMILES CCCCCCCCCCCCCCCCCCCCCCCCCCCC(=O)[O-]
REMARK SMILES IDX 15 1 16 2 17 3 18 4 19 5 20 6 21 7 22 8 23 9 24 10 25 11
REMARK SMILES IDX 26 12 27 13 28 14 29 15 30 16 14 17 13 18 12 19 11 20 10 21
REMARK SMILES IDX 9 22 8 23 7 24 6 25 5 26 4 27 3 28 2 29 1 30
REMARK H PARENT
REMARK Flexibility Score: inf
ROOT
ATOM      1  C   UNL     1      -0.953   5.116  38.994  1.00  0.00     0.000 C 
ENDROOT
BRANCH   1   2
ATOM      2  C   UNL     1      -2.339   5.610  38.540  1.00  0.00     0.000 C 
BRANCH   2   3
ATOM      3  C   UNL     1      -3.278   5.903  39.722  1.00  0.00     0.000 C 
BRANCH   3   4
ATOM      4  C   UNL     1      -3.018   4.982  40.926  1.00  0.00     0.000 C 
BRANCH   4   5
ATOM      5  C   UNL     1      -2.727   5.757  42.221  1.00  0.00     0.000 C 
BRANCH   5   6
ATOM      6  C   UNL     1      -2.849   7.282  42.045  1.00  0.00     0.000 C 
BRANCH   6   7
ATOM      7  C   UNL     1      -1.552   8.030  42.398  1.00  0.00     0.000 C 
BRANCH   7   8
ATOM      8  C   UNL     1      -0.458   8.004  41.312  1.00  0.00     0.000 C 
BRANCH   8   9
ATOM      9  C   UNL     1       0.012   9.404  40.860  1.00  0.00     0.000 C 
BRANCH   9  10
ATOM     10  C   UNL     1      -0.257   9.657  39.364  1.00  0.00     0.000 C 
BRANCH  10  11
ATOM     11  C   UNL     1      -1.678   9.254  38.941  1.00  0.00     0.000 C 
BRANCH  11  12
ATOM     12  C   UNL     1      -1.836   9.141  37.416  1.00  0.00     0.006 C 
BRANCH  12  13
ATOM     13  C   UNL     1      -0.469   9.120  36.723  1.00  0.00     0.053 C 
BRANCH  13  14
ATOM     14  C   UNL     1      -0.506   8.259  35.498  1.00  0.00     0.041 C 
ATOM     15  O   UNL     1       0.335   8.432  34.575  1.00  0.00    -0.550 OA
ATOM     16  O   UNL     1      -1.462   7.256  35.381  1.00  0.00    -0.550 OA
ENDBRANCH  13  14
ENDBRANCH  12  13
ENDBRANCH  11  12
ENDBRANCH  10  11
ENDBRANCH   9  10
ENDBRANCH   8   9
ENDBRANCH   7   8
ENDBRANCH   6   7
ENDBRANCH   5   6
ENDBRANCH   4   5
ENDBRANCH   3   4
ENDBRANCH   2   3
ENDBRANCH   1   2
BRANCH   1  17
ATOM     17  C   UNL     1       0.198   5.929  38.379  1.00  0.00     0.000 C 
BRANCH  17  18
ATOM     18  C   UNL     1       1.517   5.765  39.151  1.00  0.00     0.000 C 
BRANCH  18  19
ATOM     19  C   UNL     1       2.758   5.905  38.250  1.00  0.00     0.000 C 
BRANCH  19  20
ATOM     20  C   UNL     1       3.983   5.074  38.687  1.00  0.00     0.000 C 
BRANCH  20  21
ATOM     21  C   UNL     1       4.266   3.822  37.832  1.00  0.00     0.000 C 
BRANCH  21  22
ATOM     22  C   UNL     1       3.386   2.600  38.160  1.00  0.00    -0.000 C 
BRANCH  22  23
ATOM     23  C   UNL     1       2.431   2.164  37.030  1.00  0.00    -0.000 C 
BRANCH  23  24
ATOM     24  C   UNL     1       0.936   2.381  37.327  1.00  0.00    -0.000 C 
BRANCH  24  25
ATOM     25  C   UNL     1       0.165   2.949  36.122  1.00  0.00    -0.000 C 
BRANCH  25  26
ATOM     26  C   UNL     1       1.096   3.408  34.988  1.00  0.00    -0.000 C 
BRANCH  26  27
ATOM     27  C   UNL     1       1.249   4.939  34.935  1.00  0.00    -0.000 C 
BRANCH  27  28
ATOM     28  C   UNL     1       2.694   5.376  34.647  1.00  0.00    -0.000 C 
BRANCH  28  29
ATOM     29  C   UNL     1       3.423   4.420  33.692  1.00  0.00    -0.003 C 
ATOM     30  C   UNL     1       4.856   4.168  34.153  1.00  0.00     0.004 C 
ENDBRANCH  28  29
ENDBRANCH  27  28
ENDBRANCH  26  27
ENDBRANCH  25  26
ENDBRANCH  24  25
ENDBRANCH  23  24
ENDBRANCH  22  23
ENDBRANCH  21  22
ENDBRANCH  20  21
ENDBRANCH  19  20
ENDBRANCH  18  19
ENDBRANCH  17  18
ENDBRANCH   1  17
TORSDOF 26
ENDMDL
MODEL 4
REMARK VINA RESULT:    -3.314      2.499      3.097
REMARK INTER + INTRA:         -14.208
REMARK INTER:                  -8.504
REMARK INTRA:                  -5.704
REMARK UNBOUND:                -5.858
REMARK SMILES CCCCCCCCCCCCCCCCCCCCCCCCCCCC(=O)[O-]
REMARK SMILES IDX 15 1 16 2 17 3 18 4 19 5 20 6 21 7 22 8 23 9 24 10 25 11
REMARK SMILES IDX 26 12 27 13 28 14 29 15 30 16 14 17 13 18 12 19 11 20 10 21
REMARK SMILES IDX 9 22 8 23 7 24 6 25 5 26 4 27 3 28 2 29 1 30
REMARK H PARENT
REMARK Flexibility Score: inf
ROOT
ATOM      1  C   UNL     1      -0.560   8.957  35.780  1.00  0.00     0.000 C 
ENDROOT
BRANCH   1   2
ATOM      2  C   UNL     1      -1.853   9.118  36.600  1.00  0.00     0.000 C 
BRANCH   2   3
ATOM      3  C   UNL     1      -1.684  10.080  37.788  1.00  0.00     0.000 C 
BRANCH   3   4
ATOM      4  C   UNL     1      -0.240  10.120  38.316  1.00  0.00     0.000 C 
BRANCH   4   5
ATOM      5  C   UNL     1      -0.111   9.583  39.750  1.00  0.00     0.000 C 
BRANCH   5   6
ATOM      6  C   UNL     1       1.075   8.617  39.922  1.00  0.00     0.000 C 
BRANCH   6   7
ATOM      7  C   UNL     1       1.706   8.200  38.583  1.00  0.00     0.000 C 
BRANCH   7   8
ATOM      8  C   UNL     1       1.776   6.682  38.329  1.00  0.00     0.000 C 
BRANCH   8   9
ATOM      9  C   UNL     1       2.569   6.291  37.063  1.00  0.00     0.000 C 
BRANCH   9  10
ATOM     10  C   UNL     1       3.245   4.912  37.198  1.00  0.00     0.000 C 
BRANCH  10  11
ATOM     11  C   UNL     1       3.181   4.093  35.899  1.00  0.00     0.000 C 
BRANCH  11  12
ATOM     12  C   UNL     1       1.914   4.377  35.077  1.00  0.00     0.006 C 
BRANCH  12  13
ATOM     13  C   UNL     1       2.246   5.191  33.822  1.00  0.00     0.053 C 
BRANCH  13  14
ATOM     14  C   UNL     1       2.327   4.304  32.617  1.00  0.00     0.041 C 
ATOM     15  O   UNL     1       1.383   4.278  31.783  1.00  0.00    -0.550 OA
ATOM     16  O   UNL     1       3.452   3.514  32.410  1.00  0.00    -0.550 OA
ENDBRANCH  13  14
ENDBRANCH  12  13
ENDBRANCH  11  12
ENDBRANCH  10  11
ENDBRANCH   9  10
ENDBRANCH   8   9
ENDBRANCH   7   8
ENDBRANCH   6   7
ENDBRANCH   5   6
ENDBRANCH   4   5
ENDBRANCH   3   4
ENDBRANCH   2   3
ENDBRANCH   1   2
BRANCH   1  17
ATOM     17  C   UNL     1      -0.382   7.534  35.226  1.00  0.00     0.000 C 
BRANCH  17  18
ATOM     18  C   UNL     1      -1.537   6.597  35.616  1.00  0.00     0.000 C 
BRANCH  18  19
ATOM     19  C   UNL     1      -1.114   5.517  36.629  1.00  0.00     0.000 C 
BRANCH  19  20
ATOM     20  C   UNL     1      -2.070   5.331  37.826  1.00  0.00     0.000 C 
BRANCH  20  21
ATOM     21  C   UNL     1      -1.906   6.359  38.964  1.00  0.00     0.000 C 
BRANCH  21  22
ATOM     22  C   UNL     1      -3.209   6.720  39.705  1.00  0.00    -0.000 C 
BRANCH  22  23
ATOM     23  C   UNL     1      -3.085   7.887  40.706  1.00  0.00    -0.000 C 
BRANCH  23  24
ATOM     24  C   UNL     1      -2.868   7.461  42.170  1.00  0.00    -0.000 C 
BRANCH  24  25
ATOM     25  C   UNL     1      -1.707   8.214  42.844  1.00  0.00    -0.000 C 
BRANCH  25  26
ATOM     26  C   UNL     1      -0.448   7.345  42.998  1.00  0.00    -0.000 C 
BRANCH  26  27
ATOM     27  C   UNL     1      -0.634   5.931  42.420  1.00  0.00    -0.000 C 
BRANCH  27  28
ATOM     28  C   UNL     1       0.564   5.480  41.571  1.00  0.00    -0.000 C 
BRANCH  28  29
ATOM     29  C   UNL     1       0.303   4.160  40.831  1.00  0.00    -0.003 C 
ATOM     30  C   UNL     1       1.609   3.532  40.349  1.00  0.00     0.004 C 
ENDBRANCH  28  29
ENDBRANCH  27  28
ENDBRANCH  26  27
ENDBRANCH  25  26
ENDBRANCH  24  25
ENDBRANCH  23  24
ENDBRANCH  22  23
ENDBRANCH  21  22
ENDBRANCH  20  21
ENDBRANCH  19  20
ENDBRANCH  18  19
ENDBRANCH  17  18
ENDBRANCH   1  17
TORSDOF 26
ENDMDL
MODEL 5
REMARK VINA RESULT:    -3.302      2.795      5.777
REMARK INTER + INTRA:         -14.180
REMARK INTER:                  -9.077
REMARK INTRA:                  -5.103
REMARK UNBOUND:                -5.858
REMARK SMILES CCCCCCCCCCCCCCCCCCCCCCCCCCCC(=O)[O-]
REMARK SMILES IDX 15 1 16 2 17 3 18 4 19 5 20 6 21 7 22 8 23 9 24 10 25 11
REMARK SMILES IDX 26 12 27 13 28 14 29 15 30 16 14 17 13 18 12 19 11 20 10 21
REMARK SMILES IDX 9 22 8 23 7 24 6 25 5 26 4 27 3 28 2 29 1 30
REMARK H PARENT
REMARK Flexibility Score: inf
ROOT
ATOM      1  C   UNL     1      -2.252   9.505  38.292  1.00  0.00     0.000 C 
ENDROOT
BRANCH   1   2
ATOM      2  C   UNL     1      -2.290   8.061  38.823  1.00  0.00     0.000 C 
BRANCH   2   3
ATOM      3  C   UNL     1      -2.985   7.952  40.191  1.00  0.00     0.000 C 
BRANCH   3   4
ATOM      4  C   UNL     1      -1.985   7.894  41.358  1.00  0.00     0.000 C 
BRANCH   4   5
ATOM      5  C   UNL     1      -2.671   7.787  42.730  1.00  0.00     0.000 C 
BRANCH   5   6
ATOM      6  C   UNL     1      -2.994   6.334  43.124  1.00  0.00     0.000 C 
BRANCH   6   7
ATOM      7  C   UNL     1      -1.885   5.346  42.727  1.00  0.00     0.000 C 
BRANCH   7   8
ATOM      8  C   UNL     1      -2.284   4.294  41.674  1.00  0.00     0.000 C 
BRANCH   8   9
ATOM      9  C   UNL     1      -1.254   4.120  40.537  1.00  0.00     0.000 C 
BRANCH   9  10
ATOM     10  C   UNL     1      -1.826   4.516  39.162  1.00  0.00     0.000 C 
BRANCH  10  11
ATOM     11  C   UNL     1      -0.879   4.166  38.003  1.00  0.00     0.000 C 
BRANCH  11  12
ATOM     12  C   UNL     1      -1.433   4.587  36.633  1.00  0.00     0.006 C 
BRANCH  12  13
ATOM     13  C   UNL     1      -1.728   3.362  35.761  1.00  0.00     0.053 C 
BRANCH  13  14
ATOM     14  C   UNL     1      -0.623   3.129  34.777  1.00  0.00     0.041 C 
ATOM     15  O   UNL     1      -0.265   4.050  33.994  1.00  0.00    -0.550 OA
ATOM     16  O   UNL     1       0.021   1.897  34.733  1.00  0.00    -0.550 OA
ENDBRANCH  13  14
ENDBRANCH  12  13
ENDBRANCH  11  12
ENDBRANCH  10  11
ENDBRANCH   9  10
ENDBRANCH   8   9
ENDBRANCH   7   8
ENDBRANCH   6   7
ENDBRANCH   5   6
ENDBRANCH   4   5
ENDBRANCH   3   4
ENDBRANCH   2   3
ENDBRANCH   1   2
BRANCH   1  17
ATOM     17  C   UNL     1      -1.776   9.589  36.832  1.00  0.00     0.000 C 
BRANCH  17  18
ATOM     18  C   UNL     1      -1.278   8.238  36.294  1.00  0.00     0.000 C 
BRANCH  18  19
ATOM     19  C   UNL     1       0.219   8.252  35.935  1.00  0.00     0.000 C 
BRANCH  19  20
ATOM     20  C   UNL     1       1.000   9.488  36.430  1.00  0.00     0.000 C 
BRANCH  20  21
ATOM     21  C   UNL     1       1.962   9.229  37.607  1.00  0.00     0.000 C 
BRANCH  21  22
ATOM     22  C   UNL     1       1.359   9.471  39.005  1.00  0.00    -0.000 C 
BRANCH  22  23
ATOM     23  C   UNL     1       1.275   8.220  39.903  1.00  0.00    -0.000 C 
BRANCH  23  24
ATOM     24  C   UNL     1       1.039   6.898  39.150  1.00  0.00    -0.000 C 
BRANCH  24  25
ATOM     25  C   UNL     1       2.156   5.868  39.389  1.00  0.00    -0.000 C 
BRANCH  25  26
ATOM     26  C   UNL     1       3.065   5.685  38.163  1.00  0.00    -0.000 C 
BRANCH  26  27
ATOM     27  C   UNL     1       2.307   5.125  36.946  1.00  0.00    -0.000 C 
BRANCH  27  28
ATOM     28  C   UNL     1       3.190   5.038  35.692  1.00  0.00    -0.000 C 
BRANCH  28  29
ATOM     29  C   UNL     1       3.143   3.654  35.028  1.00  0.00    -0.003 C 
ATOM     30  C   UNL     1       3.471   3.746  33.540  1.00  0.00     0.004 C 
ENDBRANCH  28  29
ENDBRANCH  27  28
ENDBRANCH  26  27
ENDBRANCH  25  26
ENDBRANCH  24  25
ENDBRANCH  23  24
ENDBRANCH  22  23
ENDBRANCH  21  22
ENDBRANCH  20  21
ENDBRANCH  19  20
ENDBRANCH  18  19
ENDBRANCH  17  18
ENDBRANCH   1  17
TORSDOF 26
ENDMDL
MODEL 6
REMARK VINA RESULT:    -3.297      2.294      5.624
REMARK INTER + INTRA:         -14.166
REMARK INTER:                  -8.622
REMARK INTRA:                  -5.544
REMARK UNBOUND:                -5.858
REMARK SMILES CCCCCCCCCCCCCCCCCCCCCCCCCCCC(=O)[O-]
REMARK SMILES IDX 15 1 16 2 17 3 18 4 19 5 20 6 21 7 22 8 23 9 24 10 25 11
REMARK SMILES IDX 26 12 27 13 28 14 29 15 30 16 14 17 13 18 12 19 11 20 10 21
REMARK SMILES IDX 9 22 8 23 7 24 6 25 5 26 4 27 3 28 2 29 1 30
REMARK H PARENT
REMARK Flexibility Score: inf
ROOT
ATOM      1  C   UNL     1       1.735   9.654  38.686  1.00  0.00     0.000 C 
ENDROOT
BRANCH   1   2
ATOM      2  C   UNL     1       0.632  10.101  39.663  1.00  0.00     0.000 C 
BRANCH   2   3
ATOM      3  C   UNL     1       0.632   9.286  40.967  1.00  0.00     0.000 C 
BRANCH   3   4
ATOM      4  C   UNL     1      -0.745   8.675  41.283  1.00  0.00     0.000 C 
BRANCH   4   5
ATOM      5  C   UNL     1      -1.602   8.451  40.027  1.00  0.00     0.000 C 
BRANCH   5   6
ATOM      6  C   UNL     1      -3.005   7.905  40.351  1.00  0.00     0.000 C 
BRANCH   6   7
ATOM      7  C   UNL     1      -3.223   6.472  39.836  1.00  0.00     0.000 C 
BRANCH   7   8
ATOM      8  C   UNL     1      -2.370   5.387  40.523  1.00  0.00     0.000 C 
BRANCH   8   9
ATOM      9  C   UNL     1      -1.517   4.547  39.548  1.00  0.00     0.000 C 
BRANCH   9  10
ATOM     10  C   UNL     1      -0.104   4.268  40.096  1.00  0.00     0.000 C 
BRANCH  10  11
ATOM     11  C   UNL     1       0.707   5.553  40.323  1.00  0.00     0.000 C 
BRANCH  11  12
ATOM     12  C   UNL     1       1.358   6.082  39.035  1.00  0.00     0.006 C 
BRANCH  12  13
ATOM     13  C   UNL     1       2.765   5.503  38.854  1.00  0.00     0.053 C 
BRANCH  13  14
ATOM     14  C   UNL     1       3.139   5.454  37.404  1.00  0.00     0.041 C 
ATOM     15  O   UNL     1       2.588   6.233  36.580  1.00  0.00    -0.550 OA
ATOM     16  O   UNL     1       4.105   4.557  36.965  1.00  0.00    -0.550 OA
ENDBRANCH  13  14
ENDBRANCH  12  13
ENDBRANCH  11  12
ENDBRANCH  10  11
ENDBRANCH   9  10
ENDBRANCH   8   9
ENDBRANCH   7   8
ENDBRANCH   6   7
ENDBRANCH   5   6
ENDBRANCH   4   5
ENDBRANCH   3   4
ENDBRANCH   2   3
ENDBRANCH   1   2
BRANCH   1  17
ATOM     17  C   UNL     1       1.339   9.852  37.213  1.00  0.00     0.000 C 
BRANCH  17  18
ATOM     18  C   UNL     1      -0.168  10.091  37.032  1.00  0.00     0.000 C 
BRANCH  18  19
ATOM     19  C   UNL     1      -0.831   9.052  36.109  1.00  0.00     0.000 C 
BRANCH  19  20
ATOM     20  C   UNL     1      -1.347   7.781  36.816  1.00  0.00     0.000 C 
BRANCH  20  21
ATOM     21  C   UNL     1      -0.845   6.449  36.222  1.00  0.00     0.000 C 
BRANCH  21  22
ATOM     22  C   UNL     1      -1.940   5.388  35.992  1.00  0.00    -0.000 C 
BRANCH  22  23
ATOM     23  C   UNL     1      -1.446   3.927  36.019  1.00  0.00    -0.000 C 
BRANCH  23  24
ATOM     24  C   UNL     1       0.041   3.755  36.381  1.00  0.00    -0.000 C 
BRANCH  24  25
ATOM     25  C   UNL     1       0.578   2.354  36.039  1.00  0.00    -0.000 C 
BRANCH  25  26
ATOM     26  C   UNL     1       1.893   2.402  35.243  1.00  0.00    -0.000 C 
BRANCH  26  27
ATOM     27  C   UNL     1       1.930   3.568  34.239  1.00  0.00    -0.000 C 
BRANCH  27  28
ATOM     28  C   UNL     1       1.256   3.216  32.904  1.00  0.00    -0.000 C 
BRANCH  28  29
ATOM     29  C   UNL     1       0.170   4.226  32.504  1.00  0.00    -0.003 C 
ATOM     30  C   UNL     1       0.524   5.632  32.983  1.00  0.00     0.004 C 
ENDBRANCH  28  29
ENDBRANCH  27  28
ENDBRANCH  26  27
ENDBRANCH  25  26
ENDBRANCH  24  25
ENDBRANCH  23  24
ENDBRANCH  22  23
ENDBRANCH  21  22
ENDBRANCH  20  21
ENDBRANCH  19  20
ENDBRANCH  18  19
ENDBRANCH  17  18
ENDBRANCH   1  17
TORSDOF 26
ENDMDL
MODEL 7
REMARK VINA RESULT:    -3.279      1.660      4.486
REMARK INTER + INTRA:         -14.121
REMARK INTER:                  -8.648
REMARK INTRA:                  -5.473
REMARK UNBOUND:                -5.858
REMARK SMILES CCCCCCCCCCCCCCCCCCCCCCCCCCCC(=O)[O-]
REMARK SMILES IDX 15 1 16 2 17 3 18 4 19 5 20 6 21 7 22 8 23 9 24 10 25 11
REMARK SMILES IDX 26 12 27 13 28 14 29 15 30 16 14 17 13 18 12 19 11 20 10 21
REMARK SMILES IDX 9 22 8 23 7 24 6 25 5 26 4 27 3 28 2 29 1 30
REMARK H PARENT
REMARK Flexibility Score: inf
ROOT
ATOM      1  C   UNL     1      -1.937   7.236  38.532  1.00  0.00     0.000 C 
ENDROOT
BRANCH   1   2
ATOM      2  C   UNL     1      -2.665   6.107  39.283  1.00  0.00     0.000 C 
BRANCH   2   3
ATOM      3  C   UNL     1      -1.805   4.840  39.426  1.00  0.00     0.000 C 
BRANCH   3   4
ATOM      4  C   UNL     1      -0.697   4.756  38.362  1.00  0.00     0.000 C 
BRANCH   4   5
ATOM      5  C   UNL     1      -1.030   3.775  37.227  1.00  0.00     0.000 C 
BRANCH   5   6
ATOM      6  C   UNL     1      -1.723   4.457  36.033  1.00  0.00     0.000 C 
BRANCH   6   7
ATOM      7  C   UNL     1      -0.726   5.041  35.017  1.00  0.00     0.000 C 
BRANCH   7   8
ATOM      8  C   UNL     1      -0.311   4.090  33.877  1.00  0.00     0.000 C 
BRANCH   8   9
ATOM      9  C   UNL     1       1.051   3.398  34.100  1.00  0.00     0.000 C 
BRANCH   9  10
ATOM     10  C   UNL     1       2.016   4.259  34.939  1.00  0.00     0.000 C 
BRANCH  10  11
ATOM     11  C   UNL     1       3.492   3.969  34.626  1.00  0.00     0.000 C 
BRANCH  11  12
ATOM     12  C   UNL     1       4.447   4.522  35.696  1.00  0.00     0.006 C 
BRANCH  12  13
ATOM     13  C   UNL     1       3.680   4.926  36.959  1.00  0.00     0.053 C 
BRANCH  13  14
ATOM     14  C   UNL     1       4.295   4.308  38.177  1.00  0.00     0.041 C 
ATOM     15  O   UNL     1       4.946   5.019  38.990  1.00  0.00    -0.550 OA
ATOM     16  O   UNL     1       4.140   2.949  38.421  1.00  0.00    -0.550 OA
ENDBRANCH  13  14
ENDBRANCH  12  13
ENDBRANCH  11  12
ENDBRANCH  10  11
ENDBRANCH   9  10
ENDBRANCH   8   9
ENDBRANCH   7   8
ENDBRANCH   6   7
ENDBRANCH   5   6
ENDBRANCH   4   5
ENDBRANCH   3   4
ENDBRANCH   2   3
ENDBRANCH   1   2
BRANCH   1  17
ATOM     17  C   UNL     1      -2.258   8.630  39.098  1.00  0.00     0.000 C 
BRANCH  17  18
ATOM     18  C   UNL     1      -1.832   9.764  38.152  1.00  0.00     0.000 C 
BRANCH  18  19
ATOM     19  C   UNL     1      -1.795   9.330  36.676  1.00  0.00     0.000 C 
BRANCH  19  20
ATOM     20  C   UNL     1      -0.479   9.642  35.933  1.00  0.00     0.000 C 
BRANCH  20  21
ATOM     21  C   UNL     1       0.349   8.409  35.516  1.00  0.00     0.000 C 
BRANCH  21  22
ATOM     22  C   UNL     1       1.383   7.939  36.557  1.00  0.00    -0.000 C 
BRANCH  22  23
ATOM     23  C   UNL     1       1.766   8.994  37.615  1.00  0.00    -0.000 C 
BRANCH  23  24
ATOM     24  C   UNL     1       1.529   8.563  39.074  1.00  0.00    -0.000 C 
BRANCH  24  25
ATOM     25  C   UNL     1       1.811   7.069  39.307  1.00  0.00    -0.000 C 
BRANCH  25  26
ATOM     26  C   UNL     1       1.271   6.568  40.656  1.00  0.00    -0.000 C 
BRANCH  26  27
ATOM     27  C   UNL     1       0.542   7.671  41.445  1.00  0.00    -0.000 C 
BRANCH  27  28
ATOM     28  C   UNL     1      -0.662   7.132  42.233  1.00  0.00    -0.000 C 
BRANCH  28  29
ATOM     29  C   UNL     1      -1.624   8.243  42.678  1.00  0.00    -0.003 C 
ATOM     30  C   UNL     1      -3.067   7.745  42.698  1.00  0.00     0.004 C 
ENDBRANCH  28  29
ENDBRANCH  27  28
ENDBRANCH  26  27
ENDBRANCH  25  26
ENDBRANCH  24  25
ENDBRANCH  23  24
ENDBRANCH  22  23
ENDBRANCH  21  22
ENDBRANCH  20  21
ENDBRANCH  19  20
ENDBRANCH  18  19
ENDBRANCH  17  18
ENDBRANCH   1  17
TORSDOF 26
ENDMDL
MODEL 8
REMARK VINA RESULT:    -3.277      1.857      4.418
REMARK INTER + INTRA:         -14.115
REMARK INTER:                  -9.055
REMARK INTRA:                  -5.060
REMARK UNBOUND:                -5.858
REMARK SMILES CCCCCCCCCCCCCCCCCCCCCCCCCCCC(=O)[O-]
REMARK SMILES IDX 15 1 16 2 17 3 18 4 19 5 20 6 21 7 22 8 23 9 24 10 25 11
REMARK SMILES IDX 26 12 27 13 28 14 29 15 30 16 14 17 13 18 12 19 11 20 10 21
REMARK SMILES IDX 9 22 8 23 7 24 6 25 5 26 4 27 3 28 2 29 1 30
REMARK H PARENT
REMARK Flexibility Score: inf
ROOT
ATOM      1  C   UNL     1      -1.998   5.027  39.437  1.00  0.00     0.000 C 
ENDROOT
BRANCH   1   2
ATOM      2  C   UNL     1      -1.094   5.073  38.191  1.00  0.00     0.000 C 
BRANCH   2   3
ATOM      3  C   UNL     1      -1.891   4.974  36.879  1.00  0.00     0.000 C 
BRANCH   3   4
ATOM      4  C   UNL     1      -1.570   6.120  35.905  1.00  0.00     0.000 C 
BRANCH   4   5
ATOM      5  C   UNL     1      -0.169   6.004  35.284  1.00  0.00     0.000 C 
BRANCH   5   6
ATOM      6  C   UNL     1       0.087   7.053  34.186  1.00  0.00     0.000 C 
BRANCH   6   7
ATOM      7  C   UNL     1       1.431   6.849  33.467  1.00  0.00     0.000 C 
BRANCH   7   8
ATOM      8  C   UNL     1       1.471   5.685  32.457  1.00  0.00     0.000 C 
BRANCH   8   9
ATOM      9  C   UNL     1       2.323   4.482  32.917  1.00  0.00     0.000 C 
BRANCH   9  10
ATOM     10  C   UNL     1       3.412   4.888  33.929  1.00  0.00     0.000 C 
BRANCH  10  11
ATOM     11  C   UNL     1       3.932   3.697  34.749  1.00  0.00     0.000 C 
BRANCH  11  12
ATOM     12  C   UNL     1       3.365   3.664  36.177  1.00  0.00     0.006 C 
BRANCH  12  13
ATOM     13  C   UNL     1       3.671   4.969  36.919  1.00  0.00     0.053 C 
BRANCH  13  14
ATOM     14  C   UNL     1       3.880   4.715  38.380  1.00  0.00     0.041 C 
ATOM     15  O   UNL     1       2.983   4.149  39.061  1.00  0.00    -0.550 OA
ATOM     16  O   UNL     1       5.071   5.093  38.989  1.00  0.00    -0.550 OA
ENDBRANCH  13  14
ENDBRANCH  12  13
ENDBRANCH  11  12
ENDBRANCH  10  11
ENDBRANCH   9  10
ENDBRANCH   8   9
ENDBRANCH   7   8
ENDBRANCH   6   7
ENDBRANCH   5   6
ENDBRANCH   4   5
ENDBRANCH   3   4
ENDBRANCH   2   3
ENDBRANCH   1   2
BRANCH   1  17
ATOM     17  C   UNL     1      -3.215   5.960  39.323  1.00  0.00     0.000 C 
BRANCH  17  18
ATOM     18  C   UNL     1      -3.237   7.039  40.417  1.00  0.00     0.000 C 
BRANCH  18  19
ATOM     19  C   UNL     1      -2.482   8.318  40.011  1.00  0.00     0.000 C 
BRANCH  19  20
ATOM     20  C   UNL     1      -2.404   8.578  38.492  1.00  0.00     0.000 C 
BRANCH  20  21
ATOM     21  C   UNL     1      -1.535   9.783  38.075  1.00  0.00     0.000 C 
BRANCH  21  22
ATOM     22  C   UNL     1      -0.863   9.651  36.694  1.00  0.00    -0.000 C 
BRANCH  22  23
ATOM     23  C   UNL     1       0.680   9.651  36.719  1.00  0.00    -0.000 C 
BRANCH  23  24
ATOM     24  C   UNL     1       1.304   9.264  38.073  1.00  0.00    -0.000 C 
BRANCH  24  25
ATOM     25  C   UNL     1       1.479   7.744  38.235  1.00  0.00    -0.000 C 
BRANCH  25  26
ATOM     26  C   UNL     1       1.467   7.300  39.707  1.00  0.00    -0.000 C 
BRANCH  26  27
ATOM     27  C   UNL     1       0.807   8.341  40.630  1.00  0.00    -0.000 C 
BRANCH  27  28
ATOM     28  C   UNL     1       1.047   8.044  42.118  1.00  0.00    -0.000 C 
BRANCH  28  29
ATOM     29  C   UNL     1      -0.231   7.607  42.849  1.00  0.00    -0.003 C 
ATOM     30  C   UNL     1      -0.451   6.102  42.720  1.00  0.00     0.004 C 
ENDBRANCH  28  29
ENDBRANCH  27  28
ENDBRANCH  26  27
ENDBRANCH  25  26
ENDBRANCH  24  25
ENDBRANCH  23  24
ENDBRANCH  22  23
ENDBRANCH  21  22
ENDBRANCH  20  21
ENDBRANCH  19  20
ENDBRANCH  18  19
ENDBRANCH  17  18
ENDBRANCH   1  17
TORSDOF 26
ENDMDL
MODEL 9
REMARK VINA RESULT:    -3.264      3.032      6.011
REMARK INTER + INTRA:         -14.084
REMARK INTER:                  -8.171
REMARK INTRA:                  -5.913
REMARK UNBOUND:                -5.858
REMARK SMILES CCCCCCCCCCCCCCCCCCCCCCCCCCCC(=O)[O-]
REMARK SMILES IDX 15 1 16 2 17 3 18 4 19 5 20 6 21 7 22 8 23 9 24 10 25 11
REMARK SMILES IDX 26 12 27 13 28 14 29 15 30 16 14 17 13 18 12 19 11 20 10 21
REMARK SMILES IDX 9 22 8 23 7 24 6 25 5 26 4 27 3 28 2 29 1 30
REMARK H PARENT
REMARK Flexibility Score: inf
ROOT
ATOM      1  C   UNL     1      -2.443   5.663  38.745  1.00  0.00     0.000 C 
ENDROOT
BRANCH   1   2
ATOM      2  C   UNL     1      -3.329   6.475  39.707  1.00  0.00     0.000 C 
BRANCH   2   3
ATOM      3  C   UNL     1      -2.755   7.871  40.003  1.00  0.00     0.000 C 
BRANCH   3   4
ATOM      4  C   UNL     1      -2.238   8.578  38.738  1.00  0.00     0.000 C 
BRANCH   4   5
ATOM      5  C   UNL     1      -1.056   9.519  39.018  1.00  0.00     0.000 C 
BRANCH   5   6
ATOM      6  C   UNL     1      -0.477   9.347  40.435  1.00  0.00     0.000 C 
BRANCH   6   7
ATOM      7  C   UNL     1       0.948   8.768  40.431  1.00  0.00     0.000 C 
BRANCH   7   8
ATOM      8  C   UNL     1       1.045   7.254  40.157  1.00  0.00     0.000 C 
BRANCH   8   9
ATOM      9  C   UNL     1       1.956   6.888  38.965  1.00  0.00     0.000 C 
BRANCH   9  10
ATOM     10  C   UNL     1       1.205   6.927  37.620  1.00  0.00     0.000 C 
BRANCH  10  11
ATOM     11  C   UNL     1       1.558   8.166  36.782  1.00  0.00     0.000 C 
BRANCH  11  12
ATOM     12  C   UNL     1       0.474   8.514  35.749  1.00  0.00     0.006 C 
BRANCH  12  13
ATOM     13  C   UNL     1      -0.191   7.246  35.203  1.00  0.00     0.053 C 
BRANCH  13  14
ATOM     14  C   UNL     1       0.398   6.862  33.881  1.00  0.00     0.041 C 
ATOM     15  O   UNL     1       0.030   5.802  33.305  1.00  0.00    -0.550 OA
ATOM     16  O   UNL     1       1.347   7.680  33.277  1.00  0.00    -0.550 OA
ENDBRANCH  13  14
ENDBRANCH  12  13
ENDBRANCH  11  12
ENDBRANCH  10  11
ENDBRANCH   9  10
ENDBRANCH   8   9
ENDBRANCH   7   8
ENDBRANCH   6   7
ENDBRANCH   5   6
ENDBRANCH   4   5
ENDBRANCH   3   4
ENDBRANCH   2   3
ENDBRANCH   1   2
BRANCH   1  17
ATOM     17  C   UNL     1      -1.380   4.828  39.478  1.00  0.00     0.000 C 
BRANCH  17  18
ATOM     18  C   UNL     1      -0.623   3.876  38.538  1.00  0.00     0.000 C 
BRANCH  18  19
ATOM     19  C   UNL     1      -1.103   3.970  37.079  1.00  0.00     0.000 C 
BRANCH  19  20
ATOM     20  C   UNL     1      -0.033   3.650  36.014  1.00  0.00     0.000 C 
BRANCH  20  21
ATOM     21  C   UNL     1      -0.300   2.384  35.173  1.00  0.00     0.000 C 
BRANCH  21  22
ATOM     22  C   UNL     1       0.713   1.242  35.380  1.00  0.00    -0.000 C 
BRANCH  22  23
ATOM     23  C   UNL     1       2.050   1.667  36.022  1.00  0.00    -0.000 C 
BRANCH  23  24
ATOM     24  C   UNL     1       2.265   1.164  37.461  1.00  0.00    -0.000 C 
BRANCH  24  25
ATOM     25  C   UNL     1       3.285   2.011  38.242  1.00  0.00    -0.000 C 
BRANCH  25  26
ATOM     26  C   UNL     1       3.060   3.521  38.064  1.00  0.00    -0.000 C 
BRANCH  26  27
ATOM     27  C   UNL     1       4.364   4.277  37.748  1.00  0.00    -0.000 C 
BRANCH  27  28
ATOM     28  C   UNL     1       4.591   4.455  36.239  1.00  0.00    -0.000 C 
BRANCH  28  29
ATOM     29  C   UNL     1       3.342   4.970  35.509  1.00  0.00    -0.003 C 
ATOM     30  C   UNL     1       3.526   4.907  33.995  1.00  0.00     0.004 C 
ENDBRANCH  28  29
ENDBRANCH  27  28
ENDBRANCH  26  27
ENDBRANCH  25  26
ENDBRANCH  24  25
ENDBRANCH  23  24
ENDBRANCH  22  23
ENDBRANCH  21  22
ENDBRANCH  20  21
ENDBRANCH  19  20
ENDBRANCH  18  19
ENDBRANCH  17  18
ENDBRANCH   1  17
TORSDOF 26
ENDMDL
