MODEL 1
REMARK VINA RESULT:    -2.891      0.000      0.000
REMARK INTER + INTRA:          -5.482
REMARK INTER:                  -4.919
REMARK INTRA:                  -0.563
REMARK UNBOUND:                -0.563
REMARK SMILES CCCCCCCCCCCCCC(=O)[O-]
REMARK SMILES IDX 8 1 9 2 10 3 11 4 12 5 13 6 14 7 15 8 16 9 7 10 6 11 5 12
REMARK SMILES IDX 4 13 3 14 2 15 1 16
REMARK H PARENT
REMARK Flexibility Score: inf
ROOT
ATOM      1  C   UNL     1      -7.043 -22.404  18.511  1.00  0.00     0.000 C 
ENDROOT
BRANCH   1   2
ATOM      2  C   UNL     1      -6.335 -22.892  17.239  1.00  0.00     0.000 C 
BRANCH   2   3
ATOM      3  C   UNL     1      -6.730 -22.085  15.989  1.00  0.00     0.000 C 
BRANCH   3   4
ATOM      4  C   UNL     1      -8.175 -21.547  15.989  1.00  0.00     0.000 C 
BRANCH   4   5
ATOM      5  C   UNL     1      -8.636 -20.906  14.664  1.00  0.00     0.006 C 
BRANCH   5   6
ATOM      6  C   UNL     1     -10.038 -20.277  14.717  1.00  0.00     0.053 C 
BRANCH   6   7
ATOM      7  C   UNL     1     -10.647 -20.383  16.082  1.00  0.00     0.041 C 
ATOM      8  O   UNL     1     -10.756 -19.358  16.806  1.00  0.00    -0.550 OA
ATOM      9  O   UNL     1     -11.124 -21.604  16.539  1.00  0.00    -0.550 OA
ENDBRANCH   6   7
ENDBRANCH   5   6
ENDBRANCH   4   5
ENDBRANCH   3   4
ENDBRANCH   2   3
ENDBRANCH   1   2
BRANCH   1  10
ATOM     10  C   UNL     1      -8.387 -23.122  18.703  1.00  0.00     0.000 C 
BRANCH  10  11
ATOM     11  C   UNL     1      -9.372 -22.301  19.564  1.00  0.00    -0.000 C 
BRANCH  11  12
ATOM     12  C   UNL     1      -9.125 -20.784  19.503  1.00  0.00    -0.000 C 
BRANCH  12  13
ATOM     13  C   UNL     1     -10.162 -19.978  20.302  1.00  0.00    -0.000 C 
BRANCH  13  14
ATOM     14  C   UNL     1     -10.579 -20.678  21.605  1.00  0.00    -0.000 C 
BRANCH  14  15
ATOM     15  C   UNL     1      -9.568 -20.460  22.741  1.00  0.00    -0.003 C 
ATOM     16  C   UNL     1      -8.958 -21.782  23.196  1.00  0.00     0.004 C 
ENDBRANCH  14  15
ENDBRANCH  13  14
ENDBRANCH  12  13
ENDBRANCH  11  12
ENDBRANCH  10  11
ENDBRANCH   1  10
TORSDOF 12
ENDMDL
MODEL 2
REMARK VINA RESULT:    -2.450      2.682      6.152
REMARK INTER + INTRA:          -4.732
REMARK INTER:                  -4.040
REMARK INTRA:                  -0.691
REMARK UNBOUND:                -0.563
REMARK SMILES CCCCCCCCCCCCCC(=O)[O-]
REMARK SMILES IDX 8 1 9 2 10 3 11 4 12 5 13 6 14 7 15 8 16 9 7 10 6 11 5 12
REMARK SMILES IDX 4 13 3 14 2 15 1 16
REMARK H PARENT
REMARK Flexibility Score: inf
ROOT
ATOM      1  C   UNL     1      -8.523 -22.134  18.257  1.00  0.00     0.000 C 
ENDROOT
BRANCH   1   2
ATOM      2  C   UNL     1      -9.333 -22.813  19.371  1.00  0.00     0.000 C 
BRANCH   2   3
ATOM      3  C   UNL     1     -10.665 -22.097  19.662  1.00  0.00     0.000 C 
BRANCH   3   4
ATOM      4  C   UNL     1     -10.844 -21.618  21.117  1.00  0.00     0.000 C 
BRANCH   4   5
ATOM      5  C   UNL     1     -10.048 -20.352  21.492  1.00  0.00     0.006 C 
BRANCH   5   6
ATOM      6  C   UNL     1      -9.197 -20.492  22.765  1.00  0.00     0.053 C 
BRANCH   6   7
ATOM      7  C   UNL     1      -8.901 -21.925  23.086  1.00  0.00     0.041 C 
ATOM      8  O   UNL     1      -7.954 -22.520  22.506  1.00  0.00    -0.550 OA
ATOM      9  O   UNL     1      -9.647 -22.593  24.047  1.00  0.00    -0.550 OA
ENDBRANCH   6   7
ENDBRANCH   5   6
ENDBRANCH   4   5
ENDBRANCH   3   4
ENDBRANCH   2   3
ENDBRANCH   1   2
BRANCH   1  10
ATOM     10  C   UNL     1      -7.537 -23.122  17.614  1.00  0.00     0.000 C 
BRANCH  10  11
ATOM     11  C   UNL     1      -6.190 -22.457  17.260  1.00  0.00    -0.000 C 
BRANCH  11  12
ATOM     12  C   UNL     1      -6.235 -21.625  15.967  1.00  0.00    -0.000 C 
BRANCH  12  13
ATOM     13  C   UNL     1      -7.541 -21.815  15.179  1.00  0.00    -0.000 C 
BRANCH  13  14
ATOM     14  C   UNL     1      -8.297 -20.496  14.960  1.00  0.00    -0.000 C 
BRANCH  14  15
ATOM     15  C   UNL     1      -9.802 -20.709  14.734  1.00  0.00    -0.003 C 
ATOM     16  C   UNL     1     -10.620 -20.088  15.861  1.00  0.00     0.004 C 
ENDBRANCH  14  15
ENDBRANCH  13  14
ENDBRANCH  12  13
ENDBRANCH  11  12
ENDBRANCH  10  11
ENDBRANCH   1  10
TORSDOF 12
ENDMDL
MODEL 3
REMARK VINA RESULT:    -2.441      1.373      2.622
REMARK INTER + INTRA:          -4.716
REMARK INTER:                  -4.083
REMARK INTRA:                  -0.633
REMARK UNBOUND:                -0.563
REMARK SMILES CCCCCCCCCCCCCC(=O)[O-]
REMARK SMILES IDX 8 1 9 2 10 3 11 4 12 5 13 6 14 7 15 8 16 9 7 10 6 11 5 12
REMARK SMILES IDX 4 13 3 14 2 15 1 16
REMARK H PARENT
REMARK Flexibility Score: inf
ROOT
ATOM      1  C   UNL     1      -7.251 -22.677  20.616  1.00  0.00     0.000 C 
ENDROOT
BRANCH   1   2
ATOM      2  C   UNL     1      -8.171 -22.946  19.416  1.00  0.00     0.000 C 
BRANCH   2   3
ATOM      3  C   UNL     1      -8.180 -21.791  18.398  1.00  0.00     0.000 C 
BRANCH   3   4
ATOM      4  C   UNL     1      -8.855 -22.115  17.050  1.00  0.00     0.000 C 
BRANCH   4   5
ATOM      5  C   UNL     1      -7.997 -21.822  15.802  1.00  0.00     0.006 C 
BRANCH   5   6
ATOM      6  C   UNL     1      -8.517 -20.666  14.932  1.00  0.00     0.053 C 
BRANCH   6   7
ATOM      7  C   UNL     1      -9.969 -20.390  15.177  1.00  0.00     0.041 C 
ATOM      8  O   UNL     1     -10.340 -19.880  16.267  1.00  0.00    -0.550 OA
ATOM      9  O   UNL     1     -10.906 -20.665  14.190  1.00  0.00    -0.550 OA
ENDBRANCH   6   7
ENDBRANCH   5   6
ENDBRANCH   4   5
ENDBRANCH   3   4
ENDBRANCH   2   3
ENDBRANCH   1   2
BRANCH   1  10
ATOM     10  C   UNL     1      -7.916 -23.120  21.928  1.00  0.00     0.000 C 
BRANCH  10  11
ATOM     11  C   UNL     1      -8.845 -22.033  22.510  1.00  0.00    -0.000 C 
BRANCH  11  12
ATOM     12  C   UNL     1     -10.330 -22.248  22.172  1.00  0.00    -0.000 C 
BRANCH  12  13
ATOM     13  C   UNL     1     -10.995 -20.995  21.580  1.00  0.00    -0.000 C 
BRANCH  13  14
ATOM     14  C   UNL     1      -9.987 -19.875  21.282  1.00  0.00    -0.000 C 
BRANCH  14  15
ATOM     15  C   UNL     1     -10.034 -19.412  19.818  1.00  0.00    -0.003 C 
ATOM     16  C   UNL     1     -11.123 -18.365  19.608  1.00  0.00     0.004 C 
ENDBRANCH  14  15
ENDBRANCH  13  14
ENDBRANCH  12  13
ENDBRANCH  11  12
ENDBRANCH  10  11
ENDBRANCH   1  10
TORSDOF 12
ENDMDL
MODEL 4
REMARK VINA RESULT:    -2.219      1.156      2.170
REMARK INTER + INTRA:          -4.339
REMARK INTER:                  -3.608
REMARK INTRA:                  -0.731
REMARK UNBOUND:                -0.563
REMARK SMILES CCCCCCCCCCCCCC(=O)[O-]
REMARK SMILES IDX 8 1 9 2 10 3 11 4 12 5 13 6 14 7 15 8 16 9 7 10 6 11 5 12
REMARK SMILES IDX 4 13 3 14 2 15 1 16
REMARK H PARENT
REMARK Flexibility Score: inf
ROOT
ATOM      1  C   UNL     1      -8.958 -22.170  19.576  1.00  0.00     0.000 C 
ENDROOT
BRANCH   1   2
ATOM      2  C   UNL     1      -7.668 -22.022  18.757  1.00  0.00     0.000 C 
BRANCH   2   3
ATOM      3  C   UNL     1      -7.518 -23.107  17.675  1.00  0.00     0.000 C 
BRANCH   3   4
ATOM      4  C   UNL     1      -7.008 -22.602  16.310  1.00  0.00     0.000 C 
BRANCH   4   5
ATOM      5  C   UNL     1      -7.806 -21.428  15.707  1.00  0.00     0.006 C 
BRANCH   5   6
ATOM      6  C   UNL     1      -9.332 -21.567  15.833  1.00  0.00     0.053 C 
BRANCH   6   7
ATOM      7  C   UNL     1     -10.047 -20.346  15.340  1.00  0.00     0.041 C 
ATOM      8  O   UNL     1     -10.128 -20.116  14.104  1.00  0.00    -0.550 OA
ATOM      9  O   UNL     1     -10.653 -19.482  16.242  1.00  0.00    -0.550 OA
ENDBRANCH   6   7
ENDBRANCH   5   6
ENDBRANCH   4   5
ENDBRANCH   3   4
ENDBRANCH   2   3
ENDBRANCH   1   2
BRANCH   1  10
ATOM     10  C   UNL     1     -10.072 -21.273  19.014  1.00  0.00     0.000 C 
BRANCH  10  11
ATOM     11  C   UNL     1     -10.807 -20.490  20.124  1.00  0.00    -0.000 C 
BRANCH  11  12
ATOM     12  C   UNL     1     -10.913 -21.258  21.453  1.00  0.00    -0.000 C 
BRANCH  12  13
ATOM     13  C   UNL     1     -10.286 -20.499  22.633  1.00  0.00    -0.000 C 
BRANCH  13  14
ATOM     14  C   UNL     1      -8.951 -21.110  23.087  1.00  0.00    -0.000 C 
BRANCH  14  15
ATOM     15  C   UNL     1      -9.009 -22.642  23.190  1.00  0.00    -0.003 C 
ATOM     16  C   UNL     1      -8.492 -23.122  24.543  1.00  0.00     0.004 C 
ENDBRANCH  14  15
ENDBRANCH  13  14
ENDBRANCH  12  13
ENDBRANCH  11  12
ENDBRANCH  10  11
ENDBRANCH   1  10
TORSDOF 12
ENDMDL
MODEL 5
REMARK VINA RESULT:    -2.056      2.752      5.969
REMARK INTER + INTRA:          -4.061
REMARK INTER:                  -3.334
REMARK INTRA:                  -0.727
REMARK UNBOUND:                -0.563
REMARK SMILES CCCCCCCCCCCCCC(=O)[O-]
REMARK SMILES IDX 8 1 9 2 10 3 11 4 12 5 13 6 14 7 15 8 16 9 7 10 6 11 5 12
REMARK SMILES IDX 4 13 3 14 2 15 1 16
REMARK H PARENT
REMARK Flexibility Score: inf
ROOT
ATOM      1  C   UNL     1      -7.540 -21.051  15.551  1.00  0.00     0.000 C 
ENDROOT
BRANCH   1   2
ATOM      2  C   UNL     1      -8.713 -21.108  14.560  1.00  0.00     0.000 C 
BRANCH   2   3
ATOM      3  C   UNL     1      -9.844 -20.127  14.917  1.00  0.00     0.000 C 
BRANCH   3   4
ATOM      4  C   UNL     1     -11.104 -20.776  15.523  1.00  0.00     0.000 C 
BRANCH   4   5
ATOM      5  C   UNL     1     -10.973 -21.210  16.997  1.00  0.00     0.006 C 
BRANCH   5   6
ATOM      6  C   UNL     1     -10.495 -20.098  17.945  1.00  0.00     0.053 C 
BRANCH   6   7
ATOM      7  C   UNL     1     -10.153 -20.629  19.304  1.00  0.00     0.041 C 
ATOM      8  O   UNL     1     -10.271 -21.859  19.550  1.00  0.00    -0.550 OA
ATOM      9  O   UNL     1      -9.674 -19.772  20.286  1.00  0.00    -0.550 OA
ENDBRANCH   6   7
ENDBRANCH   5   6
ENDBRANCH   4   5
ENDBRANCH   3   4
ENDBRANCH   2   3
ENDBRANCH   1   2
BRANCH   1  10
ATOM     10  C   UNL     1      -7.164 -22.458  16.038  1.00  0.00     0.000 C 
BRANCH  10  11
ATOM     11  C   UNL     1      -6.261 -22.422  17.290  1.00  0.00    -0.000 C 
BRANCH  11  12
ATOM     12  C   UNL     1      -4.906 -23.123  17.093  1.00  0.00    -0.000 C 
BRANCH  12  13
ATOM     13  C   UNL     1      -3.965 -22.352  16.153  1.00  0.00    -0.000 C 
BRANCH  13  14
ATOM     14  C   UNL     1      -2.625 -23.071  15.938  1.00  0.00    -0.000 C 
BRANCH  14  15
ATOM     15  C   UNL     1      -1.458 -22.368  16.649  1.00  0.00    -0.003 C 
ATOM     16  C   UNL     1      -0.147 -22.585  15.900  1.00  0.00     0.004 C 
ENDBRANCH  14  15
ENDBRANCH  13  14
ENDBRANCH  12  13
ENDBRANCH  11  12
ENDBRANCH  10  11
ENDBRANCH   1  10
TORSDOF 12
ENDMDL
MODEL 6
REMARK VINA RESULT:    -1.940      1.654      2.902
REMARK INTER + INTRA:          -3.863
REMARK INTER:                  -2.809
REMARK INTRA:                  -1.054
REMARK UNBOUND:                -0.563
REMARK SMILES CCCCCCCCCCCCCC(=O)[O-]
REMARK SMILES IDX 8 1 9 2 10 3 11 4 12 5 13 6 14 7 15 8 16 9 7 10 6 11 5 12
REMARK SMILES IDX 4 13 3 14 2 15 1 16
REMARK H PARENT
REMARK Flexibility Score: inf
ROOT
ATOM      1  C   UNL     1      -7.543 -22.494  15.902  1.00  0.00     0.000 C 
ENDROOT
BRANCH   1   2
ATOM      2  C   UNL     1      -7.684 -21.115  15.242  1.00  0.00     0.000 C 
BRANCH   2   3
ATOM      3  C   UNL     1      -9.070 -20.485  15.466  1.00  0.00     0.000 C 
BRANCH   3   4
ATOM      4  C   UNL     1     -10.211 -21.491  15.723  1.00  0.00     0.000 C 
BRANCH   4   5
ATOM      5  C   UNL     1     -11.125 -21.154  16.919  1.00  0.00     0.006 C 
BRANCH   5   6
ATOM      6  C   UNL     1     -10.938 -19.734  17.479  1.00  0.00     0.053 C 
BRANCH   6   7
ATOM      7  C   UNL     1     -10.957 -19.717  18.977  1.00  0.00     0.041 C 
ATOM      8  O   UNL     1     -10.898 -20.797  19.623  1.00  0.00    -0.550 OA
ATOM      9  O   UNL     1     -11.008 -18.508  19.659  1.00  0.00    -0.550 OA
ENDBRANCH   6   7
ENDBRANCH   5   6
ENDBRANCH   4   5
ENDBRANCH   3   4
ENDBRANCH   2   3
ENDBRANCH   1   2
BRANCH   1  10
ATOM     10  C   UNL     1      -7.073 -22.361  17.359  1.00  0.00     0.000 C 
BRANCH  10  11
ATOM     11  C   UNL     1      -7.987 -23.125  18.341  1.00  0.00    -0.000 C 
BRANCH  11  12
ATOM     12  C   UNL     1      -8.188 -22.402  19.684  1.00  0.00    -0.000 C 
BRANCH  12  13
ATOM     13  C   UNL     1      -7.172 -22.837  20.753  1.00  0.00    -0.000 C 
BRANCH  13  14
ATOM     14  C   UNL     1      -7.819 -23.051  22.131  1.00  0.00    -0.000 C 
BRANCH  14  15
ATOM     15  C   UNL     1      -9.267 -22.539  22.188  1.00  0.00    -0.003 C 
ATOM     16  C   UNL     1      -9.357 -21.232  22.969  1.00  0.00     0.004 C 
ENDBRANCH  14  15
ENDBRANCH  13  14
ENDBRANCH  12  13
ENDBRANCH  11  12
ENDBRANCH  10  11
ENDBRANCH   1  10
TORSDOF 12
ENDMDL
MODEL 7
REMARK VINA RESULT:    -1.817      6.051      7.586
REMARK INTER + INTRA:          -3.654
REMARK INTER:                  -3.199
REMARK INTRA:                  -0.456
REMARK UNBOUND:                -0.563
REMARK SMILES CCCCCCCCCCCCCC(=O)[O-]
REMARK SMILES IDX 8 1 9 2 10 3 11 4 12 5 13 6 14 7 15 8 16 9 7 10 6 11 5 12
REMARK SMILES IDX 4 13 3 14 2 15 1 16
REMARK H PARENT
REMARK Flexibility Score: inf
ROOT
ATOM      1  C   UNL     1      -5.260 -22.886  17.169  1.00  0.00     0.000 C 
ENDROOT
BRANCH   1   2
ATOM      2  C   UNL     1      -4.302 -22.407  16.068  1.00  0.00     0.000 C 
BRANCH   2   3
ATOM      3  C   UNL     1      -2.890 -23.005  16.202  1.00  0.00     0.000 C 
BRANCH   3   4
ATOM      4  C   UNL     1      -1.738 -22.050  15.831  1.00  0.00     0.000 C 
BRANCH   4   5
ATOM      5  C   UNL     1      -0.408 -22.310  16.567  1.00  0.00     0.006 C 
BRANCH   5   6
ATOM      6  C   UNL     1       0.686 -22.945  15.693  1.00  0.00     0.053 C 
BRANCH   6   7
ATOM      7  C   UNL     1       2.023 -22.306  15.916  1.00  0.00     0.041 C 
ATOM      8  O   UNL     1       3.044 -22.755  15.331  1.00  0.00    -0.550 OA
ATOM      9  O   UNL     1       2.135 -21.197  16.744  1.00  0.00    -0.550 OA
ENDBRANCH   6   7
ENDBRANCH   5   6
ENDBRANCH   4   5
ENDBRANCH   3   4
ENDBRANCH   2   3
ENDBRANCH   1   2
BRANCH   1  10
ATOM     10  C   UNL     1      -6.704 -22.951  16.650  1.00  0.00     0.000 C 
BRANCH  10  11
ATOM     11  C   UNL     1      -7.686 -22.175  17.555  1.00  0.00    -0.000 C 
BRANCH  11  12
ATOM     12  C   UNL     1      -8.931 -22.987  17.951  1.00  0.00    -0.000 C 
BRANCH  12  13
ATOM     13  C   UNL     1      -9.867 -22.221  18.899  1.00  0.00    -0.000 C 
BRANCH  13  14
ATOM     14  C   UNL     1      -9.775 -20.698  18.718  1.00  0.00    -0.000 C 
BRANCH  14  15
ATOM     15  C   UNL     1     -11.053 -20.097  18.114  1.00  0.00    -0.003 C 
ATOM     16  C   UNL     1     -10.898 -19.869  16.614  1.00  0.00     0.004 C 
ENDBRANCH  14  15
ENDBRANCH  13  14
ENDBRANCH  12  13
ENDBRANCH  11  12
ENDBRANCH  10  11
ENDBRANCH   1  10
TORSDOF 12
ENDMDL
MODEL 8
REMARK VINA RESULT:    -1.763      9.289     11.105
REMARK INTER + INTRA:          -3.563
REMARK INTER:                  -3.319
REMARK INTRA:                  -0.244
REMARK UNBOUND:                -0.563
REMARK SMILES CCCCCCCCCCCCCC(=O)[O-]
REMARK SMILES IDX 8 1 9 2 10 3 11 4 12 5 13 6 14 7 15 8 16 9 7 10 6 11 5 12
REMARK SMILES IDX 4 13 3 14 2 15 1 16
REMARK H PARENT
REMARK Flexibility Score: inf
ROOT
ATOM      1  C   UNL     1      -0.545 -22.307  16.367  1.00  0.00     0.000 C 
ENDROOT
BRANCH   1   2
ATOM      2  C   UNL     1       0.715 -22.947  15.764  1.00  0.00     0.000 C 
BRANCH   2   3
ATOM      3  C   UNL     1       2.001 -22.177  16.114  1.00  0.00     0.000 C 
BRANCH   3   4
ATOM      4  C   UNL     1       3.228 -22.531  15.249  1.00  0.00     0.000 C 
BRANCH   4   5
ATOM      5  C   UNL     1       4.443 -23.076  16.027  1.00  0.00     0.006 C 
BRANCH   5   6
ATOM      6  C   UNL     1       5.104 -22.055  16.968  1.00  0.00     0.053 C 
BRANCH   6   7
ATOM      7  C   UNL     1       6.592 -22.023  16.802  1.00  0.00     0.041 C 
ATOM      8  O   UNL     1       7.301 -21.332  17.582  1.00  0.00    -0.550 OA
ATOM      9  O   UNL     1       7.199 -22.780  15.809  1.00  0.00    -0.550 OA
ENDBRANCH   6   7
ENDBRANCH   5   6
ENDBRANCH   4   5
ENDBRANCH   3   4
ENDBRANCH   2   3
ENDBRANCH   1   2
BRANCH   1  10
ATOM     10  C   UNL     1      -1.798 -23.124  16.016  1.00  0.00     0.000 C 
BRANCH  10  11
ATOM     11  C   UNL     1      -3.076 -22.258  16.003  1.00  0.00    -0.000 C 
BRANCH  11  12
ATOM     12  C   UNL     1      -4.312 -22.976  16.572  1.00  0.00    -0.000 C 
BRANCH  12  13
ATOM     13  C   UNL     1      -5.565 -22.086  16.587  1.00  0.00    -0.000 C 
BRANCH  13  14
ATOM     14  C   UNL     1      -6.852 -22.881  16.854  1.00  0.00    -0.000 C 
BRANCH  14  15
ATOM     15  C   UNL     1      -8.102 -21.988  16.883  1.00  0.00    -0.003 C 
ATOM     16  C   UNL     1      -8.587 -21.768  18.312  1.00  0.00     0.004 C 
ENDBRANCH  14  15
ENDBRANCH  13  14
ENDBRANCH  12  13
ENDBRANCH  11  12
ENDBRANCH  10  11
ENDBRANCH   1  10
TORSDOF 12
ENDMDL
MODEL 9
REMARK VINA RESULT:    -1.454     14.159     17.213
REMARK INTER + INTRA:          -3.037
REMARK INTER:                  -2.575
REMARK INTRA:                  -0.462
REMARK UNBOUND:                -0.563
REMARK SMILES CCCCCCCCCCCCCC(=O)[O-]
REMARK SMILES IDX 8 1 9 2 10 3 11 4 12 5 13 6 14 7 15 8 16 9 7 10 6 11 5 12
REMARK SMILES IDX 4 13 3 14 2 15 1 16
REMARK H PARENT
REMARK Flexibility Score: inf
ROOT
ATOM      1  C   UNL     1       4.827 -23.122  14.017  1.00  0.00     0.000 C 
ENDROOT
BRANCH   1   2
ATOM      2  C   UNL     1       3.310 -23.088  14.258  1.00  0.00     0.000 C 
BRANCH   2   3
ATOM      3  C   UNL     1       2.933 -22.436  15.601  1.00  0.00     0.000 C 
BRANCH   3   4
ATOM      4  C   UNL     1       3.865 -22.783  16.779  1.00  0.00     0.000 C 
BRANCH   4   5
ATOM      5  C   UNL     1       4.908 -21.702  17.129  1.00  0.00     0.006 C 
BRANCH   5   6
ATOM      6  C   UNL     1       6.208 -22.249  17.739  1.00  0.00     0.053 C 
BRANCH   6   7
ATOM      7  C   UNL     1       7.362 -22.138  16.791  1.00  0.00     0.041 C 
ATOM      8  O   UNL     1       8.122 -23.125  16.601  1.00  0.00    -0.550 OA
ATOM      9  O   UNL     1       7.578 -20.958  16.092  1.00  0.00    -0.550 OA
ENDBRANCH   6   7
ENDBRANCH   5   6
ENDBRANCH   4   5
ENDBRANCH   3   4
ENDBRANCH   2   3
ENDBRANCH   1   2
BRANCH   1  10
ATOM     10  C   UNL     1       5.145 -23.124  12.514  1.00  0.00     0.000 C 
BRANCH  10  11
ATOM     11  C   UNL     1       6.664 -23.098  12.238  1.00  0.00    -0.000 C 
BRANCH  11  12
ATOM     12  C   UNL     1       7.095 -21.977  11.277  1.00  0.00    -0.000 C 
BRANCH  12  13
ATOM     13  C   UNL     1       7.720 -20.775  12.003  1.00  0.00    -0.000 C 
BRANCH  13  14
ATOM     14  C   UNL     1       8.270 -19.718  11.033  1.00  0.00    -0.000 C 
BRANCH  14  15
ATOM     15  C   UNL     1       7.723 -19.885   9.608  1.00  0.00    -0.003 C 
ATOM     16  C   UNL     1       8.769 -20.505   8.687  1.00  0.00     0.004 C 
ENDBRANCH  14  15
ENDBRANCH  13  14
ENDBRANCH  12  13
ENDBRANCH  11  12
ENDBRANCH  10  11
ENDBRANCH   1  10
TORSDOF 12
ENDMDL
