MODEL 1
REMARK VINA RESULT:    -4.777      0.000      0.000
REMARK INTER + INTRA:         -10.780
REMARK INTER:                  -9.246
REMARK INTRA:                  -1.534
REMARK UNBOUND:                -1.534
REMARK SMILES CCCCCCCCCCCCCCCCCC(=O)[O-]
REMARK SMILES IDX 10 1 11 2 12 3 13 4 14 5 15 6 16 7 17 8 18 9 19 10 20 11
REMARK SMILES IDX 9 12 8 13 7 14 6 15 5 16 4 17 3 18 2 19 1 20
REMARK H PARENT
REMARK Flexibility Score: inf
ROOT
ATOM      1  C   UNL     1       2.808  22.916  49.986  1.00  0.00     0.000 C 
ENDROOT
BRANCH   1   2
ATOM      2  C   UNL     1       2.388  21.744  50.882  1.00  0.00     0.000 C 
BRANCH   2   3
ATOM      3  C   UNL     1       3.279  21.659  52.131  1.00  0.00     0.000 C 
BRANCH   3   4
ATOM      4  C   UNL     1       2.700  22.430  53.330  1.00  0.00     0.000 C 
BRANCH   4   5
ATOM      5  C   UNL     1       3.728  23.257  54.128  1.00  0.00     0.000 C 
BRANCH   5   6
ATOM      6  C   UNL     1       4.886  23.844  53.296  1.00  0.00     0.000 C 
BRANCH   6   7
ATOM      7  C   UNL     1       4.577  25.187  52.610  1.00  0.00     0.006 C 
BRANCH   7   8
ATOM      8  C   UNL     1       5.304  25.351  51.270  1.00  0.00     0.053 C 
BRANCH   8   9
ATOM      9  C   UNL     1       6.408  24.349  51.148  1.00  0.00     0.041 C 
ATOM     10  O   UNL     1       6.208  23.256  50.557  1.00  0.00    -0.550 OA
ATOM     11  O   UNL     1       7.646  24.605  51.725  1.00  0.00    -0.550 OA
ENDBRANCH   8   9
ENDBRANCH   7   8
ENDBRANCH   6   7
ENDBRANCH   5   6
ENDBRANCH   4   5
ENDBRANCH   3   4
ENDBRANCH   2   3
ENDBRANCH   1   2
BRANCH   1  12
ATOM     12  C   UNL     1       1.687  23.958  49.882  1.00  0.00     0.000 C 
BRANCH  12  13
ATOM     13  C   UNL     1       2.229  25.299  49.366  1.00  0.00    -0.000 C 
BRANCH  13  14
ATOM     14  C   UNL     1       1.965  25.505  47.866  1.00  0.00    -0.000 C 
BRANCH  14  15
ATOM     15  C   UNL     1       0.868  24.570  47.325  1.00  0.00    -0.000 C 
BRANCH  15  16
ATOM     16  C   UNL     1       0.948  24.378  45.802  1.00  0.00    -0.000 C 
BRANCH  16  17
ATOM     17  C   UNL     1       2.374  24.063  45.322  1.00  0.00    -0.000 C 
BRANCH  17  18
ATOM     18  C   UNL     1       2.599  22.563  45.057  1.00  0.00    -0.000 C 
BRANCH  18  19
ATOM     19  C   UNL     1       2.625  22.162  43.570  1.00  0.00    -0.003 C 
ATOM     20  C   UNL     1       1.447  21.276  43.168  1.00  0.00     0.004 C 
ENDBRANCH  18  19
ENDBRANCH  17  18
ENDBRANCH  16  17
ENDBRANCH  15  16
ENDBRANCH  14  15
ENDBRANCH  13  14
ENDBRANCH  12  13
ENDBRANCH   1  12
TORSDOF 16
ENDMDL
MODEL 2
REMARK VINA RESULT:    -4.770      2.807      6.986
REMARK INTER + INTRA:         -10.766
REMARK INTER:                  -8.829
REMARK INTRA:                  -1.937
REMARK UNBOUND:                -1.534
REMARK SMILES CCCCCCCCCCCCCCCCCC(=O)[O-]
REMARK SMILES IDX 10 1 11 2 12 3 13 4 14 5 15 6 16 7 17 8 18 9 19 10 20 11
REMARK SMILES IDX 9 12 8 13 7 14 6 15 5 16 4 17 3 18 2 19 1 20
REMARK H PARENT
REMARK Flexibility Score: inf
ROOT
ATOM      1  C   UNL     1       0.907  24.205  51.626  1.00  0.00     0.000 C 
ENDROOT
BRANCH   1   2
ATOM      2  C   UNL     1       1.146  24.965  50.315  1.00  0.00     0.000 C 
BRANCH   2   3
ATOM      3  C   UNL     1       1.765  24.047  49.251  1.00  0.00     0.000 C 
BRANCH   3   4
ATOM      4  C   UNL     1       2.005  24.763  47.911  1.00  0.00     0.000 C 
BRANCH   4   5
ATOM      5  C   UNL     1       0.853  24.643  46.894  1.00  0.00     0.000 C 
BRANCH   5   6
ATOM      6  C   UNL     1       1.157  23.777  45.656  1.00  0.00     0.000 C 
BRANCH   6   7
ATOM      7  C   UNL     1       2.506  23.037  45.697  1.00  0.00     0.006 C 
BRANCH   7   8
ATOM      8  C   UNL     1       3.027  22.671  44.301  1.00  0.00     0.053 C 
BRANCH   8   9
ATOM      9  C   UNL     1       3.401  23.906  43.544  1.00  0.00     0.041 C 
ATOM     10  O   UNL     1       3.798  24.930  44.159  1.00  0.00    -0.550 OA
ATOM     11  O   UNL     1       3.271  23.939  42.161  1.00  0.00    -0.550 OA
ENDBRANCH   8   9
ENDBRANCH   7   8
ENDBRANCH   6   7
ENDBRANCH   5   6
ENDBRANCH   4   5
ENDBRANCH   3   4
ENDBRANCH   2   3
ENDBRANCH   1   2
BRANCH   1  12
ATOM     12  C   UNL     1       1.032  22.691  51.414  1.00  0.00     0.000 C 
BRANCH  12  13
ATOM     13  C   UNL     1       1.958  22.063  52.466  1.00  0.00    -0.000 C 
BRANCH  13  14
ATOM     14  C   UNL     1       3.056  23.029  52.938  1.00  0.00    -0.000 C 
BRANCH  14  15
ATOM     15  C   UNL     1       4.466  22.574  52.516  1.00  0.00    -0.000 C 
BRANCH  15  16
ATOM     16  C   UNL     1       4.756  22.839  51.031  1.00  0.00    -0.000 C 
BRANCH  16  17
ATOM     17  C   UNL     1       6.155  23.435  50.801  1.00  0.00    -0.000 C 
BRANCH  17  18
ATOM     18  C   UNL     1       6.272  24.893  51.284  1.00  0.00    -0.000 C 
BRANCH  18  19
ATOM     19  C   UNL     1       5.277  25.874  50.636  1.00  0.00    -0.003 C 
ATOM     20  C   UNL     1       4.232  26.402  51.618  1.00  0.00     0.004 C 
ENDBRANCH  18  19
ENDBRANCH  17  18
ENDBRANCH  16  17
ENDBRANCH  15  16
ENDBRANCH  14  15
ENDBRANCH  13  14
ENDBRANCH  12  13
ENDBRANCH   1  12
TORSDOF 16
ENDMDL
MODEL 3
REMARK VINA RESULT:    -4.700      3.508      5.802
REMARK INTER + INTRA:         -10.630
REMARK INTER:                  -9.647
REMARK INTRA:                  -0.984
REMARK UNBOUND:                -1.534
REMARK SMILES CCCCCCCCCCCCCCCCCC(=O)[O-]
REMARK SMILES IDX 10 1 11 2 12 3 13 4 14 5 15 6 16 7 17 8 18 9 19 10 20 11
REMARK SMILES IDX 9 12 8 13 7 14 6 15 5 16 4 17 3 18 2 19 1 20
REMARK H PARENT
REMARK Flexibility Score: inf
ROOT
ATOM      1  C   UNL     1       2.374  22.945  45.536  1.00  0.00     0.000 C 
ENDROOT
BRANCH   1   2
ATOM      2  C   UNL     1       1.772  24.351  45.646  1.00  0.00     0.000 C 
BRANCH   2   3
ATOM      3  C   UNL     1       0.843  24.458  46.865  1.00  0.00     0.000 C 
BRANCH   3   4
ATOM      4  C   UNL     1       1.484  25.217  48.039  1.00  0.00     0.000 C 
BRANCH   4   5
ATOM      5  C   UNL     1       2.054  24.322  49.157  1.00  0.00     0.000 C 
BRANCH   5   6
ATOM      6  C   UNL     1       1.219  24.275  50.451  1.00  0.00     0.000 C 
BRANCH   6   7
ATOM      7  C   UNL     1       1.185  22.906  51.154  1.00  0.00     0.006 C 
BRANCH   7   8
ATOM      8  C   UNL     1       2.446  22.073  50.895  1.00  0.00     0.053 C 
BRANCH   8   9
ATOM      9  C   UNL     1       3.002  21.554  52.183  1.00  0.00     0.041 C 
ATOM     10  O   UNL     1       3.418  20.368  52.260  1.00  0.00    -0.550 OA
ATOM     11  O   UNL     1       3.022  22.367  53.309  1.00  0.00    -0.550 OA
ENDBRANCH   8   9
ENDBRANCH   7   8
ENDBRANCH   6   7
ENDBRANCH   5   6
ENDBRANCH   4   5
ENDBRANCH   3   4
ENDBRANCH   2   3
ENDBRANCH   1   2
BRANCH   1  12
ATOM     12  C   UNL     1       2.645  22.576  44.072  1.00  0.00     0.000 C 
BRANCH  12  13
ATOM     13  C   UNL     1       3.808  23.403  43.503  1.00  0.00    -0.000 C 
BRANCH  13  14
ATOM     14  C   UNL     1       3.429  24.143  42.210  1.00  0.00    -0.000 C 
BRANCH  14  15
ATOM     15  C   UNL     1       3.560  25.672  42.344  1.00  0.00    -0.000 C 
BRANCH  15  16
ATOM     16  C   UNL     1       4.690  26.090  43.298  1.00  0.00    -0.000 C 
BRANCH  16  17
ATOM     17  C   UNL     1       5.976  26.483  42.551  1.00  0.00    -0.000 C 
BRANCH  17  18
ATOM     18  C   UNL     1       7.085  26.986  43.494  1.00  0.00    -0.000 C 
BRANCH  18  19
ATOM     19  C   UNL     1       8.520  26.649  43.047  1.00  0.00    -0.003 C 
ATOM     20  C   UNL     1       9.439  26.283  44.212  1.00  0.00     0.004 C 
ENDBRANCH  18  19
ENDBRANCH  17  18
ENDBRANCH  16  17
ENDBRANCH  15  16
ENDBRANCH  14  15
ENDBRANCH  13  14
ENDBRANCH  12  13
ENDBRANCH   1  12
TORSDOF 16
ENDMDL
MODEL 4
REMARK VINA RESULT:    -4.694      3.622      7.562
REMARK INTER + INTRA:         -10.619
REMARK INTER:                  -8.071
REMARK INTRA:                  -2.548
REMARK UNBOUND:                -1.534
REMARK SMILES CCCCCCCCCCCCCCCCCC(=O)[O-]
REMARK SMILES IDX 10 1 11 2 12 3 13 4 14 5 15 6 16 7 17 8 18 9 19 10 20 11
REMARK SMILES IDX 9 12 8 13 7 14 6 15 5 16 4 17 3 18 2 19 1 20
REMARK H PARENT
REMARK Flexibility Score: inf
ROOT
ATOM      1  C   UNL     1       0.517  25.417  53.110  1.00  0.00     0.000 C 
ENDROOT
BRANCH   1   2
ATOM      2  C   UNL     1       1.550  25.595  51.989  1.00  0.00     0.000 C 
BRANCH   2   3
ATOM      3  C   UNL     1       1.175  24.756  50.758  1.00  0.00     0.000 C 
BRANCH   3   4
ATOM      4  C   UNL     1       0.765  23.318  51.118  1.00  0.00     0.000 C 
BRANCH   4   5
ATOM      5  C   UNL     1       1.895  22.275  51.011  1.00  0.00     0.000 C 
BRANCH   5   6
ATOM      6  C   UNL     1       2.419  21.734  52.356  1.00  0.00     0.000 C 
BRANCH   6   7
ATOM      7  C   UNL     1       3.949  21.770  52.519  1.00  0.00     0.006 C 
BRANCH   7   8
ATOM      8  C   UNL     1       4.643  22.609  51.439  1.00  0.00     0.053 C 
BRANCH   8   9
ATOM      9  C   UNL     1       5.759  23.407  52.035  1.00  0.00     0.041 C 
ATOM     10  O   UNL     1       5.761  23.672  53.265  1.00  0.00    -0.550 OA
ATOM     11  O   UNL     1       6.776  23.895  51.223  1.00  0.00    -0.550 OA
ENDBRANCH   8   9
ENDBRANCH   7   8
ENDBRANCH   6   7
ENDBRANCH   5   6
ENDBRANCH   4   5
ENDBRANCH   3   4
ENDBRANCH   2   3
ENDBRANCH   1   2
BRANCH   1  12
ATOM     12  C   UNL     1       1.187  25.474  54.488  1.00  0.00     0.000 C 
BRANCH  12  13
ATOM     13  C   UNL     1       2.544  24.754  54.471  1.00  0.00    -0.000 C 
BRANCH  13  14
ATOM     14  C   UNL     1       2.625  23.620  55.506  1.00  0.00    -0.000 C 
BRANCH  14  15
ATOM     15  C   UNL     1       1.269  22.924  55.727  1.00  0.00    -0.000 C 
BRANCH  15  16
ATOM     16  C   UNL     1       1.173  22.231  57.095  1.00  0.00    -0.000 C 
BRANCH  16  17
ATOM     17  C   UNL     1       0.104  22.862  58.002  1.00  0.00    -0.000 C 
BRANCH  17  18
ATOM     18  C   UNL     1      -0.599  24.068  57.350  1.00  0.00    -0.000 C 
BRANCH  18  19
ATOM     19  C   UNL     1      -1.997  23.774  56.777  1.00  0.00    -0.003 C 
ATOM     20  C   UNL     1      -2.278  24.518  55.472  1.00  0.00     0.004 C 
ENDBRANCH  18  19
ENDBRANCH  17  18
ENDBRANCH  16  17
ENDBRANCH  15  16
ENDBRANCH  14  15
ENDBRANCH  13  14
ENDBRANCH  12  13
ENDBRANCH   1  12
TORSDOF 16
ENDMDL
MODEL 5
REMARK VINA RESULT:    -4.693      4.085      4.984
REMARK INTER + INTRA:         -10.617
REMARK INTER:                  -9.744
REMARK INTRA:                  -0.873
REMARK UNBOUND:                -1.534
REMARK SMILES CCCCCCCCCCCCCCCCCC(=O)[O-]
REMARK SMILES IDX 10 1 11 2 12 3 13 4 14 5 15 6 16 7 17 8 18 9 19 10 20 11
REMARK SMILES IDX 9 12 8 13 7 14 6 15 5 16 4 17 3 18 2 19 1 20
REMARK H PARENT
REMARK Flexibility Score: inf
ROOT
ATOM      1  C   UNL     1       2.328  22.323  51.217  1.00  0.00     0.000 C 
ENDROOT
BRANCH   1   2
ATOM      2  C   UNL     1       3.607  22.024  52.009  1.00  0.00     0.000 C 
BRANCH   2   3
ATOM      3  C   UNL     1       3.391  22.257  53.511  1.00  0.00     0.000 C 
BRANCH   3   4
ATOM      4  C   UNL     1       2.082  23.005  53.816  1.00  0.00     0.000 C 
BRANCH   4   5
ATOM      5  C   UNL     1       1.505  22.757  55.225  1.00  0.00     0.000 C 
BRANCH   5   6
ATOM      6  C   UNL     1       1.044  24.021  55.977  1.00  0.00     0.000 C 
BRANCH   6   7
ATOM      7  C   UNL     1       0.578  23.783  57.424  1.00  0.00     0.006 C 
BRANCH   7   8
ATOM      8  C   UNL     1      -0.864  23.267  57.508  1.00  0.00     0.053 C 
BRANCH   8   9
ATOM      9  C   UNL     1      -1.806  24.248  56.886  1.00  0.00     0.041 C 
ATOM     10  O   UNL     1      -2.515  23.909  55.903  1.00  0.00    -0.550 OA
ATOM     11  O   UNL     1      -1.870  25.551  57.366  1.00  0.00    -0.550 OA
ENDBRANCH   8   9
ENDBRANCH   7   8
ENDBRANCH   6   7
ENDBRANCH   5   6
ENDBRANCH   4   5
ENDBRANCH   3   4
ENDBRANCH   2   3
ENDBRANCH   1   2
BRANCH   1  12
ATOM     12  C   UNL     1       2.657  22.949  49.856  1.00  0.00     0.000 C 
BRANCH  12  13
ATOM     13  C   UNL     1       1.631  24.030  49.485  1.00  0.00    -0.000 C 
BRANCH  13  14
ATOM     14  C   UNL     1       1.968  24.737  48.162  1.00  0.00    -0.000 C 
BRANCH  14  15
ATOM     15  C   UNL     1       0.811  24.676  47.148  1.00  0.00    -0.000 C 
BRANCH  15  16
ATOM     16  C   UNL     1       1.223  24.036  45.814  1.00  0.00    -0.000 C 
BRANCH  16  17
ATOM     17  C   UNL     1       2.384  23.039  45.972  1.00  0.00    -0.000 C 
BRANCH  17  18
ATOM     18  C   UNL     1       2.957  22.568  44.622  1.00  0.00    -0.000 C 
BRANCH  18  19
ATOM     19  C   UNL     1       1.995  21.722  43.767  1.00  0.00    -0.003 C 
ATOM     20  C   UNL     1       2.373  21.699  42.287  1.00  0.00     0.004 C 
ENDBRANCH  18  19
ENDBRANCH  17  18
ENDBRANCH  16  17
ENDBRANCH  15  16
ENDBRANCH  14  15
ENDBRANCH  13  14
ENDBRANCH  12  13
ENDBRANCH   1  12
TORSDOF 16
ENDMDL
MODEL 6
REMARK VINA RESULT:    -4.643      4.945      7.013
REMARK INTER + INTRA:         -10.519
REMARK INTER:                  -8.235
REMARK INTRA:                  -2.285
REMARK UNBOUND:                -1.534
REMARK SMILES CCCCCCCCCCCCCCCCCC(=O)[O-]
REMARK SMILES IDX 10 1 11 2 12 3 13 4 14 5 15 6 16 7 17 8 18 9 19 10 20 11
REMARK SMILES IDX 9 12 8 13 7 14 6 15 5 16 4 17 3 18 2 19 1 20
REMARK H PARENT
REMARK Flexibility Score: inf
ROOT
ATOM      1  C   UNL     1       1.370  25.960  52.385  1.00  0.00     0.000 C 
ENDROOT
BRANCH   1   2
ATOM      2  C   UNL     1       2.237  25.601  53.598  1.00  0.00     0.000 C 
BRANCH   2   3
ATOM      3  C   UNL     1       1.371  25.102  54.765  1.00  0.00     0.000 C 
BRANCH   3   4
ATOM      4  C   UNL     1       2.039  23.966  55.560  1.00  0.00     0.000 C 
BRANCH   4   5
ATOM      5  C   UNL     1       1.182  22.695  55.720  1.00  0.00     0.000 C 
BRANCH   5   6
ATOM      6  C   UNL     1       0.591  22.475  57.127  1.00  0.00     0.000 C 
BRANCH   6   7
ATOM      7  C   UNL     1      -0.336  23.599  57.624  1.00  0.00     0.006 C 
BRANCH   7   8
ATOM      8  C   UNL     1      -1.777  23.450  57.119  1.00  0.00     0.053 C 
BRANCH   8   9
ATOM      9  C   UNL     1      -2.147  24.610  56.249  1.00  0.00     0.041 C 
ATOM     10  O   UNL     1      -2.490  25.705  56.766  1.00  0.00    -0.550 OA
ATOM     11  O   UNL     1      -2.154  24.468  54.867  1.00  0.00    -0.550 OA
ENDBRANCH   8   9
ENDBRANCH   7   8
ENDBRANCH   6   7
ENDBRANCH   5   6
ENDBRANCH   4   5
ENDBRANCH   3   4
ENDBRANCH   2   3
ENDBRANCH   1   2
BRANCH   1  12
ATOM     12  C   UNL     1       1.669  25.032  51.201  1.00  0.00     0.000 C 
BRANCH  12  13
ATOM     13  C   UNL     1       0.611  23.924  51.091  1.00  0.00    -0.000 C 
BRANCH  13  14
ATOM     14  C   UNL     1       0.950  22.695  51.950  1.00  0.00    -0.000 C 
BRANCH  14  15
ATOM     15  C   UNL     1       2.250  22.003  51.504  1.00  0.00    -0.000 C 
BRANCH  15  16
ATOM     16  C   UNL     1       3.219  21.748  52.670  1.00  0.00    -0.000 C 
BRANCH  16  17
ATOM     17  C   UNL     1       4.440  22.682  52.636  1.00  0.00    -0.000 C 
BRANCH  17  18
ATOM     18  C   UNL     1       4.650  23.344  51.261  1.00  0.00    -0.000 C 
BRANCH  18  19
ATOM     19  C   UNL     1       6.119  23.461  50.813  1.00  0.00    -0.003 C 
ATOM     20  C   UNL     1       6.985  24.244  51.799  1.00  0.00     0.004 C 
ENDBRANCH  18  19
ENDBRANCH  17  18
ENDBRANCH  16  17
ENDBRANCH  15  16
ENDBRANCH  14  15
ENDBRANCH  13  14
ENDBRANCH  12  13
ENDBRANCH   1  12
TORSDOF 16
ENDMDL
MODEL 7
REMARK VINA RESULT:    -4.611      4.678      7.690
REMARK INTER + INTRA:         -10.458
REMARK INTER:                  -7.791
REMARK INTRA:                  -2.666
REMARK UNBOUND:                -1.534
REMARK SMILES CCCCCCCCCCCCCCCCCC(=O)[O-]
REMARK SMILES IDX 10 1 11 2 12 3 13 4 14 5 15 6 16 7 17 8 18 9 19 10 20 11
REMARK SMILES IDX 9 12 8 13 7 14 6 15 5 16 4 17 3 18 2 19 1 20
REMARK H PARENT
REMARK Flexibility Score: inf
ROOT
ATOM      1  C   UNL     1       1.100  22.717  51.407  1.00  0.00     0.000 C 
ENDROOT
BRANCH   1   2
ATOM      2  C   UNL     1       2.548  22.390  51.018  1.00  0.00     0.000 C 
BRANCH   2   3
ATOM      3  C   UNL     1       3.061  21.164  51.787  1.00  0.00     0.000 C 
BRANCH   3   4
ATOM      4  C   UNL     1       3.809  21.540  53.078  1.00  0.00     0.000 C 
BRANCH   4   5
ATOM      5  C   UNL     1       4.563  22.884  53.024  1.00  0.00     0.000 C 
BRANCH   5   6
ATOM      6  C   UNL     1       5.145  23.364  54.367  1.00  0.00     0.000 C 
BRANCH   6   7
ATOM      7  C   UNL     1       5.050  22.347  55.518  1.00  0.00     0.006 C 
BRANCH   7   8
ATOM      8  C   UNL     1       4.835  23.011  56.884  1.00  0.00     0.053 C 
BRANCH   8   9
ATOM      9  C   UNL     1       4.720  21.974  57.956  1.00  0.00     0.041 C 
ATOM     10  O   UNL     1       3.865  21.056  57.860  1.00  0.00    -0.550 OA
ATOM     11  O   UNL     1       5.530  22.047  59.083  1.00  0.00    -0.550 OA
ENDBRANCH   8   9
ENDBRANCH   7   8
ENDBRANCH   6   7
ENDBRANCH   5   6
ENDBRANCH   4   5
ENDBRANCH   3   4
ENDBRANCH   2   3
ENDBRANCH   1   2
BRANCH   1  12
ATOM     12  C   UNL     1       0.989  24.140  51.967  1.00  0.00     0.000 C 
BRANCH  12  13
ATOM     13  C   UNL     1       0.245  24.145  53.311  1.00  0.00    -0.000 C 
BRANCH  13  14
ATOM     14  C   UNL     1       0.884  25.096  54.336  1.00  0.00    -0.000 C 
BRANCH  14  15
ATOM     15  C   UNL     1       1.695  24.349  55.411  1.00  0.00    -0.000 C 
BRANCH  15  16
ATOM     16  C   UNL     1       1.345  22.855  55.487  1.00  0.00    -0.000 C 
BRANCH  16  17
ATOM     17  C   UNL     1       0.648  22.480  56.806  1.00  0.00    -0.000 C 
BRANCH  17  18
ATOM     18  C   UNL     1      -0.228  23.616  57.365  1.00  0.00    -0.000 C 
BRANCH  18  19
ATOM     19  C   UNL     1      -1.685  23.618  56.868  1.00  0.00    -0.003 C 
ATOM     20  C   UNL     1      -2.213  25.019  56.564  1.00  0.00     0.004 C 
ENDBRANCH  18  19
ENDBRANCH  17  18
ENDBRANCH  16  17
ENDBRANCH  15  16
ENDBRANCH  14  15
ENDBRANCH  13  14
ENDBRANCH  12  13
ENDBRANCH   1  12
TORSDOF 16
ENDMDL
MODEL 8
REMARK VINA RESULT:    -4.605      1.639      1.986
REMARK INTER + INTRA:         -10.446
REMARK INTER:                  -8.761
REMARK INTRA:                  -1.686
REMARK UNBOUND:                -1.534
REMARK SMILES CCCCCCCCCCCCCCCCCC(=O)[O-]
REMARK SMILES IDX 10 1 11 2 12 3 13 4 14 5 15 6 16 7 17 8 18 9 19 10 20 11
REMARK SMILES IDX 9 12 8 13 7 14 6 15 5 16 4 17 3 18 2 19 1 20
REMARK H PARENT
REMARK Flexibility Score: inf
ROOT
ATOM      1  C   UNL     1       1.188  24.805  51.618  1.00  0.00     0.000 C 
ENDROOT
BRANCH   1   2
ATOM      2  C   UNL     1       0.634  23.473  51.096  1.00  0.00     0.000 C 
BRANCH   2   3
ATOM      3  C   UNL     1       1.304  22.284  51.803  1.00  0.00     0.000 C 
BRANCH   3   4
ATOM      4  C   UNL     1       2.658  22.652  52.434  1.00  0.00     0.000 C 
BRANCH   4   5
ATOM      5  C   UNL     1       3.866  21.873  51.876  1.00  0.00     0.000 C 
BRANCH   5   6
ATOM      6  C   UNL     1       4.920  22.731  51.148  1.00  0.00     0.000 C 
BRANCH   6   7
ATOM      7  C   UNL     1       5.254  24.069  51.832  1.00  0.00     0.006 C 
BRANCH   7   8
ATOM      8  C   UNL     1       6.148  24.970  50.972  1.00  0.00     0.053 C 
BRANCH   8   9
ATOM      9  C   UNL     1       5.534  26.326  50.824  1.00  0.00     0.041 C 
ATOM     10  O   UNL     1       5.960  27.122  49.946  1.00  0.00    -0.550 OA
ATOM     11  O   UNL     1       4.520  26.728  51.685  1.00  0.00    -0.550 OA
ENDBRANCH   8   9
ENDBRANCH   7   8
ENDBRANCH   6   7
ENDBRANCH   5   6
ENDBRANCH   4   5
ENDBRANCH   3   4
ENDBRANCH   2   3
ENDBRANCH   1   2
BRANCH   1  12
ATOM     12  C   UNL     1       1.396  25.801  50.470  1.00  0.00     0.000 C 
BRANCH  12  13
ATOM     13  C   UNL     1       2.258  25.186  49.357  1.00  0.00    -0.000 C 
BRANCH  13  14
ATOM     14  C   UNL     1       1.804  25.615  47.953  1.00  0.00    -0.000 C 
BRANCH  14  15
ATOM     15  C   UNL     1       1.040  24.502  47.212  1.00  0.00    -0.000 C 
BRANCH  15  16
ATOM     16  C   UNL     1       1.976  23.512  46.501  1.00  0.00    -0.000 C 
BRANCH  16  17
ATOM     17  C   UNL     1       1.915  23.641  44.969  1.00  0.00    -0.000 C 
BRANCH  17  18
ATOM     18  C   UNL     1       3.099  22.953  44.263  1.00  0.00    -0.000 C 
BRANCH  18  19
ATOM     19  C   UNL     1       2.733  22.183  42.981  1.00  0.00    -0.003 C 
ATOM     20  C   UNL     1       1.489  21.311  43.140  1.00  0.00     0.004 C 
ENDBRANCH  18  19
ENDBRANCH  17  18
ENDBRANCH  16  17
ENDBRANCH  15  16
ENDBRANCH  14  15
ENDBRANCH  13  14
ENDBRANCH  12  13
ENDBRANCH   1  12
TORSDOF 16
ENDMDL
MODEL 9
REMARK VINA RESULT:    -4.583      4.839      6.474
REMARK INTER + INTRA:         -10.403
REMARK INTER:                  -8.037
REMARK INTRA:                  -2.365
REMARK UNBOUND:                -1.534
REMARK SMILES CCCCCCCCCCCCCCCCCC(=O)[O-]
REMARK SMILES IDX 10 1 11 2 12 3 13 4 14 5 15 6 16 7 17 8 18 9 19 10 20 11
REMARK SMILES IDX 9 12 8 13 7 14 6 15 5 16 4 17 3 18 2 19 1 20
REMARK H PARENT
REMARK Flexibility Score: inf
ROOT
ATOM      1  C   UNL     1      -2.013  23.768  56.621  1.00  0.00     0.000 C 
ENDROOT
BRANCH   1   2
ATOM      2  C   UNL     1      -0.639  24.047  57.242  1.00  0.00     0.000 C 
BRANCH   2   3
ATOM      3  C   UNL     1       0.165  22.749  57.407  1.00  0.00     0.000 C 
BRANCH   3   4
ATOM      4  C   UNL     1       1.250  22.579  56.329  1.00  0.00     0.000 C 
BRANCH   4   5
ATOM      5  C   UNL     1       2.656  23.056  56.742  1.00  0.00     0.000 C 
BRANCH   5   6
ATOM      6  C   UNL     1       3.462  23.761  55.633  1.00  0.00     0.000 C 
BRANCH   6   7
ATOM      7  C   UNL     1       4.756  23.042  55.213  1.00  0.00     0.006 C 
BRANCH   7   8
ATOM      8  C   UNL     1       4.987  21.735  55.981  1.00  0.00     0.053 C 
BRANCH   8   9
ATOM      9  C   UNL     1       6.241  21.821  56.792  1.00  0.00     0.041 C 
ATOM     10  O   UNL     1       6.437  22.805  57.553  1.00  0.00    -0.550 OA
ATOM     11  O   UNL     1       7.214  20.836  56.675  1.00  0.00    -0.550 OA
ENDBRANCH   8   9
ENDBRANCH   7   8
ENDBRANCH   6   7
ENDBRANCH   5   6
ENDBRANCH   4   5
ENDBRANCH   3   4
ENDBRANCH   2   3
ENDBRANCH   1   2
BRANCH   1  12
ATOM     12  C   UNL     1      -2.133  24.417  55.236  1.00  0.00     0.000 C 
BRANCH  12  13
ATOM     13  C   UNL     1      -1.261  25.678  55.143  1.00  0.00    -0.000 C 
BRANCH  13  14
ATOM     14  C   UNL     1      -0.224  25.597  54.011  1.00  0.00    -0.000 C 
BRANCH  14  15
ATOM     15  C   UNL     1      -0.044  24.165  53.476  1.00  0.00    -0.000 C 
BRANCH  15  16
ATOM     16  C   UNL     1       1.037  24.069  52.387  1.00  0.00    -0.000 C 
BRANCH  16  17
ATOM     17  C   UNL     1       1.230  22.632  51.874  1.00  0.00    -0.000 C 
BRANCH  17  18
ATOM     18  C   UNL     1       2.124  21.782  52.797  1.00  0.00    -0.000 C 
BRANCH  18  19
ATOM     19  C   UNL     1       3.433  21.284  52.156  1.00  0.00    -0.003 C 
ATOM     20  C   UNL     1       4.296  22.416  51.601  1.00  0.00     0.004 C 
ENDBRANCH  18  19
ENDBRANCH  17  18
ENDBRANCH  16  17
ENDBRANCH  15  16
ENDBRANCH  14  15
ENDBRANCH  13  14
ENDBRANCH  12  13
ENDBRANCH   1  12
TORSDOF 16
ENDMDL
