MODEL 1
REMARK VINA RESULT:    -4.741      0.000      0.000
REMARK INTER + INTRA:          -4.879
REMARK INTER:                  -4.879
REMARK INTRA:                   0.000
REMARK UNBOUND:                 0.000
REMARK SMILES O=c1ccc2ccc(O)cc2o1
REMARK SMILES IDX 6 1 7 2 8 3 10 4 11 5 5 6 4 7 3 8 2 9 1 10 12 11 9 12
REMARK H PARENT 9 13
REMARK Flexibility Score: inf
ROOT
ATOM      1  C   UNL     1      -6.765   2.589  -9.856  1.00  0.00     0.016 A 
ATOM      2  C   UNL     1      -5.392   2.421  -9.650  1.00  0.00     0.047 A 
ATOM      3  C   UNL     1      -4.916   1.329  -8.916  1.00  0.00     0.119 A 
ATOM      4  C   UNL     1      -5.818   0.397  -8.381  1.00  0.00     0.094 A 
ATOM      5  C   UNL     1      -7.194   0.557  -8.583  1.00  0.00     0.142 A 
ATOM      6  C   UNL     1      -7.671   1.661  -9.324  1.00  0.00     0.018 A 
ATOM      7  C   UNL     1      -9.050   1.794  -9.508  1.00  0.00     0.019 A 
ATOM      8  C   UNL     1      -9.909   0.842  -8.958  1.00  0.00     0.094 A 
ATOM      9  C   UNL     1      -9.365  -0.225  -8.235  1.00  0.00     0.336 A 
ATOM     10  O   UNL     1     -10.124  -1.094  -7.732  1.00  0.00    -0.246 OA
ATOM     11  O   UNL     1      -8.048  -0.328  -8.075  1.00  0.00    -0.423 OA
ENDROOT
BRANCH   3  12
ATOM     12  O   UNL     1      -3.544   1.179  -8.721  1.00  0.00    -0.508 OA
ATOM     13  H   UNL     1      -2.945   0.800  -9.447  1.00  0.00     0.293 HD
ENDBRANCH   3  12
TORSDOF 1
ENDMDL
MODEL 2
REMARK VINA RESULT:    -4.498      1.727      4.511
REMARK INTER + INTRA:          -4.630
REMARK INTER:                  -4.630
REMARK INTRA:                   0.000
REMARK UNBOUND:                 0.000
REMARK SMILES O=c1ccc2ccc(O)cc2o1
REMARK SMILES IDX 6 1 7 2 8 3 10 4 11 5 5 6 4 7 3 8 2 9 1 10 12 11 9 12
REMARK H PARENT 9 13
REMARK Flexibility Score: inf
ROOT
ATOM      1  C   UNL     1      -8.201  -0.763  -9.944  1.00  0.00     0.016 A 
ATOM      2  C   UNL     1      -9.270   0.078  -9.619  1.00  0.00     0.047 A 
ATOM      3  C   UNL     1      -9.045   1.276  -8.932  1.00  0.00     0.119 A 
ATOM      4  C   UNL     1      -7.741   1.640  -8.566  1.00  0.00     0.094 A 
ATOM      5  C   UNL     1      -6.664   0.805  -8.887  1.00  0.00     0.142 A 
ATOM      6  C   UNL     1      -6.895  -0.404  -9.580  1.00  0.00     0.018 A 
ATOM      7  C   UNL     1      -5.799  -1.216  -9.886  1.00  0.00     0.019 A 
ATOM      8  C   UNL     1      -4.520  -0.814  -9.502  1.00  0.00     0.094 A 
ATOM      9  C   UNL     1      -4.367   0.397  -8.818  1.00  0.00     0.336 A 
ATOM     10  O   UNL     1      -3.221   0.777  -8.464  1.00  0.00    -0.246 OA
ATOM     11  O   UNL     1      -5.427   1.151  -8.539  1.00  0.00    -0.423 OA
ENDROOT
BRANCH   3  12
ATOM     12  O   UNL     1     -10.125   2.099  -8.617  1.00  0.00    -0.508 OA
ATOM     13  H   UNL     1     -10.045   3.110  -8.641  1.00  0.00     0.293 HD
ENDBRANCH   3  12
TORSDOF 1
ENDMDL
MODEL 3
REMARK VINA RESULT:    -4.433      2.215      5.038
REMARK INTER + INTRA:          -4.562
REMARK INTER:                  -4.562
REMARK INTRA:                   0.000
REMARK UNBOUND:                 0.000
REMARK SMILES O=c1ccc2ccc(O)cc2o1
REMARK SMILES IDX 6 1 7 2 8 3 10 4 11 5 5 6 4 7 3 8 2 9 1 10 12 11 9 12
REMARK H PARENT 9 13
REMARK Flexibility Score: inf
ROOT
ATOM      1  C   UNL     1      -6.631   0.303  -8.186  1.00  0.00     0.016 A 
ATOM      2  C   UNL     1      -7.626   1.147  -8.690  1.00  0.00     0.047 A 
ATOM      3  C   UNL     1      -7.309   2.128  -9.636  1.00  0.00     0.119 A 
ATOM      4  C   UNL     1      -5.987   2.268 -10.084  1.00  0.00     0.094 A 
ATOM      5  C   UNL     1      -4.985   1.427  -9.586  1.00  0.00     0.142 A 
ATOM      6  C   UNL     1      -5.309   0.439  -8.631  1.00  0.00     0.018 A 
ATOM      7  C   UNL     1      -4.286  -0.386  -8.152  1.00  0.00     0.019 A 
ATOM      8  C   UNL     1      -2.987  -0.210  -8.626  1.00  0.00     0.094 A 
ATOM      9  C   UNL     1      -2.740   0.791  -9.573  1.00  0.00     0.336 A 
ATOM     10  O   UNL     1      -1.573   0.964 -10.013  1.00  0.00    -0.246 OA
ATOM     11  O   UNL     1      -3.732   1.562 -10.012  1.00  0.00    -0.423 OA
ENDROOT
BRANCH   3  12
ATOM     12  O   UNL     1      -8.315   2.960 -10.124  1.00  0.00    -0.508 OA
ATOM     13  H   UNL     1      -8.154   3.949 -10.282  1.00  0.00     0.293 HD
ENDBRANCH   3  12
TORSDOF 1
ENDMDL
MODEL 4
REMARK VINA RESULT:    -4.361     10.251     11.067
REMARK INTER + INTRA:          -4.488
REMARK INTER:                  -4.488
REMARK INTRA:                   0.000
REMARK UNBOUND:                 0.000
REMARK SMILES O=c1ccc2ccc(O)cc2o1
REMARK SMILES IDX 6 1 7 2 8 3 10 4 11 5 5 6 4 7 3 8 2 9 1 10 12 11 9 12
REMARK H PARENT 9 13
REMARK Flexibility Score: inf
ROOT
ATOM      1  C   UNL     1      -0.146   0.829  -0.131  1.00  0.00     0.016 A 
ATOM      2  C   UNL     1       1.038   0.084  -0.157  1.00  0.00     0.047 A 
ATOM      3  C   UNL     1       1.011  -1.295   0.079  1.00  0.00     0.119 A 
ATOM      4  C   UNL     1      -0.207  -1.937   0.345  1.00  0.00     0.094 A 
ATOM      5  C   UNL     1      -1.397  -1.199   0.373  1.00  0.00     0.142 A 
ATOM      6  C   UNL     1      -1.366   0.192   0.135  1.00  0.00     0.018 A 
ATOM      7  C   UNL     1      -2.570   0.901   0.170  1.00  0.00     0.019 A 
ATOM      8  C   UNL     1      -3.758   0.221   0.438  1.00  0.00     0.094 A 
ATOM      9  C   UNL     1      -3.712  -1.160   0.665  1.00  0.00     0.336 A 
ATOM     10  O   UNL     1      -4.773  -1.791   0.907  1.00  0.00    -0.246 OA
ATOM     11  O   UNL     1      -2.552  -1.810   0.625  1.00  0.00    -0.423 OA
ENDROOT
BRANCH   3  12
ATOM     12  O   UNL     1       2.202  -2.018   0.049  1.00  0.00    -0.508 OA
ATOM     13  H   UNL     1       2.718  -2.153  -0.814  1.00  0.00     0.293 HD
ENDBRANCH   3  12
TORSDOF 1
ENDMDL
MODEL 5
REMARK VINA RESULT:    -4.357      2.042      3.215
REMARK INTER + INTRA:          -4.484
REMARK INTER:                  -4.484
REMARK INTRA:                   0.000
REMARK UNBOUND:                 0.000
REMARK SMILES O=c1ccc2ccc(O)cc2o1
REMARK SMILES IDX 6 1 7 2 8 3 10 4 11 5 5 6 4 7 3 8 2 9 1 10 12 11 9 12
REMARK H PARENT 9 13
REMARK Flexibility Score: inf
ROOT
ATOM      1  C   UNL     1      -3.185   1.008 -10.124  1.00  0.00     0.016 A 
ATOM      2  C   UNL     1      -2.468  -0.146  -9.789  1.00  0.00     0.047 A 
ATOM      3  C   UNL     1      -3.049  -1.130  -8.983  1.00  0.00     0.119 A 
ATOM      4  C   UNL     1      -4.358  -0.963  -8.506  1.00  0.00     0.094 A 
ATOM      5  C   UNL     1      -5.083   0.188  -8.836  1.00  0.00     0.142 A 
ATOM      6  C   UNL     1      -4.493   1.180  -9.650  1.00  0.00     0.018 A 
ATOM      7  C   UNL     1      -5.242   2.318  -9.962  1.00  0.00     0.019 A 
ATOM      8  C   UNL     1      -6.540   2.441  -9.466  1.00  0.00     0.094 A 
ATOM      9  C   UNL     1      -7.059   1.418  -8.665  1.00  0.00     0.336 A 
ATOM     10  O   UNL     1      -8.228   1.511  -8.208  1.00  0.00    -0.246 OA
ATOM     11  O   UNL     1      -6.324   0.345  -8.383  1.00  0.00    -0.423 OA
ENDROOT
BRANCH   3  12
ATOM     12  O   UNL     1      -2.318  -2.272  -8.660  1.00  0.00    -0.508 OA
ATOM     13  H   UNL     1      -2.738  -3.194  -8.686  1.00  0.00     0.293 HD
ENDBRANCH   3  12
TORSDOF 1
ENDMDL
MODEL 6
REMARK VINA RESULT:    -4.336      1.645      2.146
REMARK INTER + INTRA:          -4.463
REMARK INTER:                  -4.463
REMARK INTRA:                   0.000
REMARK UNBOUND:                 0.000
REMARK SMILES O=c1ccc2ccc(O)cc2o1
REMARK SMILES IDX 6 1 7 2 8 3 10 4 11 5 5 6 4 7 3 8 2 9 1 10 12 11 9 12
REMARK H PARENT 9 13
REMARK Flexibility Score: inf
ROOT
ATOM      1  C   UNL     1      -5.732  -1.162 -10.114  1.00  0.00     0.016 A 
ATOM      2  C   UNL     1      -4.455  -0.735  -9.734  1.00  0.00     0.047 A 
ATOM      3  C   UNL     1      -4.302   0.358  -8.874  1.00  0.00     0.119 A 
ATOM      4  C   UNL     1      -5.433   1.031  -8.388  1.00  0.00     0.094 A 
ATOM      5  C   UNL     1      -6.715   0.611  -8.763  1.00  0.00     0.142 A 
ATOM      6  C   UNL     1      -6.865  -0.493  -9.631  1.00  0.00     0.018 A 
ATOM      7  C   UNL     1      -8.158  -0.889  -9.987  1.00  0.00     0.019 A 
ATOM      8  C   UNL     1      -9.252  -0.190  -9.479  1.00  0.00     0.094 A 
ATOM      9  C   UNL     1      -9.027   0.894  -8.623  1.00  0.00     0.336 A 
ATOM     10  O   UNL     1     -10.002   1.537  -8.155  1.00  0.00    -0.246 OA
ATOM     11  O   UNL     1      -7.786   1.250  -8.301  1.00  0.00    -0.423 OA
ENDROOT
BRANCH   3  12
ATOM     12  O   UNL     1      -3.022   0.769  -8.508  1.00  0.00    -0.508 OA
ATOM     13  H   UNL     1      -2.754   0.862  -7.535  1.00  0.00     0.293 HD
ENDBRANCH   3  12
TORSDOF 1
ENDMDL
MODEL 7
REMARK VINA RESULT:    -4.262      2.724      4.031
REMARK INTER + INTRA:          -4.386
REMARK INTER:                  -4.386
REMARK INTRA:                   0.000
REMARK UNBOUND:                 0.000
REMARK SMILES O=c1ccc2ccc(O)cc2o1
REMARK SMILES IDX 6 1 7 2 8 3 10 4 11 5 5 6 4 7 3 8 2 9 1 10 12 11 9 12
REMARK H PARENT 9 13
REMARK Flexibility Score: inf
ROOT
ATOM      1  C   UNL     1      -5.834  -1.611 -10.032  1.00  0.00     0.016 A 
ATOM      2  C   UNL     1      -4.783  -2.492  -9.757  1.00  0.00     0.047 A 
ATOM      3  C   UNL     1      -3.652  -2.050  -9.063  1.00  0.00     0.119 A 
ATOM      4  C   UNL     1      -3.567  -0.716  -8.639  1.00  0.00     0.094 A 
ATOM      5  C   UNL     1      -4.614   0.174  -8.908  1.00  0.00     0.142 A 
ATOM      6  C   UNL     1      -5.754  -0.276  -9.609  1.00  0.00     0.018 A 
ATOM      7  C   UNL     1      -6.783   0.636  -9.864  1.00  0.00     0.019 A 
ATOM      8  C   UNL     1      -6.655   1.953  -9.422  1.00  0.00     0.094 A 
ATOM      9  C   UNL     1      -5.495   2.327  -8.733  1.00  0.00     0.336 A 
ATOM     10  O   UNL     1      -5.362   3.511  -8.327  1.00  0.00    -0.246 OA
ATOM     11  O   UNL     1      -4.532   1.439  -8.505  1.00  0.00    -0.423 OA
ENDROOT
BRANCH   3  12
ATOM     12  O   UNL     1      -2.616  -2.944  -8.801  1.00  0.00    -0.508 OA
ATOM     13  H   UNL     1      -1.728  -2.883  -9.286  1.00  0.00     0.293 HD
ENDBRANCH   3  12
TORSDOF 1
ENDMDL
MODEL 8
REMARK VINA RESULT:    -4.255      2.062      4.539
REMARK INTER + INTRA:          -4.379
REMARK INTER:                  -4.379
REMARK INTRA:                   0.000
REMARK UNBOUND:                 0.000
REMARK SMILES O=c1ccc2ccc(O)cc2o1
REMARK SMILES IDX 6 1 7 2 8 3 10 4 11 5 5 6 4 7 3 8 2 9 1 10 12 11 9 12
REMARK H PARENT 9 13
REMARK Flexibility Score: inf
ROOT
ATOM      1  C   UNL     1      -5.081   2.372  -9.936  1.00  0.00     0.016 A 
ATOM      2  C   UNL     1      -6.374   2.615  -9.462  1.00  0.00     0.047 A 
ATOM      3  C   UNL     1      -7.052   1.639  -8.722  1.00  0.00     0.119 A 
ATOM      4  C   UNL     1      -6.433   0.410  -8.453  1.00  0.00     0.094 A 
ATOM      5  C   UNL     1      -5.139   0.157  -8.923  1.00  0.00     0.142 A 
ATOM      6  C   UNL     1      -4.459   1.145  -9.669  1.00  0.00     0.018 A 
ATOM      7  C   UNL     1      -3.167   0.863 -10.125  1.00  0.00     0.019 A 
ATOM      8  C   UNL     1      -2.592  -0.373  -9.832  1.00  0.00     0.094 A 
ATOM      9  C   UNL     1      -3.327  -1.303  -9.087  1.00  0.00     0.336 A 
ATOM     10  O   UNL     1      -2.824  -2.424  -8.813  1.00  0.00    -0.246 OA
ATOM     11  O   UNL     1      -4.554  -1.010  -8.666  1.00  0.00    -0.423 OA
ENDROOT
BRANCH   3  12
ATOM     12  O   UNL     1      -8.340   1.901  -8.260  1.00  0.00    -0.508 OA
ATOM     13  H   UNL     1      -8.505   2.523  -7.476  1.00  0.00     0.293 HD
ENDBRANCH   3  12
TORSDOF 1
ENDMDL
MODEL 9
REMARK VINA RESULT:    -4.002     19.302     20.490
REMARK INTER + INTRA:          -4.119
REMARK INTER:                  -4.119
REMARK INTRA:                   0.000
REMARK UNBOUND:                 0.000
REMARK SMILES O=c1ccc2ccc(O)cc2o1
REMARK SMILES IDX 6 1 7 2 8 3 10 4 11 5 5 6 4 7 3 8 2 9 1 10 12 11 9 12
REMARK H PARENT 9 13
REMARK Flexibility Score: inf
ROOT
ATOM      1  C   UNL     1      -0.346  -8.194   9.740  1.00  0.00     0.016 A 
ATOM      2  C   UNL     1       0.419  -7.087  10.125  1.00  0.00     0.047 A 
ATOM      3  C   UNL     1       1.131  -6.353   9.170  1.00  0.00     0.119 A 
ATOM      4  C   UNL     1       1.081  -6.726   7.819  1.00  0.00     0.094 A 
ATOM      5  C   UNL     1       0.319  -7.832   7.424  1.00  0.00     0.142 A 
ATOM      6  C   UNL     1      -0.398  -8.571   8.391  1.00  0.00     0.018 A 
ATOM      7  C   UNL     1      -1.150  -9.671   7.966  1.00  0.00     0.019 A 
ATOM      8  C   UNL     1      -1.170 -10.004   6.612  1.00  0.00     0.094 A 
ATOM      9  C   UNL     1      -0.434  -9.226   5.711  1.00  0.00     0.336 A 
ATOM     10  O   UNL     1      -0.441  -9.511   4.485  1.00  0.00    -0.246 OA
ATOM     11  O   UNL     1       0.273  -8.185   6.142  1.00  0.00    -0.423 OA
ENDROOT
BRANCH   3  12
ATOM     12  O   UNL     1       1.887  -5.254   9.574  1.00  0.00    -0.508 OA
ATOM     13  H   UNL     1       2.783  -5.369  10.035  1.00  0.00     0.293 HD
ENDBRANCH   3  12
TORSDOF 1
ENDMDL
