MODEL 1
REMARK VINA RESULT:    -2.103      0.000      0.000
REMARK INTER + INTRA:          -4.720
REMARK INTER:                  -5.300
REMARK INTRA:                   0.580
REMARK UNBOUND:                 0.580
REMARK SMILES CCCCCCCCCCCCCCCCCCCCCCCCCCCC(=O)[O-]
REMARK SMILES IDX 15 1 16 2 17 3 18 4 19 5 20 6 21 7 22 8 23 9 24 10 25 11
REMARK SMILES IDX 26 12 27 13 28 14 29 15 30 16 14 17 13 18 12 19 11 20 10 21
REMARK SMILES IDX 9 22 8 23 7 24 6 25 5 26 4 27 3 28 2 29 1 30
REMARK H PARENT
REMARK Flexibility Score: inf
ROOT
ATOM      1  C   UNL     1      14.062  -7.137   5.496  1.00  0.00     0.000 C 
ENDROOT
BRANCH   1   2
ATOM      2  C   UNL     1      13.410  -8.260   4.675  1.00  0.00     0.000 C 
BRANCH   2   3
ATOM      3  C   UNL     1      11.884  -8.319   4.866  1.00  0.00     0.000 C 
BRANCH   3   4
ATOM      4  C   UNL     1      11.209  -9.373   3.970  1.00  0.00     0.000 C 
BRANCH   4   5
ATOM      5  C   UNL     1       9.879  -9.936   4.511  1.00  0.00     0.000 C 
BRANCH   5   6
ATOM      6  C   UNL     1       8.730  -8.915   4.626  1.00  0.00     0.000 C 
BRANCH   6   7
ATOM      7  C   UNL     1       8.969  -7.578   3.902  1.00  0.00     0.000 C 
BRANCH   7   8
ATOM      8  C   UNL     1       7.720  -6.683   3.875  1.00  0.00     0.000 C 
BRANCH   8   9
ATOM      9  C   UNL     1       6.873  -6.796   5.158  1.00  0.00     0.000 C 
BRANCH   9  10
ATOM     10  C   UNL     1       5.408  -6.337   5.022  1.00  0.00     0.000 C 
BRANCH  10  11
ATOM     11  C   UNL     1       4.599  -7.037   3.912  1.00  0.00     0.000 C 
BRANCH  11  12
ATOM     12  C   UNL     1       3.298  -7.701   4.410  1.00  0.00     0.006 C 
BRANCH  12  13
ATOM     13  C   UNL     1       3.329  -9.231   4.288  1.00  0.00     0.053 C 
BRANCH  13  14
ATOM     14  C   UNL     1       4.561  -9.782   4.934  1.00  0.00     0.041 C 
ATOM     15  O   UNL     1       4.618  -9.905   6.187  1.00  0.00    -0.550 OA
ATOM     16  O   UNL     1       5.660 -10.125   4.157  1.00  0.00    -0.550 OA
ENDBRANCH  13  14
ENDBRANCH  12  13
ENDBRANCH  11  12
ENDBRANCH  10  11
ENDBRANCH   9  10
ENDBRANCH   8   9
ENDBRANCH   7   8
ENDBRANCH   6   7
ENDBRANCH   5   6
ENDBRANCH   4   5
ENDBRANCH   3   4
ENDBRANCH   2   3
ENDBRANCH   1   2
BRANCH   1  17
ATOM     17  C   UNL     1      15.207  -6.440   4.745  1.00  0.00     0.000 C 
BRANCH  17  18
ATOM     18  C   UNL     1      15.979  -7.443   3.875  1.00  0.00     0.000 C 
BRANCH  18  19
ATOM     19  C   UNL     1      16.896  -8.366   4.697  1.00  0.00     0.000 C 
BRANCH  19  20
ATOM     20  C   UNL     1      18.062  -9.001   3.910  1.00  0.00     0.000 C 
BRANCH  20  21
ATOM     21  C   UNL     1      19.453  -8.809   4.539  1.00  0.00     0.000 C 
BRANCH  21  22
ATOM     22  C   UNL     1      19.649  -9.647   5.815  1.00  0.00    -0.000 C 
BRANCH  22  23
ATOM     23  C   UNL     1      20.123  -8.799   7.006  1.00  0.00    -0.000 C 
BRANCH  23  24
ATOM     24  C   UNL     1      19.741  -7.314   6.859  1.00  0.00    -0.000 C 
BRANCH  24  25
ATOM     25  C   UNL     1      20.127  -6.731   5.488  1.00  0.00    -0.000 C 
BRANCH  25  26
ATOM     26  C   UNL     1      20.736  -5.317   5.535  1.00  0.00    -0.000 C 
BRANCH  26  27
ATOM     27  C   UNL     1      21.275  -4.852   4.174  1.00  0.00    -0.000 C 
BRANCH  27  28
ATOM     28  C   UNL     1      22.644  -5.484   3.883  1.00  0.00    -0.000 C 
BRANCH  28  29
ATOM     29  C   UNL     1      22.934  -6.701   4.773  1.00  0.00    -0.003 C 
ATOM     30  C   UNL     1      22.954  -8.015   3.990  1.00  0.00     0.004 C 
ENDBRANCH  28  29
ENDBRANCH  27  28
ENDBRANCH  26  27
ENDBRANCH  25  26
ENDBRANCH  24  25
ENDBRANCH  23  24
ENDBRANCH  22  23
ENDBRANCH  21  22
ENDBRANCH  20  21
ENDBRANCH  19  20
ENDBRANCH  18  19
ENDBRANCH  17  18
ENDBRANCH   1  17
TORSDOF 26
ENDMDL
MODEL 2
REMARK VINA RESULT:    -1.576      4.766     13.623
REMARK INTER + INTRA:          -3.392
REMARK INTER:                  -3.483
REMARK INTRA:                   0.091
REMARK UNBOUND:                 0.580
REMARK SMILES CCCCCCCCCCCCCCCCCCCCCCCCCCCC(=O)[O-]
REMARK SMILES IDX 15 1 16 2 17 3 18 4 19 5 20 6 21 7 22 8 23 9 24 10 25 11
REMARK SMILES IDX 26 12 27 13 28 14 29 15 30 16 14 17 13 18 12 19 11 20 10 21
REMARK SMILES IDX 9 22 8 23 7 24 6 25 5 26 4 27 3 28 2 29 1 30
REMARK H PARENT
REMARK Flexibility Score: inf
ROOT
ATOM      1  C   UNL     1      11.142  -7.327   6.649  1.00  0.00     0.000 C 
ENDROOT
BRANCH   1   2
ATOM      2  C   UNL     1      12.530  -7.834   6.229  1.00  0.00     0.000 C 
BRANCH   2   3
ATOM      3  C   UNL     1      12.645  -8.045   4.709  1.00  0.00     0.000 C 
BRANCH   3   4
ATOM      4  C   UNL     1      14.053  -8.483   4.270  1.00  0.00     0.000 C 
BRANCH   4   5
ATOM      5  C   UNL     1      14.456  -9.910   4.694  1.00  0.00     0.000 C 
BRANCH   5   6
ATOM      6  C   UNL     1      15.964 -10.125   4.933  1.00  0.00     0.000 C 
BRANCH   6   7
ATOM      7  C   UNL     1      16.893  -9.361   3.971  1.00  0.00     0.000 C 
BRANCH   7   8
ATOM      8  C   UNL     1      18.090  -8.714   4.687  1.00  0.00     0.000 C 
BRANCH   8   9
ATOM      9  C   UNL     1      18.723  -9.633   5.749  1.00  0.00     0.000 C 
BRANCH   9  10
ATOM     10  C   UNL     1      19.689  -8.939   6.729  1.00  0.00     0.000 C 
BRANCH  10  11
ATOM     11  C   UNL     1      19.882  -7.427   6.502  1.00  0.00     0.000 C 
BRANCH  11  12
ATOM     12  C   UNL     1      19.674  -6.982   5.039  1.00  0.00     0.006 C 
BRANCH  12  13
ATOM     13  C   UNL     1      20.416  -5.680   4.705  1.00  0.00     0.053 C 
BRANCH  13  14
ATOM     14  C   UNL     1      21.872  -5.950   4.493  1.00  0.00     0.041 C 
ATOM     15  O   UNL     1      22.604  -5.082   3.944  1.00  0.00    -0.550 OA
ATOM     16  O   UNL     1      22.416  -7.173   4.868  1.00  0.00    -0.550 OA
ENDBRANCH  13  14
ENDBRANCH  12  13
ENDBRANCH  11  12
ENDBRANCH  10  11
ENDBRANCH   9  10
ENDBRANCH   8   9
ENDBRANCH   7   8
ENDBRANCH   6   7
ENDBRANCH   5   6
ENDBRANCH   4   5
ENDBRANCH   3   4
ENDBRANCH   2   3
ENDBRANCH   1   2
BRANCH   1  17
ATOM     17  C   UNL     1      10.218  -8.457   7.129  1.00  0.00     0.000 C 
BRANCH  17  18
ATOM     18  C   UNL     1       8.745  -8.032   7.043  1.00  0.00     0.000 C 
BRANCH  18  19
ATOM     19  C   UNL     1       7.844  -9.117   6.426  1.00  0.00     0.000 C 
BRANCH  19  20
ATOM     20  C   UNL     1       7.907  -9.224   4.888  1.00  0.00     0.000 C 
BRANCH  20  21
ATOM     21  C   UNL     1       6.546  -9.393   4.191  1.00  0.00     0.000 C 
BRANCH  21  22
ATOM     22  C   UNL     1       5.494 -10.059   5.096  1.00  0.00    -0.000 C 
BRANCH  22  23
ATOM     23  C   UNL     1       4.060  -9.837   4.591  1.00  0.00    -0.000 C 
BRANCH  23  24
ATOM     24  C   UNL     1       3.437  -8.542   5.142  1.00  0.00    -0.000 C 
BRANCH  24  25
ATOM     25  C   UNL     1       3.255  -7.460   4.062  1.00  0.00    -0.000 C 
BRANCH  25  26
ATOM     26  C   UNL     1       4.463  -6.522   3.875  1.00  0.00    -0.000 C 
BRANCH  26  27
ATOM     27  C   UNL     1       5.087  -6.078   5.207  1.00  0.00    -0.000 C 
BRANCH  27  28
ATOM     28  C   UNL     1       4.425  -4.790   5.718  1.00  0.00    -0.000 C 
BRANCH  28  29
ATOM     29  C   UNL     1       3.173  -4.410   4.914  1.00  0.00    -0.003 C 
ATOM     30  C   UNL     1       3.211  -2.968   4.405  1.00  0.00     0.004 C 
ENDBRANCH  28  29
ENDBRANCH  27  28
ENDBRANCH  26  27
ENDBRANCH  25  26
ENDBRANCH  24  25
ENDBRANCH  23  24
ENDBRANCH  22  23
ENDBRANCH  21  22
ENDBRANCH  20  21
ENDBRANCH  19  20
ENDBRANCH  18  19
ENDBRANCH  17  18
ENDBRANCH   1  17
TORSDOF 26
ENDMDL
MODEL 3
REMARK VINA RESULT:    -1.556      1.729      4.180
REMARK INTER + INTRA:          -3.340
REMARK INTER:                  -2.182
REMARK INTRA:                  -1.159
REMARK UNBOUND:                 0.580
REMARK SMILES CCCCCCCCCCCCCCCCCCCCCCCCCCCC(=O)[O-]
REMARK SMILES IDX 15 1 16 2 17 3 18 4 19 5 20 6 21 7 22 8 23 9 24 10 25 11
REMARK SMILES IDX 26 12 27 13 28 14 29 15 30 16 14 17 13 18 12 19 11 20 10 21
REMARK SMILES IDX 9 22 8 23 7 24 6 25 5 26 4 27 3 28 2 29 1 30
REMARK H PARENT
REMARK Flexibility Score: inf
ROOT
ATOM      1  C   UNL     1      18.744  -6.083   8.774  1.00  0.00     0.000 C 
ENDROOT
BRANCH   1   2
ATOM      2  C   UNL     1      17.788  -6.310   7.592  1.00  0.00     0.000 C 
BRANCH   2   3
ATOM      3  C   UNL     1      16.323  -6.455   8.041  1.00  0.00     0.000 C 
BRANCH   3   4
ATOM      4  C   UNL     1      15.376  -6.818   6.883  1.00  0.00     0.000 C 
BRANCH   4   5
ATOM      5  C   UNL     1      14.479  -8.048   7.132  1.00  0.00     0.000 C 
BRANCH   5   6
ATOM      6  C   UNL     1      13.397  -8.301   6.063  1.00  0.00     0.000 C 
BRANCH   6   7
ATOM      7  C   UNL     1      13.507  -9.650   5.328  1.00  0.00     0.000 C 
BRANCH   7   8
ATOM      8  C   UNL     1      12.764  -9.658   3.983  1.00  0.00     0.000 C 
BRANCH   8   9
ATOM      9  C   UNL     1      11.468  -8.825   4.008  1.00  0.00     0.000 C 
BRANCH   9  10
ATOM     10  C   UNL     1      10.162  -9.636   3.899  1.00  0.00     0.000 C 
BRANCH  10  11
ATOM     11  C   UNL     1       8.925  -8.981   4.542  1.00  0.00     0.000 C 
BRANCH  11  12
ATOM     12  C   UNL     1       7.644  -9.837   4.449  1.00  0.00     0.006 C 
BRANCH  12  13
ATOM     13  C   UNL     1       6.386  -8.995   4.191  1.00  0.00     0.053 C 
BRANCH  13  14
ATOM     14  C   UNL     1       6.016  -8.220   5.416  1.00  0.00     0.041 C 
ATOM     15  O   UNL     1       5.331  -7.166   5.317  1.00  0.00    -0.550 OA
ATOM     16  O   UNL     1       6.459  -8.639   6.664  1.00  0.00    -0.550 OA
ENDBRANCH  13  14
ENDBRANCH  12  13
ENDBRANCH  11  12
ENDBRANCH  10  11
ENDBRANCH   9  10
ENDBRANCH   8   9
ENDBRANCH   7   8
ENDBRANCH   6   7
ENDBRANCH   5   6
ENDBRANCH   4   5
ENDBRANCH   3   4
ENDBRANCH   2   3
ENDBRANCH   1   2
BRANCH   1  17
ATOM     17  C   UNL     1      19.897  -7.097   8.807  1.00  0.00     0.000 C 
BRANCH  17  18
ATOM     18  C   UNL     1      19.416  -8.486   8.363  1.00  0.00     0.000 C 
BRANCH  18  19
ATOM     19  C   UNL     1      19.639  -8.745   6.862  1.00  0.00     0.000 C 
BRANCH  19  20
ATOM     20  C   UNL     1      19.124 -10.105   6.348  1.00  0.00     0.000 C 
BRANCH  20  21
ATOM     21  C   UNL     1      17.804 -10.046   5.558  1.00  0.00     0.000 C 
BRANCH  21  22
ATOM     22  C   UNL     1      17.298  -8.607   5.357  1.00  0.00    -0.000 C 
BRANCH  22  23
ATOM     23  C   UNL     1      17.869  -7.956   4.088  1.00  0.00    -0.000 C 
BRANCH  23  24
ATOM     24  C   UNL     1      18.294  -6.494   4.317  1.00  0.00    -0.000 C 
BRANCH  24  25
ATOM     25  C   UNL     1      19.756  -6.227   3.919  1.00  0.00    -0.000 C 
BRANCH  25  26
ATOM     26  C   UNL     1      20.270  -4.813   4.253  1.00  0.00    -0.000 C 
BRANCH  26  27
ATOM     27  C   UNL     1      21.799  -4.748   4.385  1.00  0.00    -0.000 C 
BRANCH  27  28
ATOM     28  C   UNL     1      22.316  -5.863   5.306  1.00  0.00    -0.000 C 
BRANCH  28  29
ATOM     29  C   UNL     1      23.125  -6.927   4.549  1.00  0.00    -0.003 C 
ATOM     30  C   UNL     1      22.238  -7.975   3.875  1.00  0.00     0.004 C 
ENDBRANCH  28  29
ENDBRANCH  27  28
ENDBRANCH  26  27
ENDBRANCH  25  26
ENDBRANCH  24  25
ENDBRANCH  23  24
ENDBRANCH  22  23
ENDBRANCH  21  22
ENDBRANCH  20  21
ENDBRANCH  19  20
ENDBRANCH  18  19
ENDBRANCH  17  18
ENDBRANCH   1  17
TORSDOF 26
ENDMDL
MODEL 4
REMARK VINA RESULT:    -1.421      3.627     12.396
REMARK INTER + INTRA:          -3.001
REMARK INTER:                  -2.262
REMARK INTRA:                  -0.738
REMARK UNBOUND:                 0.580
REMARK SMILES CCCCCCCCCCCCCCCCCCCCCCCCCCCC(=O)[O-]
REMARK SMILES IDX 15 1 16 2 17 3 18 4 19 5 20 6 21 7 22 8 23 9 24 10 25 11
REMARK SMILES IDX 26 12 27 13 28 14 29 15 30 16 14 17 13 18 12 19 11 20 10 21
REMARK SMILES IDX 9 22 8 23 7 24 6 25 5 26 4 27 3 28 2 29 1 30
REMARK H PARENT
REMARK Flexibility Score: inf
ROOT
ATOM      1  C   UNL     1      17.989  -6.711   8.408  1.00  0.00     0.000 C 
ENDROOT
BRANCH   1   2
ATOM      2  C   UNL     1      19.323  -6.636   7.650  1.00  0.00     0.000 C 
BRANCH   2   3
ATOM      3  C   UNL     1      19.276  -5.646   6.472  1.00  0.00     0.000 C 
BRANCH   3   4
ATOM      4  C   UNL     1      18.967  -6.329   5.128  1.00  0.00     0.000 C 
BRANCH   4   5
ATOM      5  C   UNL     1      19.719  -5.751   3.913  1.00  0.00     0.000 C 
BRANCH   5   6
ATOM      6  C   UNL     1      20.700  -4.606   4.229  1.00  0.00     0.000 C 
BRANCH   6   7
ATOM      7  C   UNL     1      22.182  -4.920   3.952  1.00  0.00     0.000 C 
BRANCH   7   8
ATOM      8  C   UNL     1      22.868  -5.640   5.124  1.00  0.00     0.000 C 
BRANCH   8   9
ATOM      9  C   UNL     1      22.954  -7.166   4.924  1.00  0.00     0.000 C 
BRANCH   9  10
ATOM     10  C   UNL     1      21.756  -7.803   4.194  1.00  0.00     0.000 C 
BRANCH  10  11
ATOM     11  C   UNL     1      21.902  -9.303   3.875  1.00  0.00     0.000 C 
BRANCH  11  12
ATOM     12  C   UNL     1      20.621 -10.125   4.133  1.00  0.00     0.006 C 
BRANCH  12  13
ATOM     13  C   UNL     1      19.379  -9.243   4.322  1.00  0.00     0.053 C 
BRANCH  13  14
ATOM     14  C   UNL     1      18.644  -9.636   5.565  1.00  0.00     0.041 C 
ATOM     15  O   UNL     1      17.384  -9.675   5.571  1.00  0.00    -0.550 OA
ATOM     16  O   UNL     1      19.348  -9.924   6.728  1.00  0.00    -0.550 OA
ENDBRANCH  13  14
ENDBRANCH  12  13
ENDBRANCH  11  12
ENDBRANCH  10  11
ENDBRANCH   9  10
ENDBRANCH   8   9
ENDBRANCH   7   8
ENDBRANCH   6   7
ENDBRANCH   5   6
ENDBRANCH   4   5
ENDBRANCH   3   4
ENDBRANCH   2   3
ENDBRANCH   1   2
BRANCH   1  17
ATOM     17  C   UNL     1      16.775  -6.480   7.495  1.00  0.00     0.000 C 
BRANCH  17  18
ATOM     18  C   UNL     1      15.487  -6.988   8.160  1.00  0.00     0.000 C 
BRANCH  18  19
ATOM     19  C   UNL     1      14.612  -7.823   7.208  1.00  0.00     0.000 C 
BRANCH  19  20
ATOM     20  C   UNL     1      14.842  -7.558   5.706  1.00  0.00     0.000 C 
BRANCH  20  21
ATOM     21  C   UNL     1      14.249  -8.617   4.760  1.00  0.00     0.000 C 
BRANCH  21  22
ATOM     22  C   UNL     1      13.091  -8.069   3.906  1.00  0.00    -0.000 C 
BRANCH  22  23
ATOM     23  C   UNL     1      11.751  -8.744   4.233  1.00  0.00    -0.000 C 
BRANCH  23  24
ATOM     24  C   UNL     1      10.544  -7.848   3.897  1.00  0.00    -0.000 C 
BRANCH  24  25
ATOM     25  C   UNL     1       9.216  -8.407   4.437  1.00  0.00    -0.000 C 
BRANCH  25  26
ATOM     26  C   UNL     1       8.408  -7.426   5.308  1.00  0.00    -0.000 C 
BRANCH  26  27
ATOM     27  C   UNL     1       7.325  -6.676   4.518  1.00  0.00    -0.000 C 
BRANCH  27  28
ATOM     28  C   UNL     1       5.946  -7.316   4.736  1.00  0.00    -0.000 C 
BRANCH  28  29
ATOM     29  C   UNL     1       4.868  -6.285   5.101  1.00  0.00    -0.003 C 
ATOM     30  C   UNL     1       3.829  -6.099   3.994  1.00  0.00     0.004 C 
ENDBRANCH  28  29
ENDBRANCH  27  28
ENDBRANCH  26  27
ENDBRANCH  25  26
ENDBRANCH  24  25
ENDBRANCH  23  24
ENDBRANCH  22  23
ENDBRANCH  21  22
ENDBRANCH  20  21
ENDBRANCH  19  20
ENDBRANCH  18  19
ENDBRANCH  17  18
ENDBRANCH   1  17
TORSDOF 26
ENDMDL
MODEL 5
REMARK VINA RESULT:    -1.095      3.601     12.880
REMARK INTER + INTRA:          -2.180
REMARK INTER:                  -1.067
REMARK INTRA:                  -1.112
REMARK UNBOUND:                 0.580
REMARK SMILES CCCCCCCCCCCCCCCCCCCCCCCCCCCC(=O)[O-]
REMARK SMILES IDX 15 1 16 2 17 3 18 4 19 5 20 6 21 7 22 8 23 9 24 10 25 11
REMARK SMILES IDX 26 12 27 13 28 14 29 15 30 16 14 17 13 18 12 19 11 20 10 21
REMARK SMILES IDX 9 22 8 23 7 24 6 25 5 26 4 27 3 28 2 29 1 30
REMARK H PARENT
REMARK Flexibility Score: inf
ROOT
ATOM      1  C   UNL     1      11.198  -7.310   6.931  1.00  0.00     0.000 C 
ENDROOT
BRANCH   1   2
ATOM      2  C   UNL     1      12.602  -7.683   6.430  1.00  0.00     0.000 C 
BRANCH   2   3
ATOM      3  C   UNL     1      12.581  -8.275   5.009  1.00  0.00     0.000 C 
BRANCH   3   4
ATOM      4  C   UNL     1      13.991  -8.485   4.428  1.00  0.00     0.000 C 
BRANCH   4   5
ATOM      5  C   UNL     1      14.739  -9.725   4.957  1.00  0.00     0.000 C 
BRANCH   5   6
ATOM      6  C   UNL     1      16.257  -9.544   5.155  1.00  0.00     0.000 C 
BRANCH   6   7
ATOM      7  C   UNL     1      16.936  -8.584   4.161  1.00  0.00     0.000 C 
BRANCH   7   8
ATOM      8  C   UNL     1      18.400  -8.957   3.877  1.00  0.00     0.000 C 
BRANCH   8   9
ATOM      9  C   UNL     1      19.352  -7.748   3.947  1.00  0.00     0.000 C 
BRANCH   9  10
ATOM     10  C   UNL     1      20.318  -7.739   5.148  1.00  0.00     0.000 C 
BRANCH  10  11
ATOM     11  C   UNL     1      19.940  -8.688   6.302  1.00  0.00     0.000 C 
BRANCH  11  12
ATOM     12  C   UNL     1      18.591  -8.352   6.972  1.00  0.00     0.006 C 
BRANCH  12  13
ATOM     13  C   UNL     1      18.533  -6.910   7.497  1.00  0.00     0.053 C 
BRANCH  13  14
ATOM     14  C   UNL     1      17.148  -6.360   7.360  1.00  0.00     0.041 C 
ATOM     15  O   UNL     1      16.412  -6.235   8.376  1.00  0.00    -0.550 OA
ATOM     16  O   UNL     1      16.655  -6.021   6.106  1.00  0.00    -0.550 OA
ENDBRANCH  13  14
ENDBRANCH  12  13
ENDBRANCH  11  12
ENDBRANCH  10  11
ENDBRANCH   9  10
ENDBRANCH   8   9
ENDBRANCH   7   8
ENDBRANCH   6   7
ENDBRANCH   5   6
ENDBRANCH   4   5
ENDBRANCH   3   4
ENDBRANCH   2   3
ENDBRANCH   1   2
BRANCH   1  17
ATOM     17  C   UNL     1      10.304  -8.538   7.159  1.00  0.00     0.000 C 
BRANCH  17  18
ATOM     18  C   UNL     1       8.854  -8.114   7.435  1.00  0.00     0.000 C 
BRANCH  18  19
ATOM     19  C   UNL     1       7.835  -8.857   6.551  1.00  0.00     0.000 C 
BRANCH  19  20
ATOM     20  C   UNL     1       8.217  -8.964   5.060  1.00  0.00     0.000 C 
BRANCH  20  21
ATOM     21  C   UNL     1       7.030  -9.124   4.094  1.00  0.00     0.000 C 
BRANCH  21  22
ATOM     22  C   UNL     1       5.976 -10.121   4.609  1.00  0.00    -0.000 C 
BRANCH  22  23
ATOM     23  C   UNL     1       4.560  -9.781   4.120  1.00  0.00    -0.000 C 
BRANCH  23  24
ATOM     24  C   UNL     1       3.910  -8.651   4.939  1.00  0.00    -0.000 C 
BRANCH  24  25
ATOM     25  C   UNL     1       3.164  -7.630   4.062  1.00  0.00    -0.000 C 
BRANCH  25  26
ATOM     26  C   UNL     1       3.892  -6.285   3.875  1.00  0.00    -0.000 C 
BRANCH  26  27
ATOM     27  C   UNL     1       4.991  -6.048   4.921  1.00  0.00    -0.000 C 
BRANCH  27  28
ATOM     28  C   UNL     1       4.671  -4.816   5.781  1.00  0.00    -0.000 C 
BRANCH  28  29
ATOM     29  C   UNL     1       3.338  -4.158   5.398  1.00  0.00    -0.003 C 
ATOM     30  C   UNL     1       3.444  -3.292   4.141  1.00  0.00     0.004 C 
ENDBRANCH  28  29
ENDBRANCH  27  28
ENDBRANCH  26  27
ENDBRANCH  25  26
ENDBRANCH  24  25
ENDBRANCH  23  24
ENDBRANCH  22  23
ENDBRANCH  21  22
ENDBRANCH  20  21
ENDBRANCH  19  20
ENDBRANCH  18  19
ENDBRANCH  17  18
ENDBRANCH   1  17
TORSDOF 26
ENDMDL
MODEL 6
REMARK VINA RESULT:    -0.522      1.790      5.069
REMARK INTER + INTRA:          -0.735
REMARK INTER:                   1.328
REMARK INTRA:                  -2.062
REMARK UNBOUND:                 0.580
REMARK SMILES CCCCCCCCCCCCCCCCCCCCCCCCCCCC(=O)[O-]
REMARK SMILES IDX 15 1 16 2 17 3 18 4 19 5 20 6 21 7 22 8 23 9 24 10 25 11
REMARK SMILES IDX 26 12 27 13 28 14 29 15 30 16 14 17 13 18 12 19 11 20 10 21
REMARK SMILES IDX 9 22 8 23 7 24 6 25 5 26 4 27 3 28 2 29 1 30
REMARK H PARENT
REMARK Flexibility Score: inf
ROOT
ATOM      1  C   UNL     1      18.366  -6.259   8.616  1.00  0.00     0.000 C 
ENDROOT
BRANCH   1   2
ATOM      2  C   UNL     1      17.192  -6.336   7.628  1.00  0.00     0.000 C 
BRANCH   2   3
ATOM      3  C   UNL     1      17.441  -7.351   6.497  1.00  0.00     0.000 C 
BRANCH   3   4
ATOM      4  C   UNL     1      16.297  -7.394   5.469  1.00  0.00     0.000 C 
BRANCH   4   5
ATOM      5  C   UNL     1      14.909  -7.008   6.017  1.00  0.00     0.000 C 
BRANCH   5   6
ATOM      6  C   UNL     1      13.830  -8.104   5.909  1.00  0.00     0.000 C 
BRANCH   6   7
ATOM      7  C   UNL     1      14.095  -9.178   4.838  1.00  0.00     0.000 C 
BRANCH   7   8
ATOM      8  C   UNL     1      12.911  -9.364   3.875  1.00  0.00     0.000 C 
BRANCH   8   9
ATOM      9  C   UNL     1      11.806  -8.308   4.071  1.00  0.00     0.000 C 
BRANCH   9  10
ATOM     10  C   UNL     1      10.521  -8.819   4.749  1.00  0.00     0.000 C 
BRANCH  10  11
ATOM     11  C   UNL     1       9.207  -8.443   4.037  1.00  0.00     0.000 C 
BRANCH  11  12
ATOM     12  C   UNL     1       8.205  -7.683   4.932  1.00  0.00     0.006 C 
BRANCH  12  13
ATOM     13  C   UNL     1       6.994  -8.541   5.325  1.00  0.00     0.053 C 
BRANCH  13  14
ATOM     14  C   UNL     1       5.728  -7.756   5.175  1.00  0.00     0.041 C 
ATOM     15  O   UNL     1       5.771  -6.504   5.038  1.00  0.00    -0.550 OA
ATOM     16  O   UNL     1       4.499  -8.403   5.223  1.00  0.00    -0.550 OA
ENDBRANCH  13  14
ENDBRANCH  12  13
ENDBRANCH  11  12
ENDBRANCH  10  11
ENDBRANCH   9  10
ENDBRANCH   8   9
ENDBRANCH   7   8
ENDBRANCH   6   7
ENDBRANCH   5   6
ENDBRANCH   4   5
ENDBRANCH   3   4
ENDBRANCH   2   3
ENDBRANCH   1   2
BRANCH   1  17
ATOM     17  C   UNL     1      18.955  -4.845   8.727  1.00  0.00     0.000 C 
BRANCH  17  18
ATOM     18  C   UNL     1      20.476  -4.869   8.515  1.00  0.00     0.000 C 
BRANCH  18  19
ATOM     19  C   UNL     1      20.877  -5.382   7.121  1.00  0.00     0.000 C 
BRANCH  19  20
ATOM     20  C   UNL     1      20.459  -4.476   5.944  1.00  0.00     0.000 C 
BRANCH  20  21
ATOM     21  C   UNL     1      20.945  -4.940   4.560  1.00  0.00     0.000 C 
BRANCH  21  22
ATOM     22  C   UNL     1      21.877  -6.162   4.637  1.00  0.00    -0.000 C 
BRANCH  22  23
ATOM     23  C   UNL     1      21.266  -7.409   3.980  1.00  0.00    -0.000 C 
BRANCH  23  24
ATOM     24  C   UNL     1      19.770  -7.571   4.306  1.00  0.00    -0.000 C 
BRANCH  24  25
ATOM     25  C   UNL     1      19.208  -8.938   3.875  1.00  0.00    -0.000 C 
BRANCH  25  26
ATOM     26  C   UNL     1      19.651 -10.124   4.753  1.00  0.00    -0.000 C 
BRANCH  26  27
ATOM     27  C   UNL     1      19.143 -10.021   6.199  1.00  0.00    -0.000 C 
BRANCH  27  28
ATOM     28  C   UNL     1      20.276  -9.603   7.148  1.00  0.00    -0.000 C 
BRANCH  28  29
ATOM     29  C   UNL     1      19.755  -8.983   8.453  1.00  0.00    -0.003 C 
ATOM     30  C   UNL     1      19.881  -9.929   9.648  1.00  0.00     0.004 C 
ENDBRANCH  28  29
ENDBRANCH  27  28
ENDBRANCH  26  27
ENDBRANCH  25  26
ENDBRANCH  24  25
ENDBRANCH  23  24
ENDBRANCH  22  23
ENDBRANCH  21  22
ENDBRANCH  20  21
ENDBRANCH  19  20
ENDBRANCH  18  19
ENDBRANCH  17  18
ENDBRANCH   1  17
TORSDOF 26
ENDMDL
MODEL 7
REMARK VINA RESULT:    -0.395      1.766      3.708
REMARK INTER + INTRA:          -0.415
REMARK INTER:                  -0.834
REMARK INTRA:                   0.419
REMARK UNBOUND:                 0.580
REMARK SMILES CCCCCCCCCCCCCCCCCCCCCCCCCCCC(=O)[O-]
REMARK SMILES IDX 15 1 16 2 17 3 18 4 19 5 20 6 21 7 22 8 23 9 24 10 25 11
REMARK SMILES IDX 26 12 27 13 28 14 29 15 30 16 14 17 13 18 12 19 11 20 10 21
REMARK SMILES IDX 9 22 8 23 7 24 6 25 5 26 4 27 3 28 2 29 1 30
REMARK H PARENT
REMARK Flexibility Score: inf
ROOT
ATOM      1  C   UNL     1      16.749  -6.497   6.244  1.00  0.00     0.000 C 
ENDROOT
BRANCH   1   2
ATOM      2  C   UNL     1      15.343  -7.115   6.295  1.00  0.00     0.000 C 
BRANCH   2   3
ATOM      3  C   UNL     1      15.065  -8.044   5.099  1.00  0.00     0.000 C 
BRANCH   3   4
ATOM      4  C   UNL     1      13.596  -8.493   5.020  1.00  0.00     0.000 C 
BRANCH   4   5
ATOM      5  C   UNL     1      12.708  -7.666   4.068  1.00  0.00     0.000 C 
BRANCH   5   6
ATOM      6  C   UNL     1      11.229  -8.094   4.008  1.00  0.00     0.000 C 
BRANCH   6   7
ATOM      7  C   UNL     1      10.844  -9.249   4.952  1.00  0.00     0.000 C 
BRANCH   7   8
ATOM      8  C   UNL     1       9.650 -10.068   4.436  1.00  0.00     0.000 C 
BRANCH   8   9
ATOM      9  C   UNL     1       8.477 -10.115   5.435  1.00  0.00     0.000 C 
BRANCH   9  10
ATOM     10  C   UNL     1       7.252  -9.263   5.051  1.00  0.00     0.000 C 
BRANCH  10  11
ATOM     11  C   UNL     1       7.450  -7.739   5.162  1.00  0.00     0.000 C 
BRANCH  11  12
ATOM     12  C   UNL     1       6.803  -6.938   4.012  1.00  0.00     0.006 C 
BRANCH  12  13
ATOM     13  C   UNL     1       6.109  -5.658   4.498  1.00  0.00     0.053 C 
BRANCH  13  14
ATOM     14  C   UNL     1       4.653  -5.912   4.736  1.00  0.00     0.041 C 
ATOM     15  O   UNL     1       3.824  -4.965   4.659  1.00  0.00    -0.550 OA
ATOM     16  O   UNL     1       4.216  -7.185   5.078  1.00  0.00    -0.550 OA
ENDBRANCH  13  14
ENDBRANCH  12  13
ENDBRANCH  11  12
ENDBRANCH  10  11
ENDBRANCH   9  10
ENDBRANCH   8   9
ENDBRANCH   7   8
ENDBRANCH   6   7
ENDBRANCH   5   6
ENDBRANCH   4   5
ENDBRANCH   3   4
ENDBRANCH   2   3
ENDBRANCH   1   2
BRANCH   1  17
ATOM     17  C   UNL     1      17.836  -7.523   5.890  1.00  0.00     0.000 C 
BRANCH  17  18
ATOM     18  C   UNL     1      18.968  -7.499   6.928  1.00  0.00     0.000 C 
BRANCH  18  19
ATOM     19  C   UNL     1      18.458  -7.287   8.364  1.00  0.00     0.000 C 
BRANCH  19  20
ATOM     20  C   UNL     1      18.358  -5.814   8.813  1.00  0.00     0.000 C 
BRANCH  20  21
ATOM     21  C   UNL     1      19.515  -4.912   8.347  1.00  0.00     0.000 C 
BRANCH  21  22
ATOM     22  C   UNL     1      20.462  -5.621   7.363  1.00  0.00    -0.000 C 
BRANCH  22  23
ATOM     23  C   UNL     1      21.019  -4.667   6.296  1.00  0.00    -0.000 C 
BRANCH  23  24
ATOM     24  C   UNL     1      20.708  -5.141   4.864  1.00  0.00    -0.000 C 
BRANCH  24  25
ATOM     25  C   UNL     1      21.929  -5.066   3.930  1.00  0.00    -0.000 C 
BRANCH  25  26
ATOM     26  C   UNL     1      23.124  -5.939   4.359  1.00  0.00    -0.000 C 
BRANCH  26  27
ATOM     27  C   UNL     1      22.890  -7.437   4.114  1.00  0.00    -0.000 C 
BRANCH  27  28
ATOM     28  C   UNL     1      21.603  -7.909   4.806  1.00  0.00    -0.000 C 
BRANCH  28  29
ATOM     29  C   UNL     1      20.699  -8.731   3.876  1.00  0.00    -0.003 C 
ATOM     30  C   UNL     1      19.874  -9.778   4.625  1.00  0.00     0.004 C 
ENDBRANCH  28  29
ENDBRANCH  27  28
ENDBRANCH  26  27
ENDBRANCH  25  26
ENDBRANCH  24  25
ENDBRANCH  23  24
ENDBRANCH  22  23
ENDBRANCH  21  22
ENDBRANCH  20  21
ENDBRANCH  19  20
ENDBRANCH  18  19
ENDBRANCH  17  18
ENDBRANCH   1  17
TORSDOF 26
ENDMDL
MODEL 8
REMARK VINA RESULT:     0.269      1.325      2.198
REMARK INTER + INTRA:           1.258
REMARK INTER:                   0.217
REMARK INTRA:                   1.041
REMARK UNBOUND:                 0.580
REMARK SMILES CCCCCCCCCCCCCCCCCCCCCCCCCCCC(=O)[O-]
REMARK SMILES IDX 15 1 16 2 17 3 18 4 19 5 20 6 21 7 22 8 23 9 24 10 25 11
REMARK SMILES IDX 26 12 27 13 28 14 29 15 30 16 14 17 13 18 12 19 11 20 10 21
REMARK SMILES IDX 9 22 8 23 7 24 6 25 5 26 4 27 3 28 2 29 1 30
REMARK H PARENT
REMARK Flexibility Score: inf
ROOT
ATOM      1  C   UNL     1      13.976  -6.860   5.786  1.00  0.00     0.000 C 
ENDROOT
BRANCH   1   2
ATOM      2  C   UNL     1      13.590  -8.067   4.917  1.00  0.00     0.000 C 
BRANCH   2   3
ATOM      3  C   UNL     1      12.066  -8.262   4.826  1.00  0.00     0.000 C 
BRANCH   3   4
ATOM      4  C   UNL     1      11.665  -9.406   3.878  1.00  0.00     0.000 C 
BRANCH   4   5
ATOM      5  C   UNL     1      10.302 -10.060   4.181  1.00  0.00     0.000 C 
BRANCH   5   6
ATOM      6  C   UNL     1       9.106  -9.089   4.249  1.00  0.00     0.000 C 
BRANCH   6   7
ATOM      7  C   UNL     1       9.467  -7.598   4.115  1.00  0.00     0.000 C 
BRANCH   7   8
ATOM      8  C   UNL     1       8.234  -6.681   4.147  1.00  0.00     0.000 C 
BRANCH   8   9
ATOM      9  C   UNL     1       7.227  -7.066   5.248  1.00  0.00     0.000 C 
BRANCH   9  10
ATOM     10  C   UNL     1       6.002  -6.139   5.373  1.00  0.00     0.000 C 
BRANCH  10  11
ATOM     11  C   UNL     1       5.115  -6.049   4.117  1.00  0.00     0.000 C 
BRANCH  11  12
ATOM     12  C   UNL     1       3.620  -6.326   4.385  1.00  0.00     0.006 C 
BRANCH  12  13
ATOM     13  C   UNL     1       3.172  -7.703   3.875  1.00  0.00     0.053 C 
BRANCH  13  14
ATOM     14  C   UNL     1       3.681  -8.784   4.777  1.00  0.00     0.041 C 
ATOM     15  O   UNL     1       2.987  -9.171   5.756  1.00  0.00    -0.550 OA
ATOM     16  O   UNL     1       4.936  -9.339   4.559  1.00  0.00    -0.550 OA
ENDBRANCH  13  14
ENDBRANCH  12  13
ENDBRANCH  11  12
ENDBRANCH  10  11
ENDBRANCH   9  10
ENDBRANCH   8   9
ENDBRANCH   7   8
ENDBRANCH   6   7
ENDBRANCH   5   6
ENDBRANCH   4   5
ENDBRANCH   3   4
ENDBRANCH   2   3
ENDBRANCH   1   2
BRANCH   1  17
ATOM     17  C   UNL     1      15.251  -6.158   5.294  1.00  0.00     0.000 C 
BRANCH  17  18
ATOM     18  C   UNL     1      16.456  -7.108   5.357  1.00  0.00     0.000 C 
BRANCH  18  19
ATOM     19  C   UNL     1      16.844  -7.487   6.797  1.00  0.00     0.000 C 
BRANCH  19  20
ATOM     20  C   UNL     1      18.284  -8.013   6.971  1.00  0.00     0.000 C 
BRANCH  20  21
ATOM     21  C   UNL     1      19.049  -7.431   8.172  1.00  0.00     0.000 C 
BRANCH  21  22
ATOM     22  C   UNL     1      18.604  -6.000   8.523  1.00  0.00    -0.000 C 
BRANCH  22  23
ATOM     23  C   UNL     1      19.792  -5.042   8.699  1.00  0.00    -0.000 C 
BRANCH  23  24
ATOM     24  C   UNL     1      20.659  -4.943   7.430  1.00  0.00    -0.000 C 
BRANCH  24  25
ATOM     25  C   UNL     1      19.980  -5.555   6.192  1.00  0.00    -0.000 C 
BRANCH  25  26
ATOM     26  C   UNL     1      20.778  -6.679   5.505  1.00  0.00    -0.000 C 
BRANCH  26  27
ATOM     27  C   UNL     1      20.409  -6.857   4.025  1.00  0.00    -0.000 C 
BRANCH  27  28
ATOM     28  C   UNL     1      19.166  -7.747   3.875  1.00  0.00    -0.000 C 
BRANCH  28  29
ATOM     29  C   UNL     1      19.489  -9.242   4.022  1.00  0.00    -0.003 C 
ATOM     30  C   UNL     1      20.991  -9.516   4.116  1.00  0.00     0.004 C 
ENDBRANCH  28  29
ENDBRANCH  27  28
ENDBRANCH  26  27
ENDBRANCH  25  26
ENDBRANCH  24  25
ENDBRANCH  23  24
ENDBRANCH  22  23
ENDBRANCH  21  22
ENDBRANCH  20  21
ENDBRANCH  19  20
ENDBRANCH  18  19
ENDBRANCH  17  18
ENDBRANCH   1  17
TORSDOF 26
ENDMDL
