MODEL 1
REMARK VINA RESULT:    -3.151      0.000      0.000
REMARK INTER + INTRA:          -8.527
REMARK INTER:                  -6.099
REMARK INTRA:                  -2.428
REMARK UNBOUND:                -2.428
REMARK SMILES CCCCCCCCCCCCCCCCCC(=O)[O-]
REMARK SMILES IDX 10 1 11 2 12 3 13 4 14 5 15 6 16 7 17 8 18 9 19 10 20 11
REMARK SMILES IDX 9 12 8 13 7 14 6 15 5 16 4 17 3 18 2 19 1 20
REMARK H PARENT
REMARK Flexibility Score: inf
ROOT
ATOM      1  C   UNL     1       8.794  -3.034  20.368  1.00  0.00     0.000 C 
ENDROOT
BRANCH   1   2
ATOM      2  C   UNL     1       8.561  -1.649  19.736  1.00  0.00     0.000 C 
BRANCH   2   3
ATOM      3  C   UNL     1       7.088  -1.208  19.638  1.00  0.00     0.000 C 
BRANCH   3   4
ATOM      4  C   UNL     1       6.182  -2.276  19.003  1.00  0.00     0.000 C 
BRANCH   4   5
ATOM      5  C   UNL     1       4.889  -1.681  18.421  1.00  0.00     0.000 C 
BRANCH   5   6
ATOM      6  C   UNL     1       5.157  -0.596  17.367  1.00  0.00     0.000 C 
BRANCH   6   7
ATOM      7  C   UNL     1       5.808  -1.199  16.113  1.00  0.00     0.006 C 
BRANCH   7   8
ATOM      8  C   UNL     1       5.965  -0.169  14.986  1.00  0.00     0.053 C 
BRANCH   8   9
ATOM      9  C   UNL     1       4.837  -0.245  14.004  1.00  0.00     0.041 C 
ATOM     10  O   UNL     1       4.170  -1.307  13.882  1.00  0.00    -0.550 OA
ATOM     11  O   UNL     1       4.500   0.870  13.245  1.00  0.00    -0.550 OA
ENDBRANCH   8   9
ENDBRANCH   7   8
ENDBRANCH   6   7
ENDBRANCH   5   6
ENDBRANCH   4   5
ENDBRANCH   3   4
ENDBRANCH   2   3
ENDBRANCH   1   2
BRANCH   1  12
ATOM     12  C   UNL     1      10.275  -3.314  20.667  1.00  0.00     0.000 C 
BRANCH  12  13
ATOM     13  C   UNL     1      10.793  -4.593  19.984  1.00  0.00    -0.000 C 
BRANCH  13  14
ATOM     14  C   UNL     1       9.936  -5.856  20.209  1.00  0.00    -0.000 C 
BRANCH  14  15
ATOM     15  C   UNL     1       9.545  -6.622  18.933  1.00  0.00    -0.000 C 
BRANCH  15  16
ATOM     16  C   UNL     1       8.389  -5.955  18.169  1.00  0.00    -0.000 C 
BRANCH  16  17
ATOM     17  C   UNL     1       8.853  -5.284  16.866  1.00  0.00    -0.000 C 
BRANCH  17  18
ATOM     18  C   UNL     1       8.283  -3.868  16.691  1.00  0.00    -0.000 C 
BRANCH  18  19
ATOM     19  C   UNL     1       9.406  -2.847  16.479  1.00  0.00    -0.003 C 
ATOM     20  C   UNL     1      10.776  -3.517  16.520  1.00  0.00     0.004 C 
ENDBRANCH  18  19
ENDBRANCH  17  18
ENDBRANCH  16  17
ENDBRANCH  15  16
ENDBRANCH  14  15
ENDBRANCH  13  14
ENDBRANCH  12  13
ENDBRANCH   1  12
TORSDOF 16
ENDMDL
MODEL 2
REMARK VINA RESULT:    -3.072      2.772      4.073
REMARK INTER + INTRA:          -8.374
REMARK INTER:                  -6.998
REMARK INTRA:                  -1.376
REMARK UNBOUND:                -2.428
REMARK SMILES CCCCCCCCCCCCCCCCCC(=O)[O-]
REMARK SMILES IDX 10 1 11 2 12 3 13 4 14 5 15 6 16 7 17 8 18 9 19 10 20 11
REMARK SMILES IDX 9 12 8 13 7 14 6 15 5 16 4 17 3 18 2 19 1 20
REMARK H PARENT
REMARK Flexibility Score: inf
ROOT
ATOM      1  C   UNL     1      11.070  -5.032  20.327  1.00  0.00     0.000 C 
ENDROOT
BRANCH   1   2
ATOM      2  C   UNL     1      10.478  -3.638  20.603  1.00  0.00     0.000 C 
BRANCH   2   3
ATOM      3  C   UNL     1       9.546  -3.087  19.507  1.00  0.00     0.000 C 
BRANCH   3   4
ATOM      4  C   UNL     1       8.100  -2.892  19.991  1.00  0.00     0.000 C 
BRANCH   4   5
ATOM      5  C   UNL     1       7.755  -1.414  20.238  1.00  0.00     0.000 C 
BRANCH   5   6
ATOM      6  C   UNL     1       6.646  -0.901  19.308  1.00  0.00     0.000 C 
BRANCH   6   7
ATOM      7  C   UNL     1       5.871  -2.070  18.680  1.00  0.00     0.006 C 
BRANCH   7   8
ATOM      8  C   UNL     1       5.497  -1.801  17.217  1.00  0.00     0.053 C 
BRANCH   8   9
ATOM      9  C   UNL     1       6.664  -1.998  16.300  1.00  0.00     0.041 C 
ATOM     10  O   UNL     1       7.334  -3.064  16.343  1.00  0.00    -0.550 OA
ATOM     11  O   UNL     1       6.993  -1.016  15.373  1.00  0.00    -0.550 OA
ENDBRANCH   8   9
ENDBRANCH   7   8
ENDBRANCH   6   7
ENDBRANCH   5   6
ENDBRANCH   4   5
ENDBRANCH   3   4
ENDBRANCH   2   3
ENDBRANCH   1   2
BRANCH   1  12
ATOM     12  C   UNL     1      10.000  -6.133  20.244  1.00  0.00     0.000 C 
BRANCH  12  13
ATOM     13  C   UNL     1       9.778  -6.645  18.809  1.00  0.00    -0.000 C 
BRANCH  13  14
ATOM     14  C   UNL     1       8.360  -6.428  18.241  1.00  0.00    -0.000 C 
BRANCH  14  15
ATOM     15  C   UNL     1       7.980  -7.334  17.057  1.00  0.00    -0.000 C 
BRANCH  15  16
ATOM     16  C   UNL     1       8.508  -8.771  17.213  1.00  0.00    -0.000 C 
BRANCH  16  17
ATOM     17  C   UNL     1       7.438  -9.829  16.898  1.00  0.00    -0.000 C 
BRANCH  17  18
ATOM     18  C   UNL     1       6.270  -9.267  16.075  1.00  0.00    -0.000 C 
BRANCH  18  19
ATOM     19  C   UNL     1       6.436  -9.601  14.588  1.00  0.00    -0.003 C 
ATOM     20  C   UNL     1       5.210  -9.178  13.786  1.00  0.00     0.004 C 
ENDBRANCH  18  19
ENDBRANCH  17  18
ENDBRANCH  16  17
ENDBRANCH  15  16
ENDBRANCH  14  15
ENDBRANCH  13  14
ENDBRANCH  12  13
ENDBRANCH   1  12
TORSDOF 16
ENDMDL
MODEL 3
REMARK VINA RESULT:    -3.057      5.168      7.396
REMARK INTER + INTRA:          -8.343
REMARK INTER:                  -6.524
REMARK INTRA:                  -1.819
REMARK UNBOUND:                -2.428
REMARK SMILES CCCCCCCCCCCCCCCCCC(=O)[O-]
REMARK SMILES IDX 10 1 11 2 12 3 13 4 14 5 15 6 16 7 17 8 18 9 19 10 20 11
REMARK SMILES IDX 9 12 8 13 7 14 6 15 5 16 4 17 3 18 2 19 1 20
REMARK H PARENT
REMARK Flexibility Score: inf
ROOT
ATOM      1  C   UNL     1       9.786  -2.161  20.793  1.00  0.00     0.000 C 
ENDROOT
BRANCH   1   2
ATOM      2  C   UNL     1      10.559  -2.424  22.098  1.00  0.00     0.000 C 
BRANCH   2   3
ATOM      3  C   UNL     1      11.106  -1.170  22.805  1.00  0.00     0.000 C 
BRANCH   3   4
ATOM      4  C   UNL     1      10.334  -0.819  24.089  1.00  0.00     0.000 C 
BRANCH   4   5
ATOM      5  C   UNL     1       8.851  -0.516  23.820  1.00  0.00     0.000 C 
BRANCH   5   6
ATOM      6  C   UNL     1       7.906  -1.468  24.568  1.00  0.00     0.000 C 
BRANCH   6   7
ATOM      7  C   UNL     1       8.434  -1.768  25.980  1.00  0.00     0.006 C 
BRANCH   7   8
ATOM      8  C   UNL     1       7.304  -2.085  26.968  1.00  0.00     0.053 C 
BRANCH   8   9
ATOM      9  C   UNL     1       6.505  -3.276  26.535  1.00  0.00     0.041 C 
ATOM     10  O   UNL     1       7.006  -4.430  26.587  1.00  0.00    -0.550 OA
ATOM     11  O   UNL     1       5.194  -3.113  26.104  1.00  0.00    -0.550 OA
ENDBRANCH   8   9
ENDBRANCH   7   8
ENDBRANCH   6   7
ENDBRANCH   5   6
ENDBRANCH   4   5
ENDBRANCH   3   4
ENDBRANCH   2   3
ENDBRANCH   1   2
BRANCH   1  12
ATOM     12  C   UNL     1       8.402  -2.830  20.771  1.00  0.00     0.000 C 
BRANCH  12  13
ATOM     13  C   UNL     1       7.480  -2.264  19.675  1.00  0.00    -0.000 C 
BRANCH  13  14
ATOM     14  C   UNL     1       7.065  -3.266  18.578  1.00  0.00    -0.000 C 
BRANCH  14  15
ATOM     15  C   UNL     1       8.067  -3.428  17.420  1.00  0.00    -0.000 C 
BRANCH  15  16
ATOM     16  C   UNL     1       8.426  -4.898  17.144  1.00  0.00    -0.000 C 
BRANCH  16  17
ATOM     17  C   UNL     1       8.217  -5.797  18.373  1.00  0.00    -0.000 C 
BRANCH  17  18
ATOM     18  C   UNL     1       9.493  -6.546  18.786  1.00  0.00    -0.000 C 
BRANCH  18  19
ATOM     19  C   UNL     1      10.294  -5.739  19.814  1.00  0.00    -0.003 C 
ATOM     20  C   UNL     1      10.634  -6.585  21.036  1.00  0.00     0.004 C 
ENDBRANCH  18  19
ENDBRANCH  17  18
ENDBRANCH  16  17
ENDBRANCH  15  16
ENDBRANCH  14  15
ENDBRANCH  13  14
ENDBRANCH  12  13
ENDBRANCH   1  12
TORSDOF 16
ENDMDL
MODEL 4
REMARK VINA RESULT:    -3.001      5.098      7.325
REMARK INTER + INTRA:          -8.236
REMARK INTER:                  -6.436
REMARK INTRA:                  -1.800
REMARK UNBOUND:                -2.428
REMARK SMILES CCCCCCCCCCCCCCCCCC(=O)[O-]
REMARK SMILES IDX 10 1 11 2 12 3 13 4 14 5 15 6 16 7 17 8 18 9 19 10 20 11
REMARK SMILES IDX 9 12 8 13 7 14 6 15 5 16 4 17 3 18 2 19 1 20
REMARK H PARENT
REMARK Flexibility Score: inf
ROOT
ATOM      1  C   UNL     1      10.535  -3.983  20.889  1.00  0.00     0.000 C 
ENDROOT
BRANCH   1   2
ATOM      2  C   UNL     1      11.108  -2.694  20.272  1.00  0.00     0.000 C 
BRANCH   2   3
ATOM      3  C   UNL     1      10.859  -1.407  21.080  1.00  0.00     0.000 C 
BRANCH   3   4
ATOM      4  C   UNL     1       9.964  -1.635  22.311  1.00  0.00     0.000 C 
BRANCH   4   5
ATOM      5  C   UNL     1      10.730  -1.474  23.634  1.00  0.00     0.000 C 
BRANCH   5   6
ATOM      6  C   UNL     1       9.849  -0.919  24.765  1.00  0.00     0.000 C 
BRANCH   6   7
ATOM      7  C   UNL     1       8.466  -1.588  24.760  1.00  0.00     0.006 C 
BRANCH   7   8
ATOM      8  C   UNL     1       7.820  -1.598  26.151  1.00  0.00     0.053 C 
BRANCH   8   9
ATOM      9  C   UNL     1       7.493  -2.989  26.601  1.00  0.00     0.041 C 
ATOM     10  O   UNL     1       8.188  -3.549  27.490  1.00  0.00    -0.550 OA
ATOM     11  O   UNL     1       6.398  -3.654  26.062  1.00  0.00    -0.550 OA
ENDBRANCH   8   9
ENDBRANCH   7   8
ENDBRANCH   6   7
ENDBRANCH   5   6
ENDBRANCH   4   5
ENDBRANCH   3   4
ENDBRANCH   2   3
ENDBRANCH   1   2
BRANCH   1  12
ATOM     12  C   UNL     1      10.943  -5.250  20.119  1.00  0.00     0.000 C 
BRANCH  12  13
ATOM     13  C   UNL     1       9.748  -6.165  19.795  1.00  0.00    -0.000 C 
BRANCH  13  14
ATOM     14  C   UNL     1       9.370  -6.256  18.302  1.00  0.00    -0.000 C 
BRANCH  14  15
ATOM     15  C   UNL     1       8.094  -5.497  17.898  1.00  0.00    -0.000 C 
BRANCH  15  16
ATOM     16  C   UNL     1       8.245  -3.971  18.019  1.00  0.00    -0.000 C 
BRANCH  16  17
ATOM     17  C   UNL     1       6.996  -3.300  18.612  1.00  0.00    -0.000 C 
BRANCH  17  18
ATOM     18  C   UNL     1       7.272  -2.621  19.962  1.00  0.00    -0.000 C 
BRANCH  18  19
ATOM     19  C   UNL     1       7.221  -1.094  19.828  1.00  0.00    -0.003 C 
ATOM     20  C   UNL     1       6.002  -0.651  19.027  1.00  0.00     0.004 C 
ENDBRANCH  18  19
ENDBRANCH  17  18
ENDBRANCH  16  17
ENDBRANCH  15  16
ENDBRANCH  14  15
ENDBRANCH  13  14
ENDBRANCH  12  13
ENDBRANCH   1  12
TORSDOF 16
ENDMDL
MODEL 5
REMARK VINA RESULT:    -3.001      3.283      6.301
REMARK INTER + INTRA:          -8.236
REMARK INTER:                  -5.863
REMARK INTRA:                  -2.373
REMARK UNBOUND:                -2.428
REMARK SMILES CCCCCCCCCCCCCCCCCC(=O)[O-]
REMARK SMILES IDX 10 1 11 2 12 3 13 4 14 5 15 6 16 7 17 8 18 9 19 10 20 11
REMARK SMILES IDX 9 12 8 13 7 14 6 15 5 16 4 17 3 18 2 19 1 20
REMARK H PARENT
REMARK Flexibility Score: inf
ROOT
ATOM      1  C   UNL     1       2.900   1.131  18.846  1.00  0.00     0.000 C 
ENDROOT
BRANCH   1   2
ATOM      2  C   UNL     1       1.483   1.724  18.736  1.00  0.00     0.000 C 
BRANCH   2   3
ATOM      3  C   UNL     1       1.284   2.756  17.609  1.00  0.00     0.000 C 
BRANCH   3   4
ATOM      4  C   UNL     1       1.346   2.131  16.205  1.00  0.00     0.000 C 
BRANCH   4   5
ATOM      5  C   UNL     1       1.651   3.168  15.112  1.00  0.00     0.000 C 
BRANCH   5   6
ATOM      6  C   UNL     1       2.553   2.609  14.000  1.00  0.00     0.000 C 
BRANCH   6   7
ATOM      7  C   UNL     1       2.383   1.088  13.870  1.00  0.00     0.006 C 
BRANCH   7   8
ATOM      8  C   UNL     1       3.256   0.498  12.754  1.00  0.00     0.053 C 
BRANCH   8   9
ATOM      9  C   UNL     1       2.966  -0.954  12.531  1.00  0.00     0.041 C 
ATOM     10  O   UNL     1       3.873  -1.729  12.130  1.00  0.00    -0.550 OA
ATOM     11  O   UNL     1       1.698  -1.458  12.800  1.00  0.00    -0.550 OA
ENDBRANCH   8   9
ENDBRANCH   7   8
ENDBRANCH   6   7
ENDBRANCH   5   6
ENDBRANCH   4   5
ENDBRANCH   3   4
ENDBRANCH   2   3
ENDBRANCH   1   2
BRANCH   1  12
ATOM     12  C   UNL     1       3.991   2.206  18.971  1.00  0.00     0.000 C 
BRANCH  12  13
ATOM     13  C   UNL     1       5.253   1.876  18.153  1.00  0.00    -0.000 C 
BRANCH  13  14
ATOM     14  C   UNL     1       5.040   1.752  16.630  1.00  0.00    -0.000 C 
BRANCH  14  15
ATOM     15  C   UNL     1       4.969   0.313  16.091  1.00  0.00    -0.000 C 
BRANCH  15  16
ATOM     16  C   UNL     1       6.352  -0.256  15.728  1.00  0.00    -0.000 C 
BRANCH  16  17
ATOM     17  C   UNL     1       6.778  -1.406  16.655  1.00  0.00    -0.000 C 
BRANCH  17  18
ATOM     18  C   UNL     1       5.615  -1.950  17.499  1.00  0.00    -0.000 C 
BRANCH  18  19
ATOM     19  C   UNL     1       6.085  -2.307  18.914  1.00  0.00    -0.003 C 
ATOM     20  C   UNL     1       6.808  -1.134  19.568  1.00  0.00     0.004 C 
ENDBRANCH  18  19
ENDBRANCH  17  18
ENDBRANCH  16  17
ENDBRANCH  15  16
ENDBRANCH  14  15
ENDBRANCH  13  14
ENDBRANCH  12  13
ENDBRANCH   1  12
TORSDOF 16
ENDMDL
MODEL 6
REMARK VINA RESULT:    -2.983      9.491     11.966
REMARK INTER + INTRA:          -8.200
REMARK INTER:                  -5.563
REMARK INTRA:                  -2.637
REMARK UNBOUND:                -2.428
REMARK SMILES CCCCCCCCCCCCCCCCCC(=O)[O-]
REMARK SMILES IDX 10 1 11 2 12 3 13 4 14 5 15 6 16 7 17 8 18 9 19 10 20 11
REMARK SMILES IDX 9 12 8 13 7 14 6 15 5 16 4 17 3 18 2 19 1 20
REMARK H PARENT
REMARK Flexibility Score: inf
ROOT
ATOM      1  C   UNL     1      -2.931   1.371  23.110  1.00  0.00     0.000 C 
ENDROOT
BRANCH   1   2
ATOM      2  C   UNL     1      -4.134   0.426  23.291  1.00  0.00     0.000 C 
BRANCH   2   3
ATOM      3  C   UNL     1      -3.802  -0.962  23.871  1.00  0.00     0.000 C 
BRANCH   3   4
ATOM      4  C   UNL     1      -4.388  -2.116  23.040  1.00  0.00     0.000 C 
BRANCH   4   5
ATOM      5  C   UNL     1      -3.939  -2.072  21.571  1.00  0.00     0.000 C 
BRANCH   5   6
ATOM      6  C   UNL     1      -5.089  -1.738  20.609  1.00  0.00     0.000 C 
BRANCH   6   7
ATOM      7  C   UNL     1      -4.679  -0.627  19.629  1.00  0.00     0.006 C 
BRANCH   7   8
ATOM      8  C   UNL     1      -5.843   0.317  19.300  1.00  0.00     0.053 C 
BRANCH   8   9
ATOM      9  C   UNL     1      -5.824   1.542  20.162  1.00  0.00     0.041 C 
ATOM     10  O   UNL     1      -5.022   2.481  19.915  1.00  0.00    -0.550 OA
ATOM     11  O   UNL     1      -6.718   1.660  21.220  1.00  0.00    -0.550 OA
ENDBRANCH   8   9
ENDBRANCH   7   8
ENDBRANCH   6   7
ENDBRANCH   5   6
ENDBRANCH   4   5
ENDBRANCH   3   4
ENDBRANCH   2   3
ENDBRANCH   1   2
BRANCH   1  12
ATOM     12  C   UNL     1      -2.290   1.266  21.717  1.00  0.00     0.000 C 
BRANCH  12  13
ATOM     13  C   UNL     1      -0.901   0.605  21.745  1.00  0.00    -0.000 C 
BRANCH  13  14
ATOM     14  C   UNL     1      -0.716  -0.589  20.785  1.00  0.00    -0.000 C 
BRANCH  14  15
ATOM     15  C   UNL     1      -0.271  -1.904  21.448  1.00  0.00    -0.000 C 
BRANCH  15  16
ATOM     16  C   UNL     1      -0.165  -1.794  22.979  1.00  0.00    -0.000 C 
BRANCH  16  17
ATOM     17  C   UNL     1      -0.798  -2.993  23.702  1.00  0.00    -0.000 C 
BRANCH  17  18
ATOM     18  C   UNL     1       0.100  -3.559  24.812  1.00  0.00    -0.000 C 
BRANCH  18  19
ATOM     19  C   UNL     1       1.268  -4.357  24.220  1.00  0.00    -0.003 C 
ATOM     20  C   UNL     1       0.829  -5.760  23.816  1.00  0.00     0.004 C 
ENDBRANCH  18  19
ENDBRANCH  17  18
ENDBRANCH  16  17
ENDBRANCH  15  16
ENDBRANCH  14  15
ENDBRANCH  13  14
ENDBRANCH  12  13
ENDBRANCH   1  12
TORSDOF 16
ENDMDL
MODEL 7
REMARK VINA RESULT:    -2.944      4.236      5.813
REMARK INTER + INTRA:          -8.125
REMARK INTER:                  -5.755
REMARK INTRA:                  -2.370
REMARK UNBOUND:                -2.428
REMARK SMILES CCCCCCCCCCCCCCCCCC(=O)[O-]
REMARK SMILES IDX 10 1 11 2 12 3 13 4 14 5 15 6 16 7 17 8 18 9 19 10 20 11
REMARK SMILES IDX 9 12 8 13 7 14 6 15 5 16 4 17 3 18 2 19 1 20
REMARK H PARENT
REMARK Flexibility Score: inf
ROOT
ATOM      1  C   UNL     1      10.233  -3.074  18.122  1.00  0.00     0.000 C 
ENDROOT
BRANCH   1   2
ATOM      2  C   UNL     1       9.344  -3.369  16.900  1.00  0.00     0.000 C 
BRANCH   2   3
ATOM      3  C   UNL     1       7.829  -3.390  17.176  1.00  0.00     0.000 C 
BRANCH   3   4
ATOM      4  C   UNL     1       7.491  -3.619  18.659  1.00  0.00     0.000 C 
BRANCH   4   5
ATOM      5  C   UNL     1       6.644  -2.481  19.253  1.00  0.00     0.000 C 
BRANCH   5   6
ATOM      6  C   UNL     1       7.482  -1.475  20.056  1.00  0.00     0.000 C 
BRANCH   6   7
ATOM      7  C   UNL     1       8.271  -2.183  21.168  1.00  0.00     0.006 C 
BRANCH   7   8
ATOM      8  C   UNL     1       9.247  -1.238  21.881  1.00  0.00     0.053 C 
BRANCH   8   9
ATOM      9  C   UNL     1       9.978  -1.929  22.991  1.00  0.00     0.041 C 
ATOM     10  O   UNL     1       9.623  -1.760  24.187  1.00  0.00    -0.550 OA
ATOM     11  O   UNL     1      11.032  -2.787  22.700  1.00  0.00    -0.550 OA
ENDBRANCH   8   9
ENDBRANCH   7   8
ENDBRANCH   6   7
ENDBRANCH   5   6
ENDBRANCH   4   5
ENDBRANCH   3   4
ENDBRANCH   2   3
ENDBRANCH   1   2
BRANCH   1  12
ATOM     12  C   UNL     1      11.117  -4.266  18.523  1.00  0.00     0.000 C 
BRANCH  12  13
ATOM     13  C   UNL     1      10.798  -4.803  19.929  1.00  0.00    -0.000 C 
BRANCH  13  14
ATOM     14  C   UNL     1       9.960  -6.098  19.969  1.00  0.00    -0.000 C 
BRANCH  14  15
ATOM     15  C   UNL     1       9.921  -6.897  18.655  1.00  0.00    -0.000 C 
BRANCH  15  16
ATOM     16  C   UNL     1       8.500  -7.025  18.077  1.00  0.00    -0.000 C 
BRANCH  16  17
ATOM     17  C   UNL     1       8.491  -7.078  16.541  1.00  0.00    -0.000 C 
BRANCH  17  18
ATOM     18  C   UNL     1       7.946  -8.407  15.996  1.00  0.00    -0.000 C 
BRANCH  18  19
ATOM     19  C   UNL     1       8.295  -9.568  16.934  1.00  0.00    -0.003 C 
ATOM     20  C   UNL     1       7.057 -10.386  17.284  1.00  0.00     0.004 C 
ENDBRANCH  18  19
ENDBRANCH  17  18
ENDBRANCH  16  17
ENDBRANCH  15  16
ENDBRANCH  14  15
ENDBRANCH  13  14
ENDBRANCH  12  13
ENDBRANCH   1  12
TORSDOF 16
ENDMDL
MODEL 8
REMARK VINA RESULT:    -2.937      1.930      3.005
REMARK INTER + INTRA:          -8.113
REMARK INTER:                  -6.216
REMARK INTRA:                  -1.897
REMARK UNBOUND:                -2.428
REMARK SMILES CCCCCCCCCCCCCCCCCC(=O)[O-]
REMARK SMILES IDX 10 1 11 2 12 3 13 4 14 5 15 6 16 7 17 8 18 9 19 10 20 11
REMARK SMILES IDX 9 12 8 13 7 14 6 15 5 16 4 17 3 18 2 19 1 20
REMARK H PARENT
REMARK Flexibility Score: inf
ROOT
ATOM      1  C   UNL     1      10.000  -2.786  18.277  1.00  0.00     0.000 C 
ENDROOT
BRANCH   1   2
ATOM      2  C   UNL     1       9.196  -3.203  17.032  1.00  0.00     0.000 C 
BRANCH   2   3
ATOM      3  C   UNL     1       7.695  -3.453  17.268  1.00  0.00     0.000 C 
BRANCH   3   4
ATOM      4  C   UNL     1       7.293  -3.343  18.749  1.00  0.00     0.000 C 
BRANCH   4   5
ATOM      5  C   UNL     1       6.177  -2.312  18.982  1.00  0.00     0.000 C 
BRANCH   5   6
ATOM      6  C   UNL     1       5.519  -1.845  17.675  1.00  0.00     0.000 C 
BRANCH   6   7
ATOM      7  C   UNL     1       5.823  -0.362  17.409  1.00  0.00     0.006 C 
BRANCH   7   8
ATOM      8  C   UNL     1       5.015   0.195  16.229  1.00  0.00     0.053 C 
BRANCH   8   9
ATOM      9  C   UNL     1       5.381  -0.476  14.940  1.00  0.00     0.041 C 
ATOM     10  O   UNL     1       6.539  -0.346  14.463  1.00  0.00    -0.550 OA
ATOM     11  O   UNL     1       4.450  -1.272  14.283  1.00  0.00    -0.550 OA
ENDBRANCH   8   9
ENDBRANCH   7   8
ENDBRANCH   6   7
ENDBRANCH   5   6
ENDBRANCH   4   5
ENDBRANCH   3   4
ENDBRANCH   2   3
ENDBRANCH   1   2
BRANCH   1  12
ATOM     12  C   UNL     1      10.959  -3.882  18.767  1.00  0.00     0.000 C 
BRANCH  12  13
ATOM     13  C   UNL     1      10.601  -4.409  20.168  1.00  0.00    -0.000 C 
BRANCH  13  14
ATOM     14  C   UNL     1       9.948  -5.807  20.203  1.00  0.00    -0.000 C 
BRANCH  14  15
ATOM     15  C   UNL     1       9.931  -6.559  18.861  1.00  0.00    -0.000 C 
BRANCH  15  16
ATOM     16  C   UNL     1       8.506  -6.825  18.345  1.00  0.00    -0.000 C 
BRANCH  16  17
ATOM     17  C   UNL     1       8.474  -7.151  16.844  1.00  0.00    -0.000 C 
BRANCH  17  18
ATOM     18  C   UNL     1       8.161  -8.629  16.563  1.00  0.00    -0.000 C 
BRANCH  18  19
ATOM     19  C   UNL     1       6.684  -8.817  16.202  1.00  0.00    -0.003 C 
ATOM     20  C   UNL     1       6.516  -9.172  14.728  1.00  0.00     0.004 C 
ENDBRANCH  18  19
ENDBRANCH  17  18
ENDBRANCH  16  17
ENDBRANCH  15  16
ENDBRANCH  14  15
ENDBRANCH  13  14
ENDBRANCH  12  13
ENDBRANCH   1  12
TORSDOF 16
ENDMDL
MODEL 9
REMARK VINA RESULT:    -2.924      1.096      2.161
REMARK INTER + INTRA:          -8.087
REMARK INTER:                  -6.251
REMARK INTRA:                  -1.836
REMARK UNBOUND:                -2.428
REMARK SMILES CCCCCCCCCCCCCCCCCC(=O)[O-]
REMARK SMILES IDX 10 1 11 2 12 3 13 4 14 5 15 6 16 7 17 8 18 9 19 10 20 11
REMARK SMILES IDX 9 12 8 13 7 14 6 15 5 16 4 17 3 18 2 19 1 20
REMARK H PARENT
REMARK Flexibility Score: inf
ROOT
ATOM      1  C   UNL     1       7.974  -2.990  20.179  1.00  0.00     0.000 C 
ENDROOT
BRANCH   1   2
ATOM      2  C   UNL     1       7.270  -1.960  19.276  1.00  0.00     0.000 C 
BRANCH   2   3
ATOM      3  C   UNL     1       5.879  -2.375  18.760  1.00  0.00     0.000 C 
BRANCH   3   4
ATOM      4  C   UNL     1       5.295  -1.381  17.743  1.00  0.00     0.000 C 
BRANCH   4   5
ATOM      5  C   UNL     1       6.213  -1.174  16.527  1.00  0.00     0.000 C 
BRANCH   5   6
ATOM      6  C   UNL     1       5.967   0.168  15.820  1.00  0.00     0.000 C 
BRANCH   6   7
ATOM      7  C   UNL     1       4.463   0.473  15.730  1.00  0.00     0.006 C 
BRANCH   7   8
ATOM      8  C   UNL     1       4.050   0.958  14.335  1.00  0.00     0.053 C 
BRANCH   8   9
ATOM      9  C   UNL     1       3.705  -0.183  13.429  1.00  0.00     0.041 C 
ATOM     10  O   UNL     1       2.503  -0.510  13.248  1.00  0.00    -0.550 OA
ATOM     11  O   UNL     1       4.713  -0.866  12.758  1.00  0.00    -0.550 OA
ENDBRANCH   8   9
ENDBRANCH   7   8
ENDBRANCH   6   7
ENDBRANCH   5   6
ENDBRANCH   4   5
ENDBRANCH   3   4
ENDBRANCH   2   3
ENDBRANCH   1   2
BRANCH   1  12
ATOM     12  C   UNL     1       9.297  -2.470  20.764  1.00  0.00     0.000 C 
BRANCH  12  13
ATOM     13  C   UNL     1      10.457  -2.514  19.753  1.00  0.00    -0.000 C 
BRANCH  13  14
ATOM     14  C   UNL     1      10.985  -3.924  19.413  1.00  0.00    -0.000 C 
BRANCH  14  15
ATOM     15  C   UNL     1      10.992  -4.924  20.582  1.00  0.00    -0.000 C 
BRANCH  15  16
ATOM     16  C   UNL     1      10.005  -6.086  20.378  1.00  0.00    -0.000 C 
BRANCH  16  17
ATOM     17  C   UNL     1       9.889  -6.509  18.905  1.00  0.00    -0.000 C 
BRANCH  17  18
ATOM     18  C   UNL     1       8.532  -6.143  18.286  1.00  0.00    -0.000 C 
BRANCH  18  19
ATOM     19  C   UNL     1       8.696  -5.700  16.827  1.00  0.00    -0.003 C 
ATOM     20  C   UNL     1       8.480  -4.198  16.679  1.00  0.00     0.004 C 
ENDBRANCH  18  19
ENDBRANCH  17  18
ENDBRANCH  16  17
ENDBRANCH  15  16
ENDBRANCH  14  15
ENDBRANCH  13  14
ENDBRANCH  12  13
ENDBRANCH   1  12
TORSDOF 16
ENDMDL
