MODEL 1
REMARK VINA RESULT:    -5.340      0.000      0.000
REMARK INTER + INTRA:          -5.873
REMARK INTER:                  -5.809
REMARK INTRA:                  -0.064
REMARK UNBOUND:                -0.064
REMARK SMILES COc1cc2ccc(=O)oc2cc1O
REMARK SMILES IDX 3 1 13 2 12 3 11 4 5 5 4 6 6 7 7 8 8 9 9 10 10 11 2 12 1 13
REMARK SMILES IDX 14 14
REMARK H PARENT 14 15
REMARK Flexibility Score: inf
ROOT
ATOM      1  C   UNL     1      18.931  18.626   7.314  1.00  0.00     0.161 A 
ATOM      2  C   UNL     1      18.357  18.700   8.598  1.00  0.00     0.161 A 
ATOM      3  C   UNL     1      19.158  18.561   9.738  1.00  0.00     0.098 A 
ATOM      4  C   UNL     1      20.532  18.347   9.615  1.00  0.00     0.142 A 
ATOM      5  C   UNL     1      21.117  18.271   8.334  1.00  0.00     0.022 A 
ATOM      6  C   UNL     1      20.319  18.410   7.190  1.00  0.00     0.062 A 
ATOM      7  C   UNL     1      22.496  18.055   8.243  1.00  0.00     0.019 A 
ATOM      8  C   UNL     1      23.248  17.924   9.410  1.00  0.00     0.094 A 
ATOM      9  C   UNL     1      22.599  18.011  10.646  1.00  0.00     0.336 A 
ATOM     10  O   UNL     1      23.259  17.895  11.712  1.00  0.00    -0.246 OA
ATOM     11  O   UNL     1      21.285  18.217  10.705  1.00  0.00    -0.423 OA
ENDROOT
BRANCH   1  12
ATOM     12  O   UNL     1      18.099  18.770   6.192  1.00  0.00    -0.493 OA
ATOM     13  C   UNL     1      17.544  17.687   5.454  1.00  0.00     0.278 C 
ENDBRANCH   1  12
BRANCH   2  14
ATOM     14  O   UNL     1      16.988  18.913   8.763  1.00  0.00    -0.504 OA
ATOM     15  H   UNL     1      16.591  19.222   9.642  1.00  0.00     0.293 HD
ENDBRANCH   2  14
TORSDOF 2
ENDMDL
MODEL 2
REMARK VINA RESULT:    -5.334      1.424      5.369
REMARK INTER + INTRA:          -5.866
REMARK INTER:                  -5.823
REMARK INTRA:                  -0.043
REMARK UNBOUND:                -0.064
REMARK SMILES COc1cc2ccc(=O)oc2cc1O
REMARK SMILES IDX 3 1 13 2 12 3 11 4 5 5 4 6 6 7 7 8 8 9 9 10 10 11 2 12 1 13
REMARK SMILES IDX 14 14
REMARK H PARENT 14 15
REMARK Flexibility Score: inf
ROOT
ATOM      1  C   UNL     1      22.192  17.922   9.459  1.00  0.00     0.161 A 
ATOM      2  C   UNL     1      22.468  17.845   8.080  1.00  0.00     0.161 A 
ATOM      3  C   UNL     1      21.455  18.081   7.143  1.00  0.00     0.098 A 
ATOM      4  C   UNL     1      20.161  18.396   7.565  1.00  0.00     0.142 A 
ATOM      5  C   UNL     1      19.874  18.477   8.943  1.00  0.00     0.022 A 
ATOM      6  C   UNL     1      20.886  18.240   9.884  1.00  0.00     0.062 A 
ATOM      7  C   UNL     1      18.569  18.793   9.334  1.00  0.00     0.019 A 
ATOM      8  C   UNL     1      17.597  19.020   8.360  1.00  0.00     0.094 A 
ATOM      9  C   UNL     1      17.956  18.923   7.011  1.00  0.00     0.336 A 
ATOM     10  O   UNL     1      17.094  19.124   6.116  1.00  0.00    -0.246 OA
ATOM     11  O   UNL     1      19.205  18.620   6.666  1.00  0.00    -0.423 OA
ENDROOT
BRANCH   1  12
ATOM     12  O   UNL     1      23.231  17.680  10.371  1.00  0.00    -0.493 OA
ATOM     13  C   UNL     1      23.125  17.852  11.781  1.00  0.00     0.278 C 
ENDBRANCH   1  12
BRANCH   2  14
ATOM     14  O   UNL     1      23.748  17.533   7.619  1.00  0.00    -0.504 OA
ATOM     15  H   UNL     1      24.459  18.241   7.482  1.00  0.00     0.293 HD
ENDBRANCH   2  14
TORSDOF 2
ENDMDL
MODEL 3
REMARK VINA RESULT:    -5.088      2.170      3.369
REMARK INTER + INTRA:          -5.598
REMARK INTER:                  -5.548
REMARK INTRA:                  -0.050
REMARK UNBOUND:                -0.064
REMARK SMILES COc1cc2ccc(=O)oc2cc1O
REMARK SMILES IDX 3 1 13 2 12 3 11 4 5 5 4 6 6 7 7 8 8 9 9 10 10 11 2 12 1 13
REMARK SMILES IDX 14 14
REMARK H PARENT 14 15
REMARK Flexibility Score: inf
ROOT
ATOM      1  C   UNL     1      21.460  18.118   6.038  1.00  0.00     0.161 A 
ATOM      2  C   UNL     1      22.840  17.847   6.120  1.00  0.00     0.161 A 
ATOM      3  C   UNL     1      23.463  17.733   7.367  1.00  0.00     0.098 A 
ATOM      4  C   UNL     1      22.726  17.887   8.544  1.00  0.00     0.142 A 
ATOM      5  C   UNL     1      21.344  18.159   8.473  1.00  0.00     0.022 A 
ATOM      6  C   UNL     1      20.716  18.274   7.225  1.00  0.00     0.062 A 
ATOM      7  C   UNL     1      20.633  18.309   9.668  1.00  0.00     0.019 A 
ATOM      8  C   UNL     1      21.303  18.186  10.884  1.00  0.00     0.094 A 
ATOM      9  C   UNL     1      22.675  17.915  10.877  1.00  0.00     0.336 A 
ATOM     10  O   UNL     1      23.299  17.800  11.964  1.00  0.00    -0.246 OA
ATOM     11  O   UNL     1      23.328  17.777   9.725  1.00  0.00    -0.423 OA
ENDROOT
BRANCH   1  12
ATOM     12  O   UNL     1      20.866  18.225   4.770  1.00  0.00    -0.493 OA
ATOM     13  C   UNL     1      19.644  17.598   4.394  1.00  0.00     0.278 C 
ENDBRANCH   1  12
BRANCH   2  14
ATOM     14  O   UNL     1      23.610  17.686   4.967  1.00  0.00    -0.504 OA
ATOM     15  H   UNL     1      24.392  17.042   4.926  1.00  0.00     0.293 HD
ENDBRANCH   2  14
TORSDOF 2
ENDMDL
MODEL 4
REMARK VINA RESULT:    -5.033      1.428      1.761
REMARK INTER + INTRA:          -5.539
REMARK INTER:                  -5.474
REMARK INTRA:                  -0.065
REMARK UNBOUND:                -0.064
REMARK SMILES COc1cc2ccc(=O)oc2cc1O
REMARK SMILES IDX 3 1 13 2 12 3 11 4 5 5 4 6 6 7 7 8 8 9 9 10 10 11 2 12 1 13
REMARK SMILES IDX 14 14
REMARK H PARENT 14 15
REMARK Flexibility Score: inf
ROOT
ATOM      1  C   UNL     1      17.972  18.826   7.324  1.00  0.00     0.161 A 
ATOM      2  C   UNL     1      18.200  19.309   8.627  1.00  0.00     0.161 A 
ATOM      3  C   UNL     1      19.463  19.180   9.215  1.00  0.00     0.098 A 
ATOM      4  C   UNL     1      20.510  18.572   8.519  1.00  0.00     0.142 A 
ATOM      5  C   UNL     1      20.293  18.086   7.214  1.00  0.00     0.022 A 
ATOM      6  C   UNL     1      19.029  18.212   6.620  1.00  0.00     0.062 A 
ATOM      7  C   UNL     1      21.360  17.481   6.541  1.00  0.00     0.019 A 
ATOM      8  C   UNL     1      22.599  17.379   7.174  1.00  0.00     0.094 A 
ATOM      9  C   UNL     1      22.740  17.885   8.471  1.00  0.00     0.336 A 
ATOM     10  O   UNL     1      23.850  17.803   9.059  1.00  0.00    -0.246 OA
ATOM     11  O   UNL     1      21.708  18.456   9.087  1.00  0.00    -0.423 OA
ENDROOT
BRANCH   1  12
ATOM     12  O   UNL     1      16.693  18.971   6.762  1.00  0.00    -0.493 OA
ATOM     13  C   UNL     1      16.319  20.009   5.863  1.00  0.00     0.278 C 
ENDBRANCH   1  12
BRANCH   2  14
ATOM     14  O   UNL     1      17.180  19.922   9.355  1.00  0.00    -0.504 OA
ATOM     15  H   UNL     1      16.918  19.613  10.283  1.00  0.00     0.293 HD
ENDBRANCH   2  14
TORSDOF 2
ENDMDL
MODEL 5
REMARK VINA RESULT:    -5.000      1.313      5.026
REMARK INTER + INTRA:          -5.502
REMARK INTER:                  -5.470
REMARK INTRA:                  -0.032
REMARK UNBOUND:                -0.064
REMARK SMILES COc1cc2ccc(=O)oc2cc1O
REMARK SMILES IDX 3 1 13 2 12 3 11 4 5 5 4 6 6 7 7 8 8 9 9 10 10 11 2 12 1 13
REMARK SMILES IDX 14 14
REMARK H PARENT 14 15
REMARK Flexibility Score: inf
ROOT
ATOM      1  C   UNL     1      20.930  17.830   8.710  1.00  0.00     0.161 A 
ATOM      2  C   UNL     1      20.304  18.379   9.846  1.00  0.00     0.161 A 
ATOM      3  C   UNL     1      19.027  18.942   9.744  1.00  0.00     0.098 A 
ATOM      4  C   UNL     1      18.360  18.967   8.517  1.00  0.00     0.142 A 
ATOM      5  C   UNL     1      18.978  18.419   7.374  1.00  0.00     0.022 A 
ATOM      6  C   UNL     1      20.257  17.854   7.471  1.00  0.00     0.062 A 
ATOM      7  C   UNL     1      18.286  18.459   6.159  1.00  0.00     0.019 A 
ATOM      8  C   UNL     1      17.015  19.032   6.113  1.00  0.00     0.094 A 
ATOM      9  C   UNL     1      16.466  19.555   7.288  1.00  0.00     0.336 A 
ATOM     10  O   UNL     1      15.320  20.077   7.267  1.00  0.00    -0.246 OA
ATOM     11  O   UNL     1      17.146  19.505   8.430  1.00  0.00    -0.423 OA
ENDROOT
BRANCH   1  12
ATOM     12  O   UNL     1      22.212  17.272   8.848  1.00  0.00    -0.493 OA
ATOM     13  C   UNL     1      23.426  18.010   8.776  1.00  0.00     0.278 C 
ENDBRANCH   1  12
BRANCH   2  14
ATOM     14  O   UNL     1      20.937  18.373  11.089  1.00  0.00    -0.504 OA
ATOM     15  H   UNL     1      20.438  18.181  11.949  1.00  0.00     0.293 HD
ENDBRANCH   2  14
TORSDOF 2
ENDMDL
MODEL 6
REMARK VINA RESULT:    -4.933      1.967      4.601
REMARK INTER + INTRA:          -5.430
REMARK INTER:                  -5.368
REMARK INTRA:                  -0.063
REMARK UNBOUND:                -0.064
REMARK SMILES COc1cc2ccc(=O)oc2cc1O
REMARK SMILES IDX 3 1 13 2 12 3 11 4 5 5 4 6 6 7 7 8 8 9 9 10 10 11 2 12 1 13
REMARK SMILES IDX 14 14
REMARK H PARENT 14 15
REMARK Flexibility Score: inf
ROOT
ATOM      1  C   UNL     1      21.423  17.954  10.017  1.00  0.00     0.161 A 
ATOM      2  C   UNL     1      20.197  18.476   9.561  1.00  0.00     0.161 A 
ATOM      3  C   UNL     1      19.983  18.680   8.193  1.00  0.00     0.098 A 
ATOM      4  C   UNL     1      20.980  18.368   7.266  1.00  0.00     0.142 A 
ATOM      5  C   UNL     1      22.211  17.845   7.713  1.00  0.00     0.022 A 
ATOM      6  C   UNL     1      22.430  17.640   9.082  1.00  0.00     0.062 A 
ATOM      7  C   UNL     1      23.191  17.543   6.761  1.00  0.00     0.019 A 
ATOM      8  C   UNL     1      22.925  17.765   5.410  1.00  0.00     0.094 A 
ATOM      9  C   UNL     1      21.680  18.286   5.042  1.00  0.00     0.336 A 
ATOM     10  O   UNL     1      21.421  18.494   3.827  1.00  0.00    -0.246 OA
ATOM     11  O   UNL     1      20.766  18.565   5.967  1.00  0.00    -0.423 OA
ENDROOT
BRANCH   1  12
ATOM     12  O   UNL     1      21.605  17.762  11.396  1.00  0.00    -0.493 OA
ATOM     13  C   UNL     1      22.467  18.546  12.215  1.00  0.00     0.278 C 
ENDBRANCH   1  12
BRANCH   2  14
ATOM     14  O   UNL     1      19.176  18.800  10.455  1.00  0.00    -0.504 OA
ATOM     15  H   UNL     1      18.237  19.020  10.146  1.00  0.00     0.293 HD
ENDBRANCH   2  14
TORSDOF 2
ENDMDL
MODEL 7
REMARK VINA RESULT:    -4.887      3.023      4.869
REMARK INTER + INTRA:          -5.380
REMARK INTER:                  -5.316
REMARK INTRA:                  -0.063
REMARK UNBOUND:                -0.064
REMARK SMILES COc1cc2ccc(=O)oc2cc1O
REMARK SMILES IDX 3 1 13 2 12 3 11 4 5 5 4 6 6 7 7 8 8 9 9 10 10 11 2 12 1 13
REMARK SMILES IDX 14 14
REMARK H PARENT 14 15
REMARK Flexibility Score: inf
ROOT
ATOM      1  C   UNL     1      21.427  16.001  10.442  1.00  0.00     0.161 A 
ATOM      2  C   UNL     1      22.394  16.931  10.868  1.00  0.00     0.161 A 
ATOM      3  C   UNL     1      22.919  17.866   9.968  1.00  0.00     0.098 A 
ATOM      4  C   UNL     1      22.490  17.886   8.639  1.00  0.00     0.142 A 
ATOM      5  C   UNL     1      21.522  16.959   8.202  1.00  0.00     0.022 A 
ATOM      6  C   UNL     1      20.994  16.021   9.100  1.00  0.00     0.062 A 
ATOM      7  C   UNL     1      21.113  17.004   6.865  1.00  0.00     0.019 A 
ATOM      8  C   UNL     1      21.667  17.956   6.010  1.00  0.00     0.094 A 
ATOM      9  C   UNL     1      22.623  18.844   6.515  1.00  0.00     0.336 A 
ATOM     10  O   UNL     1      23.136  19.711   5.759  1.00  0.00    -0.246 OA
ATOM     11  O   UNL     1      22.995  18.780   7.791  1.00  0.00    -0.423 OA
ENDROOT
BRANCH   1  12
ATOM     12  O   UNL     1      20.921  15.077  11.371  1.00  0.00    -0.493 OA
ATOM     13  C   UNL     1      21.411  13.751  11.540  1.00  0.00     0.278 C 
ENDBRANCH   1  12
BRANCH   2  14
ATOM     14  O   UNL     1      22.848  16.943  12.188  1.00  0.00    -0.504 OA
ATOM     15  H   UNL     1      23.639  17.503  12.482  1.00  0.00     0.293 HD
ENDBRANCH   2  14
TORSDOF 2
ENDMDL
MODEL 8
REMARK VINA RESULT:    -4.794      3.240      3.878
REMARK INTER + INTRA:          -5.279
REMARK INTER:                  -5.235
REMARK INTRA:                  -0.044
REMARK UNBOUND:                -0.064
REMARK SMILES COc1cc2ccc(=O)oc2cc1O
REMARK SMILES IDX 3 1 13 2 12 3 11 4 5 5 4 6 6 7 7 8 8 9 9 10 10 11 2 12 1 13
REMARK SMILES IDX 14 14
REMARK H PARENT 14 15
REMARK Flexibility Score: inf
ROOT
ATOM      1  C   UNL     1      22.015  16.324   6.191  1.00  0.00     0.161 A 
ATOM      2  C   UNL     1      22.999  17.331   6.232  1.00  0.00     0.161 A 
ATOM      3  C   UNL     1      23.364  17.911   7.452  1.00  0.00     0.098 A 
ATOM      4  C   UNL     1      22.758  17.500   8.641  1.00  0.00     0.142 A 
ATOM      5  C   UNL     1      21.772  16.492   8.611  1.00  0.00     0.022 A 
ATOM      6  C   UNL     1      21.403  15.908   7.391  1.00  0.00     0.062 A 
ATOM      7  C   UNL     1      21.182  16.101   9.818  1.00  0.00     0.019 A 
ATOM      8  C   UNL     1      21.583  16.712  11.006  1.00  0.00     0.094 A 
ATOM      9  C   UNL     1      22.568  17.704  10.958  1.00  0.00     0.336 A 
ATOM     10  O   UNL     1      22.944  18.268  12.019  1.00  0.00    -0.246 OA
ATOM     11  O   UNL     1      23.113  18.057   9.796  1.00  0.00    -0.423 OA
ENDROOT
BRANCH   1  12
ATOM     12  O   UNL     1      21.673  15.763   4.950  1.00  0.00    -0.493 OA
ATOM     13  C   UNL     1      20.999  14.520   4.784  1.00  0.00     0.278 C 
ENDBRANCH   1  12
BRANCH   2  14
ATOM     14  O   UNL     1      23.628  17.769   5.066  1.00  0.00    -0.504 OA
ATOM     15  H   UNL     1      23.262  17.562   4.145  1.00  0.00     0.293 HD
ENDBRANCH   2  14
TORSDOF 2
ENDMDL
MODEL 9
REMARK VINA RESULT:    -4.621      1.918      5.355
REMARK INTER + INTRA:          -5.091
REMARK INTER:                  -5.028
REMARK INTRA:                  -0.063
REMARK UNBOUND:                -0.064
REMARK SMILES COc1cc2ccc(=O)oc2cc1O
REMARK SMILES IDX 3 1 13 2 12 3 11 4 5 5 4 6 6 7 7 8 8 9 9 10 10 11 2 12 1 13
REMARK SMILES IDX 14 14
REMARK H PARENT 14 15
REMARK Flexibility Score: inf
ROOT
ATOM      1  C   UNL     1      21.318  17.283  10.480  1.00  0.00     0.161 A 
ATOM      2  C   UNL     1      20.683  16.045  10.696  1.00  0.00     0.161 A 
ATOM      3  C   UNL     1      19.406  15.807  10.174  1.00  0.00     0.098 A 
ATOM      4  C   UNL     1      18.748  16.793   9.436  1.00  0.00     0.142 A 
ATOM      5  C   UNL     1      19.376  18.036   9.214  1.00  0.00     0.022 A 
ATOM      6  C   UNL     1      20.655  18.279   9.735  1.00  0.00     0.062 A 
ATOM      7  C   UNL     1      18.692  19.005   8.471  1.00  0.00     0.019 A 
ATOM      8  C   UNL     1      17.422  18.716   7.974  1.00  0.00     0.094 A 
ATOM      9  C   UNL     1      16.862  17.460   8.234  1.00  0.00     0.336 A 
ATOM     10  O   UNL     1      15.716  17.180   7.794  1.00  0.00    -0.246 OA
ATOM     11  O   UNL     1      17.534  16.557   8.944  1.00  0.00    -0.423 OA
ENDROOT
BRANCH   1  12
ATOM     12  O   UNL     1      22.600  17.488  11.017  1.00  0.00    -0.493 OA
ATOM     13  C   UNL     1      22.886  18.339  12.122  1.00  0.00     0.278 C 
ENDBRANCH   1  12
BRANCH   2  14
ATOM     14  O   UNL     1      21.307  15.034  11.428  1.00  0.00    -0.504 OA
ATOM     15  H   UNL     1      21.685  15.193  12.354  1.00  0.00     0.293 HD
ENDBRANCH   2  14
TORSDOF 2
ENDMDL
