MODEL 1
REMARK VINA RESULT:    -2.716      0.000      0.000
REMARK INTER + INTRA:          -3.597
REMARK INTER:                  -3.589
REMARK INTRA:                  -0.008
REMARK UNBOUND:                -0.008
REMARK SMILES CC[C@@H](C=C[C@H](C)[C@H]1CC[C@@H]2[C@@H]3CC=C4C[C@H](O)CC[C@@]4(C)[C@H]3CC[C@]21C)C(C)C
REMARK SMILES IDX 6 1 7 2 5 3 4 4 3 5 2 6 1 7 28 8 29 9 30 10 8 11 9 12 26 13
REMARK SMILES IDX 10 14 11 15 25 16 27 17 12 18 24 19 23 20 13 21 21 22 14 23
REMARK SMILES IDX 15 24 20 25 22 26 16 27 19 28 17 29 18 30
REMARK H PARENT 18 31
REMARK Flexibility Score: inf
ROOT
ATOM      1  C   UNL     1      75.155  40.842  22.528  1.00  0.00     0.012 C 
ATOM      2  C   UNL     1      74.000  41.777  22.942  1.00  0.00     0.012 C 
ENDROOT
BRANCH   1   3
ATOM      3  C   UNL     1      75.571  39.916  23.661  1.00  0.00    -0.028 C 
ATOM      4  C   UNL     1      76.237  40.318  24.760  1.00  0.00    -0.027 C 
BRANCH   4   5
ATOM      5  C   UNL     1      76.512  39.371  25.911  1.00  0.00     0.014 C 
BRANCH   5   6
ATOM      6  C   UNL     1      77.009  38.031  25.310  1.00  0.00     0.004 C 
ATOM      7  C   UNL     1      78.060  37.314  26.156  1.00  0.00     0.004 C 
ENDBRANCH   5   6
BRANCH   5   8
ATOM      8  C   UNL     1      75.250  39.290  26.833  1.00  0.00    -0.011 C 
ATOM      9  C   UNL     1      75.117  37.963  27.597  1.00  0.00     0.008 C 
ATOM     10  C   UNL     1      75.136  40.482  27.795  1.00  0.00     0.008 C 
ENDBRANCH   5   8
ENDBRANCH   4   5
ENDBRANCH   1   3
BRANCH   1  11
ATOM     11  C   UNL     1      74.943  40.036  21.198  1.00  0.00     0.002 C 
ATOM     12  C   UNL     1      74.782  38.501  21.413  1.00  0.00     0.005 C 
ATOM     13  C   UNL     1      73.747  40.429  20.253  1.00  0.00    -0.026 C 
ATOM     14  C   UNL     1      73.410  38.089  20.857  1.00  0.00     0.005 C 
ATOM     15  C   UNL     1      72.678  39.406  20.673  1.00  0.00    -0.001 C 
ATOM     16  C   UNL     1      73.151  41.887  20.349  1.00  0.00     0.007 C 
ATOM     17  C   UNL     1      74.258  40.187  18.792  1.00  0.00     0.012 C 
ATOM     18  C   UNL     1      71.334  39.441  19.888  1.00  0.00     0.000 C 
ATOM     19  C   UNL     1      71.597  41.950  20.261  1.00  0.00     0.005 C 
ATOM     20  C   UNL     1      71.026  40.855  19.326  1.00  0.00     0.003 C 
ATOM     21  C   UNL     1      71.163  38.436  18.748  1.00  0.00     0.031 C 
ATOM     22  C   UNL     1      69.511  40.985  18.924  1.00  0.00    -0.008 C 
ATOM     23  C   UNL     1      69.760  38.543  18.199  1.00  0.00    -0.027 C 
ATOM     24  C   UNL     1      69.004  39.671  18.285  1.00  0.00    -0.065 C 
ATOM     25  C   UNL     1      68.614  41.308  20.160  1.00  0.00     0.014 C 
ATOM     26  C   UNL     1      69.380  42.125  17.875  1.00  0.00     0.016 C 
ATOM     27  C   UNL     1      67.528  39.583  17.961  1.00  0.00     0.063 C 
ATOM     28  C   UNL     1      67.102  41.216  19.863  1.00  0.00     0.033 C 
ATOM     29  C   UNL     1      66.723  39.859  19.242  1.00  0.00     0.118 C 
BRANCH  29  30
ATOM     30  O   UNL     1      65.345  39.796  18.983  1.00  0.00    -0.393 OA
ATOM     31  H   UNL     1      65.137  38.875  18.683  1.00  0.00     0.210 HD
ENDBRANCH  29  30
ENDBRANCH   1  11
TORSDOF 6
ENDMDL
MODEL 2
REMARK VINA RESULT:    -2.262      2.338      4.893
REMARK INTER + INTRA:          -2.997
REMARK INTER:                  -2.011
REMARK INTRA:                  -0.986
REMARK UNBOUND:                -0.008
REMARK SMILES CC[C@@H](C=C[C@H](C)[C@H]1CC[C@@H]2[C@@H]3CC=C4C[C@H](O)CC[C@@]4(C)[C@H]3CC[C@]21C)C(C)C
REMARK SMILES IDX 6 1 7 2 5 3 4 4 3 5 2 6 1 7 28 8 29 9 30 10 8 11 9 12 26 13
REMARK SMILES IDX 10 14 11 15 25 16 27 17 12 18 24 19 23 20 13 21 21 22 14 23
REMARK SMILES IDX 15 24 20 25 22 26 16 27 19 28 17 29 18 30
REMARK H PARENT 18 31
REMARK Flexibility Score: inf
ROOT
ATOM      1  C   UNL     1      74.779  40.349  21.644  1.00  0.00     0.012 C 
ATOM      2  C   UNL     1      75.259  40.113  23.091  1.00  0.00     0.012 C 
ENDROOT
BRANCH   1   3
ATOM      3  C   UNL     1      74.448  39.045  20.934  1.00  0.00    -0.028 C 
ATOM      4  C   UNL     1      74.721  38.799  19.638  1.00  0.00    -0.027 C 
BRANCH   4   5
ATOM      5  C   UNL     1      74.481  37.436  19.022  1.00  0.00     0.014 C 
BRANCH   5   6
ATOM      6  C   UNL     1      75.508  37.251  17.875  1.00  0.00     0.004 C 
ATOM      7  C   UNL     1      76.641  38.276  17.875  1.00  0.00     0.004 C 
ENDBRANCH   5   6
BRANCH   5   8
ATOM      8  C   UNL     1      72.973  37.300  18.627  1.00  0.00    -0.011 C 
ATOM      9  C   UNL     1      72.054  36.892  19.790  1.00  0.00     0.008 C 
ATOM     10  C   UNL     1      72.427  38.549  17.919  1.00  0.00     0.008 C 
ENDBRANCH   5   8
ENDBRANCH   4   5
ENDBRANCH   1   3
BRANCH   1  11
ATOM     11  C   UNL     1      73.619  41.390  21.467  1.00  0.00     0.002 C 
ATOM     12  C   UNL     1      73.636  42.122  20.091  1.00  0.00     0.005 C 
ATOM     13  C   UNL     1      72.131  40.907  21.639  1.00  0.00    -0.026 C 
ATOM     14  C   UNL     1      72.304  41.826  19.384  1.00  0.00     0.005 C 
ATOM     15  C   UNL     1      71.716  40.672  20.175  1.00  0.00    -0.001 C 
ATOM     16  C   UNL     1      71.847  39.606  22.484  1.00  0.00     0.007 C 
ATOM     17  C   UNL     1      71.362  42.109  22.286  1.00  0.00     0.012 C 
ATOM     18  C   UNL     1      70.242  40.236  19.931  1.00  0.00     0.000 C 
ATOM     19  C   UNL     1      70.759  38.672  21.877  1.00  0.00     0.005 C 
ATOM     20  C   UNL     1      69.652  39.471  21.146  1.00  0.00     0.003 C 
ATOM     21  C   UNL     1      69.247  41.328  19.535  1.00  0.00     0.031 C 
ATOM     22  C   UNL     1      68.355  38.679  20.740  1.00  0.00    -0.008 C 
ATOM     23  C   UNL     1      67.913  40.692  19.222  1.00  0.00    -0.027 C 
ATOM     24  C   UNL     1      67.508  39.501  19.741  1.00  0.00    -0.065 C 
ATOM     25  C   UNL     1      68.703  37.309  20.077  1.00  0.00     0.014 C 
ATOM     26  C   UNL     1      67.509  38.437  22.021  1.00  0.00     0.016 C 
ATOM     27  C   UNL     1      66.291  38.826  19.146  1.00  0.00     0.063 C 
ATOM     28  C   UNL     1      67.482  36.600  19.453  1.00  0.00     0.033 C 
ATOM     29  C   UNL     1      66.731  37.517  18.470  1.00  0.00     0.118 C 
BRANCH  29  30
ATOM     30  O   UNL     1      65.628  36.853  17.912  1.00  0.00    -0.393 OA
ATOM     31  H   UNL     1      65.081  37.527  17.432  1.00  0.00     0.210 HD
ENDBRANCH  29  30
ENDBRANCH   1  11
TORSDOF 6
ENDMDL
MODEL 3
REMARK VINA RESULT:    -2.216      1.735      2.502
REMARK INTER + INTRA:          -2.937
REMARK INTER:                  -3.425
REMARK INTRA:                   0.488
REMARK UNBOUND:                -0.008
REMARK SMILES CC[C@@H](C=C[C@H](C)[C@H]1CC[C@@H]2[C@@H]3CC=C4C[C@H](O)CC[C@@]4(C)[C@H]3CC[C@]21C)C(C)C
REMARK SMILES IDX 6 1 7 2 5 3 4 4 3 5 2 6 1 7 28 8 29 9 30 10 8 11 9 12 26 13
REMARK SMILES IDX 10 14 11 15 25 16 27 17 12 18 24 19 23 20 13 21 21 22 14 23
REMARK SMILES IDX 15 24 20 25 22 26 16 27 19 28 17 29 18 30
REMARK H PARENT 18 31
REMARK Flexibility Score: inf
ROOT
ATOM      1  C   UNL     1      74.284  42.086  21.629  1.00  0.00     0.012 C 
ATOM      2  C   UNL     1      72.912  42.034  22.334  1.00  0.00     0.012 C 
ENDROOT
BRANCH   1   3
ATOM      3  C   UNL     1      75.426  41.768  22.582  1.00  0.00    -0.028 C 
ATOM      4  C   UNL     1      75.309  40.975  23.664  1.00  0.00    -0.027 C 
BRANCH   4   5
ATOM      5  C   UNL     1      76.512  40.595  24.503  1.00  0.00     0.014 C 
BRANCH   5   6
ATOM      6  C   UNL     1      77.765  40.670  23.591  1.00  0.00     0.004 C 
ATOM      7  C   UNL     1      78.161  42.088  23.182  1.00  0.00     0.004 C 
ENDBRANCH   5   6
BRANCH   5   8
ATOM      8  C   UNL     1      76.248  39.221  25.202  1.00  0.00    -0.011 C 
ATOM      9  C   UNL     1      77.515  38.384  25.439  1.00  0.00     0.008 C 
ATOM     10  C   UNL     1      75.440  39.359  26.501  1.00  0.00     0.008 C 
ENDBRANCH   5   8
ENDBRANCH   4   5
ENDBRANCH   1   3
BRANCH   1  11
ATOM     11  C   UNL     1      74.409  41.248  20.309  1.00  0.00     0.002 C 
ATOM     12  C   UNL     1      75.215  39.925  20.479  1.00  0.00     0.005 C 
ATOM     13  C   UNL     1      73.096  40.815  19.555  1.00  0.00    -0.026 C 
ATOM     14  C   UNL     1      74.291  38.757  20.101  1.00  0.00     0.005 C 
ATOM     15  C   UNL     1      72.906  39.379  20.076  1.00  0.00    -0.001 C 
ATOM     16  C   UNL     1      71.775  41.643  19.794  1.00  0.00     0.007 C 
ATOM     17  C   UNL     1      73.446  40.850  18.029  1.00  0.00     0.012 C 
ATOM     18  C   UNL     1      71.709  38.578  19.486  1.00  0.00     0.000 C 
ATOM     19  C   UNL     1      70.489  40.773  19.924  1.00  0.00     0.005 C 
ATOM     20  C   UNL     1      70.553  39.509  19.032  1.00  0.00     0.003 C 
ATOM     21  C   UNL     1      72.011  37.611  18.339  1.00  0.00     0.031 C 
ATOM     22  C   UNL     1      69.215  38.701  18.849  1.00  0.00    -0.008 C 
ATOM     23  C   UNL     1      70.756  36.844  17.995  1.00  0.00    -0.027 C 
ATOM     24  C   UNL     1      69.500  37.312  18.232  1.00  0.00    -0.065 C 
ATOM     25  C   UNL     1      68.480  38.492  20.210  1.00  0.00     0.014 C 
ATOM     26  C   UNL     1      68.296  39.493  17.878  1.00  0.00     0.016 C 
ATOM     27  C   UNL     1      68.334  36.355  18.112  1.00  0.00     0.063 C 
ATOM     28  C   UNL     1      67.290  37.513  20.122  1.00  0.00     0.033 C 
ATOM     29  C   UNL     1      67.705  36.165  19.502  1.00  0.00     0.118 C 
BRANCH  29  30
ATOM     30  O   UNL     1      66.609  35.290  19.435  1.00  0.00    -0.393 OA
ATOM     31  H   UNL     1      66.813  34.509  20.011  1.00  0.00     0.210 HD
ENDBRANCH  29  30
ENDBRANCH   1  11
TORSDOF 6
ENDMDL
MODEL 4
REMARK VINA RESULT:    -1.087      3.545      7.288
REMARK INTER + INTRA:          -1.445
REMARK INTER:                  -2.148
REMARK INTRA:                   0.704
REMARK UNBOUND:                -0.008
REMARK SMILES CC[C@@H](C=C[C@H](C)[C@H]1CC[C@@H]2[C@@H]3CC=C4C[C@H](O)CC[C@@]4(C)[C@H]3CC[C@]21C)C(C)C
REMARK SMILES IDX 6 1 7 2 5 3 4 4 3 5 2 6 1 7 28 8 29 9 30 10 8 11 9 12 26 13
REMARK SMILES IDX 10 14 11 15 25 16 27 17 12 18 24 19 23 20 13 21 21 22 14 23
REMARK SMILES IDX 15 24 20 25 22 26 16 27 19 28 17 29 18 30
REMARK H PARENT 18 31
REMARK Flexibility Score: inf
ROOT
ATOM      1  C   UNL     1      67.582  37.273  20.667  1.00  0.00     0.012 C 
ATOM      2  C   UNL     1      67.829  36.054  21.580  1.00  0.00     0.012 C 
ENDROOT
BRANCH   1   3
ATOM      3  C   UNL     1      67.713  38.586  21.423  1.00  0.00    -0.028 C 
ATOM      4  C   UNL     1      68.866  39.270  21.558  1.00  0.00    -0.027 C 
BRANCH   4   5
ATOM      5  C   UNL     1      68.907  40.634  22.216  1.00  0.00     0.014 C 
BRANCH   5   6
ATOM      6  C   UNL     1      67.838  41.521  21.527  1.00  0.00     0.004 C 
ATOM      7  C   UNL     1      68.094  41.775  20.042  1.00  0.00     0.004 C 
ENDBRANCH   5   6
BRANCH   5   8
ATOM      8  C   UNL     1      70.374  41.179  22.195  1.00  0.00    -0.011 C 
ATOM      9  C   UNL     1      70.747  41.927  20.906  1.00  0.00     0.008 C 
ATOM     10  C   UNL     1      70.713  42.026  23.430  1.00  0.00     0.008 C 
ENDBRANCH   5   8
ENDBRANCH   4   5
ENDBRANCH   1   3
BRANCH   1  11
ATOM     11  C   UNL     1      68.410  37.312  19.335  1.00  0.00     0.002 C 
ATOM     12  C   UNL     1      68.061  38.519  18.413  1.00  0.00     0.005 C 
ATOM     13  C   UNL     1      69.982  37.320  19.416  1.00  0.00    -0.026 C 
ATOM     14  C   UNL     1      69.342  39.343  18.210  1.00  0.00     0.005 C 
ATOM     15  C   UNL     1      70.286  38.822  19.278  1.00  0.00    -0.001 C 
ATOM     16  C   UNL     1      70.678  36.756  20.714  1.00  0.00     0.007 C 
ATOM     17  C   UNL     1      70.480  36.499  18.178  1.00  0.00     0.012 C 
ATOM     18  C   UNL     1      71.789  39.228  19.248  1.00  0.00     0.000 C 
ATOM     19  C   UNL     1      71.900  37.592  21.200  1.00  0.00     0.005 C 
ATOM     20  C   UNL     1      72.680  38.217  20.017  1.00  0.00     0.003 C 
ATOM     21  C   UNL     1      72.422  39.462  17.875  1.00  0.00     0.031 C 
ATOM     22  C   UNL     1      74.087  38.840  20.346  1.00  0.00    -0.008 C 
ATOM     23  C   UNL     1      73.834  39.966  18.061  1.00  0.00    -0.027 C 
ATOM     24  C   UNL     1      74.584  39.709  19.167  1.00  0.00    -0.065 C 
ATOM     25  C   UNL     1      74.036  39.732  21.625  1.00  0.00     0.014 C 
ATOM     26  C   UNL     1      75.097  37.678  20.561  1.00  0.00     0.016 C 
ATOM     27  C   UNL     1      75.864  40.489  19.374  1.00  0.00     0.063 C 
ATOM     28  C   UNL     1      75.325  40.548  21.858  1.00  0.00     0.033 C 
ATOM     29  C   UNL     1      75.707  41.378  20.618  1.00  0.00     0.118 C 
BRANCH  29  30
ATOM     30  O   UNL     1      76.879  42.114  20.853  1.00  0.00    -0.393 OA
ATOM     31  H   UNL     1      77.609  41.691  20.331  1.00  0.00     0.210 HD
ENDBRANCH  29  30
ENDBRANCH   1  11
TORSDOF 6
ENDMDL
