MODEL 1
REMARK VINA RESULT:    -3.505      0.000      0.000
REMARK INTER + INTRA:          -7.729
REMARK INTER:                  -6.374
REMARK INTRA:                  -1.355
REMARK UNBOUND:                -1.355
REMARK SMILES CCCCCCCCCCCCCCCC(=O)[O-]
REMARK SMILES IDX 9 1 10 2 11 3 12 4 13 5 14 6 15 7 16 8 17 9 18 10 8 11 7 12
REMARK SMILES IDX 6 13 5 14 4 15 3 16 2 17 1 18
REMARK H PARENT
REMARK Flexibility Score: inf
ROOT
ATOM      1  C   UNL     1     -44.279 -37.562  16.209  1.00  0.00     0.000 C 
ENDROOT
BRANCH   1   2
ATOM      2  C   UNL     1     -43.656 -38.240  14.980  1.00  0.00     0.000 C 
BRANCH   2   3
ATOM      3  C   UNL     1     -44.638 -38.244  13.800  1.00  0.00     0.000 C 
BRANCH   3   4
ATOM      4  C   UNL     1     -44.695 -36.894  13.061  1.00  0.00     0.000 C 
BRANCH   4   5
ATOM      5  C   UNL     1     -45.989 -36.086  13.273  1.00  0.00     0.000 C 
BRANCH   5   6
ATOM      6  C   UNL     1     -45.725 -34.607  13.607  1.00  0.00     0.006 C 
BRANCH   6   7
ATOM      7  C   UNL     1     -45.909 -34.309  15.101  1.00  0.00     0.053 C 
BRANCH   7   8
ATOM      8  C   UNL     1     -44.914 -33.306  15.598  1.00  0.00     0.041 C 
ATOM      9  O   UNL     1     -44.256 -33.533  16.647  1.00  0.00    -0.550 OA
ATOM     10  O   UNL     1     -44.693 -32.133  14.887  1.00  0.00    -0.550 OA
ENDBRANCH   7   8
ENDBRANCH   6   7
ENDBRANCH   5   6
ENDBRANCH   4   5
ENDBRANCH   3   4
ENDBRANCH   2   3
ENDBRANCH   1   2
BRANCH   1  11
ATOM     11  C   UNL     1     -45.180 -38.509  17.023  1.00  0.00     0.000 C 
BRANCH  11  12
ATOM     12  C   UNL     1     -45.902 -37.857  18.220  1.00  0.00    -0.000 C 
BRANCH  12  13
ATOM     13  C   UNL     1     -45.750 -36.329  18.321  1.00  0.00    -0.000 C 
BRANCH  13  14
ATOM     14  C   UNL     1     -44.618 -35.904  19.268  1.00  0.00    -0.000 C 
BRANCH  14  15
ATOM     15  C   UNL     1     -44.583 -36.798  20.516  1.00  0.00    -0.000 C 
BRANCH  15  16
ATOM     16  C   UNL     1     -45.549 -36.328  21.618  1.00  0.00    -0.000 C 
BRANCH  16  17
ATOM     17  C   UNL     1     -45.663 -34.800  21.769  1.00  0.00    -0.003 C 
ATOM     18  C   UNL     1     -44.445 -34.175  22.449  1.00  0.00     0.004 C 
ENDBRANCH  16  17
ENDBRANCH  15  16
ENDBRANCH  14  15
ENDBRANCH  13  14
ENDBRANCH  12  13
ENDBRANCH  11  12
ENDBRANCH   1  11
TORSDOF 14
ENDMDL
MODEL 2
REMARK VINA RESULT:    -3.493      1.992      5.685
REMARK INTER + INTRA:          -7.707
REMARK INTER:                  -6.583
REMARK INTRA:                  -1.124
REMARK UNBOUND:                -1.355
REMARK SMILES CCCCCCCCCCCCCCCC(=O)[O-]
REMARK SMILES IDX 9 1 10 2 11 3 12 4 13 5 14 6 15 7 16 8 17 9 18 10 8 11 7 12
REMARK SMILES IDX 6 13 5 14 4 15 3 16 2 17 1 18
REMARK H PARENT
REMARK Flexibility Score: inf
ROOT
ATOM      1  C   UNL     1     -44.250 -37.671  13.617  1.00  0.00     0.000 C 
ENDROOT
BRANCH   1   2
ATOM      2  C   UNL     1     -43.952 -38.170  15.038  1.00  0.00     0.000 C 
BRANCH   2   3
ATOM      3  C   UNL     1     -44.805 -37.422  16.072  1.00  0.00     0.000 C 
BRANCH   3   4
ATOM      4  C   UNL     1     -45.097 -38.260  17.330  1.00  0.00     0.000 C 
BRANCH   4   5
ATOM      5  C   UNL     1     -45.530 -37.452  18.568  1.00  0.00     0.000 C 
BRANCH   5   6
ATOM      6  C   UNL     1     -44.510 -36.371  18.967  1.00  0.00     0.006 C 
BRANCH   6   7
ATOM      7  C   UNL     1     -44.346 -36.264  20.489  1.00  0.00     0.053 C 
BRANCH   7   8
ATOM      8  C   UNL     1     -44.997 -35.032  21.036  1.00  0.00     0.041 C 
ATOM      9  O   UNL     1     -45.900 -34.448  20.380  1.00  0.00    -0.550 OA
ATOM     10  O   UNL     1     -44.628 -34.544  22.283  1.00  0.00    -0.550 OA
ENDBRANCH   7   8
ENDBRANCH   6   7
ENDBRANCH   5   6
ENDBRANCH   4   5
ENDBRANCH   3   4
ENDBRANCH   2   3
ENDBRANCH   1   2
BRANCH   1  11
ATOM     11  C   UNL     1     -45.219 -36.475  13.593  1.00  0.00     0.000 C 
BRANCH  11  12
ATOM     12  C   UNL     1     -45.074 -35.538  12.377  1.00  0.00    -0.000 C 
BRANCH  12  13
ATOM     13  C   UNL     1     -46.125 -34.417  12.288  1.00  0.00    -0.000 C 
BRANCH  13  14
ATOM     14  C   UNL     1     -46.123 -33.498  13.519  1.00  0.00    -0.000 C 
BRANCH  14  15
ATOM     15  C   UNL     1     -44.874 -32.605  13.534  1.00  0.00    -0.000 C 
BRANCH  15  16
ATOM     16  C   UNL     1     -44.661 -31.896  14.884  1.00  0.00    -0.000 C 
BRANCH  16  17
ATOM     17  C   UNL     1     -44.271 -32.826  16.048  1.00  0.00    -0.003 C 
ATOM     18  C   UNL     1     -45.401 -33.026  17.056  1.00  0.00     0.004 C 
ENDBRANCH  16  17
ENDBRANCH  15  16
ENDBRANCH  14  15
ENDBRANCH  13  14
ENDBRANCH  12  13
ENDBRANCH  11  12
ENDBRANCH   1  11
TORSDOF 14
ENDMDL
MODEL 3
REMARK VINA RESULT:    -3.334      2.970      7.522
REMARK INTER + INTRA:          -7.417
REMARK INTER:                  -6.560
REMARK INTRA:                  -0.857
REMARK UNBOUND:                -1.355
REMARK SMILES CCCCCCCCCCCCCCCC(=O)[O-]
REMARK SMILES IDX 9 1 10 2 11 3 12 4 13 5 14 6 15 7 16 8 17 9 18 10 8 11 7 12
REMARK SMILES IDX 6 13 5 14 4 15 3 16 2 17 1 18
REMARK H PARENT
REMARK Flexibility Score: inf
ROOT
ATOM      1  C   UNL     1     -44.717 -36.679  18.886  1.00  0.00     0.000 C 
ENDROOT
BRANCH   1   2
ATOM      2  C   UNL     1     -44.251 -36.824  20.341  1.00  0.00     0.000 C 
BRANCH   2   3
ATOM      3  C   UNL     1     -45.450 -36.889  21.297  1.00  0.00     0.000 C 
BRANCH   3   4
ATOM      4  C   UNL     1     -45.753 -35.540  21.975  1.00  0.00     0.000 C 
BRANCH   4   5
ATOM      5  C   UNL     1     -44.641 -34.482  21.852  1.00  0.00     0.000 C 
BRANCH   5   6
ATOM      6  C   UNL     1     -44.957 -33.187  22.621  1.00  0.00     0.006 C 
BRANCH   6   7
ATOM      7  C   UNL     1     -44.774 -33.354  24.135  1.00  0.00     0.053 C 
BRANCH   7   8
ATOM      8  C   UNL     1     -43.440 -32.854  24.596  1.00  0.00     0.041 C 
ATOM      9  O   UNL     1     -42.671 -32.266  23.790  1.00  0.00    -0.550 OA
ATOM     10  O   UNL     1     -43.057 -33.011  25.922  1.00  0.00    -0.550 OA
ENDBRANCH   7   8
ENDBRANCH   6   7
ENDBRANCH   5   6
ENDBRANCH   4   5
ENDBRANCH   3   4
ENDBRANCH   2   3
ENDBRANCH   1   2
BRANCH   1  11
ATOM     11  C   UNL     1     -45.652 -37.819  18.440  1.00  0.00     0.000 C 
BRANCH  11  12
ATOM     12  C   UNL     1     -45.500 -38.252  16.968  1.00  0.00    -0.000 C 
BRANCH  12  13
ATOM     13  C   UNL     1     -44.548 -37.384  16.126  1.00  0.00    -0.000 C 
BRANCH  13  14
ATOM     14  C   UNL     1     -43.866 -38.171  14.997  1.00  0.00    -0.000 C 
BRANCH  14  15
ATOM     15  C   UNL     1     -44.728 -38.165  13.727  1.00  0.00    -0.000 C 
BRANCH  15  16
ATOM     16  C   UNL     1     -44.451 -36.951  12.820  1.00  0.00    -0.000 C 
BRANCH  16  17
ATOM     17  C   UNL     1     -45.656 -36.018  12.604  1.00  0.00    -0.003 C 
ATOM     18  C   UNL     1     -45.706 -34.865  13.606  1.00  0.00     0.004 C 
ENDBRANCH  16  17
ENDBRANCH  15  16
ENDBRANCH  14  15
ENDBRANCH  13  14
ENDBRANCH  12  13
ENDBRANCH  11  12
ENDBRANCH   1  11
TORSDOF 14
ENDMDL
MODEL 4
REMARK VINA RESULT:    -3.324      2.947      6.758
REMARK INTER + INTRA:          -7.399
REMARK INTER:                  -5.882
REMARK INTRA:                  -1.516
REMARK UNBOUND:                -1.355
REMARK SMILES CCCCCCCCCCCCCCCC(=O)[O-]
REMARK SMILES IDX 9 1 10 2 11 3 12 4 13 5 14 6 15 7 16 8 17 9 18 10 8 11 7 12
REMARK SMILES IDX 6 13 5 14 4 15 3 16 2 17 1 18
REMARK H PARENT
REMARK Flexibility Score: inf
ROOT
ATOM      1  C   UNL     1     -45.649 -37.262  18.789  1.00  0.00     0.000 C 
ENDROOT
BRANCH   1   2
ATOM      2  C   UNL     1     -44.186 -36.960  19.141  1.00  0.00     0.000 C 
BRANCH   2   3
ATOM      3  C   UNL     1     -44.088 -36.214  20.480  1.00  0.00     0.000 C 
BRANCH   3   4
ATOM      4  C   UNL     1     -45.397 -36.256  21.290  1.00  0.00     0.000 C 
BRANCH   4   5
ATOM      5  C   UNL     1     -45.564 -35.126  22.323  1.00  0.00     0.000 C 
BRANCH   5   6
ATOM      6  C   UNL     1     -44.414 -34.103  22.284  1.00  0.00     0.006 C 
BRANCH   6   7
ATOM      7  C   UNL     1     -44.628 -32.956  23.281  1.00  0.00     0.053 C 
BRANCH   7   8
ATOM      8  C   UNL     1     -43.470 -32.808  24.220  1.00  0.00     0.041 C 
ATOM      9  O   UNL     1     -43.545 -33.262  25.392  1.00  0.00    -0.550 OA
ATOM     10  O   UNL     1     -42.299 -32.196  23.792  1.00  0.00    -0.550 OA
ENDBRANCH   7   8
ENDBRANCH   6   7
ENDBRANCH   5   6
ENDBRANCH   4   5
ENDBRANCH   3   4
ENDBRANCH   2   3
ENDBRANCH   1   2
BRANCH   1  11
ATOM     11  C   UNL     1     -45.793 -38.161  17.546  1.00  0.00     0.000 C 
BRANCH  11  12
ATOM     12  C   UNL     1     -44.590 -38.142  16.582  1.00  0.00    -0.000 C 
BRANCH  12  13
ATOM     13  C   UNL     1     -44.947 -38.275  15.090  1.00  0.00    -0.000 C 
BRANCH  13  14
ATOM     14  C   UNL     1     -44.623 -37.008  14.285  1.00  0.00    -0.000 C 
BRANCH  14  15
ATOM     15  C   UNL     1     -45.891 -36.176  14.039  1.00  0.00    -0.000 C 
BRANCH  15  16
ATOM     16  C   UNL     1     -45.777 -34.737  14.573  1.00  0.00    -0.000 C 
BRANCH  16  17
ATOM     17  C   UNL     1     -45.857 -34.607  16.105  1.00  0.00    -0.003 C 
ATOM     18  C   UNL     1     -44.535 -34.175  16.738  1.00  0.00     0.004 C 
ENDBRANCH  16  17
ENDBRANCH  15  16
ENDBRANCH  14  15
ENDBRANCH  13  14
ENDBRANCH  12  13
ENDBRANCH  11  12
ENDBRANCH   1  11
TORSDOF 14
ENDMDL
MODEL 5
REMARK VINA RESULT:    -3.321      1.624      3.069
REMARK INTER + INTRA:          -7.394
REMARK INTER:                  -6.749
REMARK INTRA:                  -0.645
REMARK UNBOUND:                -1.355
REMARK SMILES CCCCCCCCCCCCCCCC(=O)[O-]
REMARK SMILES IDX 9 1 10 2 11 3 12 4 13 5 14 6 15 7 16 8 17 9 18 10 8 11 7 12
REMARK SMILES IDX 6 13 5 14 4 15 3 16 2 17 1 18
REMARK H PARENT
REMARK Flexibility Score: inf
ROOT
ATOM      1  C   UNL     1     -44.679 -37.417  18.181  1.00  0.00     0.000 C 
ENDROOT
BRANCH   1   2
ATOM      2  C   UNL     1     -45.144 -38.530  17.232  1.00  0.00     0.000 C 
BRANCH   2   3
ATOM      3  C   UNL     1     -45.407 -37.975  15.824  1.00  0.00     0.000 C 
BRANCH   3   4
ATOM      4  C   UNL     1     -44.144 -37.944  14.944  1.00  0.00     0.000 C 
BRANCH   4   5
ATOM      5  C   UNL     1     -44.402 -38.011  13.427  1.00  0.00     0.000 C 
BRANCH   5   6
ATOM      6  C   UNL     1     -45.588 -37.138  12.980  1.00  0.00     0.006 C 
BRANCH   6   7
ATOM      7  C   UNL     1     -45.129 -35.811  12.361  1.00  0.00     0.053 C 
BRANCH   7   8
ATOM      8  C   UNL     1     -45.578 -34.632  13.167  1.00  0.00     0.041 C 
ATOM      9  O   UNL     1     -45.840 -33.539  12.599  1.00  0.00    -0.550 OA
ATOM     10  O   UNL     1     -45.737 -34.748  14.543  1.00  0.00    -0.550 OA
ENDBRANCH   7   8
ENDBRANCH   6   7
ENDBRANCH   5   6
ENDBRANCH   4   5
ENDBRANCH   3   4
ENDBRANCH   2   3
ENDBRANCH   1   2
BRANCH   1  11
ATOM     11  C   UNL     1     -45.653 -37.180  19.350  1.00  0.00     0.000 C 
BRANCH  11  12
ATOM     12  C   UNL     1     -44.989 -37.000  20.730  1.00  0.00    -0.000 C 
BRANCH  12  13
ATOM     13  C   UNL     1     -44.539 -35.564  21.055  1.00  0.00    -0.000 C 
BRANCH  13  14
ATOM     14  C   UNL     1     -45.353 -34.928  22.192  1.00  0.00    -0.000 C 
BRANCH  14  15
ATOM     15  C   UNL     1     -45.345 -33.396  22.080  1.00  0.00    -0.000 C 
BRANCH  15  16
ATOM     16  C   UNL     1     -44.649 -32.711  23.270  1.00  0.00    -0.000 C 
BRANCH  16  17
ATOM     17  C   UNL     1     -43.182 -33.124  23.486  1.00  0.00    -0.003 C 
ATOM     18  C   UNL     1     -42.397 -32.122  24.330  1.00  0.00     0.004 C 
ENDBRANCH  16  17
ENDBRANCH  15  16
ENDBRANCH  14  15
ENDBRANCH  13  14
ENDBRANCH  12  13
ENDBRANCH  11  12
ENDBRANCH   1  11
TORSDOF 14
ENDMDL
MODEL 6
REMARK VINA RESULT:    -3.164      4.988      9.214
REMARK INTER + INTRA:          -7.109
REMARK INTER:                  -5.991
REMARK INTRA:                  -1.118
REMARK UNBOUND:                -1.355
REMARK SMILES CCCCCCCCCCCCCCCC(=O)[O-]
REMARK SMILES IDX 9 1 10 2 11 3 12 4 13 5 14 6 15 7 16 8 17 9 18 10 8 11 7 12
REMARK SMILES IDX 6 13 5 14 4 15 3 16 2 17 1 18
REMARK H PARENT
REMARK Flexibility Score: inf
ROOT
ATOM      1  C   UNL     1     -42.537 -32.407  23.921  1.00  0.00     0.000 C 
ENDROOT
BRANCH   1   2
ATOM      2  C   UNL     1     -43.905 -32.300  24.608  1.00  0.00     0.000 C 
BRANCH   2   3
ATOM      3  C   UNL     1     -44.920 -33.254  23.961  1.00  0.00     0.000 C 
BRANCH   3   4
ATOM      4  C   UNL     1     -45.413 -32.765  22.586  1.00  0.00     0.000 C 
BRANCH   4   5
ATOM      5  C   UNL     1     -45.509 -33.853  21.501  1.00  0.00     0.000 C 
BRANCH   5   6
ATOM      6  C   UNL     1     -44.504 -35.000  21.710  1.00  0.00     0.006 C 
BRANCH   6   7
ATOM      7  C   UNL     1     -45.035 -36.339  21.181  1.00  0.00     0.053 C 
BRANCH   7   8
ATOM      8  C   UNL     1     -44.484 -36.664  19.827  1.00  0.00     0.041 C 
ATOM      9  O   UNL     1     -43.280 -37.011  19.701  1.00  0.00    -0.550 OA
ATOM     10  O   UNL     1     -45.306 -36.612  18.709  1.00  0.00    -0.550 OA
ENDBRANCH   7   8
ENDBRANCH   6   7
ENDBRANCH   5   6
ENDBRANCH   4   5
ENDBRANCH   3   4
ENDBRANCH   2   3
ENDBRANCH   1   2
BRANCH   1  11
ATOM     11  C   UNL     1     -41.364 -32.087  24.867  1.00  0.00     0.000 C 
BRANCH  11  12
ATOM     12  C   UNL     1     -41.748 -31.913  26.350  1.00  0.00    -0.000 C 
BRANCH  12  13
ATOM     13  C   UNL     1     -41.113 -32.931  27.313  1.00  0.00    -0.000 C 
BRANCH  13  14
ATOM     14  C   UNL     1     -40.058 -32.302  28.235  1.00  0.00    -0.000 C 
BRANCH  14  15
ATOM     15  C   UNL     1     -38.892 -33.272  28.476  1.00  0.00    -0.000 C 
BRANCH  15  16
ATOM     16  C   UNL     1     -37.785 -33.154  27.412  1.00  0.00    -0.000 C 
BRANCH  16  17
ATOM     17  C   UNL     1     -37.904 -34.148  26.243  1.00  0.00    -0.003 C 
ATOM     18  C   UNL     1     -37.939 -33.463  24.877  1.00  0.00     0.004 C 
ENDBRANCH  16  17
ENDBRANCH  15  16
ENDBRANCH  14  15
ENDBRANCH  13  14
ENDBRANCH  12  13
ENDBRANCH  11  12
ENDBRANCH   1  11
TORSDOF 14
ENDMDL
MODEL 7
REMARK VINA RESULT:    -3.150      2.346      4.516
REMARK INTER + INTRA:          -7.082
REMARK INTER:                  -6.298
REMARK INTRA:                  -0.785
REMARK UNBOUND:                -1.355
REMARK SMILES CCCCCCCCCCCCCCCC(=O)[O-]
REMARK SMILES IDX 9 1 10 2 11 3 12 4 13 5 14 6 15 7 16 8 17 9 18 10 8 11 7 12
REMARK SMILES IDX 6 13 5 14 4 15 3 16 2 17 1 18
REMARK H PARENT
REMARK Flexibility Score: inf
ROOT
ATOM      1  C   UNL     1     -44.239 -36.830  19.953  1.00  0.00     0.000 C 
ENDROOT
BRANCH   1   2
ATOM      2  C   UNL     1     -44.904 -36.315  18.669  1.00  0.00     0.000 C 
BRANCH   2   3
ATOM      3  C   UNL     1     -46.052 -37.239  18.238  1.00  0.00     0.000 C 
BRANCH   3   4
ATOM      4  C   UNL     1     -45.627 -38.273  17.179  1.00  0.00     0.000 C 
BRANCH   4   5
ATOM      5  C   UNL     1     -44.183 -38.126  16.664  1.00  0.00     0.000 C 
BRANCH   5   6
ATOM      6  C   UNL     1     -44.095 -38.098  15.127  1.00  0.00     0.006 C 
BRANCH   6   7
ATOM      7  C   UNL     1     -45.383 -37.569  14.483  1.00  0.00     0.053 C 
BRANCH   7   8
ATOM      8  C   UNL     1     -45.137 -36.334  13.672  1.00  0.00     0.041 C 
ATOM      9  O   UNL     1     -45.538 -35.214  14.086  1.00  0.00    -0.550 OA
ATOM     10  O   UNL     1     -44.439 -36.415  12.474  1.00  0.00    -0.550 OA
ENDBRANCH   7   8
ENDBRANCH   6   7
ENDBRANCH   5   6
ENDBRANCH   4   5
ENDBRANCH   3   4
ENDBRANCH   2   3
ENDBRANCH   1   2
BRANCH   1  11
ATOM     11  C   UNL     1     -44.647 -36.028  21.202  1.00  0.00     0.000 C 
BRANCH  11  12
ATOM     12  C   UNL     1     -45.433 -34.732  20.920  1.00  0.00    -0.000 C 
BRANCH  12  13
ATOM     13  C   UNL     1     -45.222 -33.603  21.946  1.00  0.00    -0.000 C 
BRANCH  13  14
ATOM     14  C   UNL     1     -43.932 -33.775  22.763  1.00  0.00    -0.000 C 
BRANCH  14  15
ATOM     15  C   UNL     1     -43.842 -32.717  23.873  1.00  0.00    -0.000 C 
BRANCH  15  16
ATOM     16  C   UNL     1     -42.392 -32.326  24.212  1.00  0.00    -0.000 C 
BRANCH  16  17
ATOM     17  C   UNL     1     -42.088 -32.219  25.717  1.00  0.00    -0.003 C 
ATOM     18  C   UNL     1     -42.905 -33.194  26.564  1.00  0.00     0.004 C 
ENDBRANCH  16  17
ENDBRANCH  15  16
ENDBRANCH  14  15
ENDBRANCH  13  14
ENDBRANCH  12  13
ENDBRANCH  11  12
ENDBRANCH   1  11
TORSDOF 14
ENDMDL
MODEL 8
REMARK VINA RESULT:    -3.120      5.748     10.136
REMARK INTER + INTRA:          -7.028
REMARK INTER:                  -5.696
REMARK INTRA:                  -1.332
REMARK UNBOUND:                -1.355
REMARK SMILES CCCCCCCCCCCCCCCC(=O)[O-]
REMARK SMILES IDX 9 1 10 2 11 3 12 4 13 5 14 6 15 7 16 8 17 9 18 10 8 11 7 12
REMARK SMILES IDX 6 13 5 14 4 15 3 16 2 17 1 18
REMARK H PARENT
REMARK Flexibility Score: inf
ROOT
ATOM      1  C   UNL     1     -39.292 -31.875  23.958  1.00  0.00     0.000 C 
ENDROOT
BRANCH   1   2
ATOM      2  C   UNL     1     -40.459 -31.904  24.954  1.00  0.00     0.000 C 
BRANCH   2   3
ATOM      3  C   UNL     1     -41.781 -32.221  24.241  1.00  0.00     0.000 C 
BRANCH   3   4
ATOM      4  C   UNL     1     -43.008 -32.090  25.163  1.00  0.00     0.000 C 
BRANCH   4   5
ATOM      5  C   UNL     1     -44.275 -32.814  24.672  1.00  0.00     0.000 C 
BRANCH   5   6
ATOM      6  C   UNL     1     -44.244 -33.123  23.164  1.00  0.00     0.006 C 
BRANCH   6   7
ATOM      7  C   UNL     1     -45.315 -34.146  22.761  1.00  0.00     0.053 C 
BRANCH   7   8
ATOM      8  C   UNL     1     -45.017 -34.773  21.434  1.00  0.00     0.041 C 
ATOM      9  O   UNL     1     -45.684 -34.447  20.416  1.00  0.00    -0.550 OA
ATOM     10  O   UNL     1     -43.985 -35.696  21.315  1.00  0.00    -0.550 OA
ENDBRANCH   7   8
ENDBRANCH   6   7
ENDBRANCH   5   6
ENDBRANCH   4   5
ENDBRANCH   3   4
ENDBRANCH   2   3
ENDBRANCH   1   2
BRANCH   1  11
ATOM     11  C   UNL     1     -38.317 -33.053  24.141  1.00  0.00     0.000 C 
BRANCH  11  12
ATOM     12  C   UNL     1     -38.313 -33.687  25.547  1.00  0.00    -0.000 C 
BRANCH  12  13
ATOM     13  C   UNL     1     -37.400 -32.992  26.573  1.00  0.00    -0.000 C 
BRANCH  13  14
ATOM     14  C   UNL     1     -37.815 -33.271  28.026  1.00  0.00    -0.000 C 
BRANCH  14  15
ATOM     15  C   UNL     1     -38.958 -32.341  28.457  1.00  0.00    -0.000 C 
BRANCH  15  16
ATOM     16  C   UNL     1     -40.182 -33.105  28.993  1.00  0.00    -0.000 C 
BRANCH  16  17
ATOM     17  C   UNL     1     -41.541 -32.580  28.494  1.00  0.00    -0.003 C 
ATOM     18  C   UNL     1     -42.620 -33.661  28.452  1.00  0.00     0.004 C 
ENDBRANCH  16  17
ENDBRANCH  15  16
ENDBRANCH  14  15
ENDBRANCH  13  14
ENDBRANCH  12  13
ENDBRANCH  11  12
ENDBRANCH   1  11
TORSDOF 14
ENDMDL
MODEL 9
REMARK VINA RESULT:    -2.289      2.594      6.401
REMARK INTER + INTRA:          -5.517
REMARK INTER:                  -4.755
REMARK INTRA:                  -0.762
REMARK UNBOUND:                -1.355
REMARK SMILES CCCCCCCCCCCCCCCC(=O)[O-]
REMARK SMILES IDX 9 1 10 2 11 3 12 4 13 5 14 6 15 7 16 8 17 9 18 10 8 11 7 12
REMARK SMILES IDX 6 13 5 14 4 15 3 16 2 17 1 18
REMARK H PARENT
REMARK Flexibility Score: inf
ROOT
ATOM      1  C   UNL     1     -43.856 -37.936  16.371  1.00  0.00     0.000 C 
ENDROOT
BRANCH   1   2
ATOM      2  C   UNL     1     -45.264 -38.221  16.913  1.00  0.00     0.000 C 
BRANCH   2   3
ATOM      3  C   UNL     1     -46.015 -36.913  17.201  1.00  0.00     0.000 C 
BRANCH   3   4
ATOM      4  C   UNL     1     -46.125 -36.600  18.705  1.00  0.00     0.000 C 
BRANCH   4   5
ATOM      5  C   UNL     1     -44.900 -37.002  19.547  1.00  0.00     0.000 C 
BRANCH   5   6
ATOM      6  C   UNL     1     -44.961 -36.465  20.989  1.00  0.00     0.006 C 
BRANCH   6   7
ATOM      7  C   UNL     1     -44.747 -34.947  21.050  1.00  0.00     0.053 C 
BRANCH   7   8
ATOM      8  C   UNL     1     -44.882 -34.419  22.445  1.00  0.00     0.041 C 
ATOM      9  O   UNL     1     -45.930 -34.642  23.108  1.00  0.00    -0.550 OA
ATOM     10  O   UNL     1     -43.839 -33.707  23.025  1.00  0.00    -0.550 OA
ENDBRANCH   7   8
ENDBRANCH   6   7
ENDBRANCH   5   6
ENDBRANCH   4   5
ENDBRANCH   3   4
ENDBRANCH   2   3
ENDBRANCH   1   2
BRANCH   1  11
ATOM     11  C   UNL     1     -43.714 -38.261  14.873  1.00  0.00     0.000 C 
BRANCH  11  12
ATOM     12  C   UNL     1     -44.938 -37.901  14.006  1.00  0.00    -0.000 C 
BRANCH  12  13
ATOM     13  C   UNL     1     -44.673 -36.863  12.901  1.00  0.00    -0.000 C 
BRANCH  13  14
ATOM     14  C   UNL     1     -45.929 -36.063  12.522  1.00  0.00    -0.000 C 
BRANCH  14  15
ATOM     15  C   UNL     1     -45.685 -34.555  12.678  1.00  0.00    -0.000 C 
BRANCH  15  16
ATOM     16  C   UNL     1     -45.809 -34.076  14.136  1.00  0.00    -0.000 C 
BRANCH  16  17
ATOM     17  C   UNL     1     -45.073 -32.760  14.449  1.00  0.00    -0.003 C 
ATOM     18  C   UNL     1     -44.877 -31.878  13.216  1.00  0.00     0.004 C 
ENDBRANCH  16  17
ENDBRANCH  15  16
ENDBRANCH  14  15
ENDBRANCH  13  14
ENDBRANCH  12  13
ENDBRANCH  11  12
ENDBRANCH   1  11
TORSDOF 14
ENDMDL
