MODEL 1
REMARK VINA RESULT:    -2.740      0.000      0.000
REMARK INTER + INTRA:          -2.320
REMARK INTER:                  -3.942
REMARK INTRA:                   1.622
REMARK UNBOUND:                 1.622
REMARK SMILES O=c1c(O[C@H]2O[C@H](CO)[C@H](O)[C@H](O)[C@H]2O)c(-c2ccc(O)cc2)oc2cc(O)cc(O)c12
REMARK SMILES IDX 4 1 3 2 16 3 24 4 2 5 25 6 1 7 32 8 26 9 30 10 27 11 29 12
REMARK SMILES IDX 17 13 18 14 19 15 20 16 23 17 22 18 21 19 31 21 28 23 5 25
REMARK SMILES IDX 14 26 6 27 12 28 7 29 10 30 15 31 13 33 8 35 9 36 11 38
REMARK H PARENT 21 20 31 22 28 24 15 32 13 34 9 37 11 39
REMARK Flexibility Score: inf
ROOT
ATOM      1  O   UNL     1      46.370  35.505  98.437  1.00  0.00    -0.454 OA
ENDROOT
BRANCH   1   2
ATOM      2  C   UNL     1      46.442  34.814  99.660  1.00  0.00     0.214 A 
ATOM      3  C   UNL     1      46.903  35.410 100.854  1.00  0.00     0.180 A 
ATOM      4  O   UNL     1      47.193  34.644 101.900  1.00  0.00    -0.452 OA
ATOM      5  C   UNL     1      46.082  33.456  99.687  1.00  0.00     0.239 A 
ATOM      6  C   UNL     1      46.995  33.330 101.920  1.00  0.00     0.146 A 
ATOM      7  O   UNL     1      45.604  32.943  98.651  1.00  0.00    -0.285 OA
ATOM      8  C   UNL     1      46.346  32.679 100.838  1.00  0.00     0.111 A 
ATOM      9  C   UNL     1      47.443  32.589 103.020  1.00  0.00     0.094 A 
ATOM     10  C   UNL     1      46.060  31.288 100.953  1.00  0.00     0.134 A 
ATOM     11  C   UNL     1      47.257  31.209 103.066  1.00  0.00     0.123 A 
ATOM     12  C   UNL     1      46.553  30.570 102.052  1.00  0.00     0.093 A 
BRANCH   3  13
ATOM     13  C   UNL     1      47.088  36.866 100.963  1.00  0.00     0.021 A 
ATOM     14  C   UNL     1      47.868  37.418 102.002  1.00  0.00     0.016 A 
ATOM     15  C   UNL     1      48.095  38.799 102.044  1.00  0.00     0.047 A 
ATOM     16  C   UNL     1      47.525  39.648 101.093  1.00  0.00     0.115 A 
ATOM     17  C   UNL     1      46.483  37.732 100.035  1.00  0.00     0.016 A 
ATOM     18  C   UNL     1      46.723  39.107 100.078  1.00  0.00     0.047 A 
BRANCH  16  19
ATOM     19  O   UNL     1      47.767  41.017 101.147  1.00  0.00    -0.508 OA
ATOM     20  H   UNL     1      48.113  41.446 101.996  1.00  0.00     0.293 HD
ENDBRANCH  16  19
ENDBRANCH   3  13
BRANCH  10  21
ATOM     21  O   UNL     1      45.287  30.588 100.028  1.00  0.00    -0.507 OA
ATOM     22  H   UNL     1      45.194  30.875  99.064  1.00  0.00     0.293 HD
ENDBRANCH  10  21
BRANCH  11  23
ATOM     23  O   UNL     1      47.755  30.455 104.125  1.00  0.00    -0.508 OA
ATOM     24  H   UNL     1      48.589  29.886 104.020  1.00  0.00     0.293 HD
ENDBRANCH  11  23
ENDBRANCH   1   2
BRANCH   1  25
ATOM     25  C   UNL     1      47.325  35.450  97.347  1.00  0.00     0.339 C 
ATOM     26  C   UNL     1      46.651  35.843  96.029  1.00  0.00     0.214 C 
ATOM     27  O   UNL     1      47.987  34.203  97.215  1.00  0.00    -0.332 OA
ATOM     28  C   UNL     1      45.501  34.854  95.762  1.00  0.00     0.180 C 
ATOM     29  C   UNL     1      47.181  33.099  96.827  1.00  0.00     0.179 C 
ATOM     30  C   UNL     1      46.015  33.392  95.799  1.00  0.00     0.177 C 
BRANCH  26  31
ATOM     31  O   UNL     1      46.172  37.168  96.149  1.00  0.00    -0.384 OA
ATOM     32  H   UNL     1      46.644  37.729  95.464  1.00  0.00     0.211 HD
ENDBRANCH  26  31
BRANCH  28  33
ATOM     33  O   UNL     1      44.846  35.055  94.523  1.00  0.00    -0.387 OA
ATOM     34  H   UNL     1      43.858  35.047  94.661  1.00  0.00     0.211 HD
ENDBRANCH  28  33
BRANCH  29  35
ATOM     35  C   UNL     1      48.114  31.990  96.308  1.00  0.00     0.191 C 
BRANCH  35  36
ATOM     36  O   UNL     1      48.125  30.894  97.193  1.00  0.00    -0.394 OA
ATOM     37  H   UNL     1      47.536  31.125  97.956  1.00  0.00     0.210 HD
ENDBRANCH  35  36
ENDBRANCH  29  35
BRANCH  30  38
ATOM     38  O   UNL     1      46.330  32.960  94.483  1.00  0.00    -0.387 OA
ATOM     39  H   UNL     1      45.702  32.220  94.276  1.00  0.00     0.211 HD
ENDBRANCH  30  38
ENDBRANCH   1  25
TORSDOF 11
ENDMDL
MODEL 2
REMARK VINA RESULT:    -2.084      1.587      5.923
REMARK INTER + INTRA:          -1.375
REMARK INTER:                  -1.361
REMARK INTRA:                  -0.014
REMARK UNBOUND:                 1.622
REMARK SMILES O=c1c(O[C@H]2O[C@H](CO)[C@H](O)[C@H](O)[C@H]2O)c(-c2ccc(O)cc2)oc2cc(O)cc(O)c12
REMARK SMILES IDX 4 1 3 2 16 3 24 4 2 5 25 6 1 7 32 8 26 9 30 10 27 11 29 12
REMARK SMILES IDX 17 13 18 14 19 15 20 16 23 17 22 18 21 19 31 21 28 23 5 25
REMARK SMILES IDX 14 26 6 27 12 28 7 29 10 30 15 31 13 33 8 35 9 36 11 38
REMARK H PARENT 21 20 31 22 28 24 15 32 13 34 9 37 11 39
REMARK Flexibility Score: inf
ROOT
ATOM      1  O   UNL     1      46.776  35.234  99.558  1.00  0.00    -0.454 OA
ENDROOT
BRANCH   1   2
ATOM      2  C   UNL     1      47.065  36.232 100.507  1.00  0.00     0.214 A 
ATOM      3  C   UNL     1      47.331  35.948 101.865  1.00  0.00     0.180 A 
ATOM      4  O   UNL     1      47.336  36.936 102.752  1.00  0.00    -0.452 OA
ATOM      5  C   UNL     1      47.045  37.575 100.097  1.00  0.00     0.239 A 
ATOM      6  C   UNL     1      47.183  38.215 102.423  1.00  0.00     0.146 A 
ATOM      7  O   UNL     1      46.884  37.828  98.883  1.00  0.00    -0.285 OA
ATOM      8  C   UNL     1      47.115  38.608 101.061  1.00  0.00     0.111 A 
ATOM      9  C   UNL     1      47.081  39.174 103.438  1.00  0.00     0.094 A 
ATOM     10  C   UNL     1      47.060  39.999 100.755  1.00  0.00     0.134 A 
ATOM     11  C   UNL     1      46.912  40.520 103.123  1.00  0.00     0.123 A 
ATOM     12  C   UNL     1      46.923  40.929 101.795  1.00  0.00     0.093 A 
BRANCH   3  13
ATOM     13  C   UNL     1      47.587  34.574 102.325  1.00  0.00     0.021 A 
ATOM     14  C   UNL     1      47.625  34.270 103.704  1.00  0.00     0.016 A 
ATOM     15  C   UNL     1      47.793  32.945 104.121  1.00  0.00     0.047 A 
ATOM     16  C   UNL     1      47.966  31.917 103.191  1.00  0.00     0.115 A 
ATOM     17  C   UNL     1      47.805  33.540 101.397  1.00  0.00     0.016 A 
ATOM     18  C   UNL     1      47.961  32.219 101.822  1.00  0.00     0.047 A 
BRANCH  16  19
ATOM     19  O   UNL     1      48.125  30.605 103.624  1.00  0.00    -0.508 OA
ATOM     20  H   UNL     1      47.338  30.084 103.990  1.00  0.00     0.293 HD
ENDBRANCH  16  19
ENDBRANCH   3  13
BRANCH  10  21
ATOM     21  O   UNL     1      47.154  40.501  99.458  1.00  0.00    -0.507 OA
ATOM     22  H   UNL     1      46.431  40.364  98.765  1.00  0.00     0.293 HD
ENDBRANCH  10  21
BRANCH  11  23
ATOM     23  O   UNL     1      46.746  41.473 104.125  1.00  0.00    -0.508 OA
ATOM     24  H   UNL     1      46.784  41.217 105.106  1.00  0.00     0.293 HD
ENDBRANCH  11  23
ENDBRANCH   1   2
BRANCH   1  25
ATOM     25  C   UNL     1      45.568  35.108  98.767  1.00  0.00     0.339 C 
ATOM     26  C   UNL     1      45.155  33.638  98.659  1.00  0.00     0.214 C 
ATOM     27  O   UNL     1      45.651  35.697  97.480  1.00  0.00    -0.332 OA
ATOM     28  C   UNL     1      46.302  32.862  97.984  1.00  0.00     0.180 C 
ATOM     29  C   UNL     1      46.552  35.089  96.565  1.00  0.00     0.179 C 
ATOM     30  C   UNL     1      46.681  33.514  96.630  1.00  0.00     0.177 C 
BRANCH  26  31
ATOM     31  O   UNL     1      44.900  33.147  99.960  1.00  0.00    -0.384 OA
ATOM     32  H   UNL     1      43.975  32.760  99.967  1.00  0.00     0.211 HD
ENDBRANCH  26  31
BRANCH  28  33
ATOM     33  O   UNL     1      46.010  31.497  97.744  1.00  0.00    -0.387 OA
ATOM     34  H   UNL     1      45.466  31.134  98.498  1.00  0.00     0.211 HD
ENDBRANCH  28  33
BRANCH  29  35
ATOM     35  C   UNL     1      46.176  35.558  95.147  1.00  0.00     0.191 C 
BRANCH  35  36
ATOM     36  O   UNL     1      47.132  36.468  94.654  1.00  0.00    -0.394 OA
ATOM     37  H   UNL     1      47.970  36.320  95.163  1.00  0.00     0.210 HD
ENDBRANCH  35  36
ENDBRANCH  29  35
BRANCH  30  38
ATOM     38  O   UNL     1      45.986  32.868  95.573  1.00  0.00    -0.387 OA
ATOM     39  H   UNL     1      45.377  32.212  96.002  1.00  0.00     0.211 HD
ENDBRANCH  30  38
ENDBRANCH   1  25
TORSDOF 11
ENDMDL
MODEL 3
REMARK VINA RESULT:    -1.508      1.516      7.089
REMARK INTER + INTRA:          -0.546
REMARK INTER:                  -0.384
REMARK INTRA:                  -0.162
REMARK UNBOUND:                 1.622
REMARK SMILES O=c1c(O[C@H]2O[C@H](CO)[C@H](O)[C@H](O)[C@H]2O)c(-c2ccc(O)cc2)oc2cc(O)cc(O)c12
REMARK SMILES IDX 4 1 3 2 16 3 24 4 2 5 25 6 1 7 32 8 26 9 30 10 27 11 29 12
REMARK SMILES IDX 17 13 18 14 19 15 20 16 23 17 22 18 21 19 31 21 28 23 5 25
REMARK SMILES IDX 14 26 6 27 12 28 7 29 10 30 15 31 13 33 8 35 9 36 11 38
REMARK H PARENT 21 20 31 22 28 24 15 32 13 34 9 37 11 39
REMARK Flexibility Score: inf
ROOT
ATOM      1  O   UNL     1      46.642  35.798 100.698  1.00  0.00    -0.454 OA
ENDROOT
BRANCH   1   2
ATOM      2  C   UNL     1      46.377  35.016  99.559  1.00  0.00     0.214 A 
ATOM      3  C   UNL     1      46.638  33.630  99.500  1.00  0.00     0.180 A 
ATOM      4  O   UNL     1      46.615  33.007  98.327  1.00  0.00    -0.452 OA
ATOM      5  C   UNL     1      45.872  35.650  98.411  1.00  0.00     0.239 A 
ATOM      6  C   UNL     1      46.273  33.604  97.190  1.00  0.00     0.146 A 
ATOM      7  O   UNL     1      45.569  36.862  98.481  1.00  0.00    -0.285 OA
ATOM      8  C   UNL     1      45.799  34.942  97.189  1.00  0.00     0.111 A 
ATOM      9  C   UNL     1      46.394  32.900  95.986  1.00  0.00     0.094 A 
ATOM     10  C   UNL     1      45.343  35.503  95.961  1.00  0.00     0.134 A 
ATOM     11  C   UNL     1      46.051  33.502  94.777  1.00  0.00     0.123 A 
ATOM     12  C   UNL     1      45.511  34.784  94.769  1.00  0.00     0.093 A 
BRANCH   3  13
ATOM     13  C   UNL     1      46.956  32.857 100.712  1.00  0.00     0.021 A 
ATOM     14  C   UNL     1      46.357  33.177 101.949  1.00  0.00     0.016 A 
ATOM     15  C   UNL     1      46.613  32.383 103.073  1.00  0.00     0.047 A 
ATOM     16  C   UNL     1      47.489  31.297 102.999  1.00  0.00     0.115 A 
ATOM     17  C   UNL     1      47.870  31.789 100.656  1.00  0.00     0.016 A 
ATOM     18  C   UNL     1      48.111  30.996 101.780  1.00  0.00     0.047 A 
BRANCH  16  19
ATOM     19  O   UNL     1      47.726  30.515 104.125  1.00  0.00    -0.508 OA
ATOM     20  H   UNL     1      47.312  29.596 104.210  1.00  0.00     0.293 HD
ENDBRANCH  16  19
ENDBRANCH   3  13
BRANCH  10  21
ATOM     21  O   UNL     1      44.711  36.742  95.874  1.00  0.00    -0.507 OA
ATOM     22  H   UNL     1      44.006  37.043  96.534  1.00  0.00     0.293 HD
ENDBRANCH  10  21
BRANCH  11  23
ATOM     23  O   UNL     1      46.227  32.834  93.569  1.00  0.00    -0.508 OA
ATOM     24  H   UNL     1      46.669  33.287  92.776  1.00  0.00     0.293 HD
ENDBRANCH  11  23
ENDBRANCH   1   2
BRANCH   1  25
ATOM     25  C   UNL     1      47.751  36.712 100.889  1.00  0.00     0.339 C 
ATOM     26  C   UNL     1      47.871  37.101 102.365  1.00  0.00     0.214 C 
ATOM     27  O   UNL     1      47.698  37.870 100.073  1.00  0.00    -0.332 OA
ATOM     28  C   UNL     1      46.557  37.780 102.794  1.00  0.00     0.180 C 
ATOM     29  C   UNL     1      46.641  38.782 100.340  1.00  0.00     0.179 C 
ATOM     30  C   UNL     1      46.221  38.965 101.853  1.00  0.00     0.177 C 
BRANCH  26  31
ATOM     31  O   UNL     1      48.112  35.928 103.118  1.00  0.00    -0.384 OA
ATOM     32  H   UNL     1      48.278  36.203 104.069  1.00  0.00     0.211 HD
ENDBRANCH  26  31
BRANCH  28  33
ATOM     33  O   UNL     1      46.570  38.268 104.124  1.00  0.00    -0.387 OA
ATOM     34  H   UNL     1      45.882  38.984 104.224  1.00  0.00     0.211 HD
ENDBRANCH  28  33
BRANCH  29  35
ATOM     35  C   UNL     1      47.006  40.132  99.697  1.00  0.00     0.191 C 
BRANCH  35  36
ATOM     36  O   UNL     1      46.021  41.100  99.975  1.00  0.00    -0.394 OA
ATOM     37  H   UNL     1      45.297  40.647 100.478  1.00  0.00     0.210 HD
ENDBRANCH  35  36
ENDBRANCH  29  35
BRANCH  30  38
ATOM     38  O   UNL     1      46.712  40.176 102.411  1.00  0.00    -0.387 OA
ATOM     39  H   UNL     1      45.939  40.797 102.451  1.00  0.00     0.211 HD
ENDBRANCH  30  38
ENDBRANCH   1  25
TORSDOF 11
ENDMDL
MODEL 4
REMARK VINA RESULT:    -1.474      1.500      6.608
REMARK INTER + INTRA:          -0.498
REMARK INTER:                  -2.310
REMARK INTRA:                   1.811
REMARK UNBOUND:                 1.622
REMARK SMILES O=c1c(O[C@H]2O[C@H](CO)[C@H](O)[C@H](O)[C@H]2O)c(-c2ccc(O)cc2)oc2cc(O)cc(O)c12
REMARK SMILES IDX 4 1 3 2 16 3 24 4 2 5 25 6 1 7 32 8 26 9 30 10 27 11 29 12
REMARK SMILES IDX 17 13 18 14 19 15 20 16 23 17 22 18 21 19 31 21 28 23 5 25
REMARK SMILES IDX 14 26 6 27 12 28 7 29 10 30 15 31 13 33 8 35 9 36 11 38
REMARK H PARENT 21 20 31 22 28 24 15 32 13 34 9 37 11 39
REMARK Flexibility Score: inf
ROOT
ATOM      1  O   UNL     1      46.798  34.175 100.438  1.00  0.00    -0.454 OA
ENDROOT
BRANCH   1   2
ATOM      2  C   UNL     1      46.637  35.573 100.427  1.00  0.00     0.214 A 
ATOM      3  C   UNL     1      46.484  36.320  99.239  1.00  0.00     0.180 A 
ATOM      4  O   UNL     1      46.600  37.643  99.277  1.00  0.00    -0.452 OA
ATOM      5  C   UNL     1      46.674  36.263 101.650  1.00  0.00     0.239 A 
ATOM      6  C   UNL     1      46.773  38.329 100.401  1.00  0.00     0.146 A 
ATOM      7  O   UNL     1      46.735  35.600 102.710  1.00  0.00    -0.285 OA
ATOM      8  C   UNL     1      46.733  37.676 101.662  1.00  0.00     0.111 A 
ATOM      9  C   UNL     1      47.006  39.708 100.332  1.00  0.00     0.094 A 
ATOM     10  C   UNL     1      46.817  38.468 102.843  1.00  0.00     0.134 A 
ATOM     11  C   UNL     1      47.199  40.452 101.493  1.00  0.00     0.123 A 
ATOM     12  C   UNL     1      47.085  39.840 102.736  1.00  0.00     0.093 A 
BRANCH   3  13
ATOM     13  C   UNL     1      46.216  35.664  97.949  1.00  0.00     0.021 A 
ATOM     14  C   UNL     1      45.953  36.428  96.792  1.00  0.00     0.016 A 
ATOM     15  C   UNL     1      45.776  35.789  95.560  1.00  0.00     0.047 A 
ATOM     16  C   UNL     1      45.816  34.395  95.463  1.00  0.00     0.115 A 
ATOM     17  C   UNL     1      46.212  34.261  97.851  1.00  0.00     0.016 A 
ATOM     18  C   UNL     1      46.045  33.631  96.616  1.00  0.00     0.047 A 
BRANCH  16  19
ATOM     19  O   UNL     1      45.645  33.778  94.229  1.00  0.00    -0.508 OA
ATOM     20  H   UNL     1      44.718  33.575  93.878  1.00  0.00     0.293 HD
ENDBRANCH  16  19
ENDBRANCH   3  13
BRANCH  10  21
ATOM     21  O   UNL     1      46.625  37.953 104.124  1.00  0.00    -0.507 OA
ATOM     22  H   UNL     1      46.719  38.515 104.959  1.00  0.00     0.293 HD
ENDBRANCH  10  21
BRANCH  11  23
ATOM     23  O   UNL     1      47.494  41.811 101.431  1.00  0.00    -0.508 OA
ATOM     24  H   UNL     1      47.467  42.395 102.261  1.00  0.00     0.293 HD
ENDBRANCH  11  23
ENDBRANCH   1   2
BRANCH   1  25
ATOM     25  C   UNL     1      47.993  33.438 100.803  1.00  0.00     0.339 C 
ATOM     26  C   UNL     1      48.068  32.126 100.018  1.00  0.00     0.214 C 
ATOM     27  O   UNL     1      48.125  33.195 102.193  1.00  0.00    -0.332 OA
ATOM     28  C   UNL     1      46.818  31.290 100.355  1.00  0.00     0.180 C 
ATOM     29  C   UNL     1      47.167  32.320 102.774  1.00  0.00     0.179 C 
ATOM     30  C   UNL     1      46.680  31.105 101.888  1.00  0.00     0.177 C 
BRANCH  26  31
ATOM     31  O   UNL     1      48.124  32.431  98.639  1.00  0.00    -0.384 OA
ATOM     32  H   UNL     1      48.107  33.430  98.544  1.00  0.00     0.211 HD
ENDBRANCH  26  31
BRANCH  28  33
ATOM     33  O   UNL     1      46.807  30.006  99.757  1.00  0.00    -0.387 OA
ATOM     34  H   UNL     1      47.556  29.936  99.101  1.00  0.00     0.211 HD
ENDBRANCH  28  33
BRANCH  29  35
ATOM     35  C   UNL     1      47.726  31.836 104.124  1.00  0.00     0.191 C 
BRANCH  35  36
ATOM     36  O   UNL     1      48.121  30.486 104.045  1.00  0.00    -0.394 OA
ATOM     37  H   UNL     1      47.328  29.934 104.267  1.00  0.00     0.210 HD
ENDBRANCH  35  36
ENDBRANCH  29  35
BRANCH  30  38
ATOM     38  O   UNL     1      47.275  29.875 102.278  1.00  0.00    -0.387 OA
ATOM     39  H   UNL     1      46.552  29.337 102.695  1.00  0.00     0.211 HD
ENDBRANCH  30  38
ENDBRANCH   1  25
TORSDOF 11
ENDMDL
MODEL 5
REMARK VINA RESULT:    -0.262      1.368      5.704
REMARK INTER + INTRA:           1.245
REMARK INTER:                   0.872
REMARK INTRA:                   0.373
REMARK UNBOUND:                 1.622
REMARK SMILES O=c1c(O[C@H]2O[C@H](CO)[C@H](O)[C@H](O)[C@H]2O)c(-c2ccc(O)cc2)oc2cc(O)cc(O)c12
REMARK SMILES IDX 4 1 3 2 16 3 24 4 2 5 25 6 1 7 32 8 26 9 30 10 27 11 29 12
REMARK SMILES IDX 17 13 18 14 19 15 20 16 23 17 22 18 21 19 31 21 28 23 5 25
REMARK SMILES IDX 14 26 6 27 12 28 7 29 10 30 15 31 13 33 8 35 9 36 11 38
REMARK H PARENT 21 20 31 22 28 24 15 32 13 34 9 37 11 39
REMARK Flexibility Score: inf
ROOT
ATOM      1  O   UNL     1      47.523  34.101 101.389  1.00  0.00    -0.454 OA
ENDROOT
BRANCH   1   2
ATOM      2  C   UNL     1      47.323  34.493 100.053  1.00  0.00     0.214 A 
ATOM      3  C   UNL     1      46.950  35.804  99.684  1.00  0.00     0.180 A 
ATOM      4  O   UNL     1      46.524  36.041  98.448  1.00  0.00    -0.452 OA
ATOM      5  C   UNL     1      47.455  33.526  99.043  1.00  0.00     0.239 A 
ATOM      6  C   UNL     1      46.503  35.117  97.493  1.00  0.00     0.146 A 
ATOM      7  O   UNL     1      47.857  32.383  99.356  1.00  0.00    -0.285 OA
ATOM      8  C   UNL     1      47.051  33.827  97.721  1.00  0.00     0.111 A 
ATOM      9  C   UNL     1      45.925  35.427  96.256  1.00  0.00     0.094 A 
ATOM     10  C   UNL     1      47.104  32.907  96.634  1.00  0.00     0.134 A 
ATOM     11  C   UNL     1      45.882  34.476  95.238  1.00  0.00     0.123 A 
ATOM     12  C   UNL     1      46.484  33.237  95.420  1.00  0.00     0.093 A 
BRANCH   3  13
ATOM     13  C   UNL     1      47.005  36.917 100.646  1.00  0.00     0.021 A 
ATOM     14  C   UNL     1      47.416  36.699 101.979  1.00  0.00     0.016 A 
ATOM     15  C   UNL     1      47.535  37.782 102.857  1.00  0.00     0.047 A 
ATOM     16  C   UNL     1      47.212  39.077 102.445  1.00  0.00     0.115 A 
ATOM     17  C   UNL     1      46.640  38.216 100.252  1.00  0.00     0.016 A 
ATOM     18  C   UNL     1      46.771  39.293 101.132  1.00  0.00     0.047 A 
BRANCH  16  19
ATOM     19  O   UNL     1      47.342  40.143 103.330  1.00  0.00    -0.508 OA
ATOM     20  H   UNL     1      46.574  40.409 103.933  1.00  0.00     0.293 HD
ENDBRANCH  16  19
ENDBRANCH   3  13
BRANCH  10  21
ATOM     21  O   UNL     1      47.764  31.681  96.702  1.00  0.00    -0.507 OA
ATOM     22  H   UNL     1      48.197  31.340  97.549  1.00  0.00     0.293 HD
ENDBRANCH  10  21
BRANCH  11  23
ATOM     23  O   UNL     1      45.253  34.753  94.028  1.00  0.00    -0.508 OA
ATOM     24  H   UNL     1      44.427  35.342  93.986  1.00  0.00     0.293 HD
ENDBRANCH  11  23
ENDBRANCH   1   2
BRANCH   1  25
ATOM     25  C   UNL     1      46.504  33.738 102.354  1.00  0.00     0.339 C 
ATOM     26  C   UNL     1      47.092  32.818 103.428  1.00  0.00     0.214 C 
ATOM     27  O   UNL     1      45.343  33.157 101.784  1.00  0.00    -0.332 OA
ATOM     28  C   UNL     1      47.629  31.551 102.737  1.00  0.00     0.180 C 
ATOM     29  C   UNL     1      45.507  31.881 101.180  1.00  0.00     0.179 C 
ATOM     30  C   UNL     1      46.525  30.889 101.873  1.00  0.00     0.177 C 
BRANCH  26  31
ATOM     31  O   UNL     1      48.125  33.515 104.097  1.00  0.00    -0.384 OA
ATOM     32  H   UNL     1      48.838  32.850 104.336  1.00  0.00     0.211 HD
ENDBRANCH  26  31
BRANCH  28  33
ATOM     33  O   UNL     1      48.125  30.573 103.634  1.00  0.00    -0.387 OA
ATOM     34  H   UNL     1      47.450  30.402 104.349  1.00  0.00     0.211 HD
ENDBRANCH  28  33
BRANCH  29  35
ATOM     35  C   UNL     1      44.115  31.241 101.039  1.00  0.00     0.191 C 
BRANCH  35  36
ATOM     36  O   UNL     1      43.549  30.993 102.305  1.00  0.00    -0.394 OA
ATOM     37  H   UNL     1      43.919  30.132 102.629  1.00  0.00     0.210 HD
ENDBRANCH  35  36
ENDBRANCH  29  35
BRANCH  30  38
ATOM     38  O   UNL     1      45.871  29.875 102.622  1.00  0.00    -0.387 OA
ATOM     39  H   UNL     1      46.124  30.023 103.570  1.00  0.00     0.211 HD
ENDBRANCH  30  38
ENDBRANCH   1  25
TORSDOF 11
ENDMDL
MODEL 6
REMARK VINA RESULT:     0.238      6.924     12.109
REMARK INTER + INTRA:           1.965
REMARK INTER:                   1.947
REMARK INTRA:                   0.018
REMARK UNBOUND:                 1.622
REMARK SMILES O=c1c(O[C@H]2O[C@H](CO)[C@H](O)[C@H](O)[C@H]2O)c(-c2ccc(O)cc2)oc2cc(O)cc(O)c12
REMARK SMILES IDX 4 1 3 2 16 3 24 4 2 5 25 6 1 7 32 8 26 9 30 10 27 11 29 12
REMARK SMILES IDX 17 13 18 14 19 15 20 16 23 17 22 18 21 19 31 21 28 23 5 25
REMARK SMILES IDX 14 26 6 27 12 28 7 29 10 30 15 31 13 33 8 35 9 36 11 38
REMARK H PARENT 21 20 31 22 28 24 15 32 13 34 9 37 11 39
REMARK Flexibility Score: inf
ROOT
ATOM      1  O   UNL     1      45.536  45.866 100.736  1.00  0.00    -0.454 OA
ENDROOT
BRANCH   1   2
ATOM      2  C   UNL     1      45.243  44.496 100.864  1.00  0.00     0.214 A 
ATOM      3  C   UNL     1      44.017  44.017 101.375  1.00  0.00     0.180 A 
ATOM      4  O   UNL     1      43.903  42.737 101.714  1.00  0.00    -0.452 OA
ATOM      5  C   UNL     1      46.229  43.561 100.508  1.00  0.00     0.239 A 
ATOM      6  C   UNL     1      44.866  41.842 101.520  1.00  0.00     0.146 A 
ATOM      7  O   UNL     1      47.287  43.977  99.985  1.00  0.00    -0.285 OA
ATOM      8  C   UNL     1      46.053  42.194 100.824  1.00  0.00     0.111 A 
ATOM      9  C   UNL     1      44.702  40.544 102.018  1.00  0.00     0.094 A 
ATOM     10  C   UNL     1      47.008  41.175 100.547  1.00  0.00     0.134 A 
ATOM     11  C   UNL     1      45.698  39.586 101.836  1.00  0.00     0.123 A 
ATOM     12  C   UNL     1      46.829  39.895 101.090  1.00  0.00     0.093 A 
BRANCH   3  13
ATOM     13  C   UNL     1      42.862  44.910 101.562  1.00  0.00     0.021 A 
ATOM     14  C   UNL     1      42.843  46.197 100.982  1.00  0.00     0.016 A 
ATOM     15  C   UNL     1      41.705  47.001 101.107  1.00  0.00     0.047 A 
ATOM     16  C   UNL     1      40.595  46.564 101.835  1.00  0.00     0.115 A 
ATOM     17  C   UNL     1      41.759  44.496 102.330  1.00  0.00     0.016 A 
ATOM     18  C   UNL     1      40.623  45.300 102.441  1.00  0.00     0.047 A 
BRANCH  16  19
ATOM     19  O   UNL     1      39.470  47.374 101.943  1.00  0.00    -0.508 OA
ATOM     20  H   UNL     1      39.452  48.148 102.595  1.00  0.00     0.293 HD
ENDBRANCH  16  19
ENDBRANCH   3  13
BRANCH  10  21
ATOM     21  O   UNL     1      48.124  41.373  99.735  1.00  0.00    -0.507 OA
ATOM     22  H   UNL     1      48.823  42.077  99.929  1.00  0.00     0.293 HD
ENDBRANCH  10  21
BRANCH  11  23
ATOM     23  O   UNL     1      45.572  38.312 102.383  1.00  0.00    -0.508 OA
ATOM     24  H   UNL     1      45.496  37.491 101.791  1.00  0.00     0.293 HD
ENDBRANCH  11  23
ENDBRANCH   1   2
BRANCH   1  25
ATOM     25  C   UNL     1      46.614  46.590 101.381  1.00  0.00     0.339 C 
ATOM     26  C   UNL     1      46.249  46.904 102.834  1.00  0.00     0.214 C 
ATOM     27  O   UNL     1      47.010  47.770 100.701  1.00  0.00    -0.332 OA
ATOM     28  C   UNL     1      44.971  47.763 102.836  1.00  0.00     0.180 C 
ATOM     29  C   UNL     1      46.059  48.825 100.662  1.00  0.00     0.179 C 
ATOM     30  C   UNL     1      45.154  49.018 101.945  1.00  0.00     0.177 C 
BRANCH  26  31
ATOM     31  O   UNL     1      46.048  45.683 103.519  1.00  0.00    -0.384 OA
ATOM     32  H   UNL     1      46.194  45.851 104.497  1.00  0.00     0.211 HD
ENDBRANCH  26  31
BRANCH  28  33
ATOM     33  O   UNL     1      44.572  48.197 104.124  1.00  0.00    -0.387 OA
ATOM     34  H   UNL     1      45.031  47.647 104.819  1.00  0.00     0.211 HD
ENDBRANCH  28  33
BRANCH  29  35
ATOM     35  C   UNL     1      46.805  50.124 100.307  1.00  0.00     0.191 C 
BRANCH  35  36
ATOM     36  O   UNL     1      47.288  50.076  98.985  1.00  0.00    -0.394 OA
ATOM     37  H   UNL     1      46.951  50.883  98.519  1.00  0.00     0.210 HD
ENDBRANCH  35  36
ENDBRANCH  29  35
BRANCH  30  38
ATOM     38  O   UNL     1      45.569  50.118 102.742  1.00  0.00    -0.387 OA
ATOM     39  H   UNL     1      46.553  50.031 102.845  1.00  0.00     0.211 HD
ENDBRANCH  30  38
ENDBRANCH   1  25
TORSDOF 11
ENDMDL
