MODEL 1
REMARK VINA RESULT:    -2.675      0.000      0.000
REMARK INTER + INTRA:          -9.427
REMARK INTER:                  -6.741
REMARK INTRA:                  -2.686
REMARK UNBOUND:                -2.686
REMARK SMILES CCCCCCCCCCCCCCCCCCCCCCCCCCCC(=O)[O-]
REMARK SMILES IDX 15 1 16 2 17 3 18 4 19 5 20 6 21 7 22 8 23 9 24 10 25 11
REMARK SMILES IDX 26 12 27 13 28 14 29 15 30 16 14 17 13 18 12 19 11 20 10 21
REMARK SMILES IDX 9 22 8 23 7 24 6 25 5 26 4 27 3 28 2 29 1 30
REMARK H PARENT
REMARK Flexibility Score: inf
ROOT
ATOM      1  C   UNL     1      -2.756  16.057  -5.273  1.00  0.00     0.000 C 
ENDROOT
BRANCH   1   2
ATOM      2  C   UNL     1      -3.321  17.209  -6.122  1.00  0.00     0.000 C 
BRANCH   2   3
ATOM      3  C   UNL     1      -3.383  18.540  -5.355  1.00  0.00     0.000 C 
BRANCH   3   4
ATOM      4  C   UNL     1      -2.281  19.522  -5.788  1.00  0.00     0.000 C 
BRANCH   4   5
ATOM      5  C   UNL     1      -0.932  18.831  -6.068  1.00  0.00     0.000 C 
BRANCH   5   6
ATOM      6  C   UNL     1      -0.165  18.350  -4.821  1.00  0.00     0.000 C 
BRANCH   6   7
ATOM      7  C   UNL     1       1.337  18.148  -5.081  1.00  0.00     0.000 C 
BRANCH   7   8
ATOM      8  C   UNL     1       1.724  16.664  -5.186  1.00  0.00     0.000 C 
BRANCH   8   9
ATOM      9  C   UNL     1       0.676  15.729  -4.562  1.00  0.00     0.000 C 
BRANCH   9  10
ATOM     10  C   UNL     1       0.711  15.820  -3.029  1.00  0.00     0.000 C 
BRANCH  10  11
ATOM     11  C   UNL     1      -0.686  15.991  -2.404  1.00  0.00     0.000 C 
BRANCH  11  12
ATOM     12  C   UNL     1      -0.691  16.302  -0.897  1.00  0.00     0.006 C 
BRANCH  12  13
ATOM     13  C   UNL     1       0.532  15.736  -0.163  1.00  0.00     0.053 C 
BRANCH  13  14
ATOM     14  C   UNL     1       0.943  16.641   0.956  1.00  0.00     0.041 C 
ATOM     15  O   UNL     1       1.922  16.338   1.691  1.00  0.00    -0.550 OA
ATOM     16  O   UNL     1       0.243  17.818   1.193  1.00  0.00    -0.550 OA
ENDBRANCH  13  14
ENDBRANCH  12  13
ENDBRANCH  11  12
ENDBRANCH  10  11
ENDBRANCH   9  10
ENDBRANCH   8   9
ENDBRANCH   7   8
ENDBRANCH   6   7
ENDBRANCH   5   6
ENDBRANCH   4   5
ENDBRANCH   3   4
ENDBRANCH   2   3
ENDBRANCH   1   2
BRANCH   1  17
ATOM     17  C   UNL     1      -2.405  14.824  -6.123  1.00  0.00     0.000 C 
BRANCH  17  18
ATOM     18  C   UNL     1      -3.443  13.696  -5.978  1.00  0.00     0.000 C 
BRANCH  18  19
ATOM     19  C   UNL     1      -2.838  12.406  -5.400  1.00  0.00     0.000 C 
BRANCH  19  20
ATOM     20  C   UNL     1      -1.998  12.653  -4.138  1.00  0.00     0.000 C 
BRANCH  20  21
ATOM     21  C   UNL     1      -0.912  11.581  -3.987  1.00  0.00     0.000 C 
BRANCH  21  22
ATOM     22  C   UNL     1       0.468  12.218  -3.771  1.00  0.00    -0.000 C 
BRANCH  22  23
ATOM     23  C   UNL     1       1.305  11.487  -2.709  1.00  0.00    -0.000 C 
BRANCH  23  24
ATOM     24  C   UNL     1       1.774  10.084  -3.150  1.00  0.00    -0.000 C 
BRANCH  24  25
ATOM     25  C   UNL     1       3.291   9.899  -2.982  1.00  0.00    -0.000 C 
BRANCH  25  26
ATOM     26  C   UNL     1       3.626   9.311  -1.601  1.00  0.00    -0.000 C 
BRANCH  26  27
ATOM     27  C   UNL     1       3.171   7.851  -1.454  1.00  0.00    -0.000 C 
BRANCH  27  28
ATOM     28  C   UNL     1       2.135   7.664  -0.331  1.00  0.00    -0.000 C 
BRANCH  28  29
ATOM     29  C   UNL     1       1.651   9.003   0.250  1.00  0.00    -0.003 C 
ATOM     30  C   UNL     1       0.131   9.148   0.221  1.00  0.00     0.004 C 
ENDBRANCH  28  29
ENDBRANCH  27  28
ENDBRANCH  26  27
ENDBRANCH  25  26
ENDBRANCH  24  25
ENDBRANCH  23  24
ENDBRANCH  22  23
ENDBRANCH  21  22
ENDBRANCH  20  21
ENDBRANCH  19  20
ENDBRANCH  18  19
ENDBRANCH  17  18
ENDBRANCH   1  17
TORSDOF 26
ENDMDL
MODEL 2
REMARK VINA RESULT:    -2.581      6.391     12.001
REMARK INTER + INTRA:          -9.190
REMARK INTER:                  -7.712
REMARK INTRA:                  -1.477
REMARK UNBOUND:                -2.686
REMARK SMILES CCCCCCCCCCCCCCCCCCCCCCCCCCCC(=O)[O-]
REMARK SMILES IDX 15 1 16 2 17 3 18 4 19 5 20 6 21 7 22 8 23 9 24 10 25 11
REMARK SMILES IDX 26 12 27 13 28 14 29 15 30 16 14 17 13 18 12 19 11 20 10 21
REMARK SMILES IDX 9 22 8 23 7 24 6 25 5 26 4 27 3 28 2 29 1 30
REMARK H PARENT
REMARK Flexibility Score: inf
ROOT
ATOM      1  C   UNL     1      -4.536  19.306  -5.455  1.00  0.00     0.000 C 
ENDROOT
BRANCH   1   2
ATOM      2  C   UNL     1      -3.586  18.143  -5.790  1.00  0.00     0.000 C 
BRANCH   2   3
ATOM      3  C   UNL     1      -2.128  18.598  -5.970  1.00  0.00     0.000 C 
BRANCH   3   4
ATOM      4  C   UNL     1      -1.208  18.089  -4.847  1.00  0.00     0.000 C 
BRANCH   4   5
ATOM      5  C   UNL     1      -1.322  16.570  -4.616  1.00  0.00     0.000 C 
BRANCH   5   6
ATOM      6  C   UNL     1      -0.124  15.919  -3.898  1.00  0.00     0.000 C 
BRANCH   6   7
ATOM      7  C   UNL     1      -0.386  14.459  -3.494  1.00  0.00     0.000 C 
BRANCH   7   8
ATOM      8  C   UNL     1      -0.161  13.474  -4.652  1.00  0.00     0.000 C 
BRANCH   8   9
ATOM      9  C   UNL     1      -0.371  12.009  -4.239  1.00  0.00     0.000 C 
BRANCH   9  10
ATOM     10  C   UNL     1       0.326  11.717  -2.902  1.00  0.00     0.000 C 
BRANCH  10  11
ATOM     11  C   UNL     1       1.353  10.573  -2.994  1.00  0.00     0.000 C 
BRANCH  11  12
ATOM     12  C   UNL     1       2.008  10.176  -1.659  1.00  0.00     0.006 C 
BRANCH  12  13
ATOM     13  C   UNL     1       1.021   9.532  -0.675  1.00  0.00     0.053 C 
BRANCH  13  14
ATOM     14  C   UNL     1       1.667   8.396   0.054  1.00  0.00     0.041 C 
ATOM     15  O   UNL     1       2.830   8.021  -0.258  1.00  0.00    -0.550 OA
ATOM     16  O   UNL     1       0.984   7.745   1.075  1.00  0.00    -0.550 OA
ENDBRANCH  13  14
ENDBRANCH  12  13
ENDBRANCH  11  12
ENDBRANCH  10  11
ENDBRANCH   9  10
ENDBRANCH   8   9
ENDBRANCH   7   8
ENDBRANCH   6   7
ENDBRANCH   5   6
ENDBRANCH   4   5
ENDBRANCH   3   4
ENDBRANCH   2   3
ENDBRANCH   1   2
BRANCH   1  17
ATOM     17  C   UNL     1      -5.914  19.142  -6.120  1.00  0.00     0.000 C 
BRANCH  17  18
ATOM     18  C   UNL     1      -6.725  20.450  -6.119  1.00  0.00     0.000 C 
BRANCH  18  19
ATOM     19  C   UNL     1      -8.226  20.216  -5.877  1.00  0.00     0.000 C 
BRANCH  19  20
ATOM     20  C   UNL     1      -8.681  20.653  -4.477  1.00  0.00     0.000 C 
BRANCH  20  21
ATOM     21  C   UNL     1      -9.158  22.111  -4.488  1.00  0.00     0.000 C 
BRANCH  21  22
ATOM     22  C   UNL     1      -9.014  22.750  -3.100  1.00  0.00    -0.000 C 
BRANCH  22  23
ATOM     23  C   UNL     1     -10.367  23.122  -2.470  1.00  0.00    -0.000 C 
BRANCH  23  24
ATOM     24  C   UNL     1     -11.447  23.505  -3.505  1.00  0.00    -0.000 C 
BRANCH  24  25
ATOM     25  C   UNL     1     -12.613  22.505  -3.525  1.00  0.00    -0.000 C 
BRANCH  25  26
ATOM     26  C   UNL     1     -13.024  22.164  -4.966  1.00  0.00    -0.000 C 
BRANCH  26  27
ATOM     27  C   UNL     1     -12.459  20.816  -5.440  1.00  0.00    -0.000 C 
BRANCH  27  28
ATOM     28  C   UNL     1     -13.530  19.917  -6.081  1.00  0.00    -0.000 C 
BRANCH  28  29
ATOM     29  C   UNL     1     -14.959  20.391  -5.768  1.00  0.00    -0.003 C 
ATOM     30  C   UNL     1     -15.989  19.265  -5.848  1.00  0.00     0.004 C 
ENDBRANCH  28  29
ENDBRANCH  27  28
ENDBRANCH  26  27
ENDBRANCH  25  26
ENDBRANCH  24  25
ENDBRANCH  23  24
ENDBRANCH  22  23
ENDBRANCH  21  22
ENDBRANCH  20  21
ENDBRANCH  19  20
ENDBRANCH  18  19
ENDBRANCH  17  18
ENDBRANCH   1  17
TORSDOF 26
ENDMDL
MODEL 3
REMARK VINA RESULT:    -2.318      2.869      6.970
REMARK INTER + INTRA:          -8.526
REMARK INTER:                  -5.674
REMARK INTRA:                  -2.852
REMARK UNBOUND:                -2.686
REMARK SMILES CCCCCCCCCCCCCCCCCCCCCCCCCCCC(=O)[O-]
REMARK SMILES IDX 15 1 16 2 17 3 18 4 19 5 20 6 21 7 22 8 23 9 24 10 25 11
REMARK SMILES IDX 26 12 27 13 28 14 29 15 30 16 14 17 13 18 12 19 11 20 10 21
REMARK SMILES IDX 9 22 8 23 7 24 6 25 5 26 4 27 3 28 2 29 1 30
REMARK H PARENT
REMARK Flexibility Score: inf
ROOT
ATOM      1  C   UNL     1      -2.961  16.150  -6.125  1.00  0.00     0.000 C 
ENDROOT
BRANCH   1   2
ATOM      2  C   UNL     1      -2.629  14.718  -5.670  1.00  0.00     0.000 C 
BRANCH   2   3
ATOM      3  C   UNL     1      -3.576  14.208  -4.571  1.00  0.00     0.000 C 
BRANCH   3   4
ATOM      4  C   UNL     1      -3.208  12.796  -4.084  1.00  0.00     0.000 C 
BRANCH   4   5
ATOM      5  C   UNL     1      -1.888  12.276  -4.685  1.00  0.00     0.000 C 
BRANCH   5   6
ATOM      6  C   UNL     1      -1.374  10.946  -4.100  1.00  0.00     0.000 C 
BRANCH   6   7
ATOM      7  C   UNL     1      -0.168  11.127  -3.163  1.00  0.00     0.000 C 
BRANCH   7   8
ATOM      8  C   UNL     1       1.081  11.639  -3.898  1.00  0.00     0.000 C 
BRANCH   8   9
ATOM      9  C   UNL     1       2.377  10.980  -3.400  1.00  0.00     0.000 C 
BRANCH   9  10
ATOM     10  C   UNL     1       2.070   9.903  -2.349  1.00  0.00     0.000 C 
BRANCH  10  11
ATOM     11  C   UNL     1       3.243   8.933  -2.118  1.00  0.00     0.000 C 
BRANCH  11  12
ATOM     12  C   UNL     1       4.062   9.192  -0.841  1.00  0.00     0.006 C 
BRANCH  12  13
ATOM     13  C   UNL     1       3.278   8.896   0.445  1.00  0.00     0.053 C 
BRANCH  13  14
ATOM     14  C   UNL     1       2.990   7.432   0.563  1.00  0.00     0.041 C 
ATOM     15  O   UNL     1       3.334   6.641  -0.357  1.00  0.00    -0.550 OA
ATOM     16  O   UNL     1       2.337   6.939   1.687  1.00  0.00    -0.550 OA
ENDBRANCH  13  14
ENDBRANCH  12  13
ENDBRANCH  11  12
ENDBRANCH  10  11
ENDBRANCH   9  10
ENDBRANCH   8   9
ENDBRANCH   7   8
ENDBRANCH   6   7
ENDBRANCH   5   6
ENDBRANCH   4   5
ENDBRANCH   3   4
ENDBRANCH   2   3
ENDBRANCH   1   2
BRANCH   1  17
ATOM     17  C   UNL     1      -2.715  17.185  -5.014  1.00  0.00     0.000 C 
BRANCH  17  18
ATOM     18  C   UNL     1      -1.986  18.439  -5.531  1.00  0.00     0.000 C 
BRANCH  18  19
ATOM     19  C   UNL     1      -0.609  18.635  -4.876  1.00  0.00     0.000 C 
BRANCH  19  20
ATOM     20  C   UNL     1       0.555  18.336  -5.832  1.00  0.00     0.000 C 
BRANCH  20  21
ATOM     21  C   UNL     1       1.869  18.169  -5.058  1.00  0.00     0.000 C 
BRANCH  21  22
ATOM     22  C   UNL     1       2.190  16.686  -4.827  1.00  0.00    -0.000 C 
BRANCH  22  23
ATOM     23  C   UNL     1       1.230  15.743  -5.571  1.00  0.00    -0.000 C 
BRANCH  23  24
ATOM     24  C   UNL     1       0.352  14.888  -4.632  1.00  0.00    -0.000 C 
BRANCH  24  25
ATOM     25  C   UNL     1       0.433  15.360  -3.172  1.00  0.00    -0.000 C 
BRANCH  25  26
ATOM     26  C   UNL     1      -0.970  15.525  -2.567  1.00  0.00    -0.000 C 
BRANCH  26  27
ATOM     27  C   UNL     1      -0.945  16.216  -1.195  1.00  0.00    -0.000 C 
BRANCH  27  28
ATOM     28  C   UNL     1       0.319  15.879  -0.385  1.00  0.00    -0.000 C 
BRANCH  28  29
ATOM     29  C   UNL     1       0.584  16.894   0.739  1.00  0.00    -0.003 C 
ATOM     30  C   UNL     1       1.788  16.521   1.603  1.00  0.00     0.004 C 
ENDBRANCH  28  29
ENDBRANCH  27  28
ENDBRANCH  26  27
ENDBRANCH  25  26
ENDBRANCH  24  25
ENDBRANCH  23  24
ENDBRANCH  22  23
ENDBRANCH  21  22
ENDBRANCH  20  21
ENDBRANCH  19  20
ENDBRANCH  18  19
ENDBRANCH  17  18
ENDBRANCH   1  17
TORSDOF 26
ENDMDL
MODEL 4
REMARK VINA RESULT:    -2.246      1.224      2.150
REMARK INTER + INTRA:          -8.345
REMARK INTER:                  -6.465
REMARK INTRA:                  -1.880
REMARK UNBOUND:                -2.686
REMARK SMILES CCCCCCCCCCCCCCCCCCCCCCCCCCCC(=O)[O-]
REMARK SMILES IDX 15 1 16 2 17 3 18 4 19 5 20 6 21 7 22 8 23 9 24 10 25 11
REMARK SMILES IDX 26 12 27 13 28 14 29 15 30 16 14 17 13 18 12 19 11 20 10 21
REMARK SMILES IDX 9 22 8 23 7 24 6 25 5 26 4 27 3 28 2 29 1 30
REMARK H PARENT
REMARK Flexibility Score: inf
ROOT
ATOM      1  C   UNL     1      -2.482  14.152  -6.030  1.00  0.00     0.000 C 
ENDROOT
BRANCH   1   2
ATOM      2  C   UNL     1      -3.332  15.432  -6.125  1.00  0.00     0.000 C 
BRANCH   2   3
ATOM      3  C   UNL     1      -2.705  16.620  -5.378  1.00  0.00     0.000 C 
BRANCH   3   4
ATOM      4  C   UNL     1      -3.205  17.977  -5.904  1.00  0.00     0.000 C 
BRANCH   4   5
ATOM      5  C   UNL     1      -2.081  19.022  -6.041  1.00  0.00     0.000 C 
BRANCH   5   6
ATOM      6  C   UNL     1      -0.649  18.452  -6.075  1.00  0.00     0.000 C 
BRANCH   6   7
ATOM      7  C   UNL     1       0.133  18.712  -4.777  1.00  0.00     0.000 C 
BRANCH   7   8
ATOM      8  C   UNL     1       1.377  17.818  -4.646  1.00  0.00     0.000 C 
BRANCH   8   9
ATOM      9  C   UNL     1       1.604  16.930  -5.879  1.00  0.00     0.000 C 
BRANCH   9  10
ATOM     10  C   UNL     1       1.571  15.444  -5.491  1.00  0.00     0.000 C 
BRANCH  10  11
ATOM     11  C   UNL     1       0.234  15.015  -4.858  1.00  0.00     0.000 C 
BRANCH  11  12
ATOM     12  C   UNL     1       0.266  14.832  -3.330  1.00  0.00     0.006 C 
BRANCH  12  13
ATOM     13  C   UNL     1      -0.789  15.679  -2.603  1.00  0.00     0.053 C 
BRANCH  13  14
ATOM     14  C   UNL     1      -0.392  15.906  -1.177  1.00  0.00     0.041 C 
ATOM     15  O   UNL     1       0.713  15.475  -0.750  1.00  0.00    -0.550 OA
ATOM     16  O   UNL     1      -1.244  16.589  -0.318  1.00  0.00    -0.550 OA
ENDBRANCH  13  14
ENDBRANCH  12  13
ENDBRANCH  11  12
ENDBRANCH  10  11
ENDBRANCH   9  10
ENDBRANCH   8   9
ENDBRANCH   7   8
ENDBRANCH   6   7
ENDBRANCH   5   6
ENDBRANCH   4   5
ENDBRANCH   3   4
ENDBRANCH   2   3
ENDBRANCH   1   2
BRANCH   1  17
ATOM     17  C   UNL     1      -3.348  12.885  -5.922  1.00  0.00     0.000 C 
BRANCH  17  18
ATOM     18  C   UNL     1      -3.360  12.302  -4.498  1.00  0.00     0.000 C 
BRANCH  18  19
ATOM     19  C   UNL     1      -2.407  11.106  -4.339  1.00  0.00     0.000 C 
BRANCH  19  20
ATOM     20  C   UNL     1      -1.261  11.382  -3.354  1.00  0.00     0.000 C 
BRANCH  20  21
ATOM     21  C   UNL     1       0.063  11.585  -4.100  1.00  0.00     0.000 C 
BRANCH  21  22
ATOM     22  C   UNL     1       1.253  11.563  -3.131  1.00  0.00    -0.000 C 
BRANCH  22  23
ATOM     23  C   UNL     1       1.621  10.143  -2.668  1.00  0.00    -0.000 C 
BRANCH  23  24
ATOM     24  C   UNL     1       3.104   9.782  -2.901  1.00  0.00    -0.000 C 
BRANCH  24  25
ATOM     25  C   UNL     1       3.783   9.263  -1.624  1.00  0.00    -0.000 C 
BRANCH  25  26
ATOM     26  C   UNL     1       2.893   9.494  -0.392  1.00  0.00    -0.000 C 
BRANCH  26  27
ATOM     27  C   UNL     1       1.662   8.574  -0.372  1.00  0.00    -0.000 C 
BRANCH  27  28
ATOM     28  C   UNL     1       1.672   7.598   0.818  1.00  0.00    -0.000 C 
BRANCH  28  29
ATOM     29  C   UNL     1       2.875   6.641   0.782  1.00  0.00    -0.003 C 
ATOM     30  C   UNL     1       3.695   6.670   2.071  1.00  0.00     0.004 C 
ENDBRANCH  28  29
ENDBRANCH  27  28
ENDBRANCH  26  27
ENDBRANCH  25  26
ENDBRANCH  24  25
ENDBRANCH  23  24
ENDBRANCH  22  23
ENDBRANCH  21  22
ENDBRANCH  20  21
ENDBRANCH  19  20
ENDBRANCH  18  19
ENDBRANCH  17  18
ENDBRANCH   1  17
TORSDOF 26
ENDMDL
MODEL 5
REMARK VINA RESULT:    -2.109      4.672      8.481
REMARK INTER + INTRA:          -8.002
REMARK INTER:                  -6.171
REMARK INTRA:                  -1.831
REMARK UNBOUND:                -2.686
REMARK SMILES CCCCCCCCCCCCCCCCCCCCCCCCCCCC(=O)[O-]
REMARK SMILES IDX 15 1 16 2 17 3 18 4 19 5 20 6 21 7 22 8 23 9 24 10 25 11
REMARK SMILES IDX 26 12 27 13 28 14 29 15 30 16 14 17 13 18 12 19 11 20 10 21
REMARK SMILES IDX 9 22 8 23 7 24 6 25 5 26 4 27 3 28 2 29 1 30
REMARK H PARENT
REMARK Flexibility Score: inf
ROOT
ATOM      1  C   UNL     1      -0.949  16.054  -2.606  1.00  0.00     0.000 C 
ENDROOT
BRANCH   1   2
ATOM      2  C   UNL     1      -0.265  16.465  -3.922  1.00  0.00     0.000 C 
BRANCH   2   3
ATOM      3  C   UNL     1      -0.592  15.513  -5.084  1.00  0.00     0.000 C 
BRANCH   3   4
ATOM      4  C   UNL     1      -1.790  15.994  -5.921  1.00  0.00     0.000 C 
BRANCH   4   5
ATOM      5  C   UNL     1      -2.929  14.959  -5.992  1.00  0.00     0.000 C 
BRANCH   5   6
ATOM      6  C   UNL     1      -3.255  14.242  -4.668  1.00  0.00     0.000 C 
BRANCH   6   7
ATOM      7  C   UNL     1      -3.321  12.713  -4.812  1.00  0.00     0.000 C 
BRANCH   7   8
ATOM      8  C   UNL     1      -1.940  12.080  -5.045  1.00  0.00     0.000 C 
BRANCH   8   9
ATOM      9  C   UNL     1      -1.248  11.661  -3.739  1.00  0.00     0.000 C 
BRANCH   9  10
ATOM     10  C   UNL     1       0.202  12.169  -3.705  1.00  0.00     0.000 C 
BRANCH  10  11
ATOM     11  C   UNL     1       1.188  11.140  -3.122  1.00  0.00     0.000 C 
BRANCH  11  12
ATOM     12  C   UNL     1       0.809  10.587  -1.737  1.00  0.00     0.006 C 
BRANCH  12  13
ATOM     13  C   UNL     1       1.871   9.642  -1.157  1.00  0.00     0.053 C 
BRANCH  13  14
ATOM     14  C   UNL     1       1.308   8.848  -0.019  1.00  0.00     0.041 C 
ATOM     15  O   UNL     1       0.173   9.131   0.451  1.00  0.00    -0.550 OA
ATOM     16  O   UNL     1       2.038   7.798   0.526  1.00  0.00    -0.550 OA
ENDBRANCH  13  14
ENDBRANCH  12  13
ENDBRANCH  11  12
ENDBRANCH  10  11
ENDBRANCH   9  10
ENDBRANCH   8   9
ENDBRANCH   7   8
ENDBRANCH   6   7
ENDBRANCH   5   6
ENDBRANCH   4   5
ENDBRANCH   3   4
ENDBRANCH   2   3
ENDBRANCH   1   2
BRANCH   1  17
ATOM     17  C   UNL     1       0.058  15.549  -1.558  1.00  0.00     0.000 C 
BRANCH  17  18
ATOM     18  C   UNL     1       0.056  16.407  -0.281  1.00  0.00     0.000 C 
BRANCH  18  19
ATOM     19  C   UNL     1       1.152  15.990   0.715  1.00  0.00     0.000 C 
BRANCH  19  20
ATOM     20  C   UNL     1       1.536  17.116   1.687  1.00  0.00     0.000 C 
BRANCH  20  21
ATOM     21  C   UNL     1       1.944  16.544   3.050  1.00  0.00     0.000 C 
BRANCH  21  22
ATOM     22  C   UNL     1       1.560  17.499   4.188  1.00  0.00    -0.000 C 
BRANCH  22  23
ATOM     23  C   UNL     1       1.059  16.764   5.443  1.00  0.00    -0.000 C 
BRANCH  23  24
ATOM     24  C   UNL     1      -0.412  17.071   5.793  1.00  0.00    -0.000 C 
BRANCH  24  25
ATOM     25  C   UNL     1      -1.079  15.919   6.561  1.00  0.00    -0.000 C 
BRANCH  25  26
ATOM     26  C   UNL     1      -2.600  15.916   6.341  1.00  0.00    -0.000 C 
BRANCH  26  27
ATOM     27  C   UNL     1      -3.379  15.488   7.595  1.00  0.00    -0.000 C 
BRANCH  27  28
ATOM     28  C   UNL     1      -3.995  16.682   8.345  1.00  0.00    -0.000 C 
BRANCH  28  29
ATOM     29  C   UNL     1      -4.859  16.243   9.538  1.00  0.00    -0.003 C 
ATOM     30  C   UNL     1      -5.326  14.791   9.431  1.00  0.00     0.004 C 
ENDBRANCH  28  29
ENDBRANCH  27  28
ENDBRANCH  26  27
ENDBRANCH  25  26
ENDBRANCH  24  25
ENDBRANCH  23  24
ENDBRANCH  22  23
ENDBRANCH  21  22
ENDBRANCH  20  21
ENDBRANCH  19  20
ENDBRANCH  18  19
ENDBRANCH  17  18
ENDBRANCH   1  17
TORSDOF 26
ENDMDL
MODEL 6
REMARK VINA RESULT:    -2.086      4.501      8.409
REMARK INTER + INTRA:          -7.942
REMARK INTER:                  -6.119
REMARK INTRA:                  -1.824
REMARK UNBOUND:                -2.686
REMARK SMILES CCCCCCCCCCCCCCCCCCCCCCCCCCCC(=O)[O-]
REMARK SMILES IDX 15 1 16 2 17 3 18 4 19 5 20 6 21 7 22 8 23 9 24 10 25 11
REMARK SMILES IDX 26 12 27 13 28 14 29 15 30 16 14 17 13 18 12 19 11 20 10 21
REMARK SMILES IDX 9 22 8 23 7 24 6 25 5 26 4 27 3 28 2 29 1 30
REMARK H PARENT
REMARK Flexibility Score: inf
ROOT
ATOM      1  C   UNL     1      -0.361  16.496  -3.164  1.00  0.00     0.000 C 
ENDROOT
BRANCH   1   2
ATOM      2  C   UNL     1      -0.597  15.773  -4.502  1.00  0.00     0.000 C 
BRANCH   2   3
ATOM      3  C   UNL     1      -1.890  16.221  -5.201  1.00  0.00     0.000 C 
BRANCH   3   4
ATOM      4  C   UNL     1      -2.758  15.034  -5.654  1.00  0.00     0.000 C 
BRANCH   4   5
ATOM      5  C   UNL     1      -2.804  13.892  -4.621  1.00  0.00     0.000 C 
BRANCH   5   6
ATOM      6  C   UNL     1      -2.933  12.474  -5.209  1.00  0.00     0.000 C 
BRANCH   6   7
ATOM      7  C   UNL     1      -1.829  11.519  -4.724  1.00  0.00     0.000 C 
BRANCH   7   8
ATOM      8  C   UNL     1      -0.973  12.127  -3.601  1.00  0.00     0.000 C 
BRANCH   8   9
ATOM      9  C   UNL     1       0.518  12.210  -3.967  1.00  0.00     0.000 C 
BRANCH   9  10
ATOM     10  C   UNL     1       1.303  11.067  -3.307  1.00  0.00     0.000 C 
BRANCH  10  11
ATOM     11  C   UNL     1       0.788  10.715  -1.898  1.00  0.00     0.000 C 
BRANCH  11  12
ATOM     12  C   UNL     1       1.744   9.859  -1.050  1.00  0.00     0.006 C 
BRANCH  12  13
ATOM     13  C   UNL     1       1.050   8.660  -0.389  1.00  0.00     0.053 C 
BRANCH  13  14
ATOM     14  C   UNL     1       2.007   7.910   0.485  1.00  0.00     0.041 C 
ATOM     15  O   UNL     1       1.601   6.946   1.188  1.00  0.00    -0.550 OA
ATOM     16  O   UNL     1       3.346   8.280   0.528  1.00  0.00    -0.550 OA
ENDBRANCH  13  14
ENDBRANCH  12  13
ENDBRANCH  11  12
ENDBRANCH  10  11
ENDBRANCH   9  10
ENDBRANCH   8   9
ENDBRANCH   7   8
ENDBRANCH   6   7
ENDBRANCH   5   6
ENDBRANCH   4   5
ENDBRANCH   3   4
ENDBRANCH   2   3
ENDBRANCH   1   2
BRANCH   1  17
ATOM     17  C   UNL     1      -0.258  15.516  -1.982  1.00  0.00     0.000 C 
BRANCH  17  18
ATOM     18  C   UNL     1      -0.493  16.205  -0.626  1.00  0.00     0.000 C 
BRANCH  18  19
ATOM     19  C   UNL     1       0.750  16.171   0.279  1.00  0.00     0.000 C 
BRANCH  19  20
ATOM     20  C   UNL     1       0.734  17.264   1.358  1.00  0.00     0.000 C 
BRANCH  20  21
ATOM     21  C   UNL     1       2.042  17.260   2.158  1.00  0.00     0.000 C 
BRANCH  21  22
ATOM     22  C   UNL     1       1.875  16.512   3.488  1.00  0.00    -0.000 C 
BRANCH  22  23
ATOM     23  C   UNL     1       1.149  17.347   4.557  1.00  0.00    -0.000 C 
BRANCH  23  24
ATOM     24  C   UNL     1       0.558  16.502   5.704  1.00  0.00    -0.000 C 
BRANCH  24  25
ATOM     25  C   UNL     1      -0.932  16.798   5.936  1.00  0.00    -0.000 C 
BRANCH  25  26
ATOM     26  C   UNL     1      -1.525  15.855   6.995  1.00  0.00    -0.000 C 
BRANCH  26  27
ATOM     27  C   UNL     1      -3.062  15.837   6.978  1.00  0.00    -0.000 C 
BRANCH  27  28
ATOM     28  C   UNL     1      -3.676  16.738   8.064  1.00  0.00    -0.000 C 
BRANCH  28  29
ATOM     29  C   UNL     1      -4.646  15.974   8.980  1.00  0.00    -0.003 C 
ATOM     30  C   UNL     1      -5.244  14.737   8.312  1.00  0.00     0.004 C 
ENDBRANCH  28  29
ENDBRANCH  27  28
ENDBRANCH  26  27
ENDBRANCH  25  26
ENDBRANCH  24  25
ENDBRANCH  23  24
ENDBRANCH  22  23
ENDBRANCH  21  22
ENDBRANCH  20  21
ENDBRANCH  19  20
ENDBRANCH  18  19
ENDBRANCH  17  18
ENDBRANCH   1  17
TORSDOF 26
ENDMDL
MODEL 7
REMARK VINA RESULT:    -1.962      1.482      3.276
REMARK INTER + INTRA:          -7.630
REMARK INTER:                  -5.484
REMARK INTRA:                  -2.146
REMARK UNBOUND:                -2.686
REMARK SMILES CCCCCCCCCCCCCCCCCCCCCCCCCCCC(=O)[O-]
REMARK SMILES IDX 15 1 16 2 17 3 18 4 19 5 20 6 21 7 22 8 23 9 24 10 25 11
REMARK SMILES IDX 26 12 27 13 28 14 29 15 30 16 14 17 13 18 12 19 11 20 10 21
REMARK SMILES IDX 9 22 8 23 7 24 6 25 5 26 4 27 3 28 2 29 1 30
REMARK H PARENT
REMARK Flexibility Score: inf
ROOT
ATOM      1  C   UNL     1      -2.123  11.172  -4.523  1.00  0.00     0.000 C 
ENDROOT
BRANCH   1   2
ATOM      2  C   UNL     1      -3.397  11.841  -5.067  1.00  0.00     0.000 C 
BRANCH   2   3
ATOM      3  C   UNL     1      -3.543  13.302  -4.610  1.00  0.00     0.000 C 
BRANCH   3   4
ATOM      4  C   UNL     1      -3.237  14.305  -5.736  1.00  0.00     0.000 C 
BRANCH   4   5
ATOM      5  C   UNL     1      -2.717  15.658  -5.213  1.00  0.00     0.000 C 
BRANCH   5   6
ATOM      6  C   UNL     1      -1.702  16.373  -6.125  1.00  0.00     0.000 C 
BRANCH   6   7
ATOM      7  C   UNL     1      -0.295  15.754  -6.060  1.00  0.00     0.000 C 
BRANCH   7   8
ATOM      8  C   UNL     1       0.674  16.578  -5.197  1.00  0.00     0.000 C 
BRANCH   8   9
ATOM      9  C   UNL     1       0.040  17.061  -3.883  1.00  0.00     0.000 C 
BRANCH   9  10
ATOM     10  C   UNL     1       0.358  16.089  -2.737  1.00  0.00     0.000 C 
BRANCH  10  11
ATOM     11  C   UNL     1      -0.805  15.929  -1.741  1.00  0.00     0.000 C 
BRANCH  11  12
ATOM     12  C   UNL     1      -0.478  16.317  -0.288  1.00  0.00     0.006 C 
BRANCH  12  13
ATOM     13  C   UNL     1       0.894  15.805   0.175  1.00  0.00     0.053 C 
BRANCH  13  14
ATOM     14  C   UNL     1       1.378  16.587   1.356  1.00  0.00     0.041 C 
ATOM     15  O   UNL     1       1.016  17.784   1.516  1.00  0.00    -0.550 OA
ATOM     16  O   UNL     1       2.234  15.996   2.278  1.00  0.00    -0.550 OA
ENDBRANCH  13  14
ENDBRANCH  12  13
ENDBRANCH  11  12
ENDBRANCH  10  11
ENDBRANCH   9  10
ENDBRANCH   8   9
ENDBRANCH   7   8
ENDBRANCH   6   7
ENDBRANCH   5   6
ENDBRANCH   4   5
ENDBRANCH   3   4
ENDBRANCH   2   3
ENDBRANCH   1   2
BRANCH   1  17
ATOM     17  C   UNL     1      -1.001  12.189  -4.252  1.00  0.00     0.000 C 
BRANCH  17  18
ATOM     18  C   UNL     1       0.250  11.533  -3.641  1.00  0.00     0.000 C 
BRANCH  18  19
ATOM     19  C   UNL     1       1.492  12.437  -3.721  1.00  0.00     0.000 C 
BRANCH  19  20
ATOM     20  C   UNL     1       1.764  12.955  -5.141  1.00  0.00     0.000 C 
BRANCH  20  21
ATOM     21  C   UNL     1       3.267  13.151  -5.372  1.00  0.00     0.000 C 
BRANCH  21  22
ATOM     22  C   UNL     1       4.013  11.810  -5.333  1.00  0.00    -0.000 C 
BRANCH  22  23
ATOM     23  C   UNL     1       4.095  11.213  -3.918  1.00  0.00    -0.000 C 
BRANCH  23  24
ATOM     24  C   UNL     1       3.999   9.672  -3.892  1.00  0.00    -0.000 C 
BRANCH  24  25
ATOM     25  C   UNL     1       3.786   9.128  -2.471  1.00  0.00    -0.000 C 
BRANCH  25  26
ATOM     26  C   UNL     1       2.362   9.427  -1.973  1.00  0.00    -0.000 C 
BRANCH  26  27
ATOM     27  C   UNL     1       2.248   9.377  -0.442  1.00  0.00    -0.000 C 
BRANCH  27  28
ATOM     28  C   UNL     1       3.427   8.639   0.216  1.00  0.00    -0.000 C 
BRANCH  28  29
ATOM     29  C   UNL     1       3.065   7.203   0.628  1.00  0.00    -0.003 C 
ATOM     30  C   UNL     1       3.869   6.710   1.830  1.00  0.00     0.004 C 
ENDBRANCH  28  29
ENDBRANCH  27  28
ENDBRANCH  26  27
ENDBRANCH  25  26
ENDBRANCH  24  25
ENDBRANCH  23  24
ENDBRANCH  22  23
ENDBRANCH  21  22
ENDBRANCH  20  21
ENDBRANCH  19  20
ENDBRANCH  18  19
ENDBRANCH  17  18
ENDBRANCH   1  17
TORSDOF 26
ENDMDL
MODEL 8
REMARK VINA RESULT:    -1.832      1.803      6.363
REMARK INTER + INTRA:          -7.303
REMARK INTER:                  -4.977
REMARK INTRA:                  -2.327
REMARK UNBOUND:                -2.686
REMARK SMILES CCCCCCCCCCCCCCCCCCCCCCCCCCCC(=O)[O-]
REMARK SMILES IDX 15 1 16 2 17 3 18 4 19 5 20 6 21 7 22 8 23 9 24 10 25 11
REMARK SMILES IDX 26 12 27 13 28 14 29 15 30 16 14 17 13 18 12 19 11 20 10 21
REMARK SMILES IDX 9 22 8 23 7 24 6 25 5 26 4 27 3 28 2 29 1 30
REMARK H PARENT
REMARK Flexibility Score: inf
ROOT
ATOM      1  C   UNL     1       3.132  10.610  -2.921  1.00  0.00     0.000 C 
ENDROOT
BRANCH   1   2
ATOM      2  C   UNL     1       3.351  10.494  -4.439  1.00  0.00     0.000 C 
BRANCH   2   3
ATOM      3  C   UNL     1       4.125  11.688  -5.022  1.00  0.00     0.000 C 
BRANCH   3   4
ATOM      4  C   UNL     1       3.195  12.761  -5.613  1.00  0.00     0.000 C 
BRANCH   4   5
ATOM      5  C   UNL     1       3.914  14.095  -5.892  1.00  0.00     0.000 C 
BRANCH   5   6
ATOM      6  C   UNL     1       3.001  15.333  -5.981  1.00  0.00     0.000 C 
BRANCH   6   7
ATOM      7  C   UNL     1       3.352  16.415  -4.945  1.00  0.00     0.000 C 
BRANCH   7   8
ATOM      8  C   UNL     1       3.570  17.796  -5.584  1.00  0.00     0.000 C 
BRANCH   8   9
ATOM      9  C   UNL     1       2.252  18.511  -5.921  1.00  0.00     0.000 C 
BRANCH   9  10
ATOM     10  C   UNL     1       1.238  18.346  -4.779  1.00  0.00     0.000 C 
BRANCH  10  11
ATOM     11  C   UNL     1      -0.044  17.610  -5.212  1.00  0.00     0.000 C 
BRANCH  11  12
ATOM     12  C   UNL     1      -0.584  16.590  -4.194  1.00  0.00     0.006 C 
BRANCH  12  13
ATOM     13  C   UNL     1       0.334  16.412  -2.977  1.00  0.00     0.053 C 
BRANCH  13  14
ATOM     14  C   UNL     1      -0.455  15.983  -1.779  1.00  0.00     0.041 C 
ATOM     15  O   UNL     1      -1.651  15.606  -1.908  1.00  0.00    -0.550 OA
ATOM     16  O   UNL     1       0.128  16.006  -0.517  1.00  0.00    -0.550 OA
ENDBRANCH  13  14
ENDBRANCH  12  13
ENDBRANCH  11  12
ENDBRANCH  10  11
ENDBRANCH   9  10
ENDBRANCH   8   9
ENDBRANCH   7   8
ENDBRANCH   6   7
ENDBRANCH   5   6
ENDBRANCH   4   5
ENDBRANCH   3   4
ENDBRANCH   2   3
ENDBRANCH   1   2
BRANCH   1  17
ATOM     17  C   UNL     1       4.084   9.702  -2.123  1.00  0.00     0.000 C 
BRANCH  17  18
ATOM     18  C   UNL     1       4.125   8.266  -2.675  1.00  0.00     0.000 C 
BRANCH  18  19
ATOM     19  C   UNL     1       3.947   7.204  -1.577  1.00  0.00     0.000 C 
BRANCH  19  20
ATOM     20  C   UNL     1       2.565   7.261  -0.909  1.00  0.00     0.000 C 
BRANCH  20  21
ATOM     21  C   UNL     1       2.652   7.928   0.469  1.00  0.00     0.000 C 
BRANCH  21  22
ATOM     22  C   UNL     1       1.790   9.197   0.525  1.00  0.00    -0.000 C 
BRANCH  22  23
ATOM     23  C   UNL     1       0.707   9.233  -0.565  1.00  0.00    -0.000 C 
BRANCH  23  24
ATOM     24  C   UNL     1       0.682  10.552  -1.368  1.00  0.00    -0.000 C 
BRANCH  24  25
ATOM     25  C   UNL     1      -0.223  10.461  -2.606  1.00  0.00    -0.000 C 
BRANCH  25  26
ATOM     26  C   UNL     1      -0.426  11.844  -3.244  1.00  0.00    -0.000 C 
BRANCH  26  27
ATOM     27  C   UNL     1      -1.317  11.794  -4.495  1.00  0.00    -0.000 C 
BRANCH  27  28
ATOM     28  C   UNL     1      -1.635  13.193  -5.052  1.00  0.00    -0.000 C 
BRANCH  28  29
ATOM     29  C   UNL     1      -3.144  13.482  -5.088  1.00  0.00    -0.003 C 
ATOM     30  C   UNL     1      -3.603  14.385  -3.944  1.00  0.00     0.004 C 
ENDBRANCH  28  29
ENDBRANCH  27  28
ENDBRANCH  26  27
ENDBRANCH  25  26
ENDBRANCH  24  25
ENDBRANCH  23  24
ENDBRANCH  22  23
ENDBRANCH  21  22
ENDBRANCH  20  21
ENDBRANCH  19  20
ENDBRANCH  18  19
ENDBRANCH  17  18
ENDBRANCH   1  17
TORSDOF 26
ENDMDL
MODEL 9
REMARK VINA RESULT:    -1.697      6.763     12.545
REMARK INTER + INTRA:          -6.963
REMARK INTER:                  -5.849
REMARK INTRA:                  -1.114
REMARK UNBOUND:                -2.686
REMARK SMILES CCCCCCCCCCCCCCCCCCCCCCCCCCCC(=O)[O-]
REMARK SMILES IDX 15 1 16 2 17 3 18 4 19 5 20 6 21 7 22 8 23 9 24 10 25 11
REMARK SMILES IDX 26 12 27 13 28 14 29 15 30 16 14 17 13 18 12 19 11 20 10 21
REMARK SMILES IDX 9 22 8 23 7 24 6 25 5 26 4 27 3 28 2 29 1 30
REMARK H PARENT
REMARK Flexibility Score: inf
ROOT
ATOM      1  C   UNL     1      -4.748  18.876  -5.431  1.00  0.00     0.000 C 
ENDROOT
BRANCH   1   2
ATOM      2  C   UNL     1      -3.796  17.885  -6.121  1.00  0.00     0.000 C 
BRANCH   2   3
ATOM      3  C   UNL     1      -2.423  17.801  -5.434  1.00  0.00     0.000 C 
BRANCH   3   4
ATOM      4  C   UNL     1      -2.284  16.553  -4.545  1.00  0.00     0.000 C 
BRANCH   4   5
ATOM      5  C   UNL     1      -2.998  15.317  -5.124  1.00  0.00     0.000 C 
BRANCH   5   6
ATOM      6  C   UNL     1      -2.549  13.962  -4.544  1.00  0.00     0.000 C 
BRANCH   6   7
ATOM      7  C   UNL     1      -1.087  13.619  -4.877  1.00  0.00     0.000 C 
BRANCH   7   8
ATOM      8  C   UNL     1      -0.253  13.304  -3.625  1.00  0.00     0.000 C 
BRANCH   8   9
ATOM      9  C   UNL     1       0.900  12.328  -3.907  1.00  0.00     0.000 C 
BRANCH   9  10
ATOM     10  C   UNL     1       0.550  10.917  -3.411  1.00  0.00     0.000 C 
BRANCH  10  11
ATOM     11  C   UNL     1       0.897  10.695  -1.927  1.00  0.00     0.000 C 
BRANCH  11  12
ATOM     12  C   UNL     1       2.097   9.767  -1.670  1.00  0.00     0.006 C 
BRANCH  12  13
ATOM     13  C   UNL     1       1.737   8.544  -0.814  1.00  0.00     0.053 C 
BRANCH  13  14
ATOM     14  C   UNL     1       2.906   8.120   0.020  1.00  0.00     0.041 C 
ATOM     15  O   UNL     1       3.420   8.923   0.846  1.00  0.00    -0.550 OA
ATOM     16  O   UNL     1       3.433   6.842  -0.119  1.00  0.00    -0.550 OA
ENDBRANCH  13  14
ENDBRANCH  12  13
ENDBRANCH  11  12
ENDBRANCH  10  11
ENDBRANCH   9  10
ENDBRANCH   8   9
ENDBRANCH   7   8
ENDBRANCH   6   7
ENDBRANCH   5   6
ENDBRANCH   4   5
ENDBRANCH   3   4
ENDBRANCH   2   3
ENDBRANCH   1   2
BRANCH   1  17
ATOM     17  C   UNL     1      -6.121  18.943  -6.122  1.00  0.00     0.000 C 
BRANCH  17  18
ATOM     18  C   UNL     1      -6.808  20.307  -5.932  1.00  0.00     0.000 C 
BRANCH  18  19
ATOM     19  C   UNL     1      -7.929  20.264  -4.879  1.00  0.00     0.000 C 
BRANCH  19  20
ATOM     20  C   UNL     1      -8.344  21.659  -4.391  1.00  0.00     0.000 C 
BRANCH  20  21
ATOM     21  C   UNL     1      -9.387  22.278  -5.329  1.00  0.00     0.000 C 
BRANCH  21  22
ATOM     22  C   UNL     1      -9.709  23.723  -4.923  1.00  0.00    -0.000 C 
BRANCH  22  23
ATOM     23  C   UNL     1     -10.865  23.817  -3.913  1.00  0.00    -0.000 C 
BRANCH  23  24
ATOM     24  C   UNL     1     -12.261  23.822  -4.570  1.00  0.00    -0.000 C 
BRANCH  24  25
ATOM     25  C   UNL     1     -12.572  22.498  -5.286  1.00  0.00    -0.000 C 
BRANCH  25  26
ATOM     26  C   UNL     1     -13.808  21.818  -4.675  1.00  0.00    -0.000 C 
BRANCH  26  27
ATOM     27  C   UNL     1     -13.708  21.668  -3.149  1.00  0.00    -0.000 C 
BRANCH  27  28
ATOM     28  C   UNL     1     -14.847  22.389  -2.408  1.00  0.00    -0.000 C 
BRANCH  28  29
ATOM     29  C   UNL     1     -14.483  23.836  -2.035  1.00  0.00    -0.003 C 
ATOM     30  C   UNL     1     -13.365  23.917  -0.996  1.00  0.00     0.004 C 
ENDBRANCH  28  29
ENDBRANCH  27  28
ENDBRANCH  26  27
ENDBRANCH  25  26
ENDBRANCH  24  25
ENDBRANCH  23  24
ENDBRANCH  22  23
ENDBRANCH  21  22
ENDBRANCH  20  21
ENDBRANCH  19  20
ENDBRANCH  18  19
ENDBRANCH  17  18
ENDBRANCH   1  17
TORSDOF 26
ENDMDL
