MODEL 1
REMARK VINA RESULT:    -5.133      0.000      0.000
REMARK INTER + INTRA:          -6.174
REMARK INTER:                  -6.033
REMARK INTRA:                  -0.141
REMARK UNBOUND:                -0.141
REMARK SMILES O=C([O-])C=Cc1ccc(O)c(O)c1
REMARK SMILES IDX 6 1 13 2 7 3 11 4 8 5 9 6 5 7 4 8 2 9 1 10 3 11 12 12 10 14
REMARK H PARENT 12 13 10 15
REMARK Flexibility Score: inf
ROOT
ATOM      1  C   UNL     1       9.855  -4.536  19.467  1.00  0.00    -0.022 A 
ATOM      2  C   UNL     1      10.227  -5.872  19.724  1.00  0.00     0.058 A 
ATOM      3  C   UNL     1       8.491  -4.215  19.391  1.00  0.00     0.012 A 
ATOM      4  C   UNL     1       9.249  -6.867  19.875  1.00  0.00     0.157 A 
ATOM      5  C   UNL     1       7.518  -5.206  19.539  1.00  0.00     0.051 A 
ATOM      6  C   UNL     1       7.888  -6.532  19.777  1.00  0.00     0.157 A 
ENDROOT
BRANCH   1   7
ATOM      7  C   UNL     1      10.850  -3.446  19.313  1.00  0.00     0.010 C 
ATOM      8  C   UNL     1      10.823  -2.549  18.319  1.00  0.00     0.025 C 
BRANCH   8   9
ATOM      9  C   UNL     1      11.825  -1.475  18.212  1.00  0.00     0.064 C 
ATOM     10  O   UNL     1      13.042  -1.741  18.391  1.00  0.00    -0.545 OA
ATOM     11  O   UNL     1      11.448  -0.170  17.918  1.00  0.00    -0.545 OA
ENDBRANCH   8   9
ENDBRANCH   1   7
BRANCH   4  12
ATOM     12  O   UNL     1       9.626  -8.185  20.125  1.00  0.00    -0.504 OA
ATOM     13  H   UNL     1      10.458  -8.409  20.658  1.00  0.00     0.293 HD
ENDBRANCH   4  12
BRANCH   6  14
ATOM     14  O   UNL     1       6.894  -7.499  19.918  1.00  0.00    -0.504 OA
ATOM     15  H   UNL     1       6.188  -7.652  19.208  1.00  0.00     0.293 HD
ENDBRANCH   6  14
TORSDOF 4
ENDMDL
MODEL 2
REMARK VINA RESULT:    -4.927      1.231      5.806
REMARK INTER + INTRA:          -5.932
REMARK INTER:                  -5.809
REMARK INTRA:                  -0.123
REMARK UNBOUND:                -0.141
REMARK SMILES O=C([O-])C=Cc1ccc(O)c(O)c1
REMARK SMILES IDX 6 1 13 2 7 3 11 4 8 5 9 6 5 7 4 8 2 9 1 10 3 11 12 12 10 14
REMARK H PARENT 12 13 10 15
REMARK Flexibility Score: inf
ROOT
ATOM      1  C   UNL     1       9.436  -3.269  18.579  1.00  0.00    -0.022 A 
ATOM      2  C   UNL     1      10.803  -3.161  18.250  1.00  0.00     0.058 A 
ATOM      3  C   UNL     1       8.630  -2.122  18.513  1.00  0.00     0.012 A 
ATOM      4  C   UNL     1      11.353  -1.922  17.888  1.00  0.00     0.157 A 
ATOM      5  C   UNL     1       9.179  -0.888  18.154  1.00  0.00     0.051 A 
ATOM      6  C   UNL     1      10.537  -0.780  17.844  1.00  0.00     0.157 A 
ENDROOT
BRANCH   1   7
ATOM      7  C   UNL     1       8.805  -4.558  18.955  1.00  0.00     0.010 C 
ATOM      8  C   UNL     1       9.490  -5.617  19.409  1.00  0.00     0.025 C 
BRANCH   8   9
ATOM      9  C   UNL     1       8.821  -6.873  19.784  1.00  0.00     0.064 C 
ATOM     10  O   UNL     1       9.513  -7.875  20.103  1.00  0.00    -0.545 OA
ATOM     11  O   UNL     1       7.434  -6.974  19.789  1.00  0.00    -0.545 OA
ENDBRANCH   8   9
ENDBRANCH   1   7
BRANCH   4  12
ATOM     12  O   UNL     1      12.706  -1.824  17.568  1.00  0.00    -0.504 OA
ATOM     13  H   UNL     1      13.284  -2.647  17.437  1.00  0.00     0.293 HD
ENDBRANCH   4  12
BRANCH   6  14
ATOM     14  O   UNL     1      11.055   0.466  17.492  1.00  0.00    -0.504 OA
ATOM     15  H   UNL     1      12.040   0.602  17.296  1.00  0.00     0.293 HD
ENDBRANCH   6  14
TORSDOF 4
ENDMDL
MODEL 3
REMARK VINA RESULT:    -4.886      0.964      2.164
REMARK INTER + INTRA:          -5.884
REMARK INTER:                  -5.747
REMARK INTRA:                  -0.137
REMARK UNBOUND:                -0.141
REMARK SMILES O=C([O-])C=Cc1ccc(O)c(O)c1
REMARK SMILES IDX 6 1 13 2 7 3 11 4 8 5 9 6 5 7 4 8 2 9 1 10 3 11 12 12 10 14
REMARK H PARENT 12 13 10 15
REMARK Flexibility Score: inf
ROOT
ATOM      1  C   UNL     1       9.656  -4.332  19.372  1.00  0.00    -0.022 A 
ATOM      2  C   UNL     1       8.470  -5.070  19.183  1.00  0.00     0.058 A 
ATOM      3  C   UNL     1      10.815  -5.007  19.788  1.00  0.00     0.012 A 
ATOM      4  C   UNL     1       8.442  -6.451  19.432  1.00  0.00     0.157 A 
ATOM      5  C   UNL     1      10.787  -6.381  20.037  1.00  0.00     0.051 A 
ATOM      6  C   UNL     1       9.606  -7.107  19.865  1.00  0.00     0.157 A 
ENDROOT
BRANCH   1   7
ATOM      7  C   UNL     1       9.740  -2.874  19.111  1.00  0.00     0.010 C 
ATOM      8  C   UNL     1      10.601  -2.321  18.246  1.00  0.00     0.025 C 
BRANCH   8   9
ATOM      9  C   UNL     1      10.641  -0.869  18.008  1.00  0.00     0.064 C 
ATOM     10  O   UNL     1       9.648  -0.298  17.486  1.00  0.00    -0.545 OA
ATOM     11  O   UNL     1      11.759  -0.116  18.349  1.00  0.00    -0.545 OA
ENDBRANCH   8   9
ENDBRANCH   1   7
BRANCH   4  12
ATOM     12  O   UNL     1       7.264  -7.171  19.246  1.00  0.00    -0.504 OA
ATOM     13  H   UNL     1       6.874  -7.752  19.979  1.00  0.00     0.293 HD
ENDBRANCH   4  12
BRANCH   6  14
ATOM     14  O   UNL     1       9.608  -8.478  20.124  1.00  0.00    -0.504 OA
ATOM     15  H   UNL     1       9.384  -8.852  21.038  1.00  0.00     0.293 HD
ENDBRANCH   6  14
TORSDOF 4
ENDMDL
MODEL 4
REMARK VINA RESULT:    -4.747      1.405      2.253
REMARK INTER + INTRA:          -5.720
REMARK INTER:                  -5.596
REMARK INTRA:                  -0.124
REMARK UNBOUND:                -0.141
REMARK SMILES O=C([O-])C=Cc1ccc(O)c(O)c1
REMARK SMILES IDX 6 1 13 2 7 3 11 4 8 5 9 6 5 7 4 8 2 9 1 10 3 11 12 12 10 14
REMARK H PARENT 12 13 10 15
REMARK Flexibility Score: inf
ROOT
ATOM      1  C   UNL     1      10.759  -4.870  19.865  1.00  0.00    -0.022 A 
ATOM      2  C   UNL     1       9.463  -4.385  19.595  1.00  0.00     0.058 A 
ATOM      3  C   UNL     1      10.932  -6.240  20.116  1.00  0.00     0.012 A 
ATOM      4  C   UNL     1       8.361  -5.255  19.602  1.00  0.00     0.157 A 
ATOM      5  C   UNL     1       9.835  -7.105  20.125  1.00  0.00     0.051 A 
ATOM      6  C   UNL     1       8.549  -6.620  19.873  1.00  0.00     0.157 A 
ENDROOT
BRANCH   1   7
ATOM      7  C   UNL     1      11.956  -3.994  19.857  1.00  0.00     0.010 C 
ATOM      8  C   UNL     1      12.352  -3.284  18.791  1.00  0.00     0.025 C 
BRANCH   8   9
ATOM      9  C   UNL     1      13.540  -2.417  18.831  1.00  0.00     0.064 C 
ATOM     10  O   UNL     1      14.686  -2.926  18.719  1.00  0.00    -0.545 OA
ATOM     11  O   UNL     1      13.419  -1.041  18.993  1.00  0.00    -0.545 OA
ENDBRANCH   8   9
ENDBRANCH   1   7
BRANCH   4  12
ATOM     12  O   UNL     1       7.083  -4.766  19.338  1.00  0.00    -0.504 OA
ATOM     13  H   UNL     1       6.899  -3.772  19.256  1.00  0.00     0.293 HD
ENDBRANCH   4  12
BRANCH   6  14
ATOM     14  O   UNL     1       7.473  -7.507  19.891  1.00  0.00    -0.504 OA
ATOM     15  H   UNL     1       6.591  -7.274  20.332  1.00  0.00     0.293 HD
ENDBRANCH   6  14
TORSDOF 4
ENDMDL
MODEL 5
REMARK VINA RESULT:    -4.665      2.136      5.705
REMARK INTER + INTRA:          -5.624
REMARK INTER:                  -5.469
REMARK INTRA:                  -0.155
REMARK UNBOUND:                -0.141
REMARK SMILES O=C([O-])C=Cc1ccc(O)c(O)c1
REMARK SMILES IDX 6 1 13 2 7 3 11 4 8 5 9 6 5 7 4 8 2 9 1 10 3 11 12 12 10 14
REMARK H PARENT 12 13 10 15
REMARK Flexibility Score: inf
ROOT
ATOM      1  C   UNL     1       9.335  -2.851  18.725  1.00  0.00    -0.022 A 
ATOM      2  C   UNL     1      10.131  -1.761  18.318  1.00  0.00     0.058 A 
ATOM      3  C   UNL     1       7.938  -2.718  18.698  1.00  0.00     0.012 A 
ATOM      4  C   UNL     1       9.537  -0.556  17.916  1.00  0.00     0.157 A 
ATOM      5  C   UNL     1       7.346  -1.517  18.300  1.00  0.00     0.051 A 
ATOM      6  C   UNL     1       8.137  -0.432  17.912  1.00  0.00     0.157 A 
ENDROOT
BRANCH   1   7
ATOM      7  C   UNL     1       9.915  -4.151  19.146  1.00  0.00     0.010 C 
ATOM      8  C   UNL     1       9.187  -5.252  19.373  1.00  0.00     0.025 C 
BRANCH   8   9
ATOM      9  C   UNL     1       9.807  -6.525  19.777  1.00  0.00     0.064 C 
ATOM     10  O   UNL     1      11.016  -6.545  20.125  1.00  0.00    -0.545 OA
ATOM     11  O   UNL     1       9.078  -7.709  19.778  1.00  0.00    -0.545 OA
ENDBRANCH   8   9
ENDBRANCH   1   7
BRANCH   4  12
ATOM     12  O   UNL     1      10.332   0.518  17.519  1.00  0.00    -0.504 OA
ATOM     13  H   UNL     1      10.808   1.107  18.193  1.00  0.00     0.293 HD
ENDBRANCH   4  12
BRANCH   6  14
ATOM     14  O   UNL     1       7.518   0.755  17.522  1.00  0.00    -0.504 OA
ATOM     15  H   UNL     1       7.478   1.565  18.129  1.00  0.00     0.293 HD
ENDBRANCH   6  14
TORSDOF 4
ENDMDL
MODEL 6
REMARK VINA RESULT:    -4.563     11.648     13.896
REMARK INTER + INTRA:          -5.504
REMARK INTER:                  -5.357
REMARK INTRA:                  -0.147
REMARK UNBOUND:                -0.141
REMARK SMILES O=C([O-])C=Cc1ccc(O)c(O)c1
REMARK SMILES IDX 6 1 13 2 7 3 11 4 8 5 9 6 5 7 4 8 2 9 1 10 3 11 12 12 10 14
REMARK H PARENT 12 13 10 15
REMARK Flexibility Score: inf
ROOT
ATOM      1  C   UNL     1       6.623   5.293  10.399  1.00  0.00    -0.022 A 
ATOM      2  C   UNL     1       6.247   4.063   9.820  1.00  0.00     0.058 A 
ATOM      3  C   UNL     1       7.589   5.294  11.418  1.00  0.00     0.012 A 
ATOM      4  C   UNL     1       6.808   2.860  10.274  1.00  0.00     0.157 A 
ATOM      5  C   UNL     1       8.147   4.096  11.871  1.00  0.00     0.051 A 
ATOM      6  C   UNL     1       7.760   2.878  11.307  1.00  0.00     0.157 A 
ENDROOT
BRANCH   1   7
ATOM      7  C   UNL     1       6.068   6.592   9.946  1.00  0.00     0.010 C 
ATOM      8  C   UNL     1       6.738   7.750  10.008  1.00  0.00     0.025 C 
BRANCH   8   9
ATOM      9  C   UNL     1       6.153   9.015   9.535  1.00  0.00     0.064 C 
ATOM     10  O   UNL     1       5.896   9.929  10.361  1.00  0.00    -0.545 OA
ATOM     11  O   UNL     1       5.875   9.216   8.188  1.00  0.00    -0.545 OA
ENDBRANCH   8   9
ENDBRANCH   1   7
BRANCH   4  12
ATOM     12  O   UNL     1       6.427   1.649   9.699  1.00  0.00    -0.504 OA
ATOM     13  H   UNL     1       6.894   0.780   9.929  1.00  0.00     0.293 HD
ENDBRANCH   4  12
BRANCH   6  14
ATOM     14  O   UNL     1       8.333   1.698  11.782  1.00  0.00    -0.504 OA
ATOM     15  H   UNL     1       9.260   1.402  11.504  1.00  0.00     0.293 HD
ENDBRANCH   6  14
TORSDOF 4
ENDMDL
MODEL 7
REMARK VINA RESULT:    -4.391      3.272      4.289
REMARK INTER + INTRA:          -5.302
REMARK INTER:                  -5.178
REMARK INTRA:                  -0.124
REMARK UNBOUND:                -0.141
REMARK SMILES O=C([O-])C=Cc1ccc(O)c(O)c1
REMARK SMILES IDX 6 1 13 2 7 3 11 4 8 5 9 6 5 7 4 8 2 9 1 10 3 11 12 12 10 14
REMARK H PARENT 12 13 10 15
REMARK Flexibility Score: inf
ROOT
ATOM      1  C   UNL     1      10.088  -2.592  18.376  1.00  0.00    -0.022 A 
ATOM      2  C   UNL     1       9.559  -1.370  17.913  1.00  0.00     0.058 A 
ATOM      3  C   UNL     1       9.215  -3.668  18.598  1.00  0.00     0.012 A 
ATOM      4  C   UNL     1       8.180  -1.226  17.702  1.00  0.00     0.157 A 
ATOM      5  C   UNL     1       7.841  -3.523  18.389  1.00  0.00     0.051 A 
ATOM      6  C   UNL     1       7.317  -2.307  17.946  1.00  0.00     0.157 A 
ENDROOT
BRANCH   1   7
ATOM      7  C   UNL     1      11.540  -2.799  18.602  1.00  0.00     0.010 C 
ATOM      8  C   UNL     1      12.434  -1.802  18.654  1.00  0.00     0.025 C 
BRANCH   8   9
ATOM      9  C   UNL     1      13.865  -2.052  18.894  1.00  0.00     0.064 C 
ATOM     10  O   UNL     1      14.602  -1.113  19.292  1.00  0.00    -0.545 OA
ATOM     11  O   UNL     1      14.418  -3.311  18.685  1.00  0.00    -0.545 OA
ENDBRANCH   8   9
ENDBRANCH   1   7
BRANCH   4  12
ATOM     12  O   UNL     1       7.665  -0.012  17.247  1.00  0.00    -0.504 OA
ATOM     13  H   UNL     1       8.242   0.818  17.177  1.00  0.00     0.293 HD
ENDBRANCH   4  12
BRANCH   6  14
ATOM     14  O   UNL     1       5.941  -2.192  17.749  1.00  0.00    -0.504 OA
ATOM     15  H   UNL     1       5.545  -1.527  17.095  1.00  0.00     0.293 HD
ENDBRANCH   6  14
TORSDOF 4
ENDMDL
