MODEL 1
REMARK VINA RESULT:     8.495      0.000      0.000
REMARK INTER + INTRA:           9.829
REMARK INTER:                   9.985
REMARK INTRA:                  -0.156
REMARK UNBOUND:                -0.156
REMARK SMILES O=c1c(O)c(-c2ccc(O)cc2)oc2cc(O)cc(O)c12
REMARK SMILES IDX 5 1 3 2 2 3 1 4 21 5 19 6 18 7 16 8 15 9 14 10 13 11 6 12
REMARK SMILES IDX 7 13 8 14 9 15 12 16 11 17 10 18 4 20 20 22 17 24
REMARK H PARENT 10 19 4 21 20 23 17 25
REMARK Flexibility Score: inf
ROOT
ATOM      1  C   UNL     1     -26.947 138.574  54.859  1.00  0.00     0.180 A 
ATOM      2  C   UNL     1     -27.831 139.540  55.370  1.00  0.00     0.208 A 
ATOM      3  C   UNL     1     -27.380 140.412  56.373  1.00  0.00     0.238 A 
ATOM      4  O   UNL     1     -28.159 141.310  56.789  1.00  0.00    -0.285 OA
ATOM      5  C   UNL     1     -26.058 140.297  56.866  1.00  0.00     0.111 A 
ATOM      6  C   UNL     1     -25.509 141.101  57.909  1.00  0.00     0.134 A 
ATOM      7  C   UNL     1     -24.149 140.988  58.225  1.00  0.00     0.093 A 
ATOM      8  C   UNL     1     -23.335 140.054  57.580  1.00  0.00     0.123 A 
ATOM      9  C   UNL     1     -23.876 139.224  56.602  1.00  0.00     0.094 A 
ATOM     10  C   UNL     1     -25.220 139.337  56.239  1.00  0.00     0.146 A 
ATOM     11  O   UNL     1     -25.693 138.534  55.295  1.00  0.00    -0.452 OA
ENDROOT
BRANCH   1  12
ATOM     12  C   UNL     1     -27.356 137.603  53.818  1.00  0.00     0.021 A 
ATOM     13  C   UNL     1     -26.837 137.666  52.512  1.00  0.00     0.016 A 
ATOM     14  C   UNL     1     -27.258 136.753  51.540  1.00  0.00     0.047 A 
ATOM     15  C   UNL     1     -28.209 135.779  51.854  1.00  0.00     0.115 A 
ATOM     16  C   UNL     1     -28.327 136.633  54.121  1.00  0.00     0.016 A 
ATOM     17  C   UNL     1     -28.745 135.722  53.147  1.00  0.00     0.047 A 
BRANCH  15  18
ATOM     18  O   UNL     1     -28.617 134.875  50.875  1.00  0.00    -0.508 OA
ATOM     19  H   UNL     1     -29.598 134.683  50.708  1.00  0.00     0.293 HD
ENDBRANCH  15  18
ENDBRANCH   1  12
BRANCH   2  20
ATOM     20  O   UNL     1     -29.125 139.651  54.855  1.00  0.00    -0.502 OA
ATOM     21  H   UNL     1     -29.484 140.514  54.466  1.00  0.00     0.293 HD
ENDBRANCH   2  20
BRANCH   6  22
ATOM     22  O   UNL     1     -26.256 141.998  58.678  1.00  0.00    -0.507 OA
ATOM     23  H   UNL     1     -26.199 143.003  58.607  1.00  0.00     0.293 HD
ENDBRANCH   6  22
BRANCH   8  24
ATOM     24  O   UNL     1     -21.987 139.937  57.911  1.00  0.00    -0.508 OA
ATOM     25  H   UNL     1     -21.503 140.662  58.430  1.00  0.00     0.293 HD
ENDBRANCH   8  24
TORSDOF 5
ENDMDL
MODEL 2
REMARK VINA RESULT:     9.877      3.413      4.981
REMARK INTER + INTRA:          11.453
REMARK INTER:                  11.421
REMARK INTRA:                   0.032
REMARK UNBOUND:                -0.156
REMARK SMILES O=c1c(O)c(-c2ccc(O)cc2)oc2cc(O)cc(O)c12
REMARK SMILES IDX 5 1 3 2 2 3 1 4 21 5 19 6 18 7 16 8 15 9 14 10 13 11 6 12
REMARK SMILES IDX 7 13 8 14 9 15 12 16 11 17 10 18 4 20 20 22 17 24
REMARK H PARENT 10 19 4 21 20 23 17 25
REMARK Flexibility Score: inf
ROOT
ATOM      1  C   UNL     1     -27.339 141.481  54.224  1.00  0.00     0.180 A 
ATOM      2  C   UNL     1     -27.975 140.229  54.260  1.00  0.00     0.208 A 
ATOM      3  C   UNL     1     -27.461 139.227  55.099  1.00  0.00     0.238 A 
ATOM      4  O   UNL     1     -28.065 138.125  55.167  1.00  0.00    -0.285 OA
ATOM      5  C   UNL     1     -26.308 139.485  55.879  1.00  0.00     0.111 A 
ATOM      6  C   UNL     1     -25.678 138.532  56.734  1.00  0.00     0.134 A 
ATOM      7  C   UNL     1     -24.620 138.936  57.558  1.00  0.00     0.093 A 
ATOM      8  C   UNL     1     -24.129 140.242  57.511  1.00  0.00     0.123 A 
ATOM      9  C   UNL     1     -24.699 141.164  56.637  1.00  0.00     0.094 A 
ATOM     10  C   UNL     1     -25.778 140.801  55.828  1.00  0.00     0.146 A 
ATOM     11  O   UNL     1     -26.299 141.713  55.017  1.00  0.00    -0.452 OA
ENDROOT
BRANCH   1  12
ATOM     12  C   UNL     1     -27.808 142.578  53.346  1.00  0.00     0.021 A 
ATOM     13  C   UNL     1     -28.085 142.359  51.984  1.00  0.00     0.016 A 
ATOM     14  C   UNL     1     -28.503 143.416  51.170  1.00  0.00     0.047 A 
ATOM     15  C   UNL     1     -28.635 144.703  51.699  1.00  0.00     0.115 A 
ATOM     16  C   UNL     1     -27.924 143.878  53.866  1.00  0.00     0.016 A 
ATOM     17  C   UNL     1     -28.342 144.933  53.049  1.00  0.00     0.047 A 
BRANCH  15  18
ATOM     18  O   UNL     1     -29.054 145.746  50.876  1.00  0.00    -0.508 OA
ATOM     19  H   UNL     1     -29.984 145.761  50.472  1.00  0.00     0.293 HD
ENDBRANCH  15  18
ENDBRANCH   1  12
BRANCH   2  20
ATOM     20  O   UNL     1     -29.124 140.001  53.498  1.00  0.00    -0.502 OA
ATOM     21  H   UNL     1     -29.139 139.366  52.710  1.00  0.00     0.293 HD
ENDBRANCH   2  20
BRANCH   6  22
ATOM     22  O   UNL     1     -26.030 137.180  56.789  1.00  0.00    -0.507 OA
ATOM     23  H   UNL     1     -25.390 136.413  56.651  1.00  0.00     0.293 HD
ENDBRANCH   6  22
BRANCH   8  24
ATOM     24  O   UNL     1     -23.067 140.633  58.323  1.00  0.00    -0.508 OA
ATOM     25  H   UNL     1     -22.345 141.261  57.987  1.00  0.00     0.293 HD
ENDBRANCH   8  24
TORSDOF 5
ENDMDL
MODEL 3
REMARK VINA RESULT:    10.224      2.713      6.841
REMARK INTER + INTRA:          11.861
REMARK INTER:                  11.698
REMARK INTRA:                   0.163
REMARK UNBOUND:                -0.156
REMARK SMILES O=c1c(O)c(-c2ccc(O)cc2)oc2cc(O)cc(O)c12
REMARK SMILES IDX 5 1 3 2 2 3 1 4 21 5 19 6 18 7 16 8 15 9 14 10 13 11 6 12
REMARK SMILES IDX 7 13 8 14 9 15 12 16 11 17 10 18 4 20 20 22 17 24
REMARK H PARENT 10 19 4 21 20 23 17 25
REMARK Flexibility Score: inf
ROOT
ATOM      1  C   UNL     1     -24.608 140.181  56.467  1.00  0.00     0.180 A 
ATOM      2  C   UNL     1     -25.111 138.871  56.542  1.00  0.00     0.208 A 
ATOM      3  C   UNL     1     -26.349 138.582  55.947  1.00  0.00     0.238 A 
ATOM      4  O   UNL     1     -26.771 137.396  55.970  1.00  0.00    -0.285 OA
ATOM      5  C   UNL     1     -27.077 139.610  55.300  1.00  0.00     0.111 A 
ATOM      6  C   UNL     1     -28.360 139.440  54.698  1.00  0.00     0.134 A 
ATOM      7  C   UNL     1     -28.927 140.494  53.972  1.00  0.00     0.093 A 
ATOM      8  C   UNL     1     -28.288 141.733  53.881  1.00  0.00     0.123 A 
ATOM      9  C   UNL     1     -27.063 141.927  54.515  1.00  0.00     0.094 A 
ATOM     10  C   UNL     1     -26.455 140.884  55.217  1.00  0.00     0.146 A 
ATOM     11  O   UNL     1     -25.282 141.107  55.797  1.00  0.00    -0.452 OA
ENDROOT
BRANCH   1  12
ATOM     12  C   UNL     1     -23.322 140.567  57.091  1.00  0.00     0.021 A 
ATOM     13  C   UNL     1     -22.384 141.364  56.408  1.00  0.00     0.016 A 
ATOM     14  C   UNL     1     -21.167 141.695  57.009  1.00  0.00     0.047 A 
ATOM     15  C   UNL     1     -20.863 141.226  58.290  1.00  0.00     0.115 A 
ATOM     16  C   UNL     1     -23.001 140.083  58.371  1.00  0.00     0.016 A 
ATOM     17  C   UNL     1     -21.782 140.416  58.969  1.00  0.00     0.047 A 
BRANCH  15  18
ATOM     18  O   UNL     1     -19.646 141.566  58.877  1.00  0.00    -0.508 OA
ATOM     19  H   UNL     1     -18.956 142.120  58.383  1.00  0.00     0.293 HD
ENDBRANCH  15  18
ENDBRANCH   1  12
BRANCH   2  20
ATOM     20  O   UNL     1     -24.368 137.866  57.166  1.00  0.00    -0.502 OA
ATOM     21  H   UNL     1     -23.553 138.064  57.734  1.00  0.00     0.293 HD
ENDBRANCH   2  20
BRANCH   6  22
ATOM     22  O   UNL     1     -29.124 138.275  54.807  1.00  0.00    -0.507 OA
ATOM     23  H   UNL     1     -30.052 138.158  54.428  1.00  0.00     0.293 HD
ENDBRANCH   6  22
BRANCH   8  24
ATOM     24  O   UNL     1     -28.866 142.781  53.169  1.00  0.00    -0.508 OA
ATOM     25  H   UNL     1     -28.386 143.666  53.044  1.00  0.00     0.293 HD
ENDBRANCH   8  24
TORSDOF 5
ENDMDL
