MODEL 1
REMARK VINA RESULT:    -5.664      0.000      0.000
REMARK INTER + INTRA:          -7.048
REMARK INTER:                  -6.823
REMARK INTRA:                  -0.225
REMARK UNBOUND:                -0.225
REMARK SMILES O=c1c(O)c(-c2ccc(O)c(O)c2)oc2cc(O)cc(O)c12
REMARK SMILES IDX 5 1 3 2 2 3 1 4 22 5 20 6 19 7 17 8 16 9 15 10 14 11 6 12
REMARK SMILES IDX 7 13 8 14 9 15 13 16 11 17 10 18 12 20 4 22 21 24 18 26
REMARK H PARENT 10 19 12 21 4 23 21 25 18 27
REMARK Flexibility Score: inf
ROOT
ATOM      1  C   UNL     1     150.303 149.191 157.044  1.00  0.00     0.180 A 
ATOM      2  C   UNL     1     149.018 148.654 156.848  1.00  0.00     0.208 A 
ATOM      3  C   UNL     1     147.934 149.530 156.674  1.00  0.00     0.238 A 
ATOM      4  O   UNL     1     146.779 149.045 156.554  1.00  0.00    -0.285 OA
ATOM      5  C   UNL     1     148.150 150.929 156.681  1.00  0.00     0.111 A 
ATOM      6  C   UNL     1     147.132 151.908 156.473  1.00  0.00     0.134 A 
ATOM      7  C   UNL     1     147.437 153.265 156.631  1.00  0.00     0.093 A 
ATOM      8  C   UNL     1     148.735 153.683 156.925  1.00  0.00     0.123 A 
ATOM      9  C   UNL     1     149.750 152.739 157.071  1.00  0.00     0.094 A 
ATOM     10  C   UNL     1     149.470 151.374 156.955  1.00  0.00     0.146 A 
ATOM     11  O   UNL     1     150.463 150.507 157.111  1.00  0.00    -0.452 OA
ENDROOT
BRANCH   1  12
ATOM     12  C   UNL     1     151.498 148.332 157.210  1.00  0.00     0.025 A 
ATOM     13  C   UNL     1     151.699 147.577 158.379  1.00  0.00     0.016 A 
ATOM     14  C   UNL     1     152.822 146.754 158.504  1.00  0.00     0.051 A 
ATOM     15  C   UNL     1     153.751 146.662 157.463  1.00  0.00     0.157 A 
ATOM     16  C   UNL     1     152.421 148.221 156.159  1.00  0.00     0.062 A 
ATOM     17  C   UNL     1     153.550 147.395 156.283  1.00  0.00     0.158 A 
BRANCH  15  18
ATOM     18  O   UNL     1     154.862 145.834 157.618  1.00  0.00    -0.504 OA
ATOM     19  H   UNL     1     155.486 145.622 156.849  1.00  0.00     0.293 HD
ENDBRANCH  15  18
BRANCH  17  20
ATOM     20  O   UNL     1     154.468 147.303 155.237  1.00  0.00    -0.504 OA
ATOM     21  H   UNL     1     154.194 146.975 154.318  1.00  0.00     0.293 HD
ENDBRANCH  17  20
ENDBRANCH   1  12
BRANCH   2  22
ATOM     22  O   UNL     1     148.824 147.271 156.867  1.00  0.00    -0.502 OA
ATOM     23  H   UNL     1     148.178 146.820 157.504  1.00  0.00     0.293 HD
ENDBRANCH   2  22
BRANCH   6  24
ATOM     24  O   UNL     1     145.824 151.602 156.087  1.00  0.00    -0.507 OA
ATOM     25  H   UNL     1     145.283 152.132 155.421  1.00  0.00     0.293 HD
ENDBRANCH   6  24
BRANCH   8  26
ATOM     26  O   UNL     1     149.005 155.044 157.059  1.00  0.00    -0.508 OA
ATOM     27  H   UNL     1     148.988 155.669 156.262  1.00  0.00     0.293 HD
ENDBRANCH   8  26
TORSDOF 6
ENDMDL
MODEL 2
REMARK VINA RESULT:    -5.629      4.072      6.637
REMARK INTER + INTRA:          -7.005
REMARK INTER:                  -6.788
REMARK INTRA:                  -0.217
REMARK UNBOUND:                -0.225
REMARK SMILES O=c1c(O)c(-c2ccc(O)c(O)c2)oc2cc(O)cc(O)c12
REMARK SMILES IDX 5 1 3 2 2 3 1 4 22 5 20 6 19 7 17 8 16 9 15 10 14 11 6 12
REMARK SMILES IDX 7 13 8 14 9 15 13 16 11 17 10 18 12 20 4 22 21 24 18 26
REMARK H PARENT 10 19 12 21 4 23 21 25 18 27
REMARK Flexibility Score: inf
ROOT
ATOM      1  C   UNL     1     149.279 145.233 157.005  1.00  0.00     0.180 A 
ATOM      2  C   UNL     1     148.716 146.512 156.847  1.00  0.00     0.208 A 
ATOM      3  C   UNL     1     149.570 147.616 156.690  1.00  0.00     0.238 A 
ATOM      4  O   UNL     1     149.062 148.764 156.604  1.00  0.00    -0.285 OA
ATOM      5  C   UNL     1     150.973 147.426 156.675  1.00  0.00     0.111 A 
ATOM      6  C   UNL     1     151.930 148.467 156.482  1.00  0.00     0.134 A 
ATOM      7  C   UNL     1     153.294 148.184 156.617  1.00  0.00     0.093 A 
ATOM      8  C   UNL     1     153.740 146.888 156.874  1.00  0.00     0.123 A 
ATOM      9  C   UNL     1     152.816 145.851 157.005  1.00  0.00     0.094 A 
ATOM     10  C   UNL     1     151.445 146.109 156.912  1.00  0.00     0.146 A 
ATOM     11  O   UNL     1     150.599 145.096 157.053  1.00  0.00    -0.452 OA
ENDROOT
BRANCH   1  12
ATOM     12  C   UNL     1     148.444 144.019 157.151  1.00  0.00     0.025 A 
ATOM     13  C   UNL     1     147.697 143.781 158.318  1.00  0.00     0.016 A 
ATOM     14  C   UNL     1     146.897 142.640 158.424  1.00  0.00     0.051 A 
ATOM     15  C   UNL     1     146.819 141.729 157.366  1.00  0.00     0.157 A 
ATOM     16  C   UNL     1     148.348 143.113 156.083  1.00  0.00     0.062 A 
ATOM     17  C   UNL     1     147.545 141.966 156.188  1.00  0.00     0.158 A 
BRANCH  15  18
ATOM     18  O   UNL     1     146.014 140.599 157.503  1.00  0.00    -0.504 OA
ATOM     19  H   UNL     1     145.082 140.648 157.895  1.00  0.00     0.293 HD
ENDBRANCH  15  18
BRANCH  17  20
ATOM     20  O   UNL     1     147.467 141.066 155.126  1.00  0.00    -0.504 OA
ATOM     21  H   UNL     1     146.575 140.755 154.758  1.00  0.00     0.293 HD
ENDBRANCH  17  20
ENDBRANCH   1  12
BRANCH   2  22
ATOM     22  O   UNL     1     147.330 146.680 156.886  1.00  0.00    -0.502 OA
ATOM     23  H   UNL     1     146.863 147.456 156.432  1.00  0.00     0.293 HD
ENDBRANCH   2  22
BRANCH   6  24
ATOM     24  O   UNL     1     151.596 149.778 156.132  1.00  0.00    -0.507 OA
ATOM     25  H   UNL     1     150.894 150.031 155.454  1.00  0.00     0.293 HD
ENDBRANCH   6  24
BRANCH   8  26
ATOM     26  O   UNL     1     155.107 146.640 156.987  1.00  0.00    -0.508 OA
ATOM     27  H   UNL     1     155.791 147.374 156.851  1.00  0.00     0.293 HD
ENDBRANCH   8  26
TORSDOF 6
ENDMDL
MODEL 3
REMARK VINA RESULT:    -5.629      5.158      9.486
REMARK INTER + INTRA:          -7.005
REMARK INTER:                  -6.793
REMARK INTRA:                  -0.213
REMARK UNBOUND:                -0.225
REMARK SMILES O=c1c(O)c(-c2ccc(O)c(O)c2)oc2cc(O)cc(O)c12
REMARK SMILES IDX 5 1 3 2 2 3 1 4 22 5 20 6 19 7 17 8 16 9 15 10 14 11 6 12
REMARK SMILES IDX 7 13 8 14 9 15 13 16 11 17 10 18 12 20 4 22 21 24 18 26
REMARK H PARENT 10 19 12 21 4 23 21 25 18 27
REMARK Flexibility Score: inf
ROOT
ATOM      1  C   UNL     1     145.198 146.307 157.010  1.00  0.00     0.180 A 
ATOM      2  C   UNL     1     146.479 146.866 156.857  1.00  0.00     0.208 A 
ATOM      3  C   UNL     1     147.581 146.009 156.703  1.00  0.00     0.238 A 
ATOM      4  O   UNL     1     148.732 146.513 156.622  1.00  0.00    -0.285 OA
ATOM      5  C   UNL     1     147.387 144.607 156.687  1.00  0.00     0.111 A 
ATOM      6  C   UNL     1     148.425 143.646 156.497  1.00  0.00     0.134 A 
ATOM      7  C   UNL     1     148.137 142.283 156.630  1.00  0.00     0.093 A 
ATOM      8  C   UNL     1     146.838 141.841 156.881  1.00  0.00     0.123 A 
ATOM      9  C   UNL     1     145.804 142.769 157.010  1.00  0.00     0.094 A 
ATOM     10  C   UNL     1     146.067 144.138 156.918  1.00  0.00     0.146 A 
ATOM     11  O   UNL     1     145.057 144.988 157.056  1.00  0.00    -0.452 OA
ENDROOT
BRANCH   1  12
ATOM     12  C   UNL     1     143.986 147.146 157.153  1.00  0.00     0.025 A 
ATOM     13  C   UNL     1     143.751 147.901 158.316  1.00  0.00     0.016 A 
ATOM     14  C   UNL     1     142.612 148.704 158.418  1.00  0.00     0.051 A 
ATOM     15  C   UNL     1     141.701 148.778 157.360  1.00  0.00     0.157 A 
ATOM     16  C   UNL     1     143.080 147.239 156.084  1.00  0.00     0.062 A 
ATOM     17  C   UNL     1     141.935 148.045 156.186  1.00  0.00     0.158 A 
BRANCH  15  18
ATOM     18  O   UNL     1     140.573 149.587 157.493  1.00  0.00    -0.504 OA
ATOM     19  H   UNL     1     140.495 150.286 158.222  1.00  0.00     0.293 HD
ENDBRANCH  15  18
BRANCH  17  20
ATOM     20  O   UNL     1     141.035 148.120 155.124  1.00  0.00    -0.504 OA
ATOM     21  H   UNL     1     141.342 148.050 154.161  1.00  0.00     0.293 HD
ENDBRANCH  17  20
ENDBRANCH   1  12
BRANCH   2  22
ATOM     22  O   UNL     1     146.652 148.251 156.898  1.00  0.00    -0.502 OA
ATOM     23  H   UNL     1     145.931 148.899 156.602  1.00  0.00     0.293 HD
ENDBRANCH   2  22
BRANCH   6  24
ATOM     24  O   UNL     1     149.739 143.976 156.152  1.00  0.00    -0.507 OA
ATOM     25  H   UNL     1     150.562 143.555 156.555  1.00  0.00     0.293 HD
ENDBRANCH   6  24
BRANCH   8  26
ATOM     26  O   UNL     1     146.586 140.475 156.992  1.00  0.00    -0.508 OA
ATOM     27  H   UNL     1     145.756 140.126 157.457  1.00  0.00     0.293 HD
ENDBRANCH   8  26
TORSDOF 6
ENDMDL
MODEL 4
REMARK VINA RESULT:    -5.605      4.128      6.774
REMARK INTER + INTRA:          -6.976
REMARK INTER:                  -6.760
REMARK INTRA:                  -0.216
REMARK UNBOUND:                -0.225
REMARK SMILES O=c1c(O)c(-c2ccc(O)c(O)c2)oc2cc(O)cc(O)c12
REMARK SMILES IDX 5 1 3 2 2 3 1 4 22 5 20 6 19 7 17 8 16 9 15 10 14 11 6 12
REMARK SMILES IDX 7 13 8 14 9 15 13 16 11 17 10 18 12 20 4 22 21 24 18 26
REMARK H PARENT 10 19 12 21 4 23 21 25 18 27
REMARK Flexibility Score: inf
ROOT
ATOM      1  C   UNL     1     146.230 150.209 157.037  1.00  0.00     0.180 A 
ATOM      2  C   UNL     1     146.779 148.926 156.867  1.00  0.00     0.208 A 
ATOM      3  C   UNL     1     145.915 147.833 156.697  1.00  0.00     0.238 A 
ATOM      4  O   UNL     1     146.411 146.680 156.599  1.00  0.00    -0.285 OA
ATOM      5  C   UNL     1     144.514 148.037 156.681  1.00  0.00     0.111 A 
ATOM      6  C   UNL     1     143.547 147.008 156.475  1.00  0.00     0.134 A 
ATOM      7  C   UNL     1     142.185 147.304 156.610  1.00  0.00     0.093 A 
ATOM      8  C   UNL     1     141.752 148.602 156.879  1.00  0.00     0.123 A 
ATOM      9  C   UNL     1     142.687 149.628 157.024  1.00  0.00     0.094 A 
ATOM     10  C   UNL     1     144.055 149.357 156.930  1.00  0.00     0.146 A 
ATOM     11  O   UNL     1     144.911 150.359 157.084  1.00  0.00    -0.452 OA
ENDROOT
BRANCH   1  12
ATOM     12  C   UNL     1     147.076 151.413 157.198  1.00  0.00     0.025 A 
ATOM     13  C   UNL     1     147.828 151.628 158.367  1.00  0.00     0.016 A 
ATOM     14  C   UNL     1     148.639 152.760 158.487  1.00  0.00     0.051 A 
ATOM     15  C   UNL     1     148.724 153.684 157.441  1.00  0.00     0.157 A 
ATOM     16  C   UNL     1     147.181 152.332 156.142  1.00  0.00     0.062 A 
ATOM     17  C   UNL     1     147.995 153.469 156.260  1.00  0.00     0.158 A 
BRANCH  15  18
ATOM     18  O   UNL     1     149.541 154.804 157.591  1.00  0.00    -0.504 OA
ATOM     19  H   UNL     1     150.081 154.966 158.432  1.00  0.00     0.293 HD
ENDBRANCH  15  18
BRANCH  17  20
ATOM     20  O   UNL     1     148.080 154.382 155.210  1.00  0.00    -0.504 OA
ATOM     21  H   UNL     1     147.781 154.142 154.272  1.00  0.00     0.293 HD
ENDBRANCH  17  20
ENDBRANCH   1  12
BRANCH   2  22
ATOM     22  O   UNL     1     148.163 148.744 156.907  1.00  0.00    -0.502 OA
ATOM     23  H   UNL     1     148.818 149.481 156.674  1.00  0.00     0.293 HD
ENDBRANCH   2  22
BRANCH   6  24
ATOM     24  O   UNL     1     143.868 145.698 156.112  1.00  0.00    -0.507 OA
ATOM     25  H   UNL     1     144.228 145.423 155.210  1.00  0.00     0.293 HD
ENDBRANCH   6  24
BRANCH   8  26
ATOM     26  O   UNL     1     140.388 148.863 156.992  1.00  0.00    -0.508 OA
ATOM     27  H   UNL     1     140.030 149.534 157.662  1.00  0.00     0.293 HD
ENDBRANCH   8  26
TORSDOF 6
ENDMDL
MODEL 5
REMARK VINA RESULT:    -5.584      4.521      7.558
REMARK INTER + INTRA:          -6.951
REMARK INTER:                  -6.664
REMARK INTRA:                  -0.287
REMARK UNBOUND:                -0.225
REMARK SMILES O=c1c(O)c(-c2ccc(O)c(O)c2)oc2cc(O)cc(O)c12
REMARK SMILES IDX 5 1 3 2 2 3 1 4 22 5 20 6 19 7 17 8 16 9 15 10 14 11 6 12
REMARK SMILES IDX 7 13 8 14 9 15 13 16 11 17 10 18 12 20 4 22 21 24 18 26
REMARK H PARENT 10 19 12 21 4 23 21 25 18 27
REMARK Flexibility Score: inf
ROOT
ATOM      1  C   UNL     1     150.148 143.904 157.569  1.00  0.00     0.180 A 
ATOM      2  C   UNL     1     151.381 143.331 157.927  1.00  0.00     0.208 A 
ATOM      3  C   UNL     1     152.547 144.106 157.821  1.00  0.00     0.238 A 
ATOM      4  O   UNL     1     153.655 143.572 158.090  1.00  0.00    -0.285 OA
ATOM      5  C   UNL     1     152.464 145.448 157.377  1.00  0.00     0.111 A 
ATOM      6  C   UNL     1     153.575 146.337 157.270  1.00  0.00     0.134 A 
ATOM      7  C   UNL     1     153.395 147.601 156.695  1.00  0.00     0.093 A 
ATOM      8  C   UNL     1     152.134 148.032 156.282  1.00  0.00     0.123 A 
ATOM      9  C   UNL     1     151.030 147.194 156.436  1.00  0.00     0.094 A 
ATOM     10  C   UNL     1     151.185 145.913 156.973  1.00  0.00     0.146 A 
ATOM     11  O   UNL     1     150.111 145.142 157.094  1.00  0.00    -0.452 OA
ENDROOT
BRANCH   1  12
ATOM     12  C   UNL     1     148.873 143.157 157.676  1.00  0.00     0.025 A 
ATOM     13  C   UNL     1     147.979 143.385 158.737  1.00  0.00     0.016 A 
ATOM     14  C   UNL     1     146.770 142.686 158.804  1.00  0.00     0.051 A 
ATOM     15  C   UNL     1     146.430 141.763 157.810  1.00  0.00     0.157 A 
ATOM     16  C   UNL     1     148.519 142.245 156.669  1.00  0.00     0.062 A 
ATOM     17  C   UNL     1     147.306 141.543 156.735  1.00  0.00     0.158 A 
BRANCH  15  18
ATOM     18  O   UNL     1     145.218 141.080 157.906  1.00  0.00    -0.504 OA
ATOM     19  H   UNL     1     144.421 141.316 157.327  1.00  0.00     0.293 HD
ENDBRANCH  15  18
BRANCH  17  20
ATOM     20  O   UNL     1     146.971 140.629 155.736  1.00  0.00    -0.504 OA
ATOM     21  H   UNL     1     146.253 139.928 155.877  1.00  0.00     0.293 HD
ENDBRANCH  17  20
ENDBRANCH   1  12
BRANCH   2  22
ATOM     22  O   UNL     1     151.444 141.999 158.342  1.00  0.00    -0.502 OA
ATOM     23  H   UNL     1     151.291 141.223 157.709  1.00  0.00     0.293 HD
ENDBRANCH   2  22
BRANCH   6  24
ATOM     24  O   UNL     1     154.859 146.041 157.736  1.00  0.00    -0.507 OA
ATOM     25  H   UNL     1     155.662 146.642 157.630  1.00  0.00     0.293 HD
ENDBRANCH   6  24
BRANCH   8  26
ATOM     26  O   UNL     1     151.990 149.303 155.727  1.00  0.00    -0.508 OA
ATOM     27  H   UNL     1     152.447 150.112 156.131  1.00  0.00     0.293 HD
ENDBRANCH   8  26
TORSDOF 6
ENDMDL
MODEL 6
REMARK VINA RESULT:    -5.576      6.413      9.991
REMARK INTER + INTRA:          -6.941
REMARK INTER:                  -6.654
REMARK INTRA:                  -0.287
REMARK UNBOUND:                -0.225
REMARK SMILES O=c1c(O)c(-c2ccc(O)c(O)c2)oc2cc(O)cc(O)c12
REMARK SMILES IDX 5 1 3 2 2 3 1 4 22 5 20 6 19 7 17 8 16 9 15 10 14 11 6 12
REMARK SMILES IDX 7 13 8 14 9 15 13 16 11 17 10 18 12 20 4 22 21 24 18 26
REMARK H PARENT 10 19 12 21 4 23 21 25 18 27
REMARK Flexibility Score: inf
ROOT
ATOM      1  C   UNL     1     143.880 145.408 157.582  1.00  0.00     0.180 A 
ATOM      2  C   UNL     1     143.306 144.184 157.967  1.00  0.00     0.208 A 
ATOM      3  C   UNL     1     144.076 143.013 157.876  1.00  0.00     0.238 A 
ATOM      4  O   UNL     1     143.540 141.913 158.169  1.00  0.00    -0.285 OA
ATOM      5  C   UNL     1     145.414 143.082 157.418  1.00  0.00     0.111 A 
ATOM      6  C   UNL     1     146.298 141.966 157.325  1.00  0.00     0.134 A 
ATOM      7  C   UNL     1     147.557 142.131 156.736  1.00  0.00     0.093 A 
ATOM      8  C   UNL     1     147.990 143.381 156.296  1.00  0.00     0.123 A 
ATOM      9  C   UNL     1     147.157 144.491 156.437  1.00  0.00     0.094 A 
ATOM     10  C   UNL     1     145.880 144.352 156.988  1.00  0.00     0.146 A 
ATOM     11  O   UNL     1     145.115 145.431 157.095  1.00  0.00    -0.452 OA
ENDROOT
BRANCH   1  12
ATOM     12  C   UNL     1     143.139 146.687 157.672  1.00  0.00     0.025 A 
ATOM     13  C   UNL     1     143.376 147.598 158.716  1.00  0.00     0.016 A 
ATOM     14  C   UNL     1     142.683 148.810 158.767  1.00  0.00     0.051 A 
ATOM     15  C   UNL     1     141.756 149.138 157.772  1.00  0.00     0.157 A 
ATOM     16  C   UNL     1     142.224 147.028 156.664  1.00  0.00     0.062 A 
ATOM     17  C   UNL     1     141.526 148.245 156.713  1.00  0.00     0.158 A 
BRANCH  15  18
ATOM     18  O   UNL     1     141.079 150.354 157.852  1.00  0.00    -0.504 OA
ATOM     19  H   UNL     1     140.991 150.973 157.055  1.00  0.00     0.293 HD
ENDBRANCH  15  18
BRANCH  17  20
ATOM     20  O   UNL     1     140.609 148.568 155.714  1.00  0.00    -0.504 OA
ATOM     21  H   UNL     1     140.810 149.277 155.018  1.00  0.00     0.293 HD
ENDBRANCH  17  20
ENDBRANCH   1  12
BRANCH   2  22
ATOM     22  O   UNL     1     141.977 144.134 158.394  1.00  0.00    -0.502 OA
ATOM     23  H   UNL     1     141.495 143.261 158.575  1.00  0.00     0.293 HD
ENDBRANCH   2  22
BRANCH   6  24
ATOM     24  O   UNL     1     146.000 140.692 157.817  1.00  0.00    -0.507 OA
ATOM     25  H   UNL     1     145.891 139.868 157.247  1.00  0.00     0.293 HD
ENDBRANCH   6  24
BRANCH   8  26
ATOM     26  O   UNL     1     149.256 143.511 155.728  1.00  0.00    -0.508 OA
ATOM     27  H   UNL     1     150.089 143.202 156.216  1.00  0.00     0.293 HD
ENDBRANCH   8  26
TORSDOF 6
ENDMDL
MODEL 7
REMARK VINA RESULT:    -5.565      1.452      3.101
REMARK INTER + INTRA:          -6.929
REMARK INTER:                  -6.642
REMARK INTRA:                  -0.287
REMARK UNBOUND:                -0.225
REMARK SMILES O=c1c(O)c(-c2ccc(O)c(O)c2)oc2cc(O)cc(O)c12
REMARK SMILES IDX 5 1 3 2 2 3 1 4 22 5 20 6 19 7 17 8 16 9 15 10 14 11 6 12
REMARK SMILES IDX 7 13 8 14 9 15 13 16 11 17 10 18 12 20 4 22 21 24 18 26
REMARK H PARENT 10 19 12 21 4 23 21 25 18 27
REMARK Flexibility Score: inf
ROOT
ATOM      1  C   UNL     1     151.630 150.124 157.625  1.00  0.00     0.180 A 
ATOM      2  C   UNL     1     152.199 151.361 157.975  1.00  0.00     0.208 A 
ATOM      3  C   UNL     1     151.419 152.523 157.867  1.00  0.00     0.238 A 
ATOM      4  O   UNL     1     151.950 153.634 158.129  1.00  0.00    -0.285 OA
ATOM      5  C   UNL     1     150.076 152.433 157.428  1.00  0.00     0.111 A 
ATOM      6  C   UNL     1     149.182 153.540 157.320  1.00  0.00     0.134 A 
ATOM      7  C   UNL     1     147.916 153.353 156.751  1.00  0.00     0.093 A 
ATOM      8  C   UNL     1     147.489 152.089 156.345  1.00  0.00     0.123 A 
ATOM      9  C   UNL     1     148.332 150.989 156.500  1.00  0.00     0.094 A 
ATOM     10  C   UNL     1     149.614 151.150 157.032  1.00  0.00     0.146 A 
ATOM     11  O   UNL     1     150.389 150.080 157.155  1.00  0.00    -0.452 OA
ENDROOT
BRANCH   1  12
ATOM     12  C   UNL     1     152.381 148.852 157.735  1.00  0.00     0.025 A 
ATOM     13  C   UNL     1     152.160 147.961 158.800  1.00  0.00     0.016 A 
ATOM     14  C   UNL     1     152.863 146.756 158.870  1.00  0.00     0.051 A 
ATOM     15  C   UNL     1     153.785 146.415 157.875  1.00  0.00     0.157 A 
ATOM     16  C   UNL     1     153.292 148.498 156.727  1.00  0.00     0.062 A 
ATOM     17  C   UNL     1     154.000 147.288 156.796  1.00  0.00     0.158 A 
BRANCH  15  18
ATOM     18  O   UNL     1     154.473 145.206 157.973  1.00  0.00    -0.504 OA
ATOM     19  H   UNL     1     154.004 144.313 157.887  1.00  0.00     0.293 HD
ENDBRANCH  15  18
BRANCH  17  20
ATOM     20  O   UNL     1     154.912 146.952 155.796  1.00  0.00    -0.504 OA
ATOM     21  H   UNL     1     155.879 146.741 156.009  1.00  0.00     0.293 HD
ENDBRANCH  17  20
ENDBRANCH   1  12
BRANCH   2  22
ATOM     22  O   UNL     1     153.532 151.431 158.385  1.00  0.00    -0.502 OA
ATOM     23  H   UNL     1     154.301 151.496 157.729  1.00  0.00     0.293 HD
ENDBRANCH   2  22
BRANCH   6  24
ATOM     24  O   UNL     1     149.475 154.827 157.779  1.00  0.00    -0.507 OA
ATOM     25  H   UNL     1     148.814 155.442 158.228  1.00  0.00     0.293 HD
ENDBRANCH   6  24
BRANCH   8  26
ATOM     26  O   UNL     1     146.216 151.938 155.796  1.00  0.00    -0.508 OA
ATOM     27  H   UNL     1     145.390 152.282 156.270  1.00  0.00     0.293 HD
ENDBRANCH   8  26
TORSDOF 6
ENDMDL
MODEL 8
REMARK VINA RESULT:    -5.559      5.034      7.161
REMARK INTER + INTRA:          -6.921
REMARK INTER:                  -6.653
REMARK INTRA:                  -0.267
REMARK UNBOUND:                -0.225
REMARK SMILES O=c1c(O)c(-c2ccc(O)c(O)c2)oc2cc(O)cc(O)c12
REMARK SMILES IDX 5 1 3 2 2 3 1 4 22 5 20 6 19 7 17 8 16 9 15 10 14 11 6 12
REMARK SMILES IDX 7 13 8 14 9 15 13 16 11 17 10 18 12 20 4 22 21 24 18 26
REMARK H PARENT 10 19 12 21 4 23 21 25 18 27
REMARK Flexibility Score: inf
ROOT
ATOM      1  C   UNL     1     145.487 151.654 157.599  1.00  0.00     0.180 A 
ATOM      2  C   UNL     1     144.253 152.232 157.943  1.00  0.00     0.208 A 
ATOM      3  C   UNL     1     143.087 151.457 157.844  1.00  0.00     0.238 A 
ATOM      4  O   UNL     1     141.979 151.996 158.101  1.00  0.00    -0.285 OA
ATOM      5  C   UNL     1     143.170 150.109 157.418  1.00  0.00     0.111 A 
ATOM      6  C   UNL     1     142.059 149.220 157.319  1.00  0.00     0.134 A 
ATOM      7  C   UNL     1     142.240 147.948 156.761  1.00  0.00     0.093 A 
ATOM      8  C   UNL     1     143.501 147.510 156.359  1.00  0.00     0.123 A 
ATOM      9  C   UNL     1     144.605 148.350 156.506  1.00  0.00     0.094 A 
ATOM     10  C   UNL     1     144.450 149.638 157.025  1.00  0.00     0.146 A 
ATOM     11  O   UNL     1     145.525 150.409 157.140  1.00  0.00    -0.452 OA
ENDROOT
BRANCH   1  12
ATOM     12  C   UNL     1     146.762 152.401 157.701  1.00  0.00     0.025 A 
ATOM     13  C   UNL     1     147.679 152.145 158.735  1.00  0.00     0.016 A 
ATOM     14  C   UNL     1     148.887 152.845 158.797  1.00  0.00     0.051 A 
ATOM     15  C   UNL     1     149.204 153.797 157.823  1.00  0.00     0.157 A 
ATOM     16  C   UNL     1     147.092 153.343 156.713  1.00  0.00     0.062 A 
ATOM     17  C   UNL     1     148.305 154.047 156.774  1.00  0.00     0.158 A 
BRANCH  15  18
ATOM     18  O   UNL     1     150.416 154.480 157.913  1.00  0.00    -0.504 OA
ATOM     19  H   UNL     1     151.150 154.192 158.548  1.00  0.00     0.293 HD
ENDBRANCH  15  18
BRANCH  17  20
ATOM     20  O   UNL     1     148.617 154.990 155.796  1.00  0.00    -0.504 OA
ATOM     21  H   UNL     1     148.594 155.984 155.990  1.00  0.00     0.293 HD
ENDBRANCH  17  20
ENDBRANCH   1  12
BRANCH   2  22
ATOM     22  O   UNL     1     144.190 153.570 158.341  1.00  0.00    -0.502 OA
ATOM     23  H   UNL     1     143.490 153.914 158.988  1.00  0.00     0.293 HD
ENDBRANCH   2  22
BRANCH   6  24
ATOM     24  O   UNL     1     140.773 149.524 157.776  1.00  0.00    -0.507 OA
ATOM     25  H   UNL     1     139.920 149.208 157.341  1.00  0.00     0.293 HD
ENDBRANCH   6  24
BRANCH   8  26
ATOM     26  O   UNL     1     143.647 146.232 155.822  1.00  0.00    -0.508 OA
ATOM     27  H   UNL     1     144.128 145.498 156.327  1.00  0.00     0.293 HD
ENDBRANCH   8  26
TORSDOF 6
ENDMDL
MODEL 9
REMARK VINA RESULT:    -5.259      1.480      6.839
REMARK INTER + INTRA:          -6.560
REMARK INTER:                  -6.261
REMARK INTRA:                  -0.299
REMARK UNBOUND:                -0.225
REMARK SMILES O=c1c(O)c(-c2ccc(O)c(O)c2)oc2cc(O)cc(O)c12
REMARK SMILES IDX 5 1 3 2 2 3 1 4 22 5 20 6 19 7 17 8 16 9 15 10 14 11 6 12
REMARK SMILES IDX 7 13 8 14 9 15 13 16 11 17 10 18 12 20 4 22 21 24 18 26
REMARK H PARENT 10 19 12 21 4 23 21 25 18 27
REMARK Flexibility Score: inf
ROOT
ATOM      1  C   UNL     1     149.925 150.338 157.316  1.00  0.00     0.180 A 
ATOM      2  C   UNL     1     149.557 149.487 158.372  1.00  0.00     0.208 A 
ATOM      3  C   UNL     1     150.339 148.350 158.634  1.00  0.00     0.238 A 
ATOM      4  O   UNL     1     149.974 147.562 159.545  1.00  0.00    -0.285 OA
ATOM      5  C   UNL     1     151.488 148.089 157.849  1.00  0.00     0.111 A 
ATOM      6  C   UNL     1     152.375 146.990 158.051  1.00  0.00     0.134 A 
ATOM      7  C   UNL     1     153.406 146.757 157.132  1.00  0.00     0.093 A 
ATOM      8  C   UNL     1     153.621 147.617 156.056  1.00  0.00     0.123 A 
ATOM      9  C   UNL     1     152.796 148.729 155.883  1.00  0.00     0.094 A 
ATOM     10  C   UNL     1     151.737 148.968 156.762  1.00  0.00     0.146 A 
ATOM     11  O   UNL     1     150.969 150.031 156.556  1.00  0.00    -0.452 OA
ENDROOT
BRANCH   1  12
ATOM     12  C   UNL     1     149.164 151.567 156.994  1.00  0.00     0.025 A 
ATOM     13  C   UNL     1     149.608 152.834 157.414  1.00  0.00     0.016 A 
ATOM     14  C   UNL     1     148.886 153.982 157.078  1.00  0.00     0.051 A 
ATOM     15  C   UNL     1     147.722 153.887 156.308  1.00  0.00     0.157 A 
ATOM     16  C   UNL     1     148.007 151.477 156.204  1.00  0.00     0.062 A 
ATOM     17  C   UNL     1     147.281 152.630 155.866  1.00  0.00     0.158 A 
BRANCH  15  18
ATOM     18  O   UNL     1     147.023 155.051 155.991  1.00  0.00    -0.504 OA
ATOM     19  H   UNL     1     147.471 155.959 155.972  1.00  0.00     0.293 HD
ENDBRANCH  15  18
BRANCH  17  20
ATOM     20  O   UNL     1     146.125 152.528 155.092  1.00  0.00    -0.504 OA
ATOM     21  H   UNL     1     145.285 153.044 155.322  1.00  0.00     0.293 HD
ENDBRANCH  17  20
ENDBRANCH   1  12
BRANCH   2  22
ATOM     22  O   UNL     1     148.408 149.751 159.121  1.00  0.00    -0.502 OA
ATOM     23  H   UNL     1     147.768 150.502 158.891  1.00  0.00     0.293 HD
ENDBRANCH   2  22
BRANCH   6  24
ATOM     24  O   UNL     1     152.305 146.122 159.144  1.00  0.00    -0.507 OA
ATOM     25  H   UNL     1     151.773 146.296 159.983  1.00  0.00     0.293 HD
ENDBRANCH   6  24
BRANCH   8  26
ATOM     26  O   UNL     1     154.666 147.363 155.170  1.00  0.00    -0.508 OA
ATOM     27  H   UNL     1     154.799 146.447 154.757  1.00  0.00     0.293 HD
ENDBRANCH   8  26
TORSDOF 6
ENDMDL
