MODEL 1
REMARK VINA RESULT:    -4.278      0.000      0.000
REMARK INTER + INTRA:          -4.403
REMARK INTER:                  -4.403
REMARK INTRA:                   0.000
REMARK UNBOUND:                 0.000
REMARK SMILES O=c1ccc2ccc(O)cc2o1
REMARK SMILES IDX 6 1 7 2 8 3 10 4 11 5 5 6 4 7 3 8 2 9 1 10 12 11 9 12
REMARK H PARENT 9 13
REMARK Flexibility Score: inf
ROOT
ATOM      1  C   UNL     1      -3.544   1.159  17.039  1.00  0.00     0.016 A 
ATOM      2  C   UNL     1      -3.260   1.527  18.358  1.00  0.00     0.047 A 
ATOM      3  C   UNL     1      -3.900   2.632  18.938  1.00  0.00     0.119 A 
ATOM      4  C   UNL     1      -4.828   3.371  18.194  1.00  0.00     0.094 A 
ATOM      5  C   UNL     1      -5.117   3.012  16.874  1.00  0.00     0.142 A 
ATOM      6  C   UNL     1      -4.471   1.898  16.292  1.00  0.00     0.018 A 
ATOM      7  C   UNL     1      -4.783   1.562  14.971  1.00  0.00     0.019 A 
ATOM      8  C   UNL     1      -5.714   2.330  14.271  1.00  0.00     0.094 A 
ATOM      9  C   UNL     1      -6.314   3.419  14.911  1.00  0.00     0.336 A 
ATOM     10  O   UNL     1      -7.156   4.124  14.297  1.00  0.00    -0.246 OA
ATOM     11  O   UNL     1      -6.000   3.716  16.170  1.00  0.00    -0.423 OA
ENDROOT
BRANCH   3  12
ATOM     12  O   UNL     1      -3.623   3.004  20.252  1.00  0.00    -0.508 OA
ATOM     13  H   UNL     1      -3.023   2.441  20.845  1.00  0.00     0.293 HD
ENDBRANCH   3  12
TORSDOF 1
ENDMDL
MODEL 2
REMARK VINA RESULT:    -4.039      0.946      4.258
REMARK INTER + INTRA:          -4.157
REMARK INTER:                  -4.157
REMARK INTRA:                   0.000
REMARK UNBOUND:                 0.000
REMARK SMILES O=c1ccc2ccc(O)cc2o1
REMARK SMILES IDX 6 1 7 2 8 3 10 4 11 5 5 6 4 7 3 8 2 9 1 10 12 11 9 12
REMARK H PARENT 9 13
REMARK Flexibility Score: inf
ROOT
ATOM      1  C   UNL     1      -5.131   1.114  15.461  1.00  0.00     0.016 A 
ATOM      2  C   UNL     1      -6.045   2.032  14.934  1.00  0.00     0.047 A 
ATOM      3  C   UNL     1      -6.356   3.206  15.638  1.00  0.00     0.119 A 
ATOM      4  C   UNL     1      -5.749   3.459  16.874  1.00  0.00     0.094 A 
ATOM      5  C   UNL     1      -4.835   2.546  17.410  1.00  0.00     0.142 A 
ATOM      6  C   UNL     1      -4.524   1.365  16.699  1.00  0.00     0.018 A 
ATOM      7  C   UNL     1      -3.606   0.472  17.260  1.00  0.00     0.019 A 
ATOM      8  C   UNL     1      -3.028   0.770  18.495  1.00  0.00     0.094 A 
ATOM      9  C   UNL     1      -3.385   1.958  19.142  1.00  0.00     0.336 A 
ATOM     10  O   UNL     1      -2.875   2.244  20.256  1.00  0.00    -0.246 OA
ATOM     11  O   UNL     1      -4.261   2.791  18.585  1.00  0.00    -0.423 OA
ENDROOT
BRANCH   3  12
ATOM     12  O   UNL     1      -7.264   4.125  15.118  1.00  0.00    -0.508 OA
ATOM     13  H   UNL     1      -8.231   3.873  14.945  1.00  0.00     0.293 HD
ENDBRANCH   3  12
TORSDOF 1
ENDMDL
MODEL 3
REMARK VINA RESULT:    -3.925      1.576      2.302
REMARK INTER + INTRA:          -4.039
REMARK INTER:                  -4.039
REMARK INTRA:                   0.000
REMARK UNBOUND:                 0.000
REMARK SMILES O=c1ccc2ccc(O)cc2o1
REMARK SMILES IDX 6 1 7 2 8 3 10 4 11 5 5 6 4 7 3 8 2 9 1 10 12 11 9 12
REMARK H PARENT 9 13
REMARK Flexibility Score: inf
ROOT
ATOM      1  C   UNL     1      -3.943   2.952  18.694  1.00  0.00     0.016 A 
ATOM      2  C   UNL     1      -3.357   1.769  19.155  1.00  0.00     0.047 A 
ATOM      3  C   UNL     1      -3.457   0.589  18.402  1.00  0.00     0.119 A 
ATOM      4  C   UNL     1      -4.147   0.596  17.184  1.00  0.00     0.094 A 
ATOM      5  C   UNL     1      -4.737   1.774  16.716  1.00  0.00     0.142 A 
ATOM      6  C   UNL     1      -4.634   2.961  17.476  1.00  0.00     0.018 A 
ATOM      7  C   UNL     1      -5.234   4.123  16.980  1.00  0.00     0.019 A 
ATOM      8  C   UNL     1      -5.910   4.078  15.761  1.00  0.00     0.094 A 
ATOM      9  C   UNL     1      -5.972   2.868  15.063  1.00  0.00     0.336 A 
ATOM     10  O   UNL     1      -6.577   2.807  13.962  1.00  0.00    -0.246 OA
ATOM     11  O   UNL     1      -5.392   1.776  15.557  1.00  0.00    -0.423 OA
ENDROOT
BRANCH   3  12
ATOM     12  O   UNL     1      -2.875  -0.592  18.855  1.00  0.00    -0.508 OA
ATOM     13  H   UNL     1      -2.285  -0.609  19.679  1.00  0.00     0.293 HD
ENDBRANCH   3  12
TORSDOF 1
ENDMDL
MODEL 4
REMARK VINA RESULT:    -3.908      1.858      4.757
REMARK INTER + INTRA:          -4.022
REMARK INTER:                  -4.022
REMARK INTRA:                   0.000
REMARK UNBOUND:                 0.000
REMARK SMILES O=c1ccc2ccc(O)cc2o1
REMARK SMILES IDX 6 1 7 2 8 3 10 4 11 5 5 6 4 7 3 8 2 9 1 10 12 11 9 12
REMARK H PARENT 9 13
REMARK Flexibility Score: inf
ROOT
ATOM      1  C   UNL     1      -4.464   4.011  17.270  1.00  0.00     0.016 A 
ATOM      2  C   UNL     1      -5.209   3.997  16.086  1.00  0.00     0.047 A 
ATOM      3  C   UNL     1      -5.526   2.780  15.464  1.00  0.00     0.119 A 
ATOM      4  C   UNL     1      -5.095   1.574  16.031  1.00  0.00     0.094 A 
ATOM      5  C   UNL     1      -4.350   1.579  17.214  1.00  0.00     0.142 A 
ATOM      6  C   UNL     1      -4.032   2.806  17.838  1.00  0.00     0.018 A 
ATOM      7  C   UNL     1      -3.286   2.778  19.021  1.00  0.00     0.019 A 
ATOM      8  C   UNL     1      -2.880   1.551  19.546  1.00  0.00     0.094 A 
ATOM      9  C   UNL     1      -3.232   0.376  18.873  1.00  0.00     0.336 A 
ATOM     10  O   UNL     1      -2.876  -0.741  19.331  1.00  0.00    -0.246 OA
ATOM     11  O   UNL     1      -3.943   0.430  17.750  1.00  0.00    -0.423 OA
ENDROOT
BRANCH   3  12
ATOM     12  O   UNL     1      -6.268   2.758  14.285  1.00  0.00    -0.508 OA
ATOM     13  H   UNL     1      -6.357   1.914  13.732  1.00  0.00     0.293 HD
ENDBRANCH   3  12
TORSDOF 1
ENDMDL
MODEL 5
REMARK VINA RESULT:    -3.261      2.174      5.172
REMARK INTER + INTRA:          -3.356
REMARK INTER:                  -3.356
REMARK INTRA:                   0.000
REMARK UNBOUND:                 0.000
REMARK SMILES O=c1ccc2ccc(O)cc2o1
REMARK SMILES IDX 6 1 7 2 8 3 10 4 11 5 5 6 4 7 3 8 2 9 1 10 12 11 9 12
REMARK H PARENT 9 13
REMARK Flexibility Score: inf
ROOT
ATOM      1  C   UNL     1      -3.742   3.339  17.951  1.00  0.00     0.016 A 
ATOM      2  C   UNL     1      -4.180   3.298  16.623  1.00  0.00     0.047 A 
ATOM      3  C   UNL     1      -4.399   2.067  15.988  1.00  0.00     0.119 A 
ATOM      4  C   UNL     1      -4.178   0.873  16.684  1.00  0.00     0.094 A 
ATOM      5  C   UNL     1      -3.738   0.903  18.012  1.00  0.00     0.142 A 
ATOM      6  C   UNL     1      -3.519   2.145  18.650  1.00  0.00     0.018 A 
ATOM      7  C   UNL     1      -3.081   2.143  19.978  1.00  0.00     0.019 A 
ATOM      8  C   UNL     1      -2.875   0.927  20.629  1.00  0.00     0.094 A 
ATOM      9  C   UNL     1      -3.112  -0.264  19.934  1.00  0.00     0.336 A 
ATOM     10  O   UNL     1      -2.933  -1.371  20.504  1.00  0.00    -0.246 OA
ATOM     11  O   UNL     1      -3.530  -0.234  18.671  1.00  0.00    -0.423 OA
ENDROOT
BRANCH   3  12
ATOM     12  O   UNL     1      -4.836   2.019  14.666  1.00  0.00    -0.508 OA
ATOM     13  H   UNL     1      -5.033   1.138  14.205  1.00  0.00     0.293 HD
ENDBRANCH   3  12
TORSDOF 1
ENDMDL
MODEL 6
REMARK VINA RESULT:    -3.245      2.531      3.269
REMARK INTER + INTRA:          -3.340
REMARK INTER:                  -3.340
REMARK INTRA:                   0.000
REMARK UNBOUND:                 0.000
REMARK SMILES O=c1ccc2ccc(O)cc2o1
REMARK SMILES IDX 6 1 7 2 8 3 10 4 11 5 5 6 4 7 3 8 2 9 1 10 12 11 9 12
REMARK H PARENT 9 13
REMARK Flexibility Score: inf
ROOT
ATOM      1  C   UNL     1      -2.975   2.515  19.703  1.00  0.00     0.016 A 
ATOM      2  C   UNL     1      -2.896   1.219  20.223  1.00  0.00     0.047 A 
ATOM      3  C   UNL     1      -2.954   0.108  19.367  1.00  0.00     0.119 A 
ATOM      4  C   UNL     1      -3.091   0.298  17.986  1.00  0.00     0.094 A 
ATOM      5  C   UNL     1      -3.172   1.590  17.458  1.00  0.00     0.142 A 
ATOM      6  C   UNL     1      -3.113   2.706  18.322  1.00  0.00     0.018 A 
ATOM      7  C   UNL     1      -3.195   3.986  17.764  1.00  0.00     0.019 A 
ATOM      8  C   UNL     1      -3.331   4.122  16.382  1.00  0.00     0.094 A 
ATOM      9  C   UNL     1      -3.383   2.971  15.588  1.00  0.00     0.336 A 
ATOM     10  O   UNL     1      -3.505   3.074  14.340  1.00  0.00    -0.246 OA
ATOM     11  O   UNL     1      -3.302   1.766  16.145  1.00  0.00    -0.423 OA
ENDROOT
BRANCH   3  12
ATOM     12  O   UNL     1      -2.876  -1.186  19.878  1.00  0.00    -0.508 OA
ATOM     13  H   UNL     1      -3.556  -1.894  19.629  1.00  0.00     0.293 HD
ENDBRANCH   3  12
TORSDOF 1
ENDMDL
MODEL 7
REMARK VINA RESULT:    -2.523      2.745      3.669
REMARK INTER + INTRA:          -2.596
REMARK INTER:                  -2.596
REMARK INTRA:                   0.000
REMARK UNBOUND:                 0.000
REMARK SMILES O=c1ccc2ccc(O)cc2o1
REMARK SMILES IDX 6 1 7 2 8 3 10 4 11 5 5 6 4 7 3 8 2 9 1 10 12 11 9 12
REMARK H PARENT 9 13
REMARK Flexibility Score: inf
ROOT
ATOM      1  C   UNL     1      -2.958  -0.874  19.468  1.00  0.00     0.016 A 
ATOM      2  C   UNL     1      -2.935  -0.725  20.858  1.00  0.00     0.047 A 
ATOM      3  C   UNL     1      -2.897   0.556  21.431  1.00  0.00     0.119 A 
ATOM      4  C   UNL     1      -2.880   1.688  20.609  1.00  0.00     0.094 A 
ATOM      5  C   UNL     1      -2.902   1.548  19.217  1.00  0.00     0.142 A 
ATOM      6  C   UNL     1      -2.941   0.258  18.642  1.00  0.00     0.018 A 
ATOM      7  C   UNL     1      -2.963   0.150  17.248  1.00  0.00     0.019 A 
ATOM      8  C   UNL     1      -2.945   1.309  16.472  1.00  0.00     0.094 A 
ATOM      9  C   UNL     1      -2.905   2.553  17.110  1.00  0.00     0.336 A 
ATOM     10  O   UNL     1      -2.889   3.609  16.427  1.00  0.00    -0.246 OA
ATOM     11  O   UNL     1      -2.887   2.627  18.439  1.00  0.00    -0.423 OA
ENDROOT
BRANCH   3  12
ATOM     12  O   UNL     1      -2.875   0.712  22.815  1.00  0.00    -0.508 OA
ATOM     13  H   UNL     1      -3.706   0.564  23.377  1.00  0.00     0.293 HD
ENDBRANCH   3  12
TORSDOF 1
ENDMDL
MODEL 8
REMARK VINA RESULT:    -1.530      1.888      4.624
REMARK INTER + INTRA:          -1.575
REMARK INTER:                  -1.575
REMARK INTRA:                   0.000
REMARK UNBOUND:                 0.000
REMARK SMILES O=c1ccc2ccc(O)cc2o1
REMARK SMILES IDX 6 1 7 2 8 3 10 4 11 5 5 6 4 7 3 8 2 9 1 10 12 11 9 12
REMARK H PARENT 9 13
REMARK Flexibility Score: inf
ROOT
ATOM      1  C   UNL     1      -3.976  -0.661  16.984  1.00  0.00     0.016 A 
ATOM      2  C   UNL     1      -4.500  -0.323  15.732  1.00  0.00     0.047 A 
ATOM      3  C   UNL     1      -4.727   1.021  15.399  1.00  0.00     0.119 A 
ATOM      4  C   UNL     1      -4.430   2.029  16.324  1.00  0.00     0.094 A 
ATOM      5  C   UNL     1      -3.908   1.701  17.579  1.00  0.00     0.142 A 
ATOM      6  C   UNL     1      -3.679   0.347  17.912  1.00  0.00     0.018 A 
ATOM      7  C   UNL     1      -3.155   0.050  19.174  1.00  0.00     0.019 A 
ATOM      8  C   UNL     1      -2.875   1.090  20.061  1.00  0.00     0.094 A 
ATOM      9  C   UNL     1      -3.128   2.407  19.663  1.00  0.00     0.336 A 
ATOM     10  O   UNL     1      -2.882   3.359  20.449  1.00  0.00    -0.246 OA
ATOM     11  O   UNL     1      -3.626   2.662  18.456  1.00  0.00    -0.423 OA
ENDROOT
BRANCH   3  12
ATOM     12  O   UNL     1      -5.247   1.364  14.153  1.00  0.00    -0.508 OA
ATOM     13  H   UNL     1      -5.524   2.316  13.940  1.00  0.00     0.293 HD
ENDBRANCH   3  12
TORSDOF 1
ENDMDL
