MODEL 1
REMARK VINA RESULT:    -3.695      0.000      0.000
REMARK INTER + INTRA:          -9.173
REMARK INTER:                  -6.719
REMARK INTRA:                  -2.454
REMARK UNBOUND:                -2.454
REMARK SMILES CCCCCCCCCCCCCCCC(=O)[O-]
REMARK SMILES IDX 9 1 10 2 11 3 12 4 13 5 14 6 15 7 16 8 17 9 18 10 8 11 7 12
REMARK SMILES IDX 6 13 5 14 4 15 3 16 2 17 1 18
REMARK H PARENT
REMARK Flexibility Score: inf
ROOT
ATOM      1  C   UNL     1     -46.451 -54.090  38.873  1.00  0.00     0.000 C 
ENDROOT
BRANCH   1   2
ATOM      2  C   UNL     1     -46.116 -53.000  37.843  1.00  0.00     0.000 C 
BRANCH   2   3
ATOM      3  C   UNL     1     -47.297 -52.049  37.581  1.00  0.00     0.000 C 
BRANCH   3   4
ATOM      4  C   UNL     1     -46.837 -50.613  37.274  1.00  0.00     0.000 C 
BRANCH   4   5
ATOM      5  C   UNL     1     -45.342 -50.526  36.919  1.00  0.00     0.000 C 
BRANCH   5   6
ATOM      6  C   UNL     1     -44.814 -49.104  36.654  1.00  0.00     0.006 C 
BRANCH   6   7
ATOM      7  C   UNL     1     -43.470 -48.827  37.339  1.00  0.00     0.053 C 
BRANCH   7   8
ATOM      8  C   UNL     1     -43.680 -48.087  38.623  1.00  0.00     0.041 C 
ATOM      9  O   UNL     1     -42.705 -47.841  39.379  1.00  0.00    -0.550 OA
ATOM     10  O   UNL     1     -44.946 -47.621  38.956  1.00  0.00    -0.550 OA
ENDBRANCH   7   8
ENDBRANCH   6   7
ENDBRANCH   5   6
ENDBRANCH   4   5
ENDBRANCH   3   4
ENDBRANCH   2   3
ENDBRANCH   1   2
BRANCH   1  11
ATOM     11  C   UNL     1     -47.967 -54.170  39.111  1.00  0.00     0.000 C 
BRANCH  11  12
ATOM     12  C   UNL     1     -48.333 -54.169  40.605  1.00  0.00    -0.000 C 
BRANCH  12  13
ATOM     13  C   UNL     1     -49.305 -53.041  40.979  1.00  0.00    -0.000 C 
BRANCH  13  14
ATOM     14  C   UNL     1     -48.664 -52.078  41.989  1.00  0.00    -0.000 C 
BRANCH  14  15
ATOM     15  C   UNL     1     -47.698 -51.080  41.329  1.00  0.00    -0.000 C 
BRANCH  15  16
ATOM     16  C   UNL     1     -46.224 -51.439  41.563  1.00  0.00    -0.000 C 
BRANCH  16  17
ATOM     17  C   UNL     1     -45.306 -50.590  40.676  1.00  0.00    -0.003 C 
ATOM     18  C   UNL     1     -44.001 -51.321  40.374  1.00  0.00     0.004 C 
ENDBRANCH  16  17
ENDBRANCH  15  16
ENDBRANCH  14  15
ENDBRANCH  13  14
ENDBRANCH  12  13
ENDBRANCH  11  12
ENDBRANCH   1  11
TORSDOF 14
ENDMDL
MODEL 2
REMARK VINA RESULT:    -3.635      1.028      1.755
REMARK INTER + INTRA:          -9.063
REMARK INTER:                  -6.893
REMARK INTRA:                  -2.170
REMARK UNBOUND:                -2.454
REMARK SMILES CCCCCCCCCCCCCCCC(=O)[O-]
REMARK SMILES IDX 9 1 10 2 11 3 12 4 13 5 14 6 15 7 16 8 17 9 18 10 8 11 7 12
REMARK SMILES IDX 6 13 5 14 4 15 3 16 2 17 1 18
REMARK H PARENT
REMARK Flexibility Score: inf
ROOT
ATOM      1  C   UNL     1     -46.017 -52.801  37.639  1.00  0.00     0.000 C 
ENDROOT
BRANCH   1   2
ATOM      2  C   UNL     1     -47.235 -51.928  37.300  1.00  0.00     0.000 C 
BRANCH   2   3
ATOM      3  C   UNL     1     -46.871 -50.443  37.131  1.00  0.00     0.000 C 
BRANCH   3   4
ATOM      4  C   UNL     1     -45.351 -50.216  37.056  1.00  0.00     0.000 C 
BRANCH   4   5
ATOM      5  C   UNL     1     -44.965 -48.726  37.117  1.00  0.00     0.000 C 
BRANCH   5   6
ATOM      6  C   UNL     1     -44.974 -48.105  38.526  1.00  0.00     0.006 C 
BRANCH   6   7
ATOM      7  C   UNL     1     -43.581 -48.059  39.168  1.00  0.00     0.053 C 
BRANCH   7   8
ATOM      8  C   UNL     1     -43.474 -46.891  40.097  1.00  0.00     0.041 C 
ATOM      9  O   UNL     1     -42.414 -46.695  40.747  1.00  0.00    -0.550 OA
ATOM     10  O   UNL     1     -44.524 -45.988  40.203  1.00  0.00    -0.550 OA
ENDBRANCH   7   8
ENDBRANCH   6   7
ENDBRANCH   5   6
ENDBRANCH   4   5
ENDBRANCH   3   4
ENDBRANCH   2   3
ENDBRANCH   1   2
BRANCH   1  11
ATOM     11  C   UNL     1     -46.456 -54.144  38.241  1.00  0.00     0.000 C 
BRANCH  11  12
ATOM     12  C   UNL     1     -47.752 -54.031  39.061  1.00  0.00    -0.000 C 
BRANCH  12  13
ATOM     13  C   UNL     1     -47.590 -54.535  40.503  1.00  0.00    -0.000 C 
BRANCH  13  14
ATOM     14  C   UNL     1     -48.477 -53.734  41.467  1.00  0.00    -0.000 C 
BRANCH  14  15
ATOM     15  C   UNL     1     -48.532 -52.237  41.119  1.00  0.00    -0.000 C 
BRANCH  15  16
ATOM     16  C   UNL     1     -47.419 -51.429  41.802  1.00  0.00    -0.000 C 
BRANCH  16  17
ATOM     17  C   UNL     1     -46.516 -50.754  40.763  1.00  0.00    -0.003 C 
ATOM     18  C   UNL     1     -45.056 -51.149  40.961  1.00  0.00     0.004 C 
ENDBRANCH  16  17
ENDBRANCH  15  16
ENDBRANCH  14  15
ENDBRANCH  13  14
ENDBRANCH  12  13
ENDBRANCH  11  12
ENDBRANCH   1  11
TORSDOF 14
ENDMDL
MODEL 3
REMARK VINA RESULT:    -3.626      1.934      2.083
REMARK INTER + INTRA:          -9.047
REMARK INTER:                  -7.006
REMARK INTRA:                  -2.041
REMARK UNBOUND:                -2.454
REMARK SMILES CCCCCCCCCCCCCCCC(=O)[O-]
REMARK SMILES IDX 9 1 10 2 11 3 12 4 13 5 14 6 15 7 16 8 17 9 18 10 8 11 7 12
REMARK SMILES IDX 6 13 5 14 4 15 3 16 2 17 1 18
REMARK H PARENT
REMARK Flexibility Score: inf
ROOT
ATOM      1  C   UNL     1     -46.163 -54.284  38.522  1.00  0.00     0.000 C 
ENDROOT
BRANCH   1   2
ATOM      2  C   UNL     1     -46.043 -53.292  37.355  1.00  0.00     0.000 C 
BRANCH   2   3
ATOM      3  C   UNL     1     -47.290 -52.404  37.202  1.00  0.00     0.000 C 
BRANCH   3   4
ATOM      4  C   UNL     1     -46.943 -50.906  37.145  1.00  0.00     0.000 C 
BRANCH   4   5
ATOM      5  C   UNL     1     -45.430 -50.648  37.017  1.00  0.00     0.000 C 
BRANCH   5   6
ATOM      6  C   UNL     1     -45.038 -49.185  36.736  1.00  0.00     0.006 C 
BRANCH   6   7
ATOM      7  C   UNL     1     -43.542 -49.011  36.448  1.00  0.00     0.053 C 
BRANCH   7   8
ATOM      8  C   UNL     1     -43.291 -49.007  34.973  1.00  0.00     0.041 C 
ATOM      9  O   UNL     1     -42.753 -48.011  34.425  1.00  0.00    -0.550 OA
ATOM     10  O   UNL     1     -43.602 -50.128  34.212  1.00  0.00    -0.550 OA
ENDBRANCH   7   8
ENDBRANCH   6   7
ENDBRANCH   5   6
ENDBRANCH   4   5
ENDBRANCH   3   4
ENDBRANCH   2   3
ENDBRANCH   1   2
BRANCH   1  11
ATOM     11  C   UNL     1     -47.633 -54.644  38.786  1.00  0.00     0.000 C 
BRANCH  11  12
ATOM     12  C   UNL     1     -47.994 -54.601  40.280  1.00  0.00    -0.000 C 
BRANCH  12  13
ATOM     13  C   UNL     1     -48.808 -53.355  40.660  1.00  0.00    -0.000 C 
BRANCH  13  14
ATOM     14  C   UNL     1     -48.421 -52.853  42.059  1.00  0.00    -0.000 C 
BRANCH  14  15
ATOM     15  C   UNL     1     -47.878 -51.414  42.045  1.00  0.00    -0.000 C 
BRANCH  15  16
ATOM     16  C   UNL     1     -47.317 -51.007  40.675  1.00  0.00    -0.000 C 
BRANCH  16  17
ATOM     17  C   UNL     1     -45.834 -50.631  40.781  1.00  0.00    -0.003 C 
ATOM     18  C   UNL     1     -44.968 -51.863  41.025  1.00  0.00     0.004 C 
ENDBRANCH  16  17
ENDBRANCH  15  16
ENDBRANCH  14  15
ENDBRANCH  13  14
ENDBRANCH  12  13
ENDBRANCH  11  12
ENDBRANCH   1  11
TORSDOF 14
ENDMDL
MODEL 4
REMARK VINA RESULT:    -3.567      1.803      4.603
REMARK INTER + INTRA:          -8.940
REMARK INTER:                  -6.652
REMARK INTRA:                  -2.288
REMARK UNBOUND:                -2.454
REMARK SMILES CCCCCCCCCCCCCCCC(=O)[O-]
REMARK SMILES IDX 9 1 10 2 11 3 12 4 13 5 14 6 15 7 16 8 17 9 18 10 8 11 7 12
REMARK SMILES IDX 6 13 5 14 4 15 3 16 2 17 1 18
REMARK H PARENT
REMARK Flexibility Score: inf
ROOT
ATOM      1  C   UNL     1     -47.684 -54.061  38.820  1.00  0.00     0.000 C 
ENDROOT
BRANCH   1   2
ATOM      2  C   UNL     1     -47.589 -54.857  40.130  1.00  0.00     0.000 C 
BRANCH   2   3
ATOM      3  C   UNL     1     -48.249 -54.130  41.314  1.00  0.00     0.000 C 
BRANCH   3   4
ATOM      4  C   UNL     1     -49.137 -52.957  40.862  1.00  0.00     0.000 C 
BRANCH   4   5
ATOM      5  C   UNL     1     -48.793 -51.636  41.576  1.00  0.00     0.000 C 
BRANCH   5   6
ATOM      6  C   UNL     1     -47.320 -51.488  42.002  1.00  0.00     0.006 C 
BRANCH   6   7
ATOM      7  C   UNL     1     -46.424 -50.949  40.879  1.00  0.00     0.053 C 
BRANCH   7   8
ATOM      8  C   UNL     1     -45.171 -51.760  40.778  1.00  0.00     0.041 C 
ATOM      9  O   UNL     1     -44.257 -51.416  39.984  1.00  0.00    -0.550 OA
ATOM     10  O   UNL     1     -44.989 -52.865  41.600  1.00  0.00    -0.550 OA
ENDBRANCH   7   8
ENDBRANCH   6   7
ENDBRANCH   5   6
ENDBRANCH   4   5
ENDBRANCH   3   4
ENDBRANCH   2   3
ENDBRANCH   1   2
BRANCH   1  11
ATOM     11  C   UNL     1     -46.338 -54.062  38.079  1.00  0.00     0.000 C 
BRANCH  11  12
ATOM     12  C   UNL     1     -46.084 -52.756  37.308  1.00  0.00    -0.000 C 
BRANCH  12  13
ATOM     13  C   UNL     1     -47.272 -51.786  37.374  1.00  0.00    -0.000 C 
BRANCH  13  14
ATOM     14  C   UNL     1     -46.815 -50.341  37.122  1.00  0.00    -0.000 C 
BRANCH  14  15
ATOM     15  C   UNL     1     -45.319 -50.242  36.783  1.00  0.00    -0.000 C 
BRANCH  15  16
ATOM     16  C   UNL     1     -44.787 -48.804  36.861  1.00  0.00    -0.000 C 
BRANCH  16  17
ATOM     17  C   UNL     1     -43.834 -48.636  38.050  1.00  0.00    -0.003 C 
ATOM     18  C   UNL     1     -44.520 -47.924  39.211  1.00  0.00     0.004 C 
ENDBRANCH  16  17
ENDBRANCH  15  16
ENDBRANCH  14  15
ENDBRANCH  13  14
ENDBRANCH  12  13
ENDBRANCH  11  12
ENDBRANCH   1  11
TORSDOF 14
ENDMDL
MODEL 5
REMARK VINA RESULT:    -3.566      3.639      6.622
REMARK INTER + INTRA:          -8.938
REMARK INTER:                  -7.632
REMARK INTRA:                  -1.306
REMARK UNBOUND:                -2.454
REMARK SMILES CCCCCCCCCCCCCCCC(=O)[O-]
REMARK SMILES IDX 9 1 10 2 11 3 12 4 13 5 14 6 15 7 16 8 17 9 18 10 8 11 7 12
REMARK SMILES IDX 6 13 5 14 4 15 3 16 2 17 1 18
REMARK H PARENT
REMARK Flexibility Score: inf
ROOT
ATOM      1  C   UNL     1     -46.302 -50.977  41.199  1.00  0.00     0.000 C 
ENDROOT
BRANCH   1   2
ATOM      2  C   UNL     1     -47.827 -50.845  41.330  1.00  0.00     0.000 C 
BRANCH   2   3
ATOM      3  C   UNL     1     -48.465 -52.040  42.059  1.00  0.00     0.000 C 
BRANCH   3   4
ATOM      4  C   UNL     1     -49.009 -53.100  41.085  1.00  0.00     0.000 C 
BRANCH   4   5
ATOM      5  C   UNL     1     -47.936 -54.112  40.642  1.00  0.00     0.000 C 
BRANCH   5   6
ATOM      6  C   UNL     1     -47.795 -54.291  39.119  1.00  0.00     0.006 C 
BRANCH   6   7
ATOM      7  C   UNL     1     -46.769 -55.365  38.736  1.00  0.00     0.053 C 
BRANCH   7   8
ATOM      8  C   UNL     1     -47.297 -56.729  39.054  1.00  0.00     0.041 C 
ATOM      9  O   UNL     1     -46.865 -57.357  40.055  1.00  0.00    -0.550 OA
ATOM     10  O   UNL     1     -48.308 -57.281  38.278  1.00  0.00    -0.550 OA
ENDBRANCH   7   8
ENDBRANCH   6   7
ENDBRANCH   5   6
ENDBRANCH   4   5
ENDBRANCH   3   4
ENDBRANCH   2   3
ENDBRANCH   1   2
BRANCH   1  11
ATOM     11  C   UNL     1     -45.826 -50.491  39.822  1.00  0.00     0.000 C 
BRANCH  11  12
ATOM     12  C   UNL     1     -46.904 -50.641  38.735  1.00  0.00    -0.000 C 
BRANCH  12  13
ATOM     13  C   UNL     1     -46.377 -50.326  37.327  1.00  0.00    -0.000 C 
BRANCH  13  14
ATOM     14  C   UNL     1     -45.630 -48.985  37.309  1.00  0.00    -0.000 C 
BRANCH  14  15
ATOM     15  C   UNL     1     -44.282 -49.066  36.573  1.00  0.00    -0.000 C 
BRANCH  15  16
ATOM     16  C   UNL     1     -44.241 -50.195  35.534  1.00  0.00    -0.000 C 
BRANCH  16  17
ATOM     17  C   UNL     1     -43.394 -49.793  34.321  1.00  0.00    -0.003 C 
ATOM     18  C   UNL     1     -42.740 -48.431  34.532  1.00  0.00     0.004 C 
ENDBRANCH  16  17
ENDBRANCH  15  16
ENDBRANCH  14  15
ENDBRANCH  13  14
ENDBRANCH  12  13
ENDBRANCH  11  12
ENDBRANCH   1  11
TORSDOF 14
ENDMDL
MODEL 6
REMARK VINA RESULT:    -3.528      1.365      3.281
REMARK INTER + INTRA:          -8.868
REMARK INTER:                  -7.222
REMARK INTRA:                  -1.646
REMARK UNBOUND:                -2.454
REMARK SMILES CCCCCCCCCCCCCCCC(=O)[O-]
REMARK SMILES IDX 9 1 10 2 11 3 12 4 13 5 14 6 15 7 16 8 17 9 18 10 8 11 7 12
REMARK SMILES IDX 6 13 5 14 4 15 3 16 2 17 1 18
REMARK H PARENT
REMARK Flexibility Score: inf
ROOT
ATOM      1  C   UNL     1     -45.727 -51.423  39.472  1.00  0.00     0.000 C 
ENDROOT
BRANCH   1   2
ATOM      2  C   UNL     1     -46.912 -51.311  38.501  1.00  0.00     0.000 C 
BRANCH   2   3
ATOM      3  C   UNL     1     -46.656 -50.303  37.367  1.00  0.00     0.000 C 
BRANCH   3   4
ATOM      4  C   UNL     1     -45.167 -50.210  36.989  1.00  0.00     0.000 C 
BRANCH   4   5
ATOM      5  C   UNL     1     -44.627 -48.769  37.038  1.00  0.00     0.000 C 
BRANCH   5   6
ATOM      6  C   UNL     1     -43.721 -48.451  38.242  1.00  0.00     0.006 C 
BRANCH   6   7
ATOM      7  C   UNL     1     -44.480 -47.803  39.406  1.00  0.00     0.053 C 
BRANCH   7   8
ATOM      8  C   UNL     1     -43.667 -46.700  40.009  1.00  0.00     0.041 C 
ATOM      9  O   UNL     1     -42.410 -46.751  39.980  1.00  0.00    -0.550 OA
ATOM     10  O   UNL     1     -44.299 -45.589  40.553  1.00  0.00    -0.550 OA
ENDBRANCH   7   8
ENDBRANCH   6   7
ENDBRANCH   5   6
ENDBRANCH   4   5
ENDBRANCH   3   4
ENDBRANCH   2   3
ENDBRANCH   1   2
BRANCH   1  11
ATOM     11  C   UNL     1     -46.096 -50.864  40.854  1.00  0.00     0.000 C 
BRANCH  11  12
ATOM     12  C   UNL     1     -47.615 -50.826  41.092  1.00  0.00    -0.000 C 
BRANCH  12  13
ATOM     13  C   UNL     1     -48.097 -51.932  42.042  1.00  0.00    -0.000 C 
BRANCH  13  14
ATOM     14  C   UNL     1     -48.907 -52.993  41.283  1.00  0.00    -0.000 C 
BRANCH  14  15
ATOM     15  C   UNL     1     -48.146 -54.319  41.120  1.00  0.00    -0.000 C 
BRANCH  15  16
ATOM     16  C   UNL     1     -47.925 -54.699  39.650  1.00  0.00    -0.000 C 
BRANCH  16  17
ATOM     17  C   UNL     1     -47.217 -56.054  39.534  1.00  0.00    -0.003 C 
ATOM     18  C   UNL     1     -47.995 -57.007  38.632  1.00  0.00     0.004 C 
ENDBRANCH  16  17
ENDBRANCH  15  16
ENDBRANCH  14  15
ENDBRANCH  13  14
ENDBRANCH  12  13
ENDBRANCH  11  12
ENDBRANCH   1  11
TORSDOF 14
ENDMDL
MODEL 7
REMARK VINA RESULT:    -3.527      2.119      3.713
REMARK INTER + INTRA:          -8.867
REMARK INTER:                  -6.850
REMARK INTRA:                  -2.018
REMARK UNBOUND:                -2.454
REMARK SMILES CCCCCCCCCCCCCCCC(=O)[O-]
REMARK SMILES IDX 9 1 10 2 11 3 12 4 13 5 14 6 15 7 16 8 17 9 18 10 8 11 7 12
REMARK SMILES IDX 6 13 5 14 4 15 3 16 2 17 1 18
REMARK H PARENT
REMARK Flexibility Score: inf
ROOT
ATOM      1  C   UNL     1     -45.235 -51.677  39.927  1.00  0.00     0.000 C 
ENDROOT
BRANCH   1   2
ATOM      2  C   UNL     1     -45.690 -50.212  39.842  1.00  0.00     0.000 C 
BRANCH   2   3
ATOM      3  C   UNL     1     -44.508 -49.229  39.771  1.00  0.00     0.000 C 
BRANCH   3   4
ATOM      4  C   UNL     1     -44.598 -48.288  38.556  1.00  0.00     0.000 C 
BRANCH   4   5
ATOM      5  C   UNL     1     -45.528 -48.824  37.452  1.00  0.00     0.000 C 
BRANCH   5   6
ATOM      6  C   UNL     1     -44.814 -49.491  36.263  1.00  0.00     0.006 C 
BRANCH   6   7
ATOM      7  C   UNL     1     -43.346 -49.068  36.132  1.00  0.00     0.053 C 
BRANCH   7   8
ATOM      8  C   UNL     1     -42.987 -48.866  34.693  1.00  0.00     0.041 C 
ATOM      9  O   UNL     1     -43.563 -49.537  33.797  1.00  0.00    -0.550 OA
ATOM     10  O   UNL     1     -42.057 -47.897  34.338  1.00  0.00    -0.550 OA
ENDBRANCH   7   8
ENDBRANCH   6   7
ENDBRANCH   5   6
ENDBRANCH   4   5
ENDBRANCH   3   4
ENDBRANCH   2   3
ENDBRANCH   1   2
BRANCH   1  11
ATOM     11  C   UNL     1     -45.609 -52.442  38.648  1.00  0.00     0.000 C 
BRANCH  11  12
ATOM     12  C   UNL     1     -47.032 -52.122  38.160  1.00  0.00    -0.000 C 
BRANCH  12  13
ATOM     13  C   UNL     1     -48.008 -53.288  38.370  1.00  0.00    -0.000 C 
BRANCH  13  14
ATOM     14  C   UNL     1     -47.332 -54.441  39.127  1.00  0.00    -0.000 C 
BRANCH  14  15
ATOM     15  C   UNL     1     -47.885 -54.621  40.550  1.00  0.00    -0.000 C 
BRANCH  15  16
ATOM     16  C   UNL     1     -48.931 -53.560  40.919  1.00  0.00    -0.000 C 
BRANCH  16  17
ATOM     17  C   UNL     1     -48.411 -52.640  42.029  1.00  0.00    -0.003 C 
ATOM     18  C   UNL     1     -48.645 -51.172  41.685  1.00  0.00     0.004 C 
ENDBRANCH  16  17
ENDBRANCH  15  16
ENDBRANCH  14  15
ENDBRANCH  13  14
ENDBRANCH  12  13
ENDBRANCH  11  12
ENDBRANCH   1  11
TORSDOF 14
ENDMDL
MODEL 8
REMARK VINA RESULT:    -3.498      3.012      5.779
REMARK INTER + INTRA:          -8.814
REMARK INTER:                  -6.421
REMARK INTRA:                  -2.393
REMARK UNBOUND:                -2.454
REMARK SMILES CCCCCCCCCCCCCCCC(=O)[O-]
REMARK SMILES IDX 9 1 10 2 11 3 12 4 13 5 14 6 15 7 16 8 17 9 18 10 8 11 7 12
REMARK SMILES IDX 6 13 5 14 4 15 3 16 2 17 1 18
REMARK H PARENT
REMARK Flexibility Score: inf
ROOT
ATOM      1  C   UNL     1     -45.472 -51.160  40.520  1.00  0.00     0.000 C 
ENDROOT
BRANCH   1   2
ATOM      2  C   UNL     1     -46.847 -50.675  41.003  1.00  0.00     0.000 C 
BRANCH   2   3
ATOM      3  C   UNL     1     -47.472 -51.614  42.049  1.00  0.00     0.000 C 
BRANCH   3   4
ATOM      4  C   UNL     1     -48.966 -51.876  41.786  1.00  0.00     0.000 C 
BRANCH   4   5
ATOM      5  C   UNL     1     -49.216 -53.177  41.002  1.00  0.00     0.000 C 
BRANCH   5   6
ATOM      6  C   UNL     1     -48.096 -54.228  41.106  1.00  0.00     0.006 C 
BRANCH   6   7
ATOM      7  C   UNL     1     -47.715 -54.833  39.749  1.00  0.00     0.053 C 
BRANCH   7   8
ATOM      8  C   UNL     1     -46.426 -55.584  39.855  1.00  0.00     0.041 C 
ATOM      9  O   UNL     1     -45.438 -55.066  40.438  1.00  0.00    -0.550 OA
ATOM     10  O   UNL     1     -46.332 -56.879  39.360  1.00  0.00    -0.550 OA
ENDBRANCH   7   8
ENDBRANCH   6   7
ENDBRANCH   5   6
ENDBRANCH   4   5
ENDBRANCH   3   4
ENDBRANCH   2   3
ENDBRANCH   1   2
BRANCH   1  11
ATOM     11  C   UNL     1     -45.578 -51.819  39.136  1.00  0.00     0.000 C 
BRANCH  11  12
ATOM     12  C   UNL     1     -46.896 -51.481  38.418  1.00  0.00    -0.000 C 
BRANCH  12  13
ATOM     13  C   UNL     1     -46.684 -50.630  37.157  1.00  0.00    -0.000 C 
BRANCH  13  14
ATOM     14  C   UNL     1     -46.756 -49.132  37.488  1.00  0.00    -0.000 C 
BRANCH  14  15
ATOM     15  C   UNL     1     -45.385 -48.440  37.407  1.00  0.00    -0.000 C 
BRANCH  15  16
ATOM     16  C   UNL     1     -44.836 -48.048  38.787  1.00  0.00    -0.000 C 
BRANCH  16  17
ATOM     17  C   UNL     1     -43.327 -48.304  38.870  1.00  0.00    -0.003 C 
ATOM     18  C   UNL     1     -42.909 -49.444  37.947  1.00  0.00     0.004 C 
ENDBRANCH  16  17
ENDBRANCH  15  16
ENDBRANCH  14  15
ENDBRANCH  13  14
ENDBRANCH  12  13
ENDBRANCH  11  12
ENDBRANCH   1  11
TORSDOF 14
ENDMDL
MODEL 9
REMARK VINA RESULT:    -3.471      3.001      5.897
REMARK INTER + INTRA:          -8.765
REMARK INTER:                  -6.960
REMARK INTRA:                  -1.805
REMARK UNBOUND:                -2.454
REMARK SMILES CCCCCCCCCCCCCCCC(=O)[O-]
REMARK SMILES IDX 9 1 10 2 11 3 12 4 13 5 14 6 15 7 16 8 17 9 18 10 8 11 7 12
REMARK SMILES IDX 6 13 5 14 4 15 3 16 2 17 1 18
REMARK H PARENT
REMARK Flexibility Score: inf
ROOT
ATOM      1  C   UNL     1     -43.914 -51.280  36.535  1.00  0.00     0.000 C 
ENDROOT
BRANCH   1   2
ATOM      2  C   UNL     1     -44.726 -51.951  37.653  1.00  0.00     0.000 C 
BRANCH   2   3
ATOM      3  C   UNL     1     -46.236 -51.969  37.359  1.00  0.00     0.000 C 
BRANCH   3   4
ATOM      4  C   UNL     1     -47.052 -51.217  38.425  1.00  0.00     0.000 C 
BRANCH   4   5
ATOM      5  C   UNL     1     -46.364 -51.198  39.802  1.00  0.00     0.000 C 
BRANCH   5   6
ATOM      6  C   UNL     1     -47.291 -50.894  40.993  1.00  0.00     0.006 C 
BRANCH   6   7
ATOM      7  C   UNL     1     -47.303 -52.012  42.043  1.00  0.00     0.053 C 
BRANCH   7   8
ATOM      8  C   UNL     1     -48.270 -53.085  41.651  1.00  0.00     0.041 C 
ATOM      9  O   UNL     1     -49.412 -52.781  41.216  1.00  0.00    -0.550 OA
ATOM     10  O   UNL     1     -47.890 -54.420  41.713  1.00  0.00    -0.550 OA
ENDBRANCH   7   8
ENDBRANCH   6   7
ENDBRANCH   5   6
ENDBRANCH   4   5
ENDBRANCH   3   4
ENDBRANCH   2   3
ENDBRANCH   1   2
BRANCH   1  11
ATOM     11  C   UNL     1     -44.639 -50.035  36.003  1.00  0.00     0.000 C 
BRANCH  11  12
ATOM     12  C   UNL     1     -44.218 -48.747  36.730  1.00  0.00    -0.000 C 
BRANCH  12  13
ATOM     13  C   UNL     1     -45.311 -48.208  37.665  1.00  0.00    -0.000 C 
BRANCH  13  14
ATOM     14  C   UNL     1     -44.760 -47.986  39.081  1.00  0.00    -0.000 C 
BRANCH  14  15
ATOM     15  C   UNL     1     -43.289 -48.412  39.220  1.00  0.00    -0.000 C 
BRANCH  15  16
ATOM     16  C   UNL     1     -42.373 -47.254  39.640  1.00  0.00    -0.000 C 
BRANCH  16  17
ATOM     17  C   UNL     1     -43.170 -46.155  40.352  1.00  0.00    -0.003 C 
ATOM     18  C   UNL     1     -42.281 -44.965  40.698  1.00  0.00     0.004 C 
ENDBRANCH  16  17
ENDBRANCH  15  16
ENDBRANCH  14  15
ENDBRANCH  13  14
ENDBRANCH  12  13
ENDBRANCH  11  12
ENDBRANCH   1  11
TORSDOF 14
ENDMDL
