MODEL 1
REMARK VINA RESULT:    -6.922      0.000      0.000
REMARK INTER + INTRA:          -8.474
REMARK INTER:                  -8.338
REMARK INTRA:                  -0.136
REMARK UNBOUND:                -0.136
REMARK SMILES O=c1c(O)c(-c2ccc(O)c(O)c2)oc2cc(O)cc(O)c12
REMARK SMILES IDX 5 1 3 2 2 3 1 4 22 5 20 6 19 7 17 8 16 9 15 10 14 11 6 12
REMARK SMILES IDX 7 13 8 14 9 15 13 16 11 17 10 18 12 20 4 22 21 24 18 26
REMARK H PARENT 10 19 12 21 4 23 21 25 18 27
REMARK Flexibility Score: inf
ROOT
ATOM      1  C   UNL     1      38.932  -0.669  -2.774  1.00  0.00     0.180 A 
ATOM      2  C   UNL     1      38.751  -1.794  -1.951  1.00  0.00     0.208 A 
ATOM      3  C   UNL     1      38.001  -2.877  -2.435  1.00  0.00     0.238 A 
ATOM      4  O   UNL     1      37.889  -3.904  -1.715  1.00  0.00    -0.285 OA
ATOM      5  C   UNL     1      37.428  -2.816  -3.728  1.00  0.00     0.111 A 
ATOM      6  C   UNL     1      36.616  -3.839  -4.304  1.00  0.00     0.134 A 
ATOM      7  C   UNL     1      36.210  -3.729  -5.640  1.00  0.00     0.093 A 
ATOM      8  C   UNL     1      36.533  -2.602  -6.399  1.00  0.00     0.123 A 
ATOM      9  C   UNL     1      37.275  -1.571  -5.828  1.00  0.00     0.094 A 
ATOM     10  C   UNL     1      37.725  -1.669  -4.509  1.00  0.00     0.146 A 
ATOM     11  O   UNL     1      38.438  -0.669  -4.006  1.00  0.00    -0.452 OA
ENDROOT
BRANCH   1  12
ATOM     12  C   UNL     1      39.689   0.522  -2.325  1.00  0.00     0.025 A 
ATOM     13  C   UNL     1      40.791   0.964  -3.074  1.00  0.00     0.016 A 
ATOM     14  C   UNL     1      41.507   2.097  -2.680  1.00  0.00     0.051 A 
ATOM     15  C   UNL     1      41.122   2.815  -1.540  1.00  0.00     0.157 A 
ATOM     16  C   UNL     1      39.293   1.258  -1.193  1.00  0.00     0.062 A 
ATOM     17  C   UNL     1      40.007   2.395  -0.796  1.00  0.00     0.158 A 
BRANCH  15  18
ATOM     18  O   UNL     1      41.840   3.944  -1.148  1.00  0.00    -0.504 OA
ATOM     19  H   UNL     1      41.924   4.208  -0.175  1.00  0.00     0.293 HD
ENDBRANCH  15  18
BRANCH  17  20
ATOM     20  O   UNL     1      39.590   3.095   0.335  1.00  0.00    -0.504 OA
ATOM     21  H   UNL     1      38.609   3.224   0.556  1.00  0.00     0.293 HD
ENDBRANCH  17  20
ENDBRANCH   1  12
BRANCH   2  22
ATOM     22  O   UNL     1      39.344  -1.843  -0.686  1.00  0.00    -0.502 OA
ATOM     23  H   UNL     1      39.756  -2.689  -0.311  1.00  0.00     0.293 HD
ENDBRANCH   2  22
BRANCH   6  24
ATOM     24  O   UNL     1      36.160  -4.960  -3.604  1.00  0.00    -0.507 OA
ATOM     25  H   UNL     1      35.519  -5.646  -3.972  1.00  0.00     0.293 HD
ENDBRANCH   6  24
BRANCH   8  26
ATOM     26  O   UNL     1      36.112  -2.494  -7.724  1.00  0.00    -0.508 OA
ATOM     27  H   UNL     1      35.137  -2.351  -7.960  1.00  0.00     0.293 HD
ENDBRANCH   8  26
TORSDOF 6
ENDMDL
MODEL 2
REMARK VINA RESULT:    -6.810      3.409      6.477
REMARK INTER + INTRA:          -8.340
REMARK INTER:                  -8.026
REMARK INTRA:                  -0.314
REMARK UNBOUND:                -0.136
REMARK SMILES O=c1c(O)c(-c2ccc(O)c(O)c2)oc2cc(O)cc(O)c12
REMARK SMILES IDX 5 1 3 2 2 3 1 4 22 5 20 6 19 7 17 8 16 9 15 10 14 11 6 12
REMARK SMILES IDX 7 13 8 14 9 15 13 16 11 17 10 18 12 20 4 22 21 24 18 26
REMARK H PARENT 10 19 12 21 4 23 21 25 18 27
REMARK Flexibility Score: inf
ROOT
ATOM      1  C   UNL     1      38.098  -3.325  -2.704  1.00  0.00     0.180 A 
ATOM      2  C   UNL     1      38.461  -4.682  -2.658  1.00  0.00     0.208 A 
ATOM      3  C   UNL     1      39.048  -5.190  -1.488  1.00  0.00     0.238 A 
ATOM      4  O   UNL     1      39.320  -6.418  -1.433  1.00  0.00    -0.285 OA
ATOM      5  C   UNL     1      39.280  -4.332  -0.386  1.00  0.00     0.111 A 
ATOM      6  C   UNL     1      39.904  -4.732   0.834  1.00  0.00     0.134 A 
ATOM      7  C   UNL     1      39.963  -3.832   1.906  1.00  0.00     0.093 A 
ATOM      8  C   UNL     1      39.479  -2.528   1.778  1.00  0.00     0.123 A 
ATOM      9  C   UNL     1      38.922  -2.111   0.573  1.00  0.00     0.094 A 
ATOM     10  C   UNL     1      38.815  -2.997  -0.503  1.00  0.00     0.146 A 
ATOM     11  O   UNL     1      38.268  -2.562  -1.631  1.00  0.00    -0.452 OA
ENDROOT
BRANCH   1  12
ATOM     12  C   UNL     1      37.498  -2.711  -3.910  1.00  0.00     0.025 A 
ATOM     13  C   UNL     1      38.330  -2.089  -4.855  1.00  0.00     0.016 A 
ATOM     14  C   UNL     1      37.787  -1.521  -6.011  1.00  0.00     0.051 A 
ATOM     15  C   UNL     1      36.407  -1.580  -6.247  1.00  0.00     0.157 A 
ATOM     16  C   UNL     1      36.116  -2.786  -4.162  1.00  0.00     0.062 A 
ATOM     17  C   UNL     1      35.569  -2.220  -5.319  1.00  0.00     0.158 A 
BRANCH  15  18
ATOM     18  O   UNL     1      35.869  -1.010  -7.400  1.00  0.00    -0.504 OA
ATOM     19  H   UNL     1      35.157  -0.292  -7.355  1.00  0.00     0.293 HD
ENDBRANCH  15  18
BRANCH  17  20
ATOM     20  O   UNL     1      34.194  -2.309  -5.531  1.00  0.00    -0.504 OA
ATOM     21  H   UNL     1      33.638  -3.065  -5.148  1.00  0.00     0.293 HD
ENDBRANCH  17  20
ENDBRANCH   1  12
BRANCH   2  22
ATOM     22  O   UNL     1      38.203  -5.516  -3.750  1.00  0.00    -0.502 OA
ATOM     23  H   UNL     1      38.519  -5.298  -4.687  1.00  0.00     0.293 HD
ENDBRANCH   2  22
BRANCH   6  24
ATOM     24  O   UNL     1      40.502  -5.979   1.033  1.00  0.00    -0.507 OA
ATOM     25  H   UNL     1      40.297  -6.808   0.496  1.00  0.00     0.293 HD
ENDBRANCH   6  24
BRANCH   8  26
ATOM     26  O   UNL     1      39.557  -1.634   2.846  1.00  0.00    -0.508 OA
ATOM     27  H   UNL     1      40.374  -1.590   3.442  1.00  0.00     0.293 HD
ENDBRANCH   8  26
TORSDOF 6
ENDMDL
MODEL 3
REMARK VINA RESULT:    -6.524      2.304      7.327
REMARK INTER + INTRA:          -7.995
REMARK INTER:                  -7.696
REMARK INTRA:                  -0.299
REMARK UNBOUND:                -0.136
REMARK SMILES O=c1c(O)c(-c2ccc(O)c(O)c2)oc2cc(O)cc(O)c12
REMARK SMILES IDX 5 1 3 2 2 3 1 4 22 5 20 6 19 7 17 8 16 9 15 10 14 11 6 12
REMARK SMILES IDX 7 13 8 14 9 15 13 16 11 17 10 18 12 20 4 22 21 24 18 26
REMARK H PARENT 10 19 12 21 4 23 21 25 18 27
REMARK Flexibility Score: inf
ROOT
ATOM      1  C   UNL     1      39.369   1.282  -2.318  1.00  0.00     0.180 A 
ATOM      2  C   UNL     1      40.667   1.821  -2.307  1.00  0.00     0.208 A 
ATOM      3  C   UNL     1      40.842   3.166  -1.946  1.00  0.00     0.238 A 
ATOM      4  O   UNL     1      42.011   3.628  -1.885  1.00  0.00    -0.285 OA
ATOM      5  C   UNL     1      39.716   3.959  -1.615  1.00  0.00     0.111 A 
ATOM      6  C   UNL     1      39.773   5.344  -1.272  1.00  0.00     0.134 A 
ATOM      7  C   UNL     1      38.613   5.995  -0.836  1.00  0.00     0.093 A 
ATOM      8  C   UNL     1      37.386   5.329  -0.793  1.00  0.00     0.123 A 
ATOM      9  C   UNL     1      37.309   3.994  -1.181  1.00  0.00     0.094 A 
ATOM     10  C   UNL     1      38.457   3.307  -1.587  1.00  0.00     0.146 A 
ATOM     11  O   UNL     1      38.341   2.033  -1.939  1.00  0.00    -0.452 OA
ENDROOT
BRANCH   1  12
ATOM     12  C   UNL     1      39.101  -0.120  -2.713  1.00  0.00     0.025 A 
ATOM     13  C   UNL     1      39.271  -1.148  -1.771  1.00  0.00     0.016 A 
ATOM     14  C   UNL     1      39.005  -2.475  -2.115  1.00  0.00     0.051 A 
ATOM     15  C   UNL     1      38.550  -2.794  -3.402  1.00  0.00     0.157 A 
ATOM     16  C   UNL     1      38.625  -0.442  -3.997  1.00  0.00     0.062 A 
ATOM     17  C   UNL     1      38.355  -1.771  -4.345  1.00  0.00     0.158 A 
BRANCH  15  18
ATOM     18  O   UNL     1      38.287  -4.120  -3.743  1.00  0.00    -0.504 OA
ATOM     19  H   UNL     1      38.123  -4.826  -3.037  1.00  0.00     0.293 HD
ENDBRANCH  15  18
BRANCH  17  20
ATOM     20  O   UNL     1      37.890  -2.053  -5.628  1.00  0.00    -0.504 OA
ATOM     21  H   UNL     1      37.185  -2.760  -5.802  1.00  0.00     0.293 HD
ENDBRANCH  17  20
ENDBRANCH   1  12
BRANCH   2  22
ATOM     22  O   UNL     1      41.766   1.015  -2.617  1.00  0.00    -0.502 OA
ATOM     23  H   UNL     1      41.810   0.035  -2.361  1.00  0.00     0.293 HD
ENDBRANCH   2  22
BRANCH   6  24
ATOM     24  O   UNL     1      40.928   6.125  -1.370  1.00  0.00    -0.507 OA
ATOM     25  H   UNL     1      41.105   6.960  -0.833  1.00  0.00     0.293 HD
ENDBRANCH   6  24
BRANCH   8  26
ATOM     26  O   UNL     1      36.234   5.990  -0.372  1.00  0.00    -0.508 OA
ATOM     27  H   UNL     1      36.153   6.372   0.563  1.00  0.00     0.293 HD
ENDBRANCH   8  26
TORSDOF 6
ENDMDL
MODEL 4
REMARK VINA RESULT:    -6.487      3.053      8.453
REMARK INTER + INTRA:          -7.951
REMARK INTER:                  -7.626
REMARK INTRA:                  -0.325
REMARK UNBOUND:                -0.136
REMARK SMILES O=c1c(O)c(-c2ccc(O)c(O)c2)oc2cc(O)cc(O)c12
REMARK SMILES IDX 5 1 3 2 2 3 1 4 22 5 20 6 19 7 17 8 16 9 15 10 14 11 6 12
REMARK SMILES IDX 7 13 8 14 9 15 13 16 11 17 10 18 12 20 4 22 21 24 18 26
REMARK H PARENT 10 19 12 21 4 23 21 25 18 27
REMARK Flexibility Score: inf
ROOT
ATOM      1  C   UNL     1      35.845  -4.867  -3.682  1.00  0.00     0.180 A 
ATOM      2  C   UNL     1      36.227  -4.063  -4.770  1.00  0.00     0.208 A 
ATOM      3  C   UNL     1      37.140  -3.019  -4.557  1.00  0.00     0.238 A 
ATOM      4  O   UNL     1      37.519  -2.337  -5.545  1.00  0.00    -0.285 OA
ATOM      5  C   UNL     1      37.648  -2.781  -3.257  1.00  0.00     0.111 A 
ATOM      6  C   UNL     1      38.548  -1.726  -2.920  1.00  0.00     0.134 A 
ATOM      7  C   UNL     1      39.088  -1.665  -1.629  1.00  0.00     0.093 A 
ATOM      8  C   UNL     1      38.709  -2.582  -0.646  1.00  0.00     0.123 A 
ATOM      9  C   UNL     1      37.786  -3.580  -0.949  1.00  0.00     0.094 A 
ATOM     10  C   UNL     1      37.258  -3.689  -2.239  1.00  0.00     0.146 A 
ATOM     11  O   UNL     1      36.390  -4.660  -2.489  1.00  0.00    -0.452 OA
ENDROOT
BRANCH   1  12
ATOM     12  C   UNL     1      34.868  -5.971  -3.822  1.00  0.00     0.025 A 
ATOM     13  C   UNL     1      35.330  -7.291  -3.951  1.00  0.00     0.016 A 
ATOM     14  C   UNL     1      34.425  -8.349  -4.064  1.00  0.00     0.051 A 
ATOM     15  C   UNL     1      33.045  -8.107  -4.034  1.00  0.00     0.157 A 
ATOM     16  C   UNL     1      33.482  -5.734  -3.771  1.00  0.00     0.062 A 
ATOM     17  C   UNL     1      32.573  -6.793  -3.882  1.00  0.00     0.158 A 
BRANCH  15  18
ATOM     18  O   UNL     1      32.146  -9.165  -4.149  1.00  0.00    -0.504 OA
ATOM     19  H   UNL     1      31.767  -9.444  -5.045  1.00  0.00     0.293 HD
ENDBRANCH  15  18
BRANCH  17  20
ATOM     20  O   UNL     1      31.207  -6.519  -3.833  1.00  0.00    -0.504 OA
ATOM     21  H   UNL     1      30.827  -5.625  -4.121  1.00  0.00     0.293 HD
ENDBRANCH  17  20
ENDBRANCH   1  12
BRANCH   2  22
ATOM     22  O   UNL     1      35.729  -4.329  -6.049  1.00  0.00    -0.502 OA
ATOM     23  H   UNL     1      34.746  -4.248  -6.278  1.00  0.00     0.293 HD
ENDBRANCH   2  22
BRANCH   6  24
ATOM     24  O   UNL     1      38.918  -0.704  -3.799  1.00  0.00    -0.507 OA
ATOM     25  H   UNL     1      39.731  -0.726  -4.397  1.00  0.00     0.293 HD
ENDBRANCH   6  24
BRANCH   8  26
ATOM     26  O   UNL     1      39.239  -2.504   0.640  1.00  0.00    -0.508 OA
ATOM     27  H   UNL     1      38.650  -2.569   1.462  1.00  0.00     0.293 HD
ENDBRANCH   8  26
TORSDOF 6
ENDMDL
MODEL 5
REMARK VINA RESULT:    -6.380      4.929      6.375
REMARK INTER + INTRA:          -7.821
REMARK INTER:                  -7.604
REMARK INTRA:                  -0.217
REMARK UNBOUND:                -0.136
REMARK SMILES O=c1c(O)c(-c2ccc(O)c(O)c2)oc2cc(O)cc(O)c12
REMARK SMILES IDX 5 1 3 2 2 3 1 4 22 5 20 6 19 7 17 8 16 9 15 10 14 11 6 12
REMARK SMILES IDX 7 13 8 14 9 15 13 16 11 17 10 18 12 20 4 22 21 24 18 26
REMARK H PARENT 10 19 12 21 4 23 21 25 18 27
REMARK Flexibility Score: inf
ROOT
ATOM      1  C   UNL     1      35.918  -4.109  -4.673  1.00  0.00     0.180 A 
ATOM      2  C   UNL     1      37.129  -4.470  -4.056  1.00  0.00     0.208 A 
ATOM      3  C   UNL     1      37.217  -5.710  -3.402  1.00  0.00     0.238 A 
ATOM      4  O   UNL     1      38.319  -6.050  -2.899  1.00  0.00    -0.285 OA
ATOM      5  C   UNL     1      36.090  -6.565  -3.360  1.00  0.00     0.111 A 
ATOM      6  C   UNL     1      36.055  -7.826  -2.692  1.00  0.00     0.134 A 
ATOM      7  C   UNL     1      34.928  -8.648  -2.826  1.00  0.00     0.093 A 
ATOM      8  C   UNL     1      33.811  -8.225  -3.550  1.00  0.00     0.123 A 
ATOM      9  C   UNL     1      33.813  -6.971  -4.157  1.00  0.00     0.094 A 
ATOM     10  C   UNL     1      34.937  -6.144  -4.071  1.00  0.00     0.146 A 
ATOM     11  O   UNL     1      34.901  -4.962  -4.672  1.00  0.00    -0.452 OA
ENDROOT
BRANCH   1  12
ATOM     12  C   UNL     1      35.741  -2.809  -5.359  1.00  0.00     0.025 A 
ATOM     13  C   UNL     1      34.953  -1.813  -4.759  1.00  0.00     0.016 A 
ATOM     14  C   UNL     1      34.789  -0.572  -5.378  1.00  0.00     0.051 A 
ATOM     15  C   UNL     1      35.422  -0.301  -6.599  1.00  0.00     0.157 A 
ATOM     16  C   UNL     1      36.392  -2.526  -6.573  1.00  0.00     0.062 A 
ATOM     17  C   UNL     1      36.231  -1.282  -7.196  1.00  0.00     0.158 A 
BRANCH  15  18
ATOM     18  O   UNL     1      35.254   0.938  -7.215  1.00  0.00    -0.504 OA
ATOM     19  H   UNL     1      35.696   1.155  -8.099  1.00  0.00     0.293 HD
ENDBRANCH  15  18
BRANCH  17  20
ATOM     20  O   UNL     1      36.886  -1.040  -8.402  1.00  0.00    -0.504 OA
ATOM     21  H   UNL     1      37.131  -1.787  -9.041  1.00  0.00     0.293 HD
ENDBRANCH  17  20
ENDBRANCH   1  12
BRANCH   2  22
ATOM     22  O   UNL     1      38.236  -3.619  -4.128  1.00  0.00    -0.502 OA
ATOM     23  H   UNL     1      38.317  -2.891  -4.828  1.00  0.00     0.293 HD
ENDBRANCH   2  22
BRANCH   6  24
ATOM     24  O   UNL     1      37.079  -8.302  -1.868  1.00  0.00    -0.507 OA
ATOM     25  H   UNL     1      38.049  -8.035  -1.944  1.00  0.00     0.293 HD
ENDBRANCH   6  24
BRANCH   8  26
ATOM     26  O   UNL     1      32.688  -9.043  -3.666  1.00  0.00    -0.508 OA
ATOM     27  H   UNL     1      32.576  -9.683  -4.443  1.00  0.00     0.293 HD
ENDBRANCH   8  26
TORSDOF 6
ENDMDL
MODEL 6
REMARK VINA RESULT:    -6.358      3.503      4.876
REMARK INTER + INTRA:          -7.796
REMARK INTER:                  -7.511
REMARK INTRA:                  -0.285
REMARK UNBOUND:                -0.136
REMARK SMILES O=c1c(O)c(-c2ccc(O)c(O)c2)oc2cc(O)cc(O)c12
REMARK SMILES IDX 5 1 3 2 2 3 1 4 22 5 20 6 19 7 17 8 16 9 15 10 14 11 6 12
REMARK SMILES IDX 7 13 8 14 9 15 13 16 11 17 10 18 12 20 4 22 21 24 18 26
REMARK H PARENT 10 19 12 21 4 23 21 25 18 27
REMARK Flexibility Score: inf
ROOT
ATOM      1  C   UNL     1      38.222  -3.634  -1.161  1.00  0.00     0.180 A 
ATOM      2  C   UNL     1      38.735  -3.026  -2.319  1.00  0.00     0.208 A 
ATOM      3  C   UNL     1      37.999  -3.102  -3.512  1.00  0.00     0.238 A 
ATOM      4  O   UNL     1      38.438  -2.509  -4.532  1.00  0.00    -0.285 OA
ATOM      5  C   UNL     1      36.766  -3.799  -3.536  1.00  0.00     0.111 A 
ATOM      6  C   UNL     1      35.957  -3.973  -4.698  1.00  0.00     0.134 A 
ATOM      7  C   UNL     1      34.694  -4.567  -4.577  1.00  0.00     0.093 A 
ATOM      8  C   UNL     1      34.241  -5.052  -3.348  1.00  0.00     0.123 A 
ATOM      9  C   UNL     1      35.049  -4.939  -2.220  1.00  0.00     0.094 A 
ATOM     10  C   UNL     1      36.299  -4.318  -2.301  1.00  0.00     0.146 A 
ATOM     11  O   UNL     1      37.032  -4.223  -1.200  1.00  0.00    -0.452 OA
ENDROOT
BRANCH   1  12
ATOM     12  C   UNL     1      38.952  -3.618   0.127  1.00  0.00     0.025 A 
ATOM     13  C   UNL     1      39.698  -4.743   0.513  1.00  0.00     0.016 A 
ATOM     14  C   UNL     1      40.411  -4.742   1.714  1.00  0.00     0.051 A 
ATOM     15  C   UNL     1      40.402  -3.611   2.541  1.00  0.00     0.157 A 
ATOM     16  C   UNL     1      38.962  -2.477   0.950  1.00  0.00     0.062 A 
ATOM     17  C   UNL     1      39.677  -2.472   2.153  1.00  0.00     0.158 A 
BRANCH  15  18
ATOM     18  O   UNL     1      41.113  -3.614   3.740  1.00  0.00    -0.504 OA
ATOM     19  H   UNL     1      40.690  -3.312   4.608  1.00  0.00     0.293 HD
ENDBRANCH  15  18
BRANCH  17  20
ATOM     20  O   UNL     1      39.659  -1.325   2.946  1.00  0.00    -0.504 OA
ATOM     21  H   UNL     1      38.902  -1.129   3.592  1.00  0.00     0.293 HD
ENDBRANCH  17  20
ENDBRANCH   1  12
BRANCH   2  22
ATOM     22  O   UNL     1      39.944  -2.325  -2.268  1.00  0.00    -0.502 OA
ATOM     23  H   UNL     1      40.244  -1.818  -1.444  1.00  0.00     0.293 HD
ENDBRANCH   2  22
BRANCH   6  24
ATOM     24  O   UNL     1      36.354  -3.609  -5.988  1.00  0.00    -0.507 OA
ATOM     25  H   UNL     1      35.737  -3.538  -6.782  1.00  0.00     0.293 HD
ENDBRANCH   6  24
BRANCH   8  26
ATOM     26  O   UNL     1      32.990  -5.655  -3.241  1.00  0.00    -0.508 OA
ATOM     27  H   UNL     1      32.298  -5.577  -3.977  1.00  0.00     0.293 HD
ENDBRANCH   8  26
TORSDOF 6
ENDMDL
MODEL 7
REMARK VINA RESULT:    -6.341     13.284     15.259
REMARK INTER + INTRA:          -7.774
REMARK INTER:                  -7.540
REMARK INTRA:                  -0.234
REMARK UNBOUND:                -0.136
REMARK SMILES O=c1c(O)c(-c2ccc(O)c(O)c2)oc2cc(O)cc(O)c12
REMARK SMILES IDX 5 1 3 2 2 3 1 4 22 5 20 6 19 7 17 8 16 9 15 10 14 11 6 12
REMARK SMILES IDX 7 13 8 14 9 15 13 16 11 17 10 18 12 20 4 22 21 24 18 26
REMARK H PARENT 10 19 12 21 4 23 21 25 18 27
REMARK Flexibility Score: inf
ROOT
ATOM      1  C   UNL     1      29.087  -9.123   4.615  1.00  0.00     0.180 A 
ATOM      2  C   UNL     1      28.256 -10.228   4.361  1.00  0.00     0.208 A 
ATOM      3  C   UNL     1      28.822 -11.512   4.332  1.00  0.00     0.238 A 
ATOM      4  O   UNL     1      28.064 -12.503   4.158  1.00  0.00    -0.285 OA
ATOM      5  C   UNL     1      30.213 -11.674   4.541  1.00  0.00     0.111 A 
ATOM      6  C   UNL     1      30.898 -12.925   4.494  1.00  0.00     0.134 A 
ATOM      7  C   UNL     1      32.253 -12.984   4.846  1.00  0.00     0.093 A 
ATOM      8  C   UNL     1      32.961 -11.826   5.178  1.00  0.00     0.123 A 
ATOM      9  C   UNL     1      32.315 -10.593   5.170  1.00  0.00     0.094 A 
ATOM     10  C   UNL     1      30.955 -10.508   4.859  1.00  0.00     0.146 A 
ATOM     11  O   UNL     1      30.375  -9.314   4.872  1.00  0.00    -0.452 OA
ENDROOT
BRANCH   1  12
ATOM     12  C   UNL     1      28.568  -7.736   4.636  1.00  0.00     0.025 A 
ATOM     13  C   UNL     1      27.799  -7.302   5.728  1.00  0.00     0.016 A 
ATOM     14  C   UNL     1      27.317  -5.992   5.778  1.00  0.00     0.051 A 
ATOM     15  C   UNL     1      27.610  -5.091   4.746  1.00  0.00     0.157 A 
ATOM     16  C   UNL     1      28.878  -6.822   3.612  1.00  0.00     0.062 A 
ATOM     17  C   UNL     1      28.398  -5.508   3.661  1.00  0.00     0.158 A 
BRANCH  15  18
ATOM     18  O   UNL     1      27.125  -3.784   4.799  1.00  0.00    -0.504 OA
ATOM     19  H   UNL     1      26.134  -3.584   4.761  1.00  0.00     0.293 HD
ENDBRANCH  15  18
BRANCH  17  20
ATOM     20  O   UNL     1      28.720  -4.632   2.625  1.00  0.00    -0.504 OA
ATOM     21  H   UNL     1      28.008  -4.158   2.080  1.00  0.00     0.293 HD
ENDBRANCH  17  20
ENDBRANCH   1  12
BRANCH   2  22
ATOM     22  O   UNL     1      26.882 -10.047   4.179  1.00  0.00    -0.502 OA
ATOM     23  H   UNL     1      26.490  -9.687   3.317  1.00  0.00     0.293 HD
ENDBRANCH   2  22
BRANCH   6  24
ATOM     24  O   UNL     1      30.308 -14.124   4.085  1.00  0.00    -0.507 OA
ATOM     25  H   UNL     1      30.060 -14.348   3.133  1.00  0.00     0.293 HD
ENDBRANCH   6  24
BRANCH   8  26
ATOM     26  O   UNL     1      34.312 -11.892   5.512  1.00  0.00    -0.508 OA
ATOM     27  H   UNL     1      34.885 -11.059   5.572  1.00  0.00     0.293 HD
ENDBRANCH   8  26
TORSDOF 6
ENDMDL
MODEL 8
REMARK VINA RESULT:    -6.216      4.669      8.142
REMARK INTER + INTRA:          -7.624
REMARK INTER:                  -7.304
REMARK INTRA:                  -0.320
REMARK UNBOUND:                -0.136
REMARK SMILES O=c1c(O)c(-c2ccc(O)c(O)c2)oc2cc(O)cc(O)c12
REMARK SMILES IDX 5 1 3 2 2 3 1 4 22 5 20 6 19 7 17 8 16 9 15 10 14 11 6 12
REMARK SMILES IDX 7 13 8 14 9 15 13 16 11 17 10 18 12 20 4 22 21 24 18 26
REMARK H PARENT 10 19 12 21 4 23 21 25 18 27
REMARK Flexibility Score: inf
ROOT
ATOM      1  C   UNL     1      39.390  -3.902   0.665  1.00  0.00     0.180 A 
ATOM      2  C   UNL     1      40.126  -5.050   1.010  1.00  0.00     0.208 A 
ATOM      3  C   UNL     1      40.789  -5.088   2.247  1.00  0.00     0.238 A 
ATOM      4  O   UNL     1      41.400  -6.139   2.572  1.00  0.00    -0.285 OA
ATOM      5  C   UNL     1      40.722  -3.972   3.116  1.00  0.00     0.111 A 
ATOM      6  C   UNL     1      41.387  -3.887   4.376  1.00  0.00     0.134 A 
ATOM      7  C   UNL     1      41.144  -2.790   5.212  1.00  0.00     0.093 A 
ATOM      8  C   UNL     1      40.312  -1.745   4.804  1.00  0.00     0.123 A 
ATOM      9  C   UNL     1      39.704  -1.791   3.552  1.00  0.00     0.094 A 
ATOM     10  C   UNL     1      39.898  -2.891   2.711  1.00  0.00     0.146 A 
ATOM     11  O   UNL     1      39.293  -2.900   1.531  1.00  0.00    -0.452 OA
ENDROOT
BRANCH   1  12
ATOM     12  C   UNL     1      38.686  -3.778  -0.631  1.00  0.00     0.025 A 
ATOM     13  C   UNL     1      37.301  -3.996  -0.689  1.00  0.00     0.016 A 
ATOM     14  C   UNL     1      36.613  -3.864  -1.897  1.00  0.00     0.051 A 
ATOM     15  C   UNL     1      37.296  -3.495  -3.064  1.00  0.00     0.157 A 
ATOM     16  C   UNL     1      39.365  -3.387  -1.800  1.00  0.00     0.062 A 
ATOM     17  C   UNL     1      38.679  -3.251  -3.012  1.00  0.00     0.158 A 
BRANCH  15  18
ATOM     18  O   UNL     1      36.607  -3.366  -4.268  1.00  0.00    -0.504 OA
ATOM     19  H   UNL     1      37.027  -3.629  -5.151  1.00  0.00     0.293 HD
ENDBRANCH  15  18
BRANCH  17  20
ATOM     20  O   UNL     1      39.386  -2.869  -4.151  1.00  0.00    -0.504 OA
ATOM     21  H   UNL     1      40.399  -2.832  -4.168  1.00  0.00     0.293 HD
ENDBRANCH  17  20
ENDBRANCH   1  12
BRANCH   2  22
ATOM     22  O   UNL     1      40.161  -6.148   0.145  1.00  0.00    -0.502 OA
ATOM     23  H   UNL     1      40.837  -6.228  -0.605  1.00  0.00     0.293 HD
ENDBRANCH   2  22
BRANCH   6  24
ATOM     24  O   UNL     1      42.310  -4.830   4.837  1.00  0.00    -0.507 OA
ATOM     25  H   UNL     1      42.211  -5.829   4.737  1.00  0.00     0.293 HD
ENDBRANCH   6  24
BRANCH   8  26
ATOM     26  O   UNL     1      40.088  -0.649   5.637  1.00  0.00    -0.508 OA
ATOM     27  H   UNL     1      39.473  -0.710   6.440  1.00  0.00     0.293 HD
ENDBRANCH   8  26
TORSDOF 6
ENDMDL
MODEL 9
REMARK VINA RESULT:    -6.204      5.011      6.536
REMARK INTER + INTRA:          -7.610
REMARK INTER:                  -7.296
REMARK INTRA:                  -0.314
REMARK UNBOUND:                -0.136
REMARK SMILES O=c1c(O)c(-c2ccc(O)c(O)c2)oc2cc(O)cc(O)c12
REMARK SMILES IDX 5 1 3 2 2 3 1 4 22 5 20 6 19 7 17 8 16 9 15 10 14 11 6 12
REMARK SMILES IDX 7 13 8 14 9 15 13 16 11 17 10 18 12 20 4 22 21 24 18 26
REMARK H PARENT 10 19 12 21 4 23 21 25 18 27
REMARK Flexibility Score: inf
ROOT
ATOM      1  C   UNL     1      36.041  -4.023  -4.393  1.00  0.00     0.180 A 
ATOM      2  C   UNL     1      35.216  -5.157  -4.487  1.00  0.00     0.208 A 
ATOM      3  C   UNL     1      35.566  -6.315  -3.774  1.00  0.00     0.238 A 
ATOM      4  O   UNL     1      34.794  -7.309  -3.819  1.00  0.00    -0.285 OA
ATOM      5  C   UNL     1      36.745  -6.330  -2.990  1.00  0.00     0.111 A 
ATOM      6  C   UNL     1      37.216  -7.461  -2.258  1.00  0.00     0.134 A 
ATOM      7  C   UNL     1      38.324  -7.323  -1.411  1.00  0.00     0.093 A 
ATOM      8  C   UNL     1      39.015  -6.112  -1.322  1.00  0.00     0.123 A 
ATOM      9  C   UNL     1      38.597  -5.019  -2.077  1.00  0.00     0.094 A 
ATOM     10  C   UNL     1      37.474  -5.116  -2.903  1.00  0.00     0.146 A 
ATOM     11  O   UNL     1      37.104  -4.048  -3.598  1.00  0.00    -0.452 OA
ENDROOT
BRANCH   1  12
ATOM     12  C   UNL     1      35.752  -2.775  -5.135  1.00  0.00     0.025 A 
ATOM     13  C   UNL     1      34.883  -1.825  -4.576  1.00  0.00     0.016 A 
ATOM     14  C   UNL     1      34.612  -0.631  -5.249  1.00  0.00     0.051 A 
ATOM     15  C   UNL     1      35.218  -0.362  -6.484  1.00  0.00     0.157 A 
ATOM     16  C   UNL     1      36.375  -2.492  -6.365  1.00  0.00     0.062 A 
ATOM     17  C   UNL     1      36.107  -1.296  -7.041  1.00  0.00     0.158 A 
BRANCH  15  18
ATOM     18  O   UNL     1      34.944   0.830  -7.153  1.00  0.00    -0.504 OA
ATOM     19  H   UNL     1      34.832   0.860  -8.159  1.00  0.00     0.293 HD
ENDBRANCH  15  18
BRANCH  17  20
ATOM     20  O   UNL     1      36.738  -1.052  -8.260  1.00  0.00    -0.504 OA
ATOM     21  H   UNL     1      37.063  -0.128  -8.523  1.00  0.00     0.293 HD
ENDBRANCH  17  20
ENDBRANCH   1  12
BRANCH   2  22
ATOM     22  O   UNL     1      34.046  -5.114  -5.250  1.00  0.00    -0.502 OA
ATOM     23  H   UNL     1      34.038  -4.809  -6.216  1.00  0.00     0.293 HD
ENDBRANCH   2  22
BRANCH   6  24
ATOM     24  O   UNL     1      36.656  -8.738  -2.348  1.00  0.00    -0.507 OA
ATOM     25  H   UNL     1      37.057  -9.572  -1.948  1.00  0.00     0.293 HD
ENDBRANCH   6  24
BRANCH   8  26
ATOM     26  O   UNL     1      40.125  -5.988  -0.488  1.00  0.00    -0.508 OA
ATOM     27  H   UNL     1      40.228  -5.204   0.145  1.00  0.00     0.293 HD
ENDBRANCH   8  26
TORSDOF 6
ENDMDL
