MODEL 1
REMARK VINA RESULT:    -5.512      0.000      0.000
REMARK INTER + INTRA:         -13.370
REMARK INTER:                 -10.667
REMARK INTRA:                  -2.703
REMARK UNBOUND:                -2.703
REMARK SMILES CCCCCCCCCCCCCCCCCC(=O)[O-]
REMARK SMILES IDX 10 1 11 2 12 3 13 4 14 5 15 6 16 7 17 8 18 9 19 10 20 11
REMARK SMILES IDX 9 12 8 13 7 14 6 15 5 16 4 17 3 18 2 19 1 20
REMARK H PARENT
REMARK Flexibility Score: inf
ROOT
ATOM      1  C   UNL     1       8.320  23.743  43.750  1.00  0.00     0.000 C 
ENDROOT
BRANCH   1   2
ATOM      2  C   UNL     1       7.841  23.723  45.206  1.00  0.00     0.000 C 
BRANCH   2   3
ATOM      3  C   UNL     1       8.226  22.404  45.894  1.00  0.00     0.000 C 
BRANCH   3   4
ATOM      4  C   UNL     1       9.323  21.644  45.133  1.00  0.00     0.000 C 
BRANCH   4   5
ATOM      5  C   UNL     1       9.318  20.136  45.437  1.00  0.00     0.000 C 
BRANCH   5   6
ATOM      6  C   UNL     1       9.725  19.293  44.209  1.00  0.00     0.000 C 
BRANCH   6   7
ATOM      7  C   UNL     1      10.439  17.981  44.573  1.00  0.00     0.006 C 
BRANCH   7   8
ATOM      8  C   UNL     1      11.530  18.171  45.633  1.00  0.00     0.053 C 
BRANCH   8   9
ATOM      9  C   UNL     1      12.534  17.063  45.554  1.00  0.00     0.041 C 
ATOM     10  O   UNL     1      13.603  17.128  46.216  1.00  0.00    -0.550 OA
ATOM     11  O   UNL     1      12.267  15.937  44.786  1.00  0.00    -0.550 OA
ENDBRANCH   8   9
ENDBRANCH   7   8
ENDBRANCH   6   7
ENDBRANCH   5   6
ENDBRANCH   4   5
ENDBRANCH   3   4
ENDBRANCH   2   3
ENDBRANCH   1   2
BRANCH   1  12
ATOM     12  C   UNL     1       7.137  23.600  42.780  1.00  0.00     0.000 C 
BRANCH  12  13
ATOM     13  C   UNL     1       7.296  22.407  41.825  1.00  0.00    -0.000 C 
BRANCH  13  14
ATOM     14  C   UNL     1       6.174  21.369  41.982  1.00  0.00    -0.000 C 
BRANCH  14  15
ATOM     15  C   UNL     1       6.593  20.249  42.943  1.00  0.00    -0.000 C 
BRANCH  15  16
ATOM     16  C   UNL     1       5.756  20.285  44.229  1.00  0.00    -0.000 C 
BRANCH  16  17
ATOM     17  C   UNL     1       4.485  21.137  44.084  1.00  0.00    -0.000 C 
BRANCH  17  18
ATOM     18  C   UNL     1       4.438  22.307  45.082  1.00  0.00    -0.000 C 
BRANCH  18  19
ATOM     19  C   UNL     1       3.681  23.523  44.529  1.00  0.00    -0.003 C 
ATOM     20  C   UNL     1       4.344  24.849  44.898  1.00  0.00     0.004 C 
ENDBRANCH  18  19
ENDBRANCH  17  18
ENDBRANCH  16  17
ENDBRANCH  15  16
ENDBRANCH  14  15
ENDBRANCH  13  14
ENDBRANCH  12  13
ENDBRANCH   1  12
TORSDOF 16
ENDMDL
MODEL 2
REMARK VINA RESULT:    -5.403      6.329      9.147
REMARK INTER + INTRA:         -13.160
REMARK INTER:                 -10.836
REMARK INTRA:                  -2.325
REMARK UNBOUND:                -2.703
REMARK SMILES CCCCCCCCCCCCCCCCCC(=O)[O-]
REMARK SMILES IDX 10 1 11 2 12 3 13 4 14 5 15 6 16 7 17 8 18 9 19 10 20 11
REMARK SMILES IDX 9 12 8 13 7 14 6 15 5 16 4 17 3 18 2 19 1 20
REMARK H PARENT
REMARK Flexibility Score: inf
ROOT
ATOM      1  C   UNL     1       5.560  23.322  42.254  1.00  0.00     0.000 C 
ENDROOT
BRANCH   1   2
ATOM      2  C   UNL     1       6.275  24.271  43.224  1.00  0.00     0.000 C 
BRANCH   2   3
ATOM      3  C   UNL     1       5.292  25.284  43.829  1.00  0.00     0.000 C 
BRANCH   3   4
ATOM      4  C   UNL     1       4.235  24.614  44.722  1.00  0.00     0.000 C 
BRANCH   4   5
ATOM      5  C   UNL     1       2.804  24.805  44.189  1.00  0.00     0.000 C 
BRANCH   5   6
ATOM      6  C   UNL     1       2.679  26.059  43.297  1.00  0.00     0.000 C 
BRANCH   6   7
ATOM      7  C   UNL     1       1.489  26.960  43.667  1.00  0.00     0.006 C 
BRANCH   7   8
ATOM      8  C   UNL     1       1.326  28.152  42.718  1.00  0.00     0.053 C 
BRANCH   8   9
ATOM      9  C   UNL     1      -0.106  28.301  42.308  1.00  0.00     0.041 C 
ATOM     10  O   UNL     1      -0.410  28.398  41.090  1.00  0.00    -0.550 OA
ATOM     11  O   UNL     1      -1.109  28.284  43.269  1.00  0.00    -0.550 OA
ENDBRANCH   8   9
ENDBRANCH   7   8
ENDBRANCH   6   7
ENDBRANCH   5   6
ENDBRANCH   4   5
ENDBRANCH   3   4
ENDBRANCH   2   3
ENDBRANCH   1   2
BRANCH   1  12
ATOM     12  C   UNL     1       6.447  22.116  41.912  1.00  0.00     0.000 C 
BRANCH  12  13
ATOM     13  C   UNL     1       5.772  20.774  42.238  1.00  0.00    -0.000 C 
BRANCH  13  14
ATOM     14  C   UNL     1       5.869  20.409  43.728  1.00  0.00    -0.000 C 
BRANCH  14  15
ATOM     15  C   UNL     1       4.527  20.628  44.436  1.00  0.00    -0.000 C 
BRANCH  15  16
ATOM     16  C   UNL     1       4.738  21.056  45.896  1.00  0.00    -0.000 C 
BRANCH  16  17
ATOM     17  C   UNL     1       6.221  21.261  46.243  1.00  0.00    -0.000 C 
BRANCH  17  18
ATOM     18  C   UNL     1       6.546  22.718  46.617  1.00  0.00    -0.000 C 
BRANCH  18  19
ATOM     19  C   UNL     1       7.992  23.106  46.273  1.00  0.00    -0.003 C 
ATOM     20  C   UNL     1       8.584  22.244  45.158  1.00  0.00     0.004 C 
ENDBRANCH  18  19
ENDBRANCH  17  18
ENDBRANCH  16  17
ENDBRANCH  15  16
ENDBRANCH  14  15
ENDBRANCH  13  14
ENDBRANCH  12  13
ENDBRANCH   1  12
TORSDOF 16
ENDMDL
MODEL 3
REMARK VINA RESULT:    -5.396      1.389      2.594
REMARK INTER + INTRA:         -13.146
REMARK INTER:                 -10.839
REMARK INTRA:                  -2.308
REMARK UNBOUND:                -2.703
REMARK SMILES CCCCCCCCCCCCCCCCCC(=O)[O-]
REMARK SMILES IDX 10 1 11 2 12 3 13 4 14 5 15 6 16 7 17 8 18 9 19 10 20 11
REMARK SMILES IDX 9 12 8 13 7 14 6 15 5 16 4 17 3 18 2 19 1 20
REMARK H PARENT
REMARK Flexibility Score: inf
ROOT
ATOM      1  C   UNL     1       8.049  22.245  45.904  1.00  0.00     0.000 C 
ENDROOT
BRANCH   1   2
ATOM      2  C   UNL     1       8.736  20.875  45.863  1.00  0.00     0.000 C 
BRANCH   2   3
ATOM      3  C   UNL     1       9.794  20.823  44.750  1.00  0.00     0.000 C 
BRANCH   3   4
ATOM      4  C   UNL     1       9.532  19.689  43.746  1.00  0.00     0.000 C 
BRANCH   4   5
ATOM      5  C   UNL     1       9.809  18.297  44.340  1.00  0.00     0.000 C 
BRANCH   5   6
ATOM      6  C   UNL     1      11.101  18.273  45.185  1.00  0.00     0.000 C 
BRANCH   6   7
ATOM      7  C   UNL     1      11.848  16.929  45.127  1.00  0.00     0.006 C 
BRANCH   7   8
ATOM      8  C   UNL     1      13.219  16.979  45.810  1.00  0.00     0.053 C 
BRANCH   8   9
ATOM      9  C   UNL     1      13.247  16.061  46.992  1.00  0.00     0.041 C 
ATOM     10  O   UNL     1      12.596  16.347  48.032  1.00  0.00    -0.550 OA
ATOM     11  O   UNL     1      13.954  14.867  46.929  1.00  0.00    -0.550 OA
ENDBRANCH   8   9
ENDBRANCH   7   8
ENDBRANCH   6   7
ENDBRANCH   5   6
ENDBRANCH   4   5
ENDBRANCH   3   4
ENDBRANCH   2   3
ENDBRANCH   1   2
BRANCH   1  12
ATOM     12  C   UNL     1       8.738  23.234  44.951  1.00  0.00     0.000 C 
BRANCH  12  13
ATOM     13  C   UNL     1       7.744  23.960  44.032  1.00  0.00    -0.000 C 
BRANCH  13  14
ATOM     14  C   UNL     1       8.126  23.857  42.547  1.00  0.00    -0.000 C 
BRANCH  14  15
ATOM     15  C   UNL     1       7.832  22.454  42.001  1.00  0.00    -0.000 C 
BRANCH  15  16
ATOM     16  C   UNL     1       6.365  22.066  42.242  1.00  0.00    -0.000 C 
BRANCH  16  17
ATOM     17  C   UNL     1       6.176  20.552  42.419  1.00  0.00    -0.000 C 
BRANCH  17  18
ATOM     18  C   UNL     1       5.787  20.167  43.857  1.00  0.00    -0.000 C 
BRANCH  18  19
ATOM     19  C   UNL     1       4.442  20.772  44.285  1.00  0.00    -0.003 C 
ATOM     20  C   UNL     1       4.560  21.653  45.528  1.00  0.00     0.004 C 
ENDBRANCH  18  19
ENDBRANCH  17  18
ENDBRANCH  16  17
ENDBRANCH  15  16
ENDBRANCH  14  15
ENDBRANCH  13  14
ENDBRANCH  12  13
ENDBRANCH   1  12
TORSDOF 16
ENDMDL
MODEL 4
REMARK VINA RESULT:    -5.363      1.380      3.376
REMARK INTER + INTRA:         -13.081
REMARK INTER:                 -10.873
REMARK INTRA:                  -2.208
REMARK UNBOUND:                -2.703
REMARK SMILES CCCCCCCCCCCCCCCCCC(=O)[O-]
REMARK SMILES IDX 10 1 11 2 12 3 13 4 14 5 15 6 16 7 17 8 18 9 19 10 20 11
REMARK SMILES IDX 9 12 8 13 7 14 6 15 5 16 4 17 3 18 2 19 1 20
REMARK H PARENT
REMARK Flexibility Score: inf
ROOT
ATOM      1  C   UNL     1       5.876  19.964  43.673  1.00  0.00     0.000 C 
ENDROOT
BRANCH   1   2
ATOM      2  C   UNL     1       7.373  20.058  43.358  1.00  0.00     0.000 C 
BRANCH   2   3
ATOM      3  C   UNL     1       8.199  19.240  44.363  1.00  0.00     0.000 C 
BRANCH   3   4
ATOM      4  C   UNL     1       9.031  20.130  45.300  1.00  0.00     0.000 C 
BRANCH   4   5
ATOM      5  C   UNL     1      10.389  19.502  45.659  1.00  0.00     0.000 C 
BRANCH   5   6
ATOM      6  C   UNL     1      10.668  18.218  44.850  1.00  0.00     0.000 C 
BRANCH   6   7
ATOM      7  C   UNL     1      11.881  17.421  45.360  1.00  0.00     0.006 C 
BRANCH   7   8
ATOM      8  C   UNL     1      11.867  15.958  44.906  1.00  0.00     0.053 C 
BRANCH   8   9
ATOM      9  C   UNL     1      13.156  15.287  45.266  1.00  0.00     0.041 C 
ATOM     10  O   UNL     1      13.434  15.057  46.473  1.00  0.00    -0.550 OA
ATOM     11  O   UNL     1      14.027  14.872  44.268  1.00  0.00    -0.550 OA
ENDBRANCH   8   9
ENDBRANCH   7   8
ENDBRANCH   6   7
ENDBRANCH   5   6
ENDBRANCH   4   5
ENDBRANCH   3   4
ENDBRANCH   2   3
ENDBRANCH   1   2
BRANCH   1  12
ATOM     12  C   UNL     1       5.153  21.266  43.299  1.00  0.00     0.000 C 
BRANCH  12  13
ATOM     13  C   UNL     1       4.760  22.100  44.528  1.00  0.00    -0.000 C 
BRANCH  13  14
ATOM     14  C   UNL     1       4.926  21.327  45.845  1.00  0.00    -0.000 C 
BRANCH  14  15
ATOM     15  C   UNL     1       6.090  21.891  46.670  1.00  0.00    -0.000 C 
BRANCH  15  16
ATOM     16  C   UNL     1       6.547  23.249  46.120  1.00  0.00    -0.000 C 
BRANCH  16  17
ATOM     17  C   UNL     1       8.072  23.428  46.176  1.00  0.00    -0.000 C 
BRANCH  17  18
ATOM     18  C   UNL     1       8.629  24.156  44.940  1.00  0.00    -0.000 C 
BRANCH  18  19
ATOM     19  C   UNL     1       7.597  24.269  43.809  1.00  0.00    -0.003 C 
ATOM     20  C   UNL     1       8.058  23.591  42.519  1.00  0.00     0.004 C 
ENDBRANCH  18  19
ENDBRANCH  17  18
ENDBRANCH  16  17
ENDBRANCH  15  16
ENDBRANCH  14  15
ENDBRANCH  13  14
ENDBRANCH  12  13
ENDBRANCH   1  12
TORSDOF 16
ENDMDL
MODEL 5
REMARK VINA RESULT:    -5.346      6.435      9.550
REMARK INTER + INTRA:         -13.050
REMARK INTER:                 -10.847
REMARK INTRA:                  -2.202
REMARK UNBOUND:                -2.703
REMARK SMILES CCCCCCCCCCCCCCCCCC(=O)[O-]
REMARK SMILES IDX 10 1 11 2 12 3 13 4 14 5 15 6 16 7 17 8 18 9 19 10 20 11
REMARK SMILES IDX 9 12 8 13 7 14 6 15 5 16 4 17 3 18 2 19 1 20
REMARK H PARENT
REMARK Flexibility Score: inf
ROOT
ATOM      1  C   UNL     1       6.895  24.277  43.187  1.00  0.00     0.000 C 
ENDROOT
BRANCH   1   2
ATOM      2  C   UNL     1       5.673  25.105  43.601  1.00  0.00     0.000 C 
BRANCH   2   3
ATOM      3  C   UNL     1       4.413  24.638  42.855  1.00  0.00     0.000 C 
BRANCH   3   4
ATOM      4  C   UNL     1       3.217  24.429  43.798  1.00  0.00     0.000 C 
BRANCH   4   5
ATOM      5  C   UNL     1       2.377  25.705  43.979  1.00  0.00     0.000 C 
BRANCH   5   6
ATOM      6  C   UNL     1       2.621  26.727  42.847  1.00  0.00     0.000 C 
BRANCH   6   7
ATOM      7  C   UNL     1       1.662  27.929  42.887  1.00  0.00     0.006 C 
BRANCH   7   8
ATOM      8  C   UNL     1       0.420  27.672  43.749  1.00  0.00     0.053 C 
BRANCH   8   9
ATOM      9  C   UNL     1      -0.290  28.958  44.037  1.00  0.00     0.041 C 
ATOM     10  O   UNL     1      -0.478  29.797  43.117  1.00  0.00    -0.550 OA
ATOM     11  O   UNL     1      -0.787  29.208  45.310  1.00  0.00    -0.550 OA
ENDBRANCH   8   9
ENDBRANCH   7   8
ENDBRANCH   6   7
ENDBRANCH   5   6
ENDBRANCH   4   5
ENDBRANCH   3   4
ENDBRANCH   2   3
ENDBRANCH   1   2
BRANCH   1  12
ATOM     12  C   UNL     1       8.010  24.381  44.238  1.00  0.00     0.000 C 
BRANCH  12  13
ATOM     13  C   UNL     1       8.021  23.190  45.210  1.00  0.00    -0.000 C 
BRANCH  13  14
ATOM     14  C   UNL     1       7.026  23.363  46.368  1.00  0.00    -0.000 C 
BRANCH  14  15
ATOM     15  C   UNL     1       6.230  22.073  46.605  1.00  0.00    -0.000 C 
BRANCH  15  16
ATOM     16  C   UNL     1       5.026  21.987  45.655  1.00  0.00    -0.000 C 
BRANCH  16  17
ATOM     17  C   UNL     1       5.030  20.703  44.811  1.00  0.00    -0.000 C 
BRANCH  17  18
ATOM     18  C   UNL     1       5.378  20.965  43.335  1.00  0.00    -0.000 C 
BRANCH  18  19
ATOM     19  C   UNL     1       6.789  20.480  42.968  1.00  0.00    -0.003 C 
ATOM     20  C   UNL     1       7.399  19.576  44.039  1.00  0.00     0.004 C 
ENDBRANCH  18  19
ENDBRANCH  17  18
ENDBRANCH  16  17
ENDBRANCH  15  16
ENDBRANCH  14  15
ENDBRANCH  13  14
ENDBRANCH  12  13
ENDBRANCH   1  12
TORSDOF 16
ENDMDL
MODEL 6
REMARK VINA RESULT:    -5.337      7.003     10.275
REMARK INTER + INTRA:         -13.032
REMARK INTER:                 -10.724
REMARK INTRA:                  -2.308
REMARK UNBOUND:                -2.703
REMARK SMILES CCCCCCCCCCCCCCCCCC(=O)[O-]
REMARK SMILES IDX 10 1 11 2 12 3 13 4 14 5 15 6 16 7 17 8 18 9 19 10 20 11
REMARK SMILES IDX 9 12 8 13 7 14 6 15 5 16 4 17 3 18 2 19 1 20
REMARK H PARENT
REMARK Flexibility Score: inf
ROOT
ATOM      1  C   UNL     1       4.621  23.891  44.812  1.00  0.00     0.000 C 
ENDROOT
BRANCH   1   2
ATOM      2  C   UNL     1       4.895  25.207  44.074  1.00  0.00     0.000 C 
BRANCH   2   3
ATOM      3  C   UNL     1       4.036  25.316  42.805  1.00  0.00     0.000 C 
BRANCH   3   4
ATOM      4  C   UNL     1       3.084  26.522  42.844  1.00  0.00     0.000 C 
BRANCH   4   5
ATOM      5  C   UNL     1       1.821  26.251  43.680  1.00  0.00     0.000 C 
BRANCH   5   6
ATOM      6  C   UNL     1       0.685  27.244  43.356  1.00  0.00     0.000 C 
BRANCH   6   7
ATOM      7  C   UNL     1       1.123  28.402  42.444  1.00  0.00     0.006 C 
BRANCH   7   8
ATOM      8  C   UNL     1       0.223  28.566  41.214  1.00  0.00     0.053 C 
BRANCH   8   9
ATOM      9  C   UNL     1      -0.619  29.797  41.344  1.00  0.00     0.041 C 
ATOM     10  O   UNL     1      -0.119  30.862  41.791  1.00  0.00    -0.550 OA
ATOM     11  O   UNL     1      -1.944  29.781  40.927  1.00  0.00    -0.550 OA
ENDBRANCH   8   9
ENDBRANCH   7   8
ENDBRANCH   6   7
ENDBRANCH   5   6
ENDBRANCH   4   5
ENDBRANCH   3   4
ENDBRANCH   2   3
ENDBRANCH   1   2
BRANCH   1  12
ATOM     12  C   UNL     1       4.120  22.812  43.841  1.00  0.00     0.000 C 
BRANCH  12  13
ATOM     13  C   UNL     1       4.641  21.410  44.194  1.00  0.00    -0.000 C 
BRANCH  13  14
ATOM     14  C   UNL     1       5.604  20.852  43.134  1.00  0.00    -0.000 C 
BRANCH  14  15
ATOM     15  C   UNL     1       5.966  21.926  42.101  1.00  0.00    -0.000 C 
BRANCH  15  16
ATOM     16  C   UNL     1       7.472  22.225  42.122  1.00  0.00    -0.000 C 
BRANCH  16  17
ATOM     17  C   UNL     1       7.780  23.691  42.464  1.00  0.00    -0.000 C 
BRANCH  17  18
ATOM     18  C   UNL     1       8.275  23.871  43.909  1.00  0.00    -0.000 C 
BRANCH  18  19
ATOM     19  C   UNL     1       8.630  22.536  44.580  1.00  0.00    -0.003 C 
ATOM     20  C   UNL     1       7.859  22.306  45.880  1.00  0.00     0.004 C 
ENDBRANCH  18  19
ENDBRANCH  17  18
ENDBRANCH  16  17
ENDBRANCH  15  16
ENDBRANCH  14  15
ENDBRANCH  13  14
ENDBRANCH  12  13
ENDBRANCH   1  12
TORSDOF 16
ENDMDL
MODEL 7
REMARK VINA RESULT:    -5.334      6.331      9.333
REMARK INTER + INTRA:         -13.026
REMARK INTER:                 -11.204
REMARK INTRA:                  -1.822
REMARK UNBOUND:                -2.703
REMARK SMILES CCCCCCCCCCCCCCCCCC(=O)[O-]
REMARK SMILES IDX 10 1 11 2 12 3 13 4 14 5 15 6 16 7 17 8 18 9 19 10 20 11
REMARK SMILES IDX 9 12 8 13 7 14 6 15 5 16 4 17 3 18 2 19 1 20
REMARK H PARENT
REMARK Flexibility Score: inf
ROOT
ATOM      1  C   UNL     1       0.926  26.917  43.647  1.00  0.00     0.000 C 
ENDROOT
BRANCH   1   2
ATOM      2  C   UNL     1       2.194  27.279  42.865  1.00  0.00     0.000 C 
BRANCH   2   3
ATOM      3  C   UNL     1       3.237  26.153  42.955  1.00  0.00     0.000 C 
BRANCH   3   4
ATOM      4  C   UNL     1       2.925  25.155  44.081  1.00  0.00     0.000 C 
BRANCH   4   5
ATOM      5  C   UNL     1       3.456  23.742  43.781  1.00  0.00     0.000 C 
BRANCH   5   6
ATOM      6  C   UNL     1       4.405  23.724  42.564  1.00  0.00     0.000 C 
BRANCH   6   7
ATOM      7  C   UNL     1       5.747  23.026  42.842  1.00  0.00     0.006 C 
BRANCH   7   8
ATOM      8  C   UNL     1       6.932  23.999  42.858  1.00  0.00     0.053 C 
BRANCH   8   9
ATOM      9  C   UNL     1       7.468  24.144  44.248  1.00  0.00     0.041 C 
ATOM     10  O   UNL     1       6.736  23.887  45.240  1.00  0.00    -0.550 OA
ATOM     11  O   UNL     1       8.791  24.517  44.448  1.00  0.00    -0.550 OA
ENDBRANCH   8   9
ENDBRANCH   7   8
ENDBRANCH   6   7
ENDBRANCH   5   6
ENDBRANCH   4   5
ENDBRANCH   3   4
ENDBRANCH   2   3
ENDBRANCH   1   2
BRANCH   1  12
ATOM     12  C   UNL     1       0.137  28.179  44.027  1.00  0.00     0.000 C 
BRANCH  12  13
ATOM     13  C   UNL     1      -1.332  27.879  44.367  1.00  0.00    -0.000 C 
BRANCH  13  14
ATOM     14  C   UNL     1      -2.088  29.118  44.870  1.00  0.00    -0.000 C 
BRANCH  14  15
ATOM     15  C   UNL     1      -2.872  29.782  43.731  1.00  0.00    -0.000 C 
BRANCH  15  16
ATOM     16  C   UNL     1      -2.108  30.989  43.168  1.00  0.00    -0.000 C 
BRANCH  16  17
ATOM     17  C   UNL     1      -1.864  30.880  41.654  1.00  0.00    -0.000 C 
BRANCH  17  18
ATOM     18  C   UNL     1      -2.139  29.467  41.110  1.00  0.00    -0.000 C 
BRANCH  18  19
ATOM     19  C   UNL     1      -0.902  28.840  40.450  1.00  0.00    -0.003 C 
ATOM     20  C   UNL     1       0.327  29.746  40.519  1.00  0.00     0.004 C 
ENDBRANCH  18  19
ENDBRANCH  17  18
ENDBRANCH  16  17
ENDBRANCH  15  16
ENDBRANCH  14  15
ENDBRANCH  13  14
ENDBRANCH  12  13
ENDBRANCH   1  12
TORSDOF 16
ENDMDL
MODEL 8
REMARK VINA RESULT:    -5.317      6.927      9.981
REMARK INTER + INTRA:         -12.994
REMARK INTER:                 -10.816
REMARK INTRA:                  -2.177
REMARK UNBOUND:                -2.703
REMARK SMILES CCCCCCCCCCCCCCCCCC(=O)[O-]
REMARK SMILES IDX 10 1 11 2 12 3 13 4 14 5 15 6 16 7 17 8 18 9 19 10 20 11
REMARK SMILES IDX 9 12 8 13 7 14 6 15 5 16 4 17 3 18 2 19 1 20
REMARK H PARENT
REMARK Flexibility Score: inf
ROOT
ATOM      1  C   UNL     1       5.918  24.900  43.685  1.00  0.00     0.000 C 
ENDROOT
BRANCH   1   2
ATOM      2  C   UNL     1       4.572  24.953  42.955  1.00  0.00     0.000 C 
BRANCH   2   3
ATOM      3  C   UNL     1       3.416  24.604  43.905  1.00  0.00     0.000 C 
BRANCH   3   4
ATOM      4  C   UNL     1       2.336  25.697  43.942  1.00  0.00     0.000 C 
BRANCH   4   5
ATOM      5  C   UNL     1       2.603  26.825  42.931  1.00  0.00     0.000 C 
BRANCH   5   6
ATOM      6  C   UNL     1       1.440  27.839  42.872  1.00  0.00     0.000 C 
BRANCH   6   7
ATOM      7  C   UNL     1       0.369  27.609  43.951  1.00  0.00     0.006 C 
BRANCH   7   8
ATOM      8  C   UNL     1      -1.028  28.061  43.510  1.00  0.00     0.053 C 
BRANCH   8   9
ATOM      9  C   UNL     1      -1.391  29.354  44.172  1.00  0.00     0.041 C 
ATOM     10  O   UNL     1      -0.805  30.419  43.844  1.00  0.00    -0.550 OA
ATOM     11  O   UNL     1      -2.410  29.390  45.115  1.00  0.00    -0.550 OA
ENDBRANCH   8   9
ENDBRANCH   7   8
ENDBRANCH   6   7
ENDBRANCH   5   6
ENDBRANCH   4   5
ENDBRANCH   3   4
ENDBRANCH   2   3
ENDBRANCH   1   2
BRANCH   1  12
ATOM     12  C   UNL     1       6.913  24.000  42.937  1.00  0.00     0.000 C 
BRANCH  12  13
ATOM     13  C   UNL     1       6.273  22.694  42.441  1.00  0.00    -0.000 C 
BRANCH  13  14
ATOM     14  C   UNL     1       7.091  21.451  42.824  1.00  0.00    -0.000 C 
BRANCH  14  15
ATOM     15  C   UNL     1       6.290  20.532  43.755  1.00  0.00    -0.000 C 
BRANCH  15  16
ATOM     16  C   UNL     1       4.906  21.125  44.056  1.00  0.00    -0.000 C 
BRANCH  16  17
ATOM     17  C   UNL     1       4.660  21.317  45.561  1.00  0.00    -0.000 C 
BRANCH  17  18
ATOM     18  C   UNL     1       5.967  21.407  46.368  1.00  0.00    -0.000 C 
BRANCH  18  19
ATOM     19  C   UNL     1       6.386  22.857  46.650  1.00  0.00    -0.003 C 
ATOM     20  C   UNL     1       7.856  23.120  46.323  1.00  0.00     0.004 C 
ENDBRANCH  18  19
ENDBRANCH  17  18
ENDBRANCH  16  17
ENDBRANCH  15  16
ENDBRANCH  14  15
ENDBRANCH  13  14
ENDBRANCH  12  13
ENDBRANCH   1  12
TORSDOF 16
ENDMDL
MODEL 9
REMARK VINA RESULT:    -5.272      1.658      3.107
REMARK INTER + INTRA:         -12.905
REMARK INTER:                 -10.757
REMARK INTRA:                  -2.148
REMARK UNBOUND:                -2.703
REMARK SMILES CCCCCCCCCCCCCCCCCC(=O)[O-]
REMARK SMILES IDX 10 1 11 2 12 3 13 4 14 5 15 6 16 7 17 8 18 9 19 10 20 11
REMARK SMILES IDX 9 12 8 13 7 14 6 15 5 16 4 17 3 18 2 19 1 20
REMARK H PARENT
REMARK Flexibility Score: inf
ROOT
ATOM      1  C   UNL     1       7.505  20.842  43.159  1.00  0.00     0.000 C 
ENDROOT
BRANCH   1   2
ATOM      2  C   UNL     1       8.283  19.791  43.960  1.00  0.00     0.000 C 
BRANCH   2   3
ATOM      3  C   UNL     1       9.547  20.400  44.585  1.00  0.00     0.000 C 
BRANCH   3   4
ATOM      4  C   UNL     1      10.268  19.419  45.523  1.00  0.00     0.000 C 
BRANCH   4   5
ATOM      5  C   UNL     1      10.750  18.152  44.795  1.00  0.00     0.000 C 
BRANCH   5   6
ATOM      6  C   UNL     1      11.959  17.500  45.500  1.00  0.00     0.000 C 
BRANCH   6   7
ATOM      7  C   UNL     1      12.882  16.724  44.545  1.00  0.00     0.006 C 
BRANCH   7   8
ATOM      8  C   UNL     1      12.937  15.224  44.857  1.00  0.00     0.053 C 
BRANCH   8   9
ATOM      9  C   UNL     1      14.357  14.751  44.894  1.00  0.00     0.041 C 
ATOM     10  O   UNL     1      15.127  15.130  45.815  1.00  0.00    -0.550 OA
ATOM     11  O   UNL     1      14.815  13.853  43.938  1.00  0.00    -0.550 OA
ENDBRANCH   8   9
ENDBRANCH   7   8
ENDBRANCH   6   7
ENDBRANCH   5   6
ENDBRANCH   4   5
ENDBRANCH   3   4
ENDBRANCH   2   3
ENDBRANCH   1   2
BRANCH   1  12
ATOM     12  C   UNL     1       8.413  22.018  42.770  1.00  0.00     0.000 C 
BRANCH  12  13
ATOM     13  C   UNL     1       7.631  23.324  42.557  1.00  0.00    -0.000 C 
BRANCH  13  14
ATOM     14  C   UNL     1       7.329  24.054  43.874  1.00  0.00    -0.000 C 
BRANCH  14  15
ATOM     15  C   UNL     1       8.494  23.909  44.862  1.00  0.00    -0.000 C 
BRANCH  15  16
ATOM     16  C   UNL     1       7.999  23.403  46.225  1.00  0.00    -0.000 C 
BRANCH  16  17
ATOM     17  C   UNL     1       6.487  23.129  46.241  1.00  0.00    -0.000 C 
BRANCH  17  18
ATOM     18  C   UNL     1       6.156  21.643  46.460  1.00  0.00    -0.000 C 
BRANCH  18  19
ATOM     19  C   UNL     1       4.791  21.251  45.875  1.00  0.00    -0.003 C 
ATOM     20  C   UNL     1       4.375  22.139  44.702  1.00  0.00     0.004 C 
ENDBRANCH  18  19
ENDBRANCH  17  18
ENDBRANCH  16  17
ENDBRANCH  15  16
ENDBRANCH  14  15
ENDBRANCH  13  14
ENDBRANCH  12  13
ENDBRANCH   1  12
TORSDOF 16
ENDMDL
