MODEL 1
REMARK VINA RESULT:    -4.804      0.000      0.000
REMARK INTER + INTRA:          -8.595
REMARK INTER:                  -7.613
REMARK INTRA:                  -0.982
REMARK UNBOUND:                -0.982
REMARK SMILES CCCCCCCCCCCC(=O)[O-]
REMARK SMILES IDX 7 1 8 2 9 3 10 4 11 5 12 6 13 7 14 8 6 9 5 10 4 11 3 12 2 13
REMARK SMILES IDX 1 14
REMARK H PARENT
REMARK Flexibility Score: inf
ROOT
ATOM      1  C   UNL     1      11.286 -14.954  14.219  1.00  0.00     0.000 C 
ENDROOT
BRANCH   1   2
ATOM      2  C   UNL     1      11.477 -16.333  13.561  1.00  0.00     0.000 C 
BRANCH   2   3
ATOM      3  C   UNL     1      12.710 -16.392  12.643  1.00  0.00     0.000 C 
BRANCH   3   4
ATOM      4  C   UNL     1      13.657 -17.548  12.998  1.00  0.00     0.006 C 
BRANCH   4   5
ATOM      5  C   UNL     1      13.538 -17.976  14.467  1.00  0.00     0.053 C 
BRANCH   5   6
ATOM      6  C   UNL     1      14.650 -17.385  15.274  1.00  0.00     0.041 C 
ATOM      7  O   UNL     1      15.845 -17.534  14.910  1.00  0.00    -0.550 OA
ATOM      8  O   UNL     1      14.363 -16.628  16.404  1.00  0.00    -0.550 OA
ENDBRANCH   5   6
ENDBRANCH   4   5
ENDBRANCH   3   4
ENDBRANCH   2   3
ENDBRANCH   1   2
BRANCH   1   9
ATOM      9  C   UNL     1      11.298 -14.960  15.758  1.00  0.00     0.000 C 
BRANCH   9  10
ATOM     10  C   UNL     1      12.128 -13.810  16.356  1.00  0.00    -0.000 C 
BRANCH  10  11
ATOM     11  C   UNL     1      13.105 -13.198  15.338  1.00  0.00    -0.000 C 
BRANCH  11  12
ATOM     12  C   UNL     1      12.848 -11.699  15.103  1.00  0.00    -0.000 C 
BRANCH  12  13
ATOM     13  C   UNL     1      11.380 -11.311  15.336  1.00  0.00    -0.003 C 
ATOM     14  C   UNL     1      11.153  -9.800  15.302  1.00  0.00     0.004 C 
ENDBRANCH  12  13
ENDBRANCH  11  12
ENDBRANCH  10  11
ENDBRANCH   9  10
ENDBRANCH   1   9
TORSDOF 10
ENDMDL
MODEL 2
REMARK VINA RESULT:    -4.487      2.524      5.320
REMARK INTER + INTRA:          -8.092
REMARK INTER:                  -6.737
REMARK INTRA:                  -1.355
REMARK UNBOUND:                -0.982
REMARK SMILES CCCCCCCCCCCC(=O)[O-]
REMARK SMILES IDX 7 1 8 2 9 3 10 4 11 5 12 6 13 7 14 8 6 9 5 10 4 11 3 12 2 13
REMARK SMILES IDX 1 14
REMARK H PARENT
REMARK Flexibility Score: inf
ROOT
ATOM      1  C   UNL     1      10.964 -16.365  12.722  1.00  0.00     0.000 C 
ENDROOT
BRANCH   1   2
ATOM      2  C   UNL     1      11.057 -15.126  13.633  1.00  0.00     0.000 C 
BRANCH   2   3
ATOM      3  C   UNL     1      11.092 -15.485  15.129  1.00  0.00     0.000 C 
BRANCH   3   4
ATOM      4  C   UNL     1      11.753 -14.392  15.983  1.00  0.00     0.006 C 
BRANCH   4   5
ATOM      5  C   UNL     1      12.910 -13.697  15.255  1.00  0.00     0.053 C 
BRANCH   5   6
ATOM      6  C   UNL     1      12.651 -12.227  15.148  1.00  0.00     0.041 C 
ATOM      7  O   UNL     1      13.582 -11.441  14.834  1.00  0.00    -0.550 OA
ATOM      8  O   UNL     1      11.368 -11.731  15.347  1.00  0.00    -0.550 OA
ENDBRANCH   5   6
ENDBRANCH   4   5
ENDBRANCH   3   4
ENDBRANCH   2   3
ENDBRANCH   1   2
BRANCH   1   9
ATOM      9  C   UNL     1      11.764 -16.268  11.410  1.00  0.00     0.000 C 
BRANCH   9  10
ATOM     10  C   UNL     1      13.276 -16.106  11.641  1.00  0.00    -0.000 C 
BRANCH  10  11
ATOM     11  C   UNL     1      13.957 -17.427  12.032  1.00  0.00    -0.000 C 
BRANCH  11  12
ATOM     12  C   UNL     1      14.712 -17.327  13.370  1.00  0.00    -0.000 C 
BRANCH  12  13
ATOM     13  C   UNL     1      13.881 -17.844  14.554  1.00  0.00    -0.003 C 
ATOM     14  C   UNL     1      14.279 -17.205  15.883  1.00  0.00     0.004 C 
ENDBRANCH  12  13
ENDBRANCH  11  12
ENDBRANCH  10  11
ENDBRANCH   9  10
ENDBRANCH   1   9
TORSDOF 10
ENDMDL
MODEL 3
REMARK VINA RESULT:    -4.453      1.450      2.859
REMARK INTER + INTRA:          -8.038
REMARK INTER:                  -6.904
REMARK INTRA:                  -1.134
REMARK UNBOUND:                -0.982
REMARK SMILES CCCCCCCCCCCC(=O)[O-]
REMARK SMILES IDX 7 1 8 2 9 3 10 4 11 5 12 6 13 7 14 8 6 9 5 10 4 11 3 12 2 13
REMARK SMILES IDX 1 14
REMARK H PARENT
REMARK Flexibility Score: inf
ROOT
ATOM      1  C   UNL     1      12.293 -16.357  10.953  1.00  0.00     0.000 C 
ENDROOT
BRANCH   1   2
ATOM      2  C   UNL     1      13.211 -17.380  11.648  1.00  0.00     0.000 C 
BRANCH   2   3
ATOM      3  C   UNL     1      14.674 -16.912  11.729  1.00  0.00     0.000 C 
BRANCH   3   4
ATOM      4  C   UNL     1      15.329 -17.252  13.077  1.00  0.00     0.006 C 
BRANCH   4   5
ATOM      5  C   UNL     1      14.931 -16.271  14.187  1.00  0.00     0.053 C 
BRANCH   5   6
ATOM      6  C   UNL     1      14.250 -16.997  15.305  1.00  0.00     0.041 C 
ATOM      7  O   UNL     1      13.711 -18.115  15.099  1.00  0.00    -0.550 OA
ATOM      8  O   UNL     1      14.253 -16.460  16.586  1.00  0.00    -0.550 OA
ENDBRANCH   5   6
ENDBRANCH   4   5
ENDBRANCH   3   4
ENDBRANCH   2   3
ENDBRANCH   1   2
BRANCH   1   9
ATOM      9  C   UNL     1      11.045 -15.952  11.758  1.00  0.00     0.000 C 
BRANCH   9  10
ATOM     10  C   UNL     1      11.175 -16.258  13.260  1.00  0.00    -0.000 C 
BRANCH  10  11
ATOM     11  C   UNL     1      11.372 -14.989  14.105  1.00  0.00    -0.000 C 
BRANCH  11  12
ATOM     12  C   UNL     1      11.080 -15.223  15.598  1.00  0.00    -0.000 C 
BRANCH  12  13
ATOM     13  C   UNL     1      11.584 -14.072  16.483  1.00  0.00    -0.003 C 
ATOM     14  C   UNL     1      11.586 -12.725  15.761  1.00  0.00     0.004 C 
ENDBRANCH  12  13
ENDBRANCH  11  12
ENDBRANCH  10  11
ENDBRANCH   9  10
ENDBRANCH   1   9
TORSDOF 10
ENDMDL
MODEL 4
REMARK VINA RESULT:    -4.418      3.315      6.076
REMARK INTER + INTRA:          -7.983
REMARK INTER:                  -7.021
REMARK INTRA:                  -0.962
REMARK UNBOUND:                -0.982
REMARK SMILES CCCCCCCCCCCC(=O)[O-]
REMARK SMILES IDX 7 1 8 2 9 3 10 4 11 5 12 6 13 7 14 8 6 9 5 10 4 11 3 12 2 13
REMARK SMILES IDX 1 14
REMARK H PARENT
REMARK Flexibility Score: inf
ROOT
ATOM      1  C   UNL     1      11.838 -15.168  16.510  1.00  0.00     0.000 C 
ENDROOT
BRANCH   1   2
ATOM      2  C   UNL     1      11.625 -13.644  16.561  1.00  0.00     0.000 C 
BRANCH   2   3
ATOM      3  C   UNL     1      11.635 -12.993  15.166  1.00  0.00     0.000 C 
BRANCH   3   4
ATOM      4  C   UNL     1      12.402 -11.662  15.142  1.00  0.00     0.006 C 
BRANCH   4   5
ATOM      5  C   UNL     1      11.475 -10.446  15.264  1.00  0.00     0.053 C 
BRANCH   5   6
ATOM      6  C   UNL     1      12.268  -9.178  15.223  1.00  0.00     0.041 C 
ATOM      7  O   UNL     1      11.760  -8.100  15.626  1.00  0.00    -0.550 OA
ATOM      8  O   UNL     1      13.587  -9.198  14.786  1.00  0.00    -0.550 OA
ENDBRANCH   5   6
ENDBRANCH   4   5
ENDBRANCH   3   4
ENDBRANCH   2   3
ENDBRANCH   1   2
BRANCH   1   9
ATOM      9  C   UNL     1      13.300 -15.625  16.659  1.00  0.00     0.000 C 
BRANCH   9  10
ATOM     10  C   UNL     1      13.632 -16.859  15.802  1.00  0.00    -0.000 C 
BRANCH  10  11
ATOM     11  C   UNL     1      14.185 -16.482  14.417  1.00  0.00    -0.000 C 
BRANCH  11  12
ATOM     12  C   UNL     1      13.310 -17.014  13.269  1.00  0.00    -0.000 C 
BRANCH  12  13
ATOM     13  C   UNL     1      12.416 -15.924  12.658  1.00  0.00    -0.003 C 
ATOM     14  C   UNL     1      10.946 -16.075  13.045  1.00  0.00     0.004 C 
ENDBRANCH  12  13
ENDBRANCH  11  12
ENDBRANCH  10  11
ENDBRANCH   9  10
ENDBRANCH   1   9
TORSDOF 10
ENDMDL
MODEL 5
REMARK VINA RESULT:    -4.351      3.223      5.529
REMARK INTER + INTRA:          -7.877
REMARK INTER:                  -6.772
REMARK INTRA:                  -1.104
REMARK UNBOUND:                -0.982
REMARK SMILES CCCCCCCCCCCC(=O)[O-]
REMARK SMILES IDX 7 1 8 2 9 3 10 4 11 5 12 6 13 7 14 8 6 9 5 10 4 11 3 12 2 13
REMARK SMILES IDX 1 14
REMARK H PARENT
REMARK Flexibility Score: inf
ROOT
ATOM      1  C   UNL     1      11.005 -15.332  14.981  1.00  0.00     0.000 C 
ENDROOT
BRANCH   1   2
ATOM      2  C   UNL     1      11.891 -15.111  16.221  1.00  0.00     0.000 C 
BRANCH   2   3
ATOM      3  C   UNL     1      12.007 -13.629  16.617  1.00  0.00     0.000 C 
BRANCH   3   4
ATOM      4  C   UNL     1      12.358 -12.725  15.424  1.00  0.00     0.006 C 
BRANCH   4   5
ATOM      5  C   UNL     1      11.286 -11.661  15.158  1.00  0.00     0.053 C 
BRANCH   5   6
ATOM      6  C   UNL     1      11.873 -10.290  15.269  1.00  0.00     0.041 C 
ATOM      7  O   UNL     1      13.112 -10.118  15.134  1.00  0.00    -0.550 OA
ATOM      8  O   UNL     1      11.044  -9.193  15.475  1.00  0.00    -0.550 OA
ENDBRANCH   5   6
ENDBRANCH   4   5
ENDBRANCH   3   4
ENDBRANCH   2   3
ENDBRANCH   1   2
BRANCH   1   9
ATOM      9  C   UNL     1      11.617 -16.237  13.897  1.00  0.00     0.000 C 
BRANCH   9  10
ATOM     10  C   UNL     1      12.838 -17.029  14.397  1.00  0.00    -0.000 C 
BRANCH  10  11
ATOM     11  C   UNL     1      14.091 -16.782  13.540  1.00  0.00    -0.000 C 
BRANCH  11  12
ATOM     12  C   UNL     1      14.331 -15.287  13.263  1.00  0.00    -0.000 C 
BRANCH  12  13
ATOM     13  C   UNL     1      15.304 -14.652  14.269  1.00  0.00    -0.003 C 
ATOM     14  C   UNL     1      16.437 -13.882  13.593  1.00  0.00     0.004 C 
ENDBRANCH  12  13
ENDBRANCH  11  12
ENDBRANCH  10  11
ENDBRANCH   9  10
ENDBRANCH   1   9
TORSDOF 10
ENDMDL
MODEL 6
REMARK VINA RESULT:    -4.312      2.513      3.879
REMARK INTER + INTRA:          -7.814
REMARK INTER:                  -6.743
REMARK INTRA:                  -1.071
REMARK UNBOUND:                -0.982
REMARK SMILES CCCCCCCCCCCC(=O)[O-]
REMARK SMILES IDX 7 1 8 2 9 3 10 4 11 5 12 6 13 7 14 8 6 9 5 10 4 11 3 12 2 13
REMARK SMILES IDX 1 14
REMARK H PARENT
REMARK Flexibility Score: inf
ROOT
ATOM      1  C   UNL     1      13.560 -15.292  16.041  1.00  0.00     0.000 C 
ENDROOT
BRANCH   1   2
ATOM      2  C   UNL     1      14.237 -16.653  16.286  1.00  0.00     0.000 C 
BRANCH   2   3
ATOM      3  C   UNL     1      14.121 -17.605  15.083  1.00  0.00     0.000 C 
BRANCH   3   4
ATOM      4  C   UNL     1      15.461 -17.810  14.361  1.00  0.00     0.006 C 
BRANCH   4   5
ATOM      5  C   UNL     1      15.443 -17.274  12.924  1.00  0.00     0.053 C 
BRANCH   5   6
ATOM      6  C   UNL     1      15.480 -15.778  12.924  1.00  0.00     0.041 C 
ATOM      7  O   UNL     1      14.553 -15.121  12.384  1.00  0.00    -0.550 OA
ATOM      8  O   UNL     1      16.515 -15.109  13.565  1.00  0.00    -0.550 OA
ENDBRANCH   5   6
ENDBRANCH   4   5
ENDBRANCH   3   4
ENDBRANCH   2   3
ENDBRANCH   1   2
BRANCH   1   9
ATOM      9  C   UNL     1      12.189 -15.117  16.719  1.00  0.00     0.000 C 
BRANCH   9  10
ATOM     10  C   UNL     1      11.064 -14.791  15.720  1.00  0.00    -0.000 C 
BRANCH  10  11
ATOM     11  C   UNL     1      11.542 -14.836  14.260  1.00  0.00    -0.000 C 
BRANCH  11  12
ATOM     12  C   UNL     1      11.012 -16.067  13.504  1.00  0.00    -0.000 C 
BRANCH  12  13
ATOM     13  C   UNL     1      10.587 -15.735  12.065  1.00  0.00    -0.003 C 
ATOM     14  C   UNL     1      11.496 -16.373  11.015  1.00  0.00     0.004 C 
ENDBRANCH  12  13
ENDBRANCH  11  12
ENDBRANCH  10  11
ENDBRANCH   9  10
ENDBRANCH   1   9
TORSDOF 10
ENDMDL
MODEL 7
REMARK VINA RESULT:    -4.291      2.163      3.488
REMARK INTER + INTRA:          -7.781
REMARK INTER:                  -7.228
REMARK INTRA:                  -0.553
REMARK UNBOUND:                -0.982
REMARK SMILES CCCCCCCCCCCC(=O)[O-]
REMARK SMILES IDX 7 1 8 2 9 3 10 4 11 5 12 6 13 7 14 8 6 9 5 10 4 11 3 12 2 13
REMARK SMILES IDX 1 14
REMARK H PARENT
REMARK Flexibility Score: inf
ROOT
ATOM      1  C   UNL     1      11.411 -12.644  15.510  1.00  0.00     0.000 C 
ENDROOT
BRANCH   1   2
ATOM      2  C   UNL     1      11.768 -13.705  16.567  1.00  0.00     0.000 C 
BRANCH   2   3
ATOM      3  C   UNL     1      11.343 -15.125  16.156  1.00  0.00     0.000 C 
BRANCH   3   4
ATOM      4  C   UNL     1      11.214 -15.285  14.633  1.00  0.00     0.006 C 
BRANCH   4   5
ATOM      5  C   UNL     1      11.820 -16.599  14.126  1.00  0.00     0.053 C 
BRANCH   5   6
ATOM      6  C   UNL     1      13.231 -16.743  14.604  1.00  0.00     0.041 C 
ATOM      7  O   UNL     1      14.108 -15.914  14.247  1.00  0.00    -0.550 OA
ATOM      8  O   UNL     1      13.565 -17.764  15.485  1.00  0.00    -0.550 OA
ENDBRANCH   5   6
ENDBRANCH   4   5
ENDBRANCH   3   4
ENDBRANCH   2   3
ENDBRANCH   1   2
BRANCH   1   9
ATOM      9  C   UNL     1      12.556 -11.683  15.141  1.00  0.00     0.000 C 
BRANCH   9  10
ATOM     10  C   UNL     1      12.145 -10.202  15.223  1.00  0.00    -0.000 C 
BRANCH  10  11
ATOM     11  C   UNL     1      13.348  -9.251  15.109  1.00  0.00    -0.000 C 
BRANCH  11  12
ATOM     12  C   UNL     1      14.598  -9.946  14.542  1.00  0.00    -0.000 C 
BRANCH  12  13
ATOM     13  C   UNL     1      15.123  -9.264  13.269  1.00  0.00    -0.003 C 
ATOM     14  C   UNL     1      15.969  -8.026  13.563  1.00  0.00     0.004 C 
ENDBRANCH  12  13
ENDBRANCH  11  12
ENDBRANCH  10  11
ENDBRANCH   9  10
ENDBRANCH   1   9
TORSDOF 10
ENDMDL
MODEL 8
REMARK VINA RESULT:    -4.263      2.612      5.328
REMARK INTER + INTRA:          -7.738
REMARK INTER:                  -6.683
REMARK INTRA:                  -1.055
REMARK UNBOUND:                -0.982
REMARK SMILES CCCCCCCCCCCC(=O)[O-]
REMARK SMILES IDX 7 1 8 2 9 3 10 4 11 5 12 6 13 7 14 8 6 9 5 10 4 11 3 12 2 13
REMARK SMILES IDX 1 14
REMARK H PARENT
REMARK Flexibility Score: inf
ROOT
ATOM      1  C   UNL     1      13.797 -17.719  15.565  1.00  0.00     0.000 C 
ENDROOT
BRANCH   1   2
ATOM      2  C   UNL     1      13.654 -16.341  16.236  1.00  0.00     0.000 C 
BRANCH   2   3
ATOM      3  C   UNL     1      12.420 -15.562  15.746  1.00  0.00     0.000 C 
BRANCH   3   4
ATOM      4  C   UNL     1      12.771 -14.149  15.256  1.00  0.00     0.006 C 
BRANCH   4   5
ATOM      5  C   UNL     1      11.646 -13.139  15.519  1.00  0.00     0.053 C 
BRANCH   5   6
ATOM      6  C   UNL     1      12.105 -11.752  15.199  1.00  0.00     0.041 C 
ATOM      7  O   UNL     1      13.272 -11.553  14.773  1.00  0.00    -0.550 OA
ATOM      8  O   UNL     1      11.227 -10.683  15.325  1.00  0.00    -0.550 OA
ENDBRANCH   5   6
ENDBRANCH   4   5
ENDBRANCH   3   4
ENDBRANCH   2   3
ENDBRANCH   1   2
BRANCH   1   9
ATOM      9  C   UNL     1      13.324 -17.781  14.101  1.00  0.00     0.000 C 
BRANCH   9  10
ATOM     10  C   UNL     1      14.287 -17.077  13.130  1.00  0.00    -0.000 C 
BRANCH  10  11
ATOM     11  C   UNL     1      13.563 -16.103  12.185  1.00  0.00    -0.000 C 
BRANCH  11  12
ATOM     12  C   UNL     1      12.699 -16.829  11.140  1.00  0.00    -0.000 C 
BRANCH  12  13
ATOM     13  C   UNL     1      11.261 -16.291  11.091  1.00  0.00    -0.003 C 
ATOM     14  C   UNL     1      10.815 -15.665  12.411  1.00  0.00     0.004 C 
ENDBRANCH  12  13
ENDBRANCH  11  12
ENDBRANCH  10  11
ENDBRANCH   9  10
ENDBRANCH   1   9
TORSDOF 10
ENDMDL
MODEL 9
REMARK VINA RESULT:    -4.216      2.393      5.121
REMARK INTER + INTRA:          -7.662
REMARK INTER:                  -6.356
REMARK INTRA:                  -1.307
REMARK UNBOUND:                -0.982
REMARK SMILES CCCCCCCCCCCC(=O)[O-]
REMARK SMILES IDX 7 1 8 2 9 3 10 4 11 5 12 6 13 7 14 8 6 9 5 10 4 11 3 12 2 13
REMARK SMILES IDX 1 14
REMARK H PARENT
REMARK Flexibility Score: inf
ROOT
ATOM      1  C   UNL     1      13.037 -16.995  11.406  1.00  0.00     0.000 C 
ENDROOT
BRANCH   1   2
ATOM      2  C   UNL     1      12.304 -15.793  12.031  1.00  0.00     0.000 C 
BRANCH   2   3
ATOM      3  C   UNL     1      11.030 -16.200  12.792  1.00  0.00     0.000 C 
BRANCH   3   4
ATOM      4  C   UNL     1      11.011 -15.674  14.235  1.00  0.00     0.006 C 
BRANCH   4   5
ATOM      5  C   UNL     1      12.122 -14.650  14.502  1.00  0.00     0.053 C 
BRANCH   5   6
ATOM      6  C   UNL     1      11.788 -13.819  15.701  1.00  0.00     0.041 C 
ATOM      7  O   UNL     1      11.885 -14.306  16.857  1.00  0.00    -0.550 OA
ATOM      8  O   UNL     1      11.417 -12.489  15.543  1.00  0.00    -0.550 OA
ENDBRANCH   5   6
ENDBRANCH   4   5
ENDBRANCH   3   4
ENDBRANCH   2   3
ENDBRANCH   1   2
BRANCH   1   9
ATOM      9  C   UNL     1      14.481 -17.202  11.898  1.00  0.00     0.000 C 
BRANCH   9  10
ATOM     10  C   UNL     1      15.146 -15.898  12.372  1.00  0.00    -0.000 C 
BRANCH  10  11
ATOM     11  C   UNL     1      15.828 -16.049  13.742  1.00  0.00    -0.000 C 
BRANCH  11  12
ATOM     12  C   UNL     1      15.704 -17.474  14.308  1.00  0.00    -0.000 C 
BRANCH  12  13
ATOM     13  C   UNL     1      14.754 -17.547  15.514  1.00  0.00    -0.003 C 
ATOM     14  C   UNL     1      13.366 -18.068  15.146  1.00  0.00     0.004 C 
ENDBRANCH  12  13
ENDBRANCH  11  12
ENDBRANCH  10  11
ENDBRANCH   9  10
ENDBRANCH   1   9
TORSDOF 10
ENDMDL
