MODEL 1
REMARK VINA RESULT:     8.872      0.000      0.000
REMARK INTER + INTRA:          23.690
REMARK INTER:                  23.393
REMARK INTRA:                   0.297
REMARK UNBOUND:                 0.297
REMARK SMILES CCCCCCCCCCCCCCCCCCCCCCCCCCCCCC(=O)[O-]
REMARK SMILES IDX 16 1 17 2 18 3 19 4 20 5 21 6 22 7 23 8 24 9 25 10 26 11
REMARK SMILES IDX 27 12 28 13 29 14 30 15 31 16 32 17 15 18 14 19 13 20 12 21
REMARK SMILES IDX 11 22 10 23 9 24 8 25 7 26 6 27 5 28 4 29 3 30 2 31 1 32
REMARK H PARENT
REMARK Flexibility Score: inf
ROOT
ATOM      1  C   UNL     1      12.831  17.966  -6.123  1.00  0.00     0.000 C 
ENDROOT
BRANCH   1   2
ATOM      2  C   UNL     1      14.082  17.488  -6.882  1.00  0.00     0.000 C 
BRANCH   2   3
ATOM      3  C   UNL     1      13.938  16.062  -7.441  1.00  0.00     0.000 C 
BRANCH   3   4
ATOM      4  C   UNL     1      15.150  15.543  -8.235  1.00  0.00     0.000 C 
BRANCH   4   5
ATOM      5  C   UNL     1      15.269  16.179  -9.633  1.00  0.00     0.000 C 
BRANCH   5   6
ATOM      6  C   UNL     1      14.806  15.224 -10.755  1.00  0.00     0.000 C 
BRANCH   6   7
ATOM      7  C   UNL     1      15.420  15.539 -12.131  1.00  0.00     0.000 C 
BRANCH   7   8
ATOM      8  C   UNL     1      15.976  14.290 -12.835  1.00  0.00     0.000 C 
BRANCH   8   9
ATOM      9  C   UNL     1      17.112  14.616 -13.818  1.00  0.00     0.000 C 
BRANCH   9  10
ATOM     10  C   UNL     1      18.125  15.624 -13.245  1.00  0.00     0.000 C 
BRANCH  10  11
ATOM     11  C   UNL     1      17.451  16.746 -12.435  1.00  0.00     0.000 C 
BRANCH  11  12
ATOM     12  C   UNL     1      18.428  17.727 -11.763  1.00  0.00     0.000 C 
BRANCH  12  13
ATOM     13  C   UNL     1      18.075  19.200 -12.034  1.00  0.00     0.006 C 
BRANCH  13  14
ATOM     14  C   UNL     1      19.070  19.866 -12.992  1.00  0.00     0.053 C 
BRANCH  14  15
ATOM     15  C   UNL     1      19.496  21.215 -12.498  1.00  0.00     0.041 C 
ATOM     16  O   UNL     1      18.656  22.148 -12.393  1.00  0.00    -0.550 OA
ATOM     17  O   UNL     1      20.829  21.450 -12.183  1.00  0.00    -0.550 OA
ENDBRANCH  14  15
ENDBRANCH  13  14
ENDBRANCH  12  13
ENDBRANCH  11  12
ENDBRANCH  10  11
ENDBRANCH   9  10
ENDBRANCH   8   9
ENDBRANCH   7   8
ENDBRANCH   6   7
ENDBRANCH   5   6
ENDBRANCH   4   5
ENDBRANCH   3   4
ENDBRANCH   2   3
ENDBRANCH   1   2
BRANCH   1  18
ATOM     18  C   UNL     1      12.343  16.933  -5.094  1.00  0.00     0.000 C 
BRANCH  18  19
ATOM     19  C   UNL     1      11.197  16.060  -5.636  1.00  0.00     0.000 C 
BRANCH  19  20
ATOM     20  C   UNL     1      10.451  15.307  -4.521  1.00  0.00     0.000 C 
BRANCH  20  21
ATOM     21  C   UNL     1      11.308  14.213  -3.867  1.00  0.00     0.000 C 
BRANCH  21  22
ATOM     22  C   UNL     1      11.263  14.260  -2.329  1.00  0.00     0.000 C 
BRANCH  22  23
ATOM     23  C   UNL     1      10.020  13.576  -1.719  1.00  0.00     0.000 C 
BRANCH  23  24
ATOM     24  C   UNL     1      10.180  13.309  -0.215  1.00  0.00    -0.000 C 
BRANCH  24  25
ATOM     25  C   UNL     1      11.588  13.682   0.266  1.00  0.00    -0.000 C 
BRANCH  25  26
ATOM     26  C   UNL     1      11.526  14.522   1.552  1.00  0.00    -0.000 C 
BRANCH  26  27
ATOM     27  C   UNL     1      12.156  15.913   1.383  1.00  0.00    -0.000 C 
BRANCH  27  28
ATOM     28  C   UNL     1      11.119  16.999   1.047  1.00  0.00    -0.000 C 
BRANCH  28  29
ATOM     29  C   UNL     1      10.028  17.124   2.122  1.00  0.00    -0.000 C 
BRANCH  29  30
ATOM     30  C   UNL     1       8.999  15.982   2.053  1.00  0.00    -0.000 C 
BRANCH  30  31
ATOM     31  C   UNL     1       7.592  16.480   1.688  1.00  0.00    -0.003 C 
ATOM     32  C   UNL     1       7.406  17.973   1.957  1.00  0.00     0.004 C 
ENDBRANCH  30  31
ENDBRANCH  29  30
ENDBRANCH  28  29
ENDBRANCH  27  28
ENDBRANCH  26  27
ENDBRANCH  25  26
ENDBRANCH  24  25
ENDBRANCH  23  24
ENDBRANCH  22  23
ENDBRANCH  21  22
ENDBRANCH  20  21
ENDBRANCH  19  20
ENDBRANCH  18  19
ENDBRANCH   1  18
TORSDOF 28
ENDMDL
MODEL 2
REMARK VINA RESULT:     9.435      0.910      2.165
REMARK INTER + INTRA:          25.176
REMARK INTER:                  26.874
REMARK INTRA:                  -1.697
REMARK UNBOUND:                 0.297
REMARK SMILES CCCCCCCCCCCCCCCCCCCCCCCCCCCCCC(=O)[O-]
REMARK SMILES IDX 16 1 17 2 18 3 19 4 20 5 21 6 22 7 23 8 24 9 25 10 26 11
REMARK SMILES IDX 27 12 28 13 29 14 30 15 31 16 32 17 15 18 14 19 13 20 12 21
REMARK SMILES IDX 11 22 10 23 9 24 8 25 7 26 6 27 5 28 4 29 3 30 2 31 1 32
REMARK H PARENT
REMARK Flexibility Score: inf
ROOT
ATOM      1  C   UNL     1      13.778  16.856  -7.668  1.00  0.00     0.000 C 
ENDROOT
BRANCH   1   2
ATOM      2  C   UNL     1      14.656  15.651  -8.052  1.00  0.00     0.000 C 
BRANCH   2   3
ATOM      3  C   UNL     1      15.266  15.776  -9.459  1.00  0.00     0.000 C 
BRANCH   3   4
ATOM      4  C   UNL     1      14.446  15.127 -10.589  1.00  0.00     0.000 C 
BRANCH   4   5
ATOM      5  C   UNL     1      14.711  13.617 -10.732  1.00  0.00     0.000 C 
BRANCH   5   6
ATOM      6  C   UNL     1      15.084  13.220 -12.177  1.00  0.00     0.000 C 
BRANCH   6   7
ATOM      7  C   UNL     1      15.154  14.410 -13.151  1.00  0.00     0.000 C 
BRANCH   7   8
ATOM      8  C   UNL     1      16.505  14.505 -13.878  1.00  0.00     0.000 C 
BRANCH   8   9
ATOM      9  C   UNL     1      17.596  15.174 -13.026  1.00  0.00     0.000 C 
BRANCH   9  10
ATOM     10  C   UNL     1      17.402  16.697 -12.899  1.00  0.00     0.000 C 
BRANCH  10  11
ATOM     11  C   UNL     1      18.599  17.391 -12.223  1.00  0.00     0.000 C 
BRANCH  11  12
ATOM     12  C   UNL     1      18.217  18.384 -11.111  1.00  0.00     0.000 C 
BRANCH  12  13
ATOM     13  C   UNL     1      17.646  19.704 -11.659  1.00  0.00     0.006 C 
BRANCH  13  14
ATOM     14  C   UNL     1      18.398  20.183 -12.908  1.00  0.00     0.053 C 
BRANCH  14  15
ATOM     15  C   UNL     1      19.334  21.309 -12.591  1.00  0.00     0.041 C 
ATOM     16  O   UNL     1      20.563  21.088 -12.432  1.00  0.00    -0.550 OA
ATOM     17  O   UNL     1      18.841  22.600 -12.440  1.00  0.00    -0.550 OA
ENDBRANCH  14  15
ENDBRANCH  13  14
ENDBRANCH  12  13
ENDBRANCH  11  12
ENDBRANCH  10  11
ENDBRANCH   9  10
ENDBRANCH   8   9
ENDBRANCH   7   8
ENDBRANCH   6   7
ENDBRANCH   5   6
ENDBRANCH   4   5
ENDBRANCH   3   4
ENDBRANCH   2   3
ENDBRANCH   1   2
BRANCH   1  18
ATOM     18  C   UNL     1      14.020  17.317  -6.221  1.00  0.00     0.000 C 
BRANCH  18  19
ATOM     19  C   UNL     1      12.730  17.324  -5.383  1.00  0.00     0.000 C 
BRANCH  19  20
ATOM     20  C   UNL     1      11.723  16.254  -5.839  1.00  0.00     0.000 C 
BRANCH  20  21
ATOM     21  C   UNL     1      10.865  15.715  -4.685  1.00  0.00     0.000 C 
BRANCH  21  22
ATOM     22  C   UNL     1      11.187  14.251  -4.336  1.00  0.00     0.000 C 
BRANCH  22  23
ATOM     23  C   UNL     1      10.869  13.872  -2.873  1.00  0.00     0.000 C 
BRANCH  23  24
ATOM     24  C   UNL     1      12.126  13.836  -1.992  1.00  0.00    -0.000 C 
BRANCH  24  25
ATOM     25  C   UNL     1      11.759  13.862  -0.503  1.00  0.00    -0.000 C 
BRANCH  25  26
ATOM     26  C   UNL     1      10.393  14.534  -0.286  1.00  0.00    -0.000 C 
BRANCH  26  27
ATOM     27  C   UNL     1       9.827  14.286   1.121  1.00  0.00    -0.000 C 
BRANCH  27  28
ATOM     28  C   UNL     1       8.405  14.848   1.297  1.00  0.00    -0.000 C 
BRANCH  28  29
ATOM     29  C   UNL     1       8.403  16.305   1.786  1.00  0.00    -0.000 C 
BRANCH  29  30
ATOM     30  C   UNL     1       9.522  17.143   1.143  1.00  0.00    -0.000 C 
BRANCH  30  31
ATOM     31  C   UNL     1      10.663  17.451   2.125  1.00  0.00    -0.003 C 
ATOM     32  C   UNL     1      12.028  17.005   1.600  1.00  0.00     0.004 C 
ENDBRANCH  30  31
ENDBRANCH  29  30
ENDBRANCH  28  29
ENDBRANCH  27  28
ENDBRANCH  26  27
ENDBRANCH  25  26
ENDBRANCH  24  25
ENDBRANCH  23  24
ENDBRANCH  22  23
ENDBRANCH  21  22
ENDBRANCH  20  21
ENDBRANCH  19  20
ENDBRANCH  18  19
ENDBRANCH   1  18
TORSDOF 28
ENDMDL
MODEL 3
REMARK VINA RESULT:     9.961      4.527     13.564
REMARK INTER + INTRA:          26.563
REMARK INTER:                  26.238
REMARK INTRA:                   0.324
REMARK UNBOUND:                 0.297
REMARK SMILES CCCCCCCCCCCCCCCCCCCCCCCCCCCCCC(=O)[O-]
REMARK SMILES IDX 16 1 17 2 18 3 19 4 20 5 21 6 22 7 23 8 24 9 25 10 26 11
REMARK SMILES IDX 27 12 28 13 29 14 30 15 31 16 32 17 15 18 14 19 13 20 12 21
REMARK SMILES IDX 11 22 10 23 9 24 8 25 7 26 6 27 5 28 4 29 3 30 2 31 1 32
REMARK H PARENT
REMARK Flexibility Score: inf
ROOT
ATOM      1  C   UNL     1      14.963  16.214  -8.741  1.00  0.00     0.000 C 
ENDROOT
BRANCH   1   2
ATOM      2  C   UNL     1      14.051  16.114  -7.505  1.00  0.00     0.000 C 
BRANCH   2   3
ATOM      3  C   UNL     1      13.995  17.419  -6.691  1.00  0.00     0.000 C 
BRANCH   3   4
ATOM      4  C   UNL     1      12.621  17.753  -6.083  1.00  0.00     0.000 C 
BRANCH   4   5
ATOM      5  C   UNL     1      12.269  16.870  -4.871  1.00  0.00     0.000 C 
BRANCH   5   6
ATOM      6  C   UNL     1      11.528  15.578  -5.280  1.00  0.00     0.000 C 
BRANCH   6   7
ATOM      7  C   UNL     1      10.443  15.141  -4.279  1.00  0.00     0.000 C 
BRANCH   7   8
ATOM      8  C   UNL     1      10.909  14.003  -3.356  1.00  0.00     0.000 C 
BRANCH   8   9
ATOM      9  C   UNL     1      10.297  14.090  -1.948  1.00  0.00     0.000 C 
BRANCH   9  10
ATOM     10  C   UNL     1      11.354  14.323  -0.853  1.00  0.00     0.000 C 
BRANCH  10  11
ATOM     11  C   UNL     1      11.516  13.109   0.081  1.00  0.00     0.000 C 
BRANCH  11  12
ATOM     12  C   UNL     1      12.415  13.359   1.305  1.00  0.00     0.000 C 
BRANCH  12  13
ATOM     13  C   UNL     1      11.978  14.586   2.125  1.00  0.00     0.006 C 
BRANCH  13  14
ATOM     14  C   UNL     1      10.456  14.779   2.109  1.00  0.00     0.053 C 
BRANCH  14  15
ATOM     15  C   UNL     1      10.083  16.226   1.999  1.00  0.00     0.041 C 
ATOM     16  O   UNL     1      10.961  17.120   2.124  1.00  0.00    -0.550 OA
ATOM     17  O   UNL     1       8.757  16.587   1.789  1.00  0.00    -0.550 OA
ENDBRANCH  14  15
ENDBRANCH  13  14
ENDBRANCH  12  13
ENDBRANCH  11  12
ENDBRANCH  10  11
ENDBRANCH   9  10
ENDBRANCH   8   9
ENDBRANCH   7   8
ENDBRANCH   6   7
ENDBRANCH   5   6
ENDBRANCH   4   5
ENDBRANCH   3   4
ENDBRANCH   2   3
ENDBRANCH   1   2
BRANCH   1  18
ATOM     18  C   UNL     1      14.368  15.498  -9.965  1.00  0.00     0.000 C 
BRANCH  18  19
ATOM     19  C   UNL     1      15.396  15.315 -11.095  1.00  0.00     0.000 C 
BRANCH  19  20
ATOM     20  C   UNL     1      14.946  14.279 -12.140  1.00  0.00     0.000 C 
BRANCH  20  21
ATOM     21  C   UNL     1      15.443  14.610 -13.556  1.00  0.00     0.000 C 
BRANCH  21  22
ATOM     22  C   UNL     1      16.972  14.769 -13.629  1.00  0.00     0.000 C 
BRANCH  22  23
ATOM     23  C   UNL     1      17.753  13.504 -13.211  1.00  0.00     0.000 C 
BRANCH  23  24
ATOM     24  C   UNL     1      19.273  13.689 -13.335  1.00  0.00    -0.000 C 
BRANCH  24  25
ATOM     25  C   UNL     1      19.742  14.935 -12.574  1.00  0.00    -0.000 C 
BRANCH  25  26
ATOM     26  C   UNL     1      18.616  15.977 -12.479  1.00  0.00    -0.000 C 
BRANCH  26  27
ATOM     27  C   UNL     1      18.990  17.177 -11.593  1.00  0.00    -0.000 C 
BRANCH  27  28
ATOM     28  C   UNL     1      18.023  18.362 -11.758  1.00  0.00    -0.000 C 
BRANCH  28  29
ATOM     29  C   UNL     1      18.516  19.385 -12.793  1.00  0.00    -0.000 C 
BRANCH  29  30
ATOM     30  C   UNL     1      18.600  20.810 -12.219  1.00  0.00    -0.000 C 
BRANCH  30  31
ATOM     31  C   UNL     1      19.782  21.607 -12.794  1.00  0.00    -0.003 C 
ATOM     32  C   UNL     1      21.097  21.314 -12.071  1.00  0.00     0.004 C 
ENDBRANCH  30  31
ENDBRANCH  29  30
ENDBRANCH  28  29
ENDBRANCH  27  28
ENDBRANCH  26  27
ENDBRANCH  25  26
ENDBRANCH  24  25
ENDBRANCH  23  24
ENDBRANCH  22  23
ENDBRANCH  21  22
ENDBRANCH  20  21
ENDBRANCH  19  20
ENDBRANCH  18  19
ENDBRANCH   1  18
TORSDOF 28
ENDMDL
MODEL 4
REMARK VINA RESULT:    10.372      4.856     13.594
REMARK INTER + INTRA:          27.647
REMARK INTER:                  27.469
REMARK INTRA:                   0.178
REMARK UNBOUND:                 0.297
REMARK SMILES CCCCCCCCCCCCCCCCCCCCCCCCCCCCCC(=O)[O-]
REMARK SMILES IDX 16 1 17 2 18 3 19 4 20 5 21 6 22 7 23 8 24 9 25 10 26 11
REMARK SMILES IDX 27 12 28 13 29 14 30 15 31 16 32 17 15 18 14 19 13 20 12 21
REMARK SMILES IDX 11 22 10 23 9 24 8 25 7 26 6 27 5 28 4 29 3 30 2 31 1 32
REMARK H PARENT
REMARK Flexibility Score: inf
ROOT
ATOM      1  C   UNL     1      12.798  17.265  -4.878  1.00  0.00     0.000 C 
ENDROOT
BRANCH   1   2
ATOM      2  C   UNL     1      11.452  16.664  -5.320  1.00  0.00     0.000 C 
BRANCH   2   3
ATOM      3  C   UNL     1      11.237  15.229  -4.809  1.00  0.00     0.000 C 
BRANCH   3   4
ATOM      4  C   UNL     1      11.012  15.101  -3.291  1.00  0.00     0.000 C 
BRANCH   4   5
ATOM      5  C   UNL     1      11.984  14.112  -2.621  1.00  0.00     0.000 C 
BRANCH   5   6
ATOM      6  C   UNL     1      11.950  14.206  -1.080  1.00  0.00     0.000 C 
BRANCH   6   7
ATOM      7  C   UNL     1      12.257  12.875  -0.369  1.00  0.00     0.000 C 
BRANCH   7   8
ATOM      8  C   UNL     1      12.826  13.073   1.045  1.00  0.00     0.000 C 
BRANCH   8   9
ATOM      9  C   UNL     1      11.846  13.793   1.987  1.00  0.00     0.000 C 
BRANCH   9  10
ATOM     10  C   UNL     1      10.408  13.829   1.436  1.00  0.00     0.000 C 
BRANCH  10  11
ATOM     11  C   UNL     1       9.610  15.044   1.944  1.00  0.00     0.000 C 
BRANCH  11  12
ATOM     12  C   UNL     1      10.440  16.330   2.108  1.00  0.00     0.000 C 
BRANCH  12  13
ATOM     13  C   UNL     1      10.362  17.251   0.877  1.00  0.00     0.006 C 
BRANCH  13  14
ATOM     14  C   UNL     1       8.928  17.395   0.352  1.00  0.00     0.053 C 
BRANCH  14  15
ATOM     15  C   UNL     1       7.941  17.535   1.470  1.00  0.00     0.041 C 
ATOM     16  O   UNL     1       7.573  16.523   2.124  1.00  0.00    -0.550 OA
ATOM     17  O   UNL     1       7.403  18.781   1.769  1.00  0.00    -0.550 OA
ENDBRANCH  14  15
ENDBRANCH  13  14
ENDBRANCH  12  13
ENDBRANCH  11  12
ENDBRANCH  10  11
ENDBRANCH   9  10
ENDBRANCH   8   9
ENDBRANCH   7   8
ENDBRANCH   6   7
ENDBRANCH   5   6
ENDBRANCH   4   5
ENDBRANCH   3   4
ENDBRANCH   2   3
ENDBRANCH   1   2
BRANCH   1  18
ATOM     18  C   UNL     1      13.650  17.728  -6.071  1.00  0.00     0.000 C 
BRANCH  18  19
ATOM     19  C   UNL     1      13.363  16.918  -7.347  1.00  0.00     0.000 C 
BRANCH  19  20
ATOM     20  C   UNL     1      14.534  16.000  -7.740  1.00  0.00     0.000 C 
BRANCH  20  21
ATOM     21  C   UNL     1      14.213  15.115  -8.953  1.00  0.00     0.000 C 
BRANCH  21  22
ATOM     22  C   UNL     1      15.114  15.415 -10.165  1.00  0.00     0.000 C 
BRANCH  22  23
ATOM     23  C   UNL     1      14.653  14.732 -11.471  1.00  0.00     0.000 C 
BRANCH  23  24
ATOM     24  C   UNL     1      15.834  14.337 -12.371  1.00  0.00    -0.000 C 
BRANCH  24  25
ATOM     25  C   UNL     1      16.160  15.451 -13.374  1.00  0.00    -0.000 C 
BRANCH  25  26
ATOM     26  C   UNL     1      17.679  15.593 -13.563  1.00  0.00    -0.000 C 
BRANCH  26  27
ATOM     27  C   UNL     1      18.338  16.436 -12.459  1.00  0.00    -0.000 C 
BRANCH  27  28
ATOM     28  C   UNL     1      17.811  17.881 -12.421  1.00  0.00    -0.000 C 
BRANCH  28  29
ATOM     29  C   UNL     1      18.093  18.575 -11.079  1.00  0.00    -0.000 C 
BRANCH  29  30
ATOM     30  C   UNL     1      18.125  20.109 -11.204  1.00  0.00    -0.000 C 
BRANCH  30  31
ATOM     31  C   UNL     1      18.472  20.576 -12.627  1.00  0.00    -0.003 C 
ATOM     32  C   UNL     1      19.951  20.927 -12.787  1.00  0.00     0.004 C 
ENDBRANCH  30  31
ENDBRANCH  29  30
ENDBRANCH  28  29
ENDBRANCH  27  28
ENDBRANCH  26  27
ENDBRANCH  25  26
ENDBRANCH  24  25
ENDBRANCH  23  24
ENDBRANCH  22  23
ENDBRANCH  21  22
ENDBRANCH  20  21
ENDBRANCH  19  20
ENDBRANCH  18  19
ENDBRANCH   1  18
TORSDOF 28
ENDMDL
MODEL 5
REMARK VINA RESULT:    10.560      1.102      2.192
REMARK INTER + INTRA:          28.143
REMARK INTER:                  28.059
REMARK INTRA:                   0.083
REMARK UNBOUND:                 0.297
REMARK SMILES CCCCCCCCCCCCCCCCCCCCCCCCCCCCCC(=O)[O-]
REMARK SMILES IDX 16 1 17 2 18 3 19 4 20 5 21 6 22 7 23 8 24 9 25 10 26 11
REMARK SMILES IDX 27 12 28 13 29 14 30 15 31 16 32 17 15 18 14 19 13 20 12 21
REMARK SMILES IDX 11 22 10 23 9 24 8 25 7 26 6 27 5 28 4 29 3 30 2 31 1 32
REMARK H PARENT
REMARK Flexibility Score: inf
ROOT
ATOM      1  C   UNL     1      13.887  17.799  -6.821  1.00  0.00     0.000 C 
ENDROOT
BRANCH   1   2
ATOM      2  C   UNL     1      13.438  16.639  -7.728  1.00  0.00     0.000 C 
BRANCH   2   3
ATOM      3  C   UNL     1      14.596  16.018  -8.528  1.00  0.00     0.000 C 
BRANCH   3   4
ATOM      4  C   UNL     1      14.234  15.551  -9.950  1.00  0.00     0.000 C 
BRANCH   4   5
ATOM      5  C   UNL     1      15.455  15.062 -10.751  1.00  0.00     0.000 C 
BRANCH   5   6
ATOM      6  C   UNL     1      15.076  14.588 -12.171  1.00  0.00     0.000 C 
BRANCH   6   7
ATOM      7  C   UNL     1      15.905  15.247 -13.288  1.00  0.00     0.000 C 
BRANCH   7   8
ATOM      8  C   UNL     1      17.327  14.671 -13.393  1.00  0.00     0.000 C 
BRANCH   8   9
ATOM      9  C   UNL     1      18.379  15.738 -13.737  1.00  0.00     0.000 C 
BRANCH   9  10
ATOM     10  C   UNL     1      18.710  16.655 -12.544  1.00  0.00     0.000 C 
BRANCH  10  11
ATOM     11  C   UNL     1      17.768  17.870 -12.453  1.00  0.00     0.000 C 
BRANCH  11  12
ATOM     12  C   UNL     1      17.706  18.526 -11.062  1.00  0.00     0.000 C 
BRANCH  12  13
ATOM     13  C   UNL     1      17.931  20.048 -11.111  1.00  0.00     0.006 C 
BRANCH  13  14
ATOM     14  C   UNL     1      18.335  20.528 -12.511  1.00  0.00     0.053 C 
BRANCH  14  15
ATOM     15  C   UNL     1      19.823  20.606 -12.662  1.00  0.00     0.041 C 
ATOM     16  O   UNL     1      20.429  19.797 -13.412  1.00  0.00    -0.550 OA
ATOM     17  O   UNL     1      20.544  21.555 -11.946  1.00  0.00    -0.550 OA
ENDBRANCH  14  15
ENDBRANCH  13  14
ENDBRANCH  12  13
ENDBRANCH  11  12
ENDBRANCH  10  11
ENDBRANCH   9  10
ENDBRANCH   8   9
ENDBRANCH   7   8
ENDBRANCH   6   7
ENDBRANCH   5   6
ENDBRANCH   4   5
ENDBRANCH   3   4
ENDBRANCH   2   3
ENDBRANCH   1   2
BRANCH   1  18
ATOM     18  C   UNL     1      13.279  17.707  -5.412  1.00  0.00     0.000 C 
BRANCH  18  19
ATOM     19  C   UNL     1      11.896  17.031  -5.412  1.00  0.00     0.000 C 
BRANCH  19  20
ATOM     20  C   UNL     1      11.932  15.615  -4.812  1.00  0.00     0.000 C 
BRANCH  20  21
ATOM     21  C   UNL     1      10.531  15.009  -4.636  1.00  0.00     0.000 C 
BRANCH  21  22
ATOM     22  C   UNL     1      10.142  14.825  -3.159  1.00  0.00     0.000 C 
BRANCH  22  23
ATOM     23  C   UNL     1      11.038  13.824  -2.396  1.00  0.00     0.000 C 
BRANCH  23  24
ATOM     24  C   UNL     1      10.473  13.472  -1.012  1.00  0.00    -0.000 C 
BRANCH  24  25
ATOM     25  C   UNL     1       9.469  14.531  -0.539  1.00  0.00    -0.000 C 
BRANCH  25  26
ATOM     26  C   UNL     1       9.301  14.486   0.988  1.00  0.00    -0.000 C 
BRANCH  26  27
ATOM     27  C   UNL     1       9.249  15.885   1.621  1.00  0.00    -0.000 C 
BRANCH  27  28
ATOM     28  C   UNL     1      10.112  16.912   0.865  1.00  0.00    -0.000 C 
BRANCH  28  29
ATOM     29  C   UNL     1      11.466  17.160   1.549  1.00  0.00    -0.000 C 
BRANCH  29  30
ATOM     30  C   UNL     1      12.081  15.872   2.124  1.00  0.00    -0.000 C 
BRANCH  30  31
ATOM     31  C   UNL     1      12.207  14.760   1.071  1.00  0.00    -0.003 C 
ATOM     32  C   UNL     1      12.381  13.375   1.694  1.00  0.00     0.004 C 
ENDBRANCH  30  31
ENDBRANCH  29  30
ENDBRANCH  28  29
ENDBRANCH  27  28
ENDBRANCH  26  27
ENDBRANCH  25  26
ENDBRANCH  24  25
ENDBRANCH  23  24
ENDBRANCH  22  23
ENDBRANCH  21  22
ENDBRANCH  20  21
ENDBRANCH  19  20
ENDBRANCH  18  19
ENDBRANCH   1  18
TORSDOF 28
ENDMDL
MODEL 6
REMARK VINA RESULT:    10.644      4.326     13.311
REMARK INTER + INTRA:          28.365
REMARK INTER:                  30.102
REMARK INTRA:                  -1.737
REMARK UNBOUND:                 0.297
REMARK SMILES CCCCCCCCCCCCCCCCCCCCCCCCCCCCCC(=O)[O-]
REMARK SMILES IDX 16 1 17 2 18 3 19 4 20 5 21 6 22 7 23 8 24 9 25 10 26 11
REMARK SMILES IDX 27 12 28 13 29 14 30 15 31 16 32 17 15 18 14 19 13 20 12 21
REMARK SMILES IDX 11 22 10 23 9 24 8 25 7 26 6 27 5 28 4 29 3 30 2 31 1 32
REMARK H PARENT
REMARK Flexibility Score: inf
ROOT
ATOM      1  C   UNL     1      13.896  17.679  -6.610  1.00  0.00     0.000 C 
ENDROOT
BRANCH   1   2
ATOM      2  C   UNL     1      12.674  17.504  -5.690  1.00  0.00     0.000 C 
BRANCH   2   3
ATOM      3  C   UNL     1      11.864  16.233  -6.001  1.00  0.00     0.000 C 
BRANCH   3   4
ATOM      4  C   UNL     1      10.854  15.819  -4.916  1.00  0.00     0.000 C 
BRANCH   4   5
ATOM      5  C   UNL     1      10.962  14.332  -4.530  1.00  0.00     0.000 C 
BRANCH   5   6
ATOM      6  C   UNL     1      11.376  14.135  -3.055  1.00  0.00     0.000 C 
BRANCH   6   7
ATOM      7  C   UNL     1      10.197  13.825  -2.115  1.00  0.00     0.000 C 
BRANCH   7   8
ATOM      8  C   UNL     1      10.637  13.125  -0.819  1.00  0.00     0.000 C 
BRANCH   8   9
ATOM      9  C   UNL     1      12.044  13.544  -0.364  1.00  0.00     0.000 C 
BRANCH   9  10
ATOM     10  C   UNL     1      12.133  13.783   1.155  1.00  0.00     0.000 C 
BRANCH  10  11
ATOM     11  C   UNL     1      11.181  14.894   1.635  1.00  0.00     0.000 C 
BRANCH  11  12
ATOM     12  C   UNL     1      11.669  16.325   1.343  1.00  0.00     0.000 C 
BRANCH  12  13
ATOM     13  C   UNL     1      10.876  17.394   2.116  1.00  0.00     0.006 C 
BRANCH  13  14
ATOM     14  C   UNL     1       9.370  17.106   2.121  1.00  0.00     0.053 C 
BRANCH  14  15
ATOM     15  C   UNL     1       8.711  17.584   0.863  1.00  0.00     0.041 C 
ATOM     16  O   UNL     1       7.876  18.525   0.902  1.00  0.00    -0.550 OA
ATOM     17  O   UNL     1       8.997  16.965  -0.348  1.00  0.00    -0.550 OA
ENDBRANCH  14  15
ENDBRANCH  13  14
ENDBRANCH  12  13
ENDBRANCH  11  12
ENDBRANCH  10  11
ENDBRANCH   9  10
ENDBRANCH   8   9
ENDBRANCH   7   8
ENDBRANCH   6   7
ENDBRANCH   5   6
ENDBRANCH   4   5
ENDBRANCH   3   4
ENDBRANCH   2   3
ENDBRANCH   1   2
BRANCH   1  18
ATOM     18  C   UNL     1      14.551  16.335  -6.971  1.00  0.00     0.000 C 
BRANCH  18  19
ATOM     19  C   UNL     1      13.965  15.723  -8.256  1.00  0.00     0.000 C 
BRANCH  19  20
ATOM     20  C   UNL     1      15.050  15.359  -9.285  1.00  0.00     0.000 C 
BRANCH  20  21
ATOM     21  C   UNL     1      14.735  15.887 -10.692  1.00  0.00     0.000 C 
BRANCH  21  22
ATOM     22  C   UNL     1      14.753  14.781 -11.762  1.00  0.00     0.000 C 
BRANCH  22  23
ATOM     23  C   UNL     1      15.684  15.081 -12.956  1.00  0.00     0.000 C 
BRANCH  23  24
ATOM     24  C   UNL     1      16.847  14.082 -13.056  1.00  0.00    -0.000 C 
BRANCH  24  25
ATOM     25  C   UNL     1      18.063  14.716 -13.743  1.00  0.00    -0.000 C 
BRANCH  25  26
ATOM     26  C   UNL     1      19.080  15.218 -12.706  1.00  0.00    -0.000 C 
BRANCH  26  27
ATOM     27  C   UNL     1      19.172  16.751 -12.659  1.00  0.00    -0.000 C 
BRANCH  27  28
ATOM     28  C   UNL     1      18.527  17.346 -11.395  1.00  0.00    -0.000 C 
BRANCH  28  29
ATOM     29  C   UNL     1      17.662  18.579 -11.700  1.00  0.00    -0.000 C 
BRANCH  29  30
ATOM     30  C   UNL     1      18.403  19.900 -11.429  1.00  0.00    -0.000 C 
BRANCH  30  31
ATOM     31  C   UNL     1      18.601  20.735 -12.704  1.00  0.00    -0.003 C 
ATOM     32  C   UNL     1      17.364  20.742 -13.602  1.00  0.00     0.004 C 
ENDBRANCH  30  31
ENDBRANCH  29  30
ENDBRANCH  28  29
ENDBRANCH  27  28
ENDBRANCH  26  27
ENDBRANCH  25  26
ENDBRANCH  24  25
ENDBRANCH  23  24
ENDBRANCH  22  23
ENDBRANCH  21  22
ENDBRANCH  20  21
ENDBRANCH  19  20
ENDBRANCH  18  19
ENDBRANCH   1  18
TORSDOF 28
ENDMDL
MODEL 7
REMARK VINA RESULT:    10.989      1.264      2.323
REMARK INTER + INTRA:          29.272
REMARK INTER:                  29.507
REMARK INTRA:                  -0.235
REMARK UNBOUND:                 0.297
REMARK SMILES CCCCCCCCCCCCCCCCCCCCCCCCCCCCCC(=O)[O-]
REMARK SMILES IDX 16 1 17 2 18 3 19 4 20 5 21 6 22 7 23 8 24 9 25 10 26 11
REMARK SMILES IDX 27 12 28 13 29 14 30 15 31 16 32 17 15 18 14 19 13 20 12 21
REMARK SMILES IDX 11 22 10 23 9 24 8 25 7 26 6 27 5 28 4 29 3 30 2 31 1 32
REMARK H PARENT
REMARK Flexibility Score: inf
ROOT
ATOM      1  C   UNL     1      14.444  17.072  -8.108  1.00  0.00     0.000 C 
ENDROOT
BRANCH   1   2
ATOM      2  C   UNL     1      14.445  15.706  -8.819  1.00  0.00     0.000 C 
BRANCH   2   3
ATOM      3  C   UNL     1      15.226  15.719 -10.144  1.00  0.00     0.000 C 
BRANCH   3   4
ATOM      4  C   UNL     1      14.542  14.990 -11.315  1.00  0.00     0.000 C 
BRANCH   4   5
ATOM      5  C   UNL     1      15.540  14.497 -12.381  1.00  0.00     0.000 C 
BRANCH   5   6
ATOM      6  C   UNL     1      16.533  15.599 -12.811  1.00  0.00     0.000 C 
BRANCH   6   7
ATOM      7  C   UNL     1      17.543  15.142 -13.878  1.00  0.00     0.000 C 
BRANCH   7   8
ATOM      8  C   UNL     1      18.272  13.845 -13.492  1.00  0.00     0.000 C 
BRANCH   8   9
ATOM      9  C   UNL     1      19.490  14.093 -12.586  1.00  0.00     0.000 C 
BRANCH   9  10
ATOM     10  C   UNL     1      20.196  15.427 -12.889  1.00  0.00     0.000 C 
BRANCH  10  11
ATOM     11  C   UNL     1      19.987  16.473 -11.778  1.00  0.00     0.000 C 
BRANCH  11  12
ATOM     12  C   UNL     1      19.285  17.763 -12.239  1.00  0.00     0.000 C 
BRANCH  12  13
ATOM     13  C   UNL     1      18.136  18.182 -11.304  1.00  0.00     0.006 C 
BRANCH  13  14
ATOM     14  C   UNL     1      17.993  19.707 -11.211  1.00  0.00     0.053 C 
BRANCH  14  15
ATOM     15  C   UNL     1      18.432  20.382 -12.475  1.00  0.00     0.041 C 
ATOM     16  O   UNL     1      19.543  20.972 -12.527  1.00  0.00    -0.550 OA
ATOM     17  O   UNL     1      17.596  20.385 -13.585  1.00  0.00    -0.550 OA
ENDBRANCH  14  15
ENDBRANCH  13  14
ENDBRANCH  12  13
ENDBRANCH  11  12
ENDBRANCH  10  11
ENDBRANCH   9  10
ENDBRANCH   8   9
ENDBRANCH   7   8
ENDBRANCH   6   7
ENDBRANCH   5   6
ENDBRANCH   4   5
ENDBRANCH   3   4
ENDBRANCH   2   3
ENDBRANCH   1   2
BRANCH   1  18
ATOM     18  C   UNL     1      14.185  16.943  -6.597  1.00  0.00     0.000 C 
BRANCH  18  19
ATOM     19  C   UNL     1      12.982  17.782  -6.134  1.00  0.00     0.000 C 
BRANCH  19  20
ATOM     20  C   UNL     1      11.816  16.915  -5.628  1.00  0.00     0.000 C 
BRANCH  20  21
ATOM     21  C   UNL     1      12.282  15.757  -4.732  1.00  0.00     0.000 C 
BRANCH  21  22
ATOM     22  C   UNL     1      11.142  14.793  -4.362  1.00  0.00     0.000 C 
BRANCH  22  23
ATOM     23  C   UNL     1      11.303  14.137  -2.974  1.00  0.00     0.000 C 
BRANCH  23  24
ATOM     24  C   UNL     1      10.021  14.228  -2.132  1.00  0.00    -0.000 C 
BRANCH  24  25
ATOM     25  C   UNL     1      10.172  13.463  -0.811  1.00  0.00    -0.000 C 
BRANCH  25  26
ATOM     26  C   UNL     1       9.771  14.344   0.383  1.00  0.00    -0.000 C 
BRANCH  26  27
ATOM     27  C   UNL     1      10.738  15.517   0.606  1.00  0.00    -0.000 C 
BRANCH  27  28
ATOM     28  C   UNL     1      10.011  16.861   0.784  1.00  0.00    -0.000 C 
BRANCH  28  29
ATOM     29  C   UNL     1       9.266  16.955   2.125  1.00  0.00    -0.000 C 
BRANCH  29  30
ATOM     30  C   UNL     1       7.798  16.505   2.016  1.00  0.00    -0.000 C 
BRANCH  30  31
ATOM     31  C   UNL     1       7.664  15.010   1.685  1.00  0.00    -0.003 C 
ATOM     32  C   UNL     1       6.321  14.428   2.124  1.00  0.00     0.004 C 
ENDBRANCH  30  31
ENDBRANCH  29  30
ENDBRANCH  28  29
ENDBRANCH  27  28
ENDBRANCH  26  27
ENDBRANCH  25  26
ENDBRANCH  24  25
ENDBRANCH  23  24
ENDBRANCH  22  23
ENDBRANCH  21  22
ENDBRANCH  20  21
ENDBRANCH  19  20
ENDBRANCH  18  19
ENDBRANCH   1  18
TORSDOF 28
ENDMDL
MODEL 8
REMARK VINA RESULT:    11.012      0.984      2.874
REMARK INTER + INTRA:          29.335
REMARK INTER:                  30.897
REMARK INTRA:                  -1.561
REMARK UNBOUND:                 0.297
REMARK SMILES CCCCCCCCCCCCCCCCCCCCCCCCCCCCCC(=O)[O-]
REMARK SMILES IDX 16 1 17 2 18 3 19 4 20 5 21 6 22 7 23 8 24 9 25 10 26 11
REMARK SMILES IDX 27 12 28 13 29 14 30 15 31 16 32 17 15 18 14 19 13 20 12 21
REMARK SMILES IDX 11 22 10 23 9 24 8 25 7 26 6 27 5 28 4 29 3 30 2 31 1 32
REMARK H PARENT
REMARK Flexibility Score: inf
ROOT
ATOM      1  C   UNL     1      15.393  15.134  -8.367  1.00  0.00     0.000 C 
ENDROOT
BRANCH   1   2
ATOM      2  C   UNL     1      15.170  15.994  -9.625  1.00  0.00     0.000 C 
BRANCH   2   3
ATOM      3  C   UNL     1      14.220  15.338 -10.641  1.00  0.00     0.000 C 
BRANCH   3   4
ATOM      4  C   UNL     1      14.910  14.586 -11.794  1.00  0.00     0.000 C 
BRANCH   4   5
ATOM      5  C   UNL     1      15.807  15.497 -12.653  1.00  0.00     0.000 C 
BRANCH   5   6
ATOM      6  C   UNL     1      16.387  14.762 -13.881  1.00  0.00     0.000 C 
BRANCH   6   7
ATOM      7  C   UNL     1      17.901  14.965 -14.068  1.00  0.00     0.000 C 
BRANCH   7   8
ATOM      8  C   UNL     1      18.604  15.428 -12.781  1.00  0.00     0.000 C 
BRANCH   8   9
ATOM      9  C   UNL     1      18.848  16.946 -12.748  1.00  0.00     0.000 C 
BRANCH   9  10
ATOM     10  C   UNL     1      18.818  17.523 -11.320  1.00  0.00     0.000 C 
BRANCH  10  11
ATOM     11  C   UNL     1      17.485  18.221 -10.992  1.00  0.00     0.000 C 
BRANCH  11  12
ATOM     12  C   UNL     1      17.485  19.742 -11.226  1.00  0.00     0.000 C 
BRANCH  12  13
ATOM     13  C   UNL     1      18.110  20.137 -12.576  1.00  0.00     0.006 C 
BRANCH  13  14
ATOM     14  C   UNL     1      18.975  21.399 -12.465  1.00  0.00     0.053 C 
BRANCH  14  15
ATOM     15  C   UNL     1      20.429  21.092 -12.656  1.00  0.00     0.041 C 
ATOM     16  O   UNL     1      20.862  19.925 -12.465  1.00  0.00    -0.550 OA
ATOM     17  O   UNL     1      21.311  22.104 -13.014  1.00  0.00    -0.550 OA
ENDBRANCH  14  15
ENDBRANCH  13  14
ENDBRANCH  12  13
ENDBRANCH  11  12
ENDBRANCH  10  11
ENDBRANCH   9  10
ENDBRANCH   8   9
ENDBRANCH   7   8
ENDBRANCH   6   7
ENDBRANCH   5   6
ENDBRANCH   4   5
ENDBRANCH   3   4
ENDBRANCH   2   3
ENDBRANCH   1   2
BRANCH   1  18
ATOM     18  C   UNL     1      14.472  15.548  -7.208  1.00  0.00     0.000 C 
BRANCH  18  19
ATOM     19  C   UNL     1      13.807  16.915  -7.445  1.00  0.00     0.000 C 
BRANCH  19  20
ATOM     20  C   UNL     1      13.360  17.590  -6.136  1.00  0.00     0.000 C 
BRANCH  20  21
ATOM     21  C   UNL     1      11.881  17.335  -5.811  1.00  0.00     0.000 C 
BRANCH  21  22
ATOM     22  C   UNL     1      11.613  15.894  -5.344  1.00  0.00     0.000 C 
BRANCH  22  23
ATOM     23  C   UNL     1      11.245  15.780  -3.849  1.00  0.00     0.000 C 
BRANCH  23  24
ATOM     24  C   UNL     1      10.837  14.351  -3.455  1.00  0.00    -0.000 C 
BRANCH  24  25
ATOM     25  C   UNL     1      11.412  13.971  -2.085  1.00  0.00    -0.000 C 
BRANCH  25  26
ATOM     26  C   UNL     1      10.411  14.287  -0.962  1.00  0.00    -0.000 C 
BRANCH  26  27
ATOM     27  C   UNL     1      10.648  13.442   0.300  1.00  0.00    -0.000 C 
BRANCH  27  28
ATOM     28  C   UNL     1      10.505  14.259   1.597  1.00  0.00    -0.000 C 
BRANCH  28  29
ATOM     29  C   UNL     1      11.157  15.646   1.494  1.00  0.00    -0.000 C 
BRANCH  29  30
ATOM     30  C   UNL     1      10.120  16.780   1.416  1.00  0.00    -0.000 C 
BRANCH  30  31
ATOM     31  C   UNL     1       8.784  16.402   2.073  1.00  0.00    -0.003 C 
ATOM     32  C   UNL     1       7.800  17.571   2.125  1.00  0.00     0.004 C 
ENDBRANCH  30  31
ENDBRANCH  29  30
ENDBRANCH  28  29
ENDBRANCH  27  28
ENDBRANCH  26  27
ENDBRANCH  25  26
ENDBRANCH  24  25
ENDBRANCH  23  24
ENDBRANCH  22  23
ENDBRANCH  21  22
ENDBRANCH  20  21
ENDBRANCH  19  20
ENDBRANCH  18  19
ENDBRANCH   1  18
TORSDOF 28
ENDMDL
