MODEL 1
REMARK VINA RESULT:    -6.807      0.000      0.000
REMARK INTER + INTRA:          -7.686
REMARK INTER:                  -7.404
REMARK INTRA:                  -0.282
REMARK UNBOUND:                -0.282
REMARK SMILES CC1(C)CC[C@]2(C(=O)[O-])CC[C@]3(C)C(=CC[C@@H]4[C@@]5(C)CC[C@@H](O)C(C)(C)[C@@H]5CC[C@@]43C)[C@@H]2C1
REMARK SMILES IDX 6 1 5 2 10 3 32 4 4 5 11 6 14 7 33 8 2 9 12 10 15 11 1 12
REMARK SMILES IDX 3 13 13 14 30 15 16 16 17 17 29 18 31 19 18 20 28 21 27 22
REMARK SMILES IDX 20 23 19 24 24 25 21 26 22 27 25 28 26 29 7 30 8 31 9 32
REMARK SMILES IDX 23 33
REMARK H PARENT 23 34
REMARK Flexibility Score: inf
ROOT
ATOM      1  C   UNL     1       1.744  17.884  31.689  1.00  0.00     0.017 C 
ATOM      2  C   UNL     1       3.005  18.808  31.688  1.00  0.00     0.014 C 
ATOM      3  C   UNL     1       1.798  16.924  32.937  1.00  0.00     0.014 C 
ATOM      4  C   UNL     1       1.640  17.067  30.332  1.00  0.00     0.028 C 
ATOM      5  C   UNL     1       3.231  19.467  30.313  1.00  0.00     0.007 C 
ATOM      6  C   UNL     1       2.375  15.505  32.677  1.00  0.00     0.013 C 
ATOM      7  C   UNL     1       0.981  15.705  30.605  1.00  0.00    -0.064 C 
ATOM      8  C   UNL     1       2.994  17.010  29.589  1.00  0.00     0.015 C 
ATOM      9  C   UNL     1       3.514  18.422  29.181  1.00  0.00    -0.035 C 
ATOM     10  C   UNL     1       1.717  14.669  31.487  1.00  0.00    -0.006 C 
ATOM     11  C   UNL     1      -0.369  15.752  30.614  1.00  0.00    -0.027 C 
ATOM     12  C   UNL     1       5.037  18.329  28.936  1.00  0.00     0.011 C 
ATOM     13  C   UNL     1       2.850  18.878  27.863  1.00  0.00     0.011 C 
ATOM     14  C   UNL     1       2.912  14.055  30.665  1.00  0.00     0.017 C 
ATOM     15  C   UNL     1       0.721  13.412  31.881  1.00  0.00    -0.020 C 
ATOM     16  C   UNL     1      -1.151  15.266  31.792  1.00  0.00     0.032 C 
ATOM     17  C   UNL     1      -0.793  13.831  32.185  1.00  0.00     0.006 C 
ATOM     18  C   UNL     1       1.304  12.560  33.067  1.00  0.00     0.008 C 
ATOM     19  C   UNL     1       0.622  12.417  30.657  1.00  0.00     0.012 C 
ATOM     20  C   UNL     1      -1.380  13.360  33.582  1.00  0.00    -0.025 C 
ATOM     21  C   UNL     1       0.394  11.425  33.568  1.00  0.00     0.005 C 
ATOM     22  C   UNL     1      -1.112  11.810  33.683  1.00  0.00     0.003 C 
ATOM     23  C   UNL     1      -2.927  13.601  33.577  1.00  0.00     0.010 C 
ATOM     24  C   UNL     1      -0.736  14.165  34.758  1.00  0.00     0.012 C 
ATOM     25  C   UNL     1      -1.904  11.032  34.812  1.00  0.00    -0.006 C 
ATOM     26  C   UNL     1      -3.673  12.894  34.713  1.00  0.00     0.033 C 
ATOM     27  C   UNL     1      -3.426  11.378  34.711  1.00  0.00     0.120 C 
ATOM     28  C   UNL     1      -1.733   9.502  34.599  1.00  0.00     0.014 C 
ATOM     29  C   UNL     1      -1.420  11.334  36.258  1.00  0.00     0.014 C 
ENDROOT
BRANCH   1  30
ATOM     30  C   UNL     1       0.532  18.802  31.881  1.00  0.00     0.048 C 
ATOM     31  O   UNL     1       0.129  19.136  33.029  1.00  0.00    -0.550 OA
ATOM     32  O   UNL     1      -0.209  19.204  30.775  1.00  0.00    -0.550 OA
ENDBRANCH   1  30
BRANCH  27  33
ATOM     33  O   UNL     1      -3.989  10.838  33.539  1.00  0.00    -0.393 OA
ATOM     34  H   UNL     1      -3.789  11.465  32.795  1.00  0.00     0.210 HD
ENDBRANCH  27  33
TORSDOF 2
ENDMDL
MODEL 2
REMARK VINA RESULT:    -6.148      5.016      9.171
REMARK INTER + INTRA:          -6.970
REMARK INTER:                  -6.721
REMARK INTRA:                  -0.249
REMARK UNBOUND:                -0.282
REMARK SMILES CC1(C)CC[C@]2(C(=O)[O-])CC[C@]3(C)C(=CC[C@@H]4[C@@]5(C)CC[C@@H](O)C(C)(C)[C@@H]5CC[C@@]43C)[C@@H]2C1
REMARK SMILES IDX 6 1 5 2 10 3 32 4 4 5 11 6 14 7 33 8 2 9 12 10 15 11 1 12
REMARK SMILES IDX 3 13 13 14 30 15 16 16 17 17 29 18 31 19 18 20 28 21 27 22
REMARK SMILES IDX 20 23 19 24 24 25 21 26 22 27 25 28 26 29 7 30 8 31 9 32
REMARK SMILES IDX 23 33
REMARK H PARENT 23 34
REMARK Flexibility Score: inf
ROOT
ATOM      1  C   UNL     1       3.173  11.970  39.810  1.00  0.00     0.017 C 
ATOM      2  C   UNL     1       2.722  11.776  41.294  1.00  0.00     0.014 C 
ATOM      3  C   UNL     1       2.153  12.915  39.070  1.00  0.00     0.014 C 
ATOM      4  C   UNL     1       3.308  10.570  39.073  1.00  0.00     0.028 C 
ATOM      5  C   UNL     1       3.413  10.564  41.951  1.00  0.00     0.007 C 
ATOM      6  C   UNL     1       1.044  12.205  38.247  1.00  0.00     0.013 C 
ATOM      7  C   UNL     1       2.967  10.743  37.583  1.00  0.00    -0.064 C 
ATOM      8  C   UNL     1       2.527   9.456  39.806  1.00  0.00     0.015 C 
ATOM      9  C   UNL     1       3.049   9.211  41.254  1.00  0.00    -0.035 C 
ATOM     10  C   UNL     1       1.525  11.125  37.174  1.00  0.00    -0.006 C 
ATOM     11  C   UNL     1       4.009  11.171  36.839  1.00  0.00    -0.027 C 
ATOM     12  C   UNL     1       1.937   8.500  42.060  1.00  0.00     0.011 C 
ATOM     13  C   UNL     1       4.283   8.281  41.229  1.00  0.00     0.011 C 
ATOM     14  C   UNL     1       0.591   9.871  37.361  1.00  0.00     0.017 C 
ATOM     15  C   UNL     1       1.451  11.534  35.576  1.00  0.00    -0.020 C 
ATOM     16  C   UNL     1       3.904  12.404  35.999  1.00  0.00     0.032 C 
ATOM     17  C   UNL     1       2.711  12.364  35.041  1.00  0.00     0.006 C 
ATOM     18  C   UNL     1       0.113  12.284  35.231  1.00  0.00     0.008 C 
ATOM     19  C   UNL     1       1.436  10.220  34.698  1.00  0.00     0.012 C 
ATOM     20  C   UNL     1       2.386  13.744  34.330  1.00  0.00    -0.025 C 
ATOM     21  C   UNL     1       0.002  12.792  33.783  1.00  0.00     0.005 C 
ATOM     22  C   UNL     1       1.306  13.436  33.224  1.00  0.00     0.003 C 
ATOM     23  C   UNL     1       3.687  14.259  33.628  1.00  0.00     0.010 C 
ATOM     24  C   UNL     1       1.903  14.808  35.369  1.00  0.00     0.012 C 
ATOM     25  C   UNL     1       1.068  14.566  32.140  1.00  0.00    -0.006 C 
ATOM     26  C   UNL     1       3.450  15.397  32.630  1.00  0.00     0.033 C 
ATOM     27  C   UNL     1       2.442  15.006  31.538  1.00  0.00     0.120 C 
ATOM     28  C   UNL     1       0.187  13.999  30.991  1.00  0.00     0.014 C 
ATOM     29  C   UNL     1       0.334  15.826  32.679  1.00  0.00     0.014 C 
ENDROOT
BRANCH   1  30
ATOM     30  C   UNL     1       4.516  12.706  39.856  1.00  0.00     0.048 C 
ATOM     31  O   UNL     1       4.596  13.951  39.667  1.00  0.00    -0.550 OA
ATOM     32  O   UNL     1       5.693  11.982  40.013  1.00  0.00    -0.550 OA
ENDBRANCH   1  30
BRANCH  27  33
ATOM     33  O   UNL     1       3.006  13.975  30.761  1.00  0.00    -0.393 OA
ATOM     34  H   UNL     1       3.987  13.988  30.915  1.00  0.00     0.210 HD
ENDBRANCH  27  33
TORSDOF 2
ENDMDL
MODEL 3
REMARK VINA RESULT:    -6.130      1.901      2.744
REMARK INTER + INTRA:          -6.949
REMARK INTER:                  -6.904
REMARK INTRA:                  -0.046
REMARK UNBOUND:                -0.282
REMARK SMILES CC1(C)CC[C@]2(C(=O)[O-])CC[C@]3(C)C(=CC[C@@H]4[C@@]5(C)CC[C@@H](O)C(C)(C)[C@@H]5CC[C@@]43C)[C@@H]2C1
REMARK SMILES IDX 6 1 5 2 10 3 32 4 4 5 11 6 14 7 33 8 2 9 12 10 15 11 1 12
REMARK SMILES IDX 3 13 13 14 30 15 16 16 17 17 29 18 31 19 18 20 28 21 27 22
REMARK SMILES IDX 20 23 19 24 24 25 21 26 22 27 25 28 26 29 7 30 8 31 9 32
REMARK SMILES IDX 23 33
REMARK H PARENT 23 34
REMARK Flexibility Score: inf
ROOT
ATOM      1  C   UNL     1       0.028  18.873  30.833  1.00  0.00     0.017 C 
ATOM      2  C   UNL     1       0.334  20.393  30.632  1.00  0.00     0.014 C 
ATOM      3  C   UNL     1       0.543  18.416  32.250  1.00  0.00     0.014 C 
ATOM      4  C   UNL     1       0.678  18.008  29.671  1.00  0.00     0.028 C 
ATOM      5  C   UNL     1       0.243  20.806  29.150  1.00  0.00     0.007 C 
ATOM      6  C   UNL     1       1.947  17.753  32.281  1.00  0.00     0.013 C 
ATOM      7  C   UNL     1       1.069  16.626  30.223  1.00  0.00    -0.064 C 
ATOM      8  C   UNL     1       1.806  18.774  28.945  1.00  0.00     0.015 C 
ATOM      9  C   UNL     1       1.298  20.075  28.253  1.00  0.00    -0.035 C 
ATOM     10  C   UNL     1       2.183  16.523  31.292  1.00  0.00    -0.006 C 
ATOM     11  C   UNL     1       0.048  15.742  30.233  1.00  0.00    -0.027 C 
ATOM     12  C   UNL     1       2.509  21.008  28.020  1.00  0.00     0.011 C 
ATOM     13  C   UNL     1       0.683  19.745  26.875  1.00  0.00     0.011 C 
ATOM     14  C   UNL     1       3.577  16.770  30.602  1.00  0.00     0.017 C 
ATOM     15  C   UNL     1       2.241  15.006  31.942  1.00  0.00    -0.020 C 
ATOM     16  C   UNL     1      -0.357  15.044  31.492  1.00  0.00     0.032 C 
ATOM     17  C   UNL     1       0.812  14.321  32.166  1.00  0.00     0.006 C 
ATOM     18  C   UNL     1       3.079  14.977  33.272  1.00  0.00     0.008 C 
ATOM     19  C   UNL     1       2.996  14.037  30.948  1.00  0.00     0.012 C 
ATOM     20  C   UNL     1       0.510  13.801  33.634  1.00  0.00    -0.025 C 
ATOM     21  C   UNL     1       3.103  13.623  34.002  1.00  0.00     0.005 C 
ATOM     22  C   UNL     1       1.729  12.891  34.047  1.00  0.00     0.003 C 
ATOM     23  C   UNL     1      -0.782  12.919  33.593  1.00  0.00     0.010 C 
ATOM     24  C   UNL     1       0.288  14.998  34.616  1.00  0.00     0.012 C 
ATOM     25  C   UNL     1       1.518  11.969  35.318  1.00  0.00    -0.006 C 
ATOM     26  C   UNL     1      -1.008  12.081  34.856  1.00  0.00     0.033 C 
ATOM     27  C   UNL     1       0.186  11.165  35.161  1.00  0.00     0.120 C 
ATOM     28  C   UNL     1       2.694  10.957  35.421  1.00  0.00     0.014 C 
ATOM     29  C   UNL     1       1.478  12.738  36.668  1.00  0.00     0.014 C 
ENDROOT
BRANCH   1  30
ATOM     30  C   UNL     1      -1.498  18.734  30.843  1.00  0.00     0.048 C 
ATOM     31  O   UNL     1      -2.105  18.157  31.787  1.00  0.00    -0.550 OA
ATOM     32  O   UNL     1      -2.236  19.164  29.745  1.00  0.00    -0.550 OA
ENDBRANCH   1  30
BRANCH  27  33
ATOM     33  O   UNL     1       0.291  10.212  34.128  1.00  0.00    -0.393 OA
ATOM     34  H   UNL     1      -0.587   9.753  34.056  1.00  0.00     0.210 HD
ENDBRANCH  27  33
TORSDOF 2
ENDMDL
MODEL 4
REMARK VINA RESULT:    -6.102      1.989      7.901
REMARK INTER + INTRA:          -6.920
REMARK INTER:                  -6.636
REMARK INTRA:                  -0.283
REMARK UNBOUND:                -0.282
REMARK SMILES CC1(C)CC[C@]2(C(=O)[O-])CC[C@]3(C)C(=CC[C@@H]4[C@@]5(C)CC[C@@H](O)C(C)(C)[C@@H]5CC[C@@]43C)[C@@H]2C1
REMARK SMILES IDX 6 1 5 2 10 3 32 4 4 5 11 6 14 7 33 8 2 9 12 10 15 11 1 12
REMARK SMILES IDX 3 13 13 14 30 15 16 16 17 17 29 18 31 19 18 20 28 21 27 22
REMARK SMILES IDX 20 23 19 24 24 25 21 26 22 27 25 28 26 29 7 30 8 31 9 32
REMARK SMILES IDX 23 33
REMARK H PARENT 23 34
REMARK Flexibility Score: inf
ROOT
ATOM      1  C   UNL     1      -0.821  12.748  34.944  1.00  0.00     0.017 C 
ATOM      2  C   UNL     1      -2.073  11.839  35.167  1.00  0.00     0.014 C 
ATOM      3  C   UNL     1      -1.235  14.017  34.108  1.00  0.00     0.014 C 
ATOM      4  C   UNL     1       0.345  11.938  34.233  1.00  0.00     0.028 C 
ATOM      5  C   UNL     1      -1.678  10.414  35.602  1.00  0.00     0.007 C 
ATOM      6  C   UNL     1      -0.981  13.934  32.577  1.00  0.00     0.013 C 
ATOM      7  C   UNL     1       1.164  12.894  33.348  1.00  0.00    -0.064 C 
ATOM      8  C   UNL     1      -0.183  10.670  33.525  1.00  0.00     0.015 C 
ATOM      9  C   UNL     1      -0.840   9.661  34.515  1.00  0.00    -0.035 C 
ATOM     10  C   UNL     1       0.495  13.545  32.114  1.00  0.00    -0.006 C 
ATOM     11  C   UNL     1       2.120  13.567  34.024  1.00  0.00    -0.027 C 
ATOM     12  C   UNL     1      -1.768   8.722  33.710  1.00  0.00     0.011 C 
ATOM     13  C   UNL     1       0.242   8.790  35.191  1.00  0.00     0.011 C 
ATOM     14  C   UNL     1       0.333  12.456  30.987  1.00  0.00     0.017 C 
ATOM     15  C   UNL     1       1.449  14.737  31.484  1.00  0.00    -0.020 C 
ATOM     16  C   UNL     1       2.179  15.061  33.997  1.00  0.00     0.032 C 
ATOM     17  C   UNL     1       2.217  15.623  32.573  1.00  0.00     0.006 C 
ATOM     18  C   UNL     1       0.648  15.657  30.493  1.00  0.00     0.008 C 
ATOM     19  C   UNL     1       2.599  14.086  30.617  1.00  0.00     0.012 C 
ATOM     20  C   UNL     1       2.001  17.191  32.475  1.00  0.00    -0.025 C 
ATOM     21  C   UNL     1       1.432  16.857  29.934  1.00  0.00     0.005 C 
ATOM     22  C   UNL     1       2.316  17.595  30.984  1.00  0.00     0.003 C 
ATOM     23  C   UNL     1       3.037  17.895  33.414  1.00  0.00     0.010 C 
ATOM     24  C   UNL     1       0.553  17.584  32.916  1.00  0.00     0.012 C 
ATOM     25  C   UNL     1       2.518  19.140  30.703  1.00  0.00    -0.006 C 
ATOM     26  C   UNL     1       3.175  19.402  33.173  1.00  0.00     0.033 C 
ATOM     27  C   UNL     1       3.553  19.723  31.720  1.00  0.00     0.120 C 
ATOM     28  C   UNL     1       3.079  19.332  29.265  1.00  0.00     0.014 C 
ATOM     29  C   UNL     1       1.214  19.982  30.783  1.00  0.00     0.014 C 
ENDROOT
BRANCH   1  30
ATOM     30  C   UNL     1      -0.390  13.243  36.328  1.00  0.00     0.048 C 
ATOM     31  O   UNL     1      -0.848  14.310  36.822  1.00  0.00    -0.550 OA
ATOM     32  O   UNL     1       0.600  12.561  37.026  1.00  0.00    -0.550 OA
ENDBRANCH   1  30
BRANCH  27  33
ATOM     33  O   UNL     1       4.843  19.213  31.473  1.00  0.00    -0.393 OA
ATOM     34  H   UNL     1       5.480  19.733  32.031  1.00  0.00     0.210 HD
ENDBRANCH  27  33
TORSDOF 2
ENDMDL
MODEL 5
REMARK VINA RESULT:    -6.024      2.042      3.749
REMARK INTER + INTRA:          -6.835
REMARK INTER:                  -6.554
REMARK INTRA:                  -0.281
REMARK UNBOUND:                -0.282
REMARK SMILES CC1(C)CC[C@]2(C(=O)[O-])CC[C@]3(C)C(=CC[C@@H]4[C@@]5(C)CC[C@@H](O)C(C)(C)[C@@H]5CC[C@@]43C)[C@@H]2C1
REMARK SMILES IDX 6 1 5 2 10 3 32 4 4 5 11 6 14 7 33 8 2 9 12 10 15 11 1 12
REMARK SMILES IDX 3 13 13 14 30 15 16 16 17 17 29 18 31 19 18 20 28 21 27 22
REMARK SMILES IDX 20 23 19 24 24 25 21 26 22 27 25 28 26 29 7 30 8 31 9 32
REMARK SMILES IDX 23 33
REMARK H PARENT 23 34
REMARK Flexibility Score: inf
ROOT
ATOM      1  C   UNL     1       1.555  16.510  30.737  1.00  0.00     0.017 C 
ATOM      2  C   UNL     1       1.440  17.459  29.501  1.00  0.00     0.014 C 
ATOM      3  C   UNL     1       0.650  15.240  30.510  1.00  0.00     0.014 C 
ATOM      4  C   UNL     1       1.163  17.271  32.074  1.00  0.00     0.028 C 
ATOM      5  C   UNL     1       1.951  18.879  29.818  1.00  0.00     0.007 C 
ATOM      6  C   UNL     1      -0.763  15.290  31.152  1.00  0.00     0.013 C 
ATOM      7  C   UNL     1       0.527  16.277  33.060  1.00  0.00    -0.064 C 
ATOM      8  C   UNL     1       0.332  18.543  31.789  1.00  0.00     0.015 C 
ATOM      9  C   UNL     1       1.111  19.588  30.933  1.00  0.00    -0.035 C 
ATOM     10  C   UNL     1      -0.833  15.626  32.711  1.00  0.00    -0.006 C 
ATOM     11  C   UNL     1       1.432  15.586  33.786  1.00  0.00    -0.027 C 
ATOM     12  C   UNL     1       0.086  20.541  30.276  1.00  0.00     0.011 C 
ATOM     13  C   UNL     1       2.036  20.436  31.833  1.00  0.00     0.011 C 
ATOM     14  C   UNL     1      -1.972  16.701  32.881  1.00  0.00     0.017 C 
ATOM     15  C   UNL     1      -1.185  14.396  33.754  1.00  0.00    -0.020 C 
ATOM     16  C   UNL     1       1.433  14.091  33.799  1.00  0.00     0.032 C 
ATOM     17  C   UNL     1       0.073  13.505  34.184  1.00  0.00     0.006 C 
ATOM     18  C   UNL     1      -2.342  13.484  33.205  1.00  0.00     0.008 C 
ATOM     19  C   UNL     1      -1.731  14.997  35.110  1.00  0.00     0.012 C 
ATOM     20  C   UNL     1      -0.066  11.942  33.949  1.00  0.00    -0.025 C 
ATOM     21  C   UNL     1      -2.670  12.251  34.066  1.00  0.00     0.005 C 
ATOM     22  C   UNL     1      -1.422  11.505  34.623  1.00  0.00     0.003 C 
ATOM     23  C   UNL     1       1.114  11.223  34.683  1.00  0.00     0.010 C 
ATOM     24  C   UNL     1      -0.010  11.601  32.423  1.00  0.00     0.012 C 
ATOM     25  C   UNL     1      -1.628   9.949  34.839  1.00  0.00    -0.006 C 
ATOM     26  C   UNL     1       0.930   9.709  34.828  1.00  0.00     0.033 C 
ATOM     27  C   UNL     1      -0.374   9.352  35.557  1.00  0.00     0.120 C 
ATOM     28  C   UNL     1      -2.871   9.717  35.745  1.00  0.00     0.014 C 
ATOM     29  C   UNL     1      -1.881   9.149  33.530  1.00  0.00     0.014 C 
ENDROOT
BRANCH   1  30
ATOM     30  C   UNL     1       3.008  16.025  30.779  1.00  0.00     0.048 C 
ATOM     31  O   UNL     1       3.367  14.958  30.209  1.00  0.00    -0.550 OA
ATOM     32  O   UNL     1       3.943  16.716  31.541  1.00  0.00    -0.550 OA
ENDBRANCH   1  30
BRANCH  27  33
ATOM     33  O   UNL     1      -0.283   9.818  36.883  1.00  0.00    -0.393 OA
ATOM     34  H   UNL     1      -1.125   9.565  37.346  1.00  0.00     0.210 HD
ENDBRANCH  27  33
TORSDOF 2
ENDMDL
MODEL 6
REMARK VINA RESULT:    -5.819      5.087      7.128
REMARK INTER + INTRA:          -6.612
REMARK INTER:                  -6.330
REMARK INTRA:                  -0.282
REMARK UNBOUND:                -0.282
REMARK SMILES CC1(C)CC[C@]2(C(=O)[O-])CC[C@]3(C)C(=CC[C@@H]4[C@@]5(C)CC[C@@H](O)C(C)(C)[C@@H]5CC[C@@]43C)[C@@H]2C1
REMARK SMILES IDX 6 1 5 2 10 3 32 4 4 5 11 6 14 7 33 8 2 9 12 10 15 11 1 12
REMARK SMILES IDX 3 13 13 14 30 15 16 16 17 17 29 18 31 19 18 20 28 21 27 22
REMARK SMILES IDX 20 23 19 24 24 25 21 26 22 27 25 28 26 29 7 30 8 31 9 32
REMARK SMILES IDX 23 33
REMARK H PARENT 23 34
REMARK Flexibility Score: inf
ROOT
ATOM      1  C   UNL     1       0.989  13.835  34.818  1.00  0.00     0.017 C 
ATOM      2  C   UNL     1       0.671  15.201  34.129  1.00  0.00     0.014 C 
ATOM      3  C   UNL     1       1.089  14.044  36.376  1.00  0.00     0.014 C 
ATOM      4  C   UNL     1       2.321  13.202  34.230  1.00  0.00     0.028 C 
ATOM      5  C   UNL     1       0.964  15.162  32.615  1.00  0.00     0.007 C 
ATOM      6  C   UNL     1       2.521  14.237  36.945  1.00  0.00     0.013 C 
ATOM      7  C   UNL     1       3.029  12.391  35.329  1.00  0.00    -0.064 C 
ATOM      8  C   UNL     1       3.196  14.259  33.520  1.00  0.00     0.015 C 
ATOM      9  C   UNL     1       2.477  14.911  32.300  1.00  0.00    -0.035 C 
ATOM     10  C   UNL     1       3.601  13.126  36.564  1.00  0.00    -0.006 C 
ATOM     11  C   UNL     1       2.555  11.133  35.459  1.00  0.00    -0.027 C 
ATOM     12  C   UNL     1       3.169  16.259  31.990  1.00  0.00     0.011 C 
ATOM     13  C   UNL     1       2.614  14.011  31.052  1.00  0.00     0.011 C 
ATOM     14  C   UNL     1       4.904  13.903  36.138  1.00  0.00     0.017 C 
ATOM     15  C   UNL     1       4.055  12.053  37.735  1.00  0.00    -0.020 C 
ATOM     16  C   UNL     1       2.054  10.628  36.774  1.00  0.00     0.032 C 
ATOM     17  C   UNL     1       3.080  10.794  37.898  1.00  0.00     0.006 C 
ATOM     18  C   UNL     1       4.272  12.763  39.120  1.00  0.00     0.008 C 
ATOM     19  C   UNL     1       5.456  11.427  37.358  1.00  0.00     0.012 C 
ATOM     20  C   UNL     1       2.513  10.536  39.357  1.00  0.00    -0.025 C 
ATOM     21  C   UNL     1       4.599  11.824  40.294  1.00  0.00     0.005 C 
ATOM     22  C   UNL     1       3.756  10.514  40.326  1.00  0.00     0.003 C 
ATOM     23  C   UNL     1       1.832   9.126  39.383  1.00  0.00     0.010 C 
ATOM     24  C   UNL     1       1.459  11.625  39.746  1.00  0.00     0.012 C 
ATOM     25  C   UNL     1       3.505   9.929  41.776  1.00  0.00    -0.006 C 
ATOM     26  C   UNL     1       1.537   8.601  40.792  1.00  0.00     0.033 C 
ATOM     27  C   UNL     1       2.802   8.537  41.661  1.00  0.00     0.120 C 
ATOM     28  C   UNL     1       4.870   9.732  42.494  1.00  0.00     0.014 C 
ATOM     29  C   UNL     1       2.650  10.843  42.697  1.00  0.00     0.014 C 
ENDROOT
BRANCH   1  30
ATOM     30  C   UNL     1      -0.218  12.927  34.562  1.00  0.00     0.048 C 
ATOM     31  O   UNL     1      -1.211  12.909  35.341  1.00  0.00    -0.550 OA
ATOM     32  O   UNL     1      -0.190  12.025  33.504  1.00  0.00    -0.550 OA
ENDBRANCH   1  30
BRANCH  27  33
ATOM     33  O   UNL     1       3.673   7.577  41.108  1.00  0.00    -0.393 OA
ATOM     34  H   UNL     1       4.229   8.036  40.425  1.00  0.00     0.210 HD
ENDBRANCH  27  33
TORSDOF 2
ENDMDL
MODEL 7
REMARK VINA RESULT:    -5.786      2.023      8.833
REMARK INTER + INTRA:          -6.576
REMARK INTER:                  -6.319
REMARK INTRA:                  -0.258
REMARK UNBOUND:                -0.282
REMARK SMILES CC1(C)CC[C@]2(C(=O)[O-])CC[C@]3(C)C(=CC[C@@H]4[C@@]5(C)CC[C@@H](O)C(C)(C)[C@@H]5CC[C@@]43C)[C@@H]2C1
REMARK SMILES IDX 6 1 5 2 10 3 32 4 4 5 11 6 14 7 33 8 2 9 12 10 15 11 1 12
REMARK SMILES IDX 3 13 13 14 30 15 16 16 17 17 29 18 31 19 18 20 28 21 27 22
REMARK SMILES IDX 20 23 19 24 24 25 21 26 22 27 25 28 26 29 7 30 8 31 9 32
REMARK SMILES IDX 23 33
REMARK H PARENT 23 34
REMARK Flexibility Score: inf
ROOT
ATOM      1  C   UNL     1      -1.824   8.943  34.899  1.00  0.00     0.017 C 
ATOM      2  C   UNL     1      -1.751   7.467  35.408  1.00  0.00     0.014 C 
ATOM      3  C   UNL     1      -0.541   9.268  34.045  1.00  0.00     0.014 C 
ATOM      4  C   UNL     1      -1.985   9.952  36.114  1.00  0.00     0.028 C 
ATOM      5  C   UNL     1      -2.737   7.210  36.566  1.00  0.00     0.007 C 
ATOM      6  C   UNL     1       0.615   9.980  34.800  1.00  0.00     0.013 C 
ATOM      7  C   UNL     1      -1.295  11.283  35.766  1.00  0.00    -0.064 C 
ATOM      8  C   UNL     1      -1.554   9.314  37.453  1.00  0.00     0.015 C 
ATOM      9  C   UNL     1      -2.419   8.074  37.832  1.00  0.00    -0.035 C 
ATOM     10  C   UNL     1       0.241  11.317  35.588  1.00  0.00    -0.006 C 
ATOM     11  C   UNL     1      -2.072  12.118  35.043  1.00  0.00    -0.027 C 
ATOM     12  C   UNL     1      -1.628   7.221  38.851  1.00  0.00     0.011 C 
ATOM     13  C   UNL     1      -3.733   8.522  38.509  1.00  0.00     0.011 C 
ATOM     14  C   UNL     1       0.923  11.201  37.003  1.00  0.00     0.017 C 
ATOM     15  C   UNL     1       0.731  12.758  34.945  1.00  0.00    -0.020 C 
ATOM     16  C   UNL     1      -1.607  12.662  33.729  1.00  0.00     0.032 C 
ATOM     17  C   UNL     1      -0.246  13.356  33.828  1.00  0.00     0.006 C 
ATOM     18  C   UNL     1       2.204  12.679  34.402  1.00  0.00     0.008 C 
ATOM     19  C   UNL     1       0.758  13.856  36.081  1.00  0.00     0.012 C 
ATOM     20  C   UNL     1       0.421  13.705  32.432  1.00  0.00    -0.025 C 
ATOM     21  C   UNL     1       2.710  13.949  33.695  1.00  0.00     0.005 C 
ATOM     22  C   UNL     1       1.669  14.615  32.746  1.00  0.00     0.003 C 
ATOM     23  C   UNL     1      -0.602  14.532  31.585  1.00  0.00     0.010 C 
ATOM     24  C   UNL     1       0.802  12.402  31.654  1.00  0.00     0.012 C 
ATOM     25  C   UNL     1       2.301  15.388  31.516  1.00  0.00    -0.006 C 
ATOM     26  C   UNL     1       0.012  15.222  30.362  1.00  0.00     0.033 C 
ATOM     27  C   UNL     1       1.175  16.149  30.745  1.00  0.00     0.120 C 
ATOM     28  C   UNL     1       3.331  16.430  32.038  1.00  0.00     0.014 C 
ATOM     29  C   UNL     1       3.065  14.479  30.512  1.00  0.00     0.014 C 
ENDROOT
BRANCH   1  30
ATOM     30  C   UNL     1      -3.026   9.017  33.951  1.00  0.00     0.048 C 
ATOM     31  O   UNL     1      -4.135   9.490  34.323  1.00  0.00    -0.550 OA
ATOM     32  O   UNL     1      -2.934   8.466  32.678  1.00  0.00    -0.550 OA
ENDBRANCH   1  30
BRANCH  27  33
ATOM     33  O   UNL     1       0.662  17.209  31.518  1.00  0.00    -0.393 OA
ATOM     34  H   UNL     1       1.394  17.529  32.108  1.00  0.00     0.210 HD
ENDBRANCH  27  33
TORSDOF 2
ENDMDL
MODEL 8
REMARK VINA RESULT:    -5.635      2.051      3.046
REMARK INTER + INTRA:          -6.411
REMARK INTER:                  -6.151
REMARK INTRA:                  -0.260
REMARK UNBOUND:                -0.282
REMARK SMILES CC1(C)CC[C@]2(C(=O)[O-])CC[C@]3(C)C(=CC[C@@H]4[C@@]5(C)CC[C@@H](O)C(C)(C)[C@@H]5CC[C@@]43C)[C@@H]2C1
REMARK SMILES IDX 6 1 5 2 10 3 32 4 4 5 11 6 14 7 33 8 2 9 12 10 15 11 1 12
REMARK SMILES IDX 3 13 13 14 30 15 16 16 17 17 29 18 31 19 18 20 28 21 27 22
REMARK SMILES IDX 20 23 19 24 24 25 21 26 22 27 25 28 26 29 7 30 8 31 9 32
REMARK SMILES IDX 23 33
REMARK H PARENT 23 34
REMARK Flexibility Score: inf
ROOT
ATOM      1  C   UNL     1       3.247  16.666  31.960  1.00  0.00     0.017 C 
ATOM      2  C   UNL     1       4.103  17.197  30.765  1.00  0.00     0.014 C 
ATOM      3  C   UNL     1       3.383  15.099  32.048  1.00  0.00     0.014 C 
ATOM      4  C   UNL     1       1.730  17.110  31.811  1.00  0.00     0.028 C 
ATOM      5  C   UNL     1       3.702  18.631  30.364  1.00  0.00     0.007 C 
ATOM      6  C   UNL     1       2.254  14.280  31.364  1.00  0.00     0.013 C 
ATOM      7  C   UNL     1       0.821  16.036  32.431  1.00  0.00    -0.064 C 
ATOM      8  C   UNL     1       1.388  17.508  30.358  1.00  0.00     0.015 C 
ATOM      9  C   UNL     1       2.224  18.725  29.857  1.00  0.00    -0.035 C 
ATOM     10  C   UNL     1       0.756  14.631  31.785  1.00  0.00    -0.006 C 
ATOM     11  C   UNL     1       0.669  16.166  33.767  1.00  0.00    -0.027 C 
ATOM     12  C   UNL     1       2.210  18.722  28.311  1.00  0.00     0.011 C 
ATOM     13  C   UNL     1       1.585  20.048  30.333  1.00  0.00     0.011 C 
ATOM     14  C   UNL     1      -0.070  14.722  30.447  1.00  0.00     0.017 C 
ATOM     15  C   UNL     1      -0.045  13.567  32.762  1.00  0.00    -0.020 C 
ATOM     16  C   UNL     1       0.986  15.036  34.694  1.00  0.00     0.032 C 
ATOM     17  C   UNL     1       0.248  13.747  34.325  1.00  0.00     0.006 C 
ATOM     18  C   UNL     1       0.205  12.078  32.324  1.00  0.00     0.008 C 
ATOM     19  C   UNL     1      -1.602  13.792  32.619  1.00  0.00     0.012 C 
ATOM     20  C   UNL     1       0.750  12.453  35.094  1.00  0.00    -0.025 C 
ATOM     21  C   UNL     1      -0.422  11.012  33.240  1.00  0.00     0.005 C 
ATOM     22  C   UNL     1      -0.279  11.306  34.763  1.00  0.00     0.003 C 
ATOM     23  C   UNL     1       0.702  12.740  36.633  1.00  0.00     0.010 C 
ATOM     24  C   UNL     1       2.214  12.092  34.682  1.00  0.00     0.012 C 
ATOM     25  C   UNL     1      -0.210  10.015  35.678  1.00  0.00    -0.006 C 
ATOM     26  C   UNL     1       0.835  11.488  37.506  1.00  0.00     0.033 C 
ATOM     27  C   UNL     1      -0.241  10.441  37.182  1.00  0.00     0.120 C 
ATOM     28  C   UNL     1      -1.447   9.117  35.395  1.00  0.00     0.014 C 
ATOM     29  C   UNL     1       1.044   9.127  35.439  1.00  0.00     0.014 C 
ENDROOT
BRANCH   1  30
ATOM     30  C   UNL     1       3.873  17.243  33.233  1.00  0.00     0.048 C 
ATOM     31  O   UNL     1       3.393  18.260  33.806  1.00  0.00    -0.550 OA
ATOM     32  O   UNL     1       5.056  16.702  33.726  1.00  0.00    -0.550 OA
ENDBRANCH   1  30
BRANCH  27  33
ATOM     33  O   UNL     1      -1.499  10.973  37.529  1.00  0.00    -0.393 OA
ATOM     34  H   UNL     1      -1.960  10.301  38.096  1.00  0.00     0.210 HD
ENDBRANCH  27  33
TORSDOF 2
ENDMDL
MODEL 9
REMARK VINA RESULT:    -5.564      8.451     11.218
REMARK INTER + INTRA:          -6.334
REMARK INTER:                  -6.051
REMARK INTRA:                  -0.284
REMARK UNBOUND:                -0.282
REMARK SMILES CC1(C)CC[C@]2(C(=O)[O-])CC[C@]3(C)C(=CC[C@@H]4[C@@]5(C)CC[C@@H](O)C(C)(C)[C@@H]5CC[C@@]43C)[C@@H]2C1
REMARK SMILES IDX 6 1 5 2 10 3 32 4 4 5 11 6 14 7 33 8 2 9 12 10 15 11 1 12
REMARK SMILES IDX 3 13 13 14 30 15 16 16 17 17 29 18 31 19 18 20 28 21 27 22
REMARK SMILES IDX 20 23 19 24 24 25 21 26 22 27 25 28 26 29 7 30 8 31 9 32
REMARK SMILES IDX 23 33
REMARK H PARENT 23 34
REMARK Flexibility Score: inf
ROOT
ATOM      1  C   UNL     1       4.617  11.928  38.155  1.00  0.00     0.017 C 
ATOM      2  C   UNL     1       4.402  12.581  36.751  1.00  0.00     0.014 C 
ATOM      3  C   UNL     1       4.916  10.392  37.980  1.00  0.00     0.014 C 
ATOM      4  C   UNL     1       3.356  12.171  39.090  1.00  0.00     0.028 C 
ATOM      5  C   UNL     1       3.710  13.955  36.856  1.00  0.00     0.007 C 
ATOM      6  C   UNL     1       3.699   9.440  38.138  1.00  0.00     0.013 C 
ATOM      7  C   UNL     1       3.195  10.980  40.049  1.00  0.00    -0.064 C 
ATOM      8  C   UNL     1       2.096  12.539  38.273  1.00  0.00     0.015 C 
ATOM      9  C   UNL     1       2.270  13.860  37.465  1.00  0.00    -0.035 C 
ATOM     10  C   UNL     1       2.841   9.587  39.476  1.00  0.00    -0.006 C 
ATOM     11  C   UNL     1       3.963  11.074  41.156  1.00  0.00    -0.027 C 
ATOM     12  C   UNL     1       1.228  13.874  36.323  1.00  0.00     0.011 C 
ATOM     13  C   UNL     1       1.998  15.082  38.369  1.00  0.00     0.011 C 
ATOM     14  C   UNL     1       1.329   9.584  39.036  1.00  0.00     0.017 C 
ATOM     15  C   UNL     1       2.998   8.416  40.630  1.00  0.00    -0.020 C 
ATOM     16  C   UNL     1       4.918   9.985  41.528  1.00  0.00     0.032 C 
ATOM     17  C   UNL     1       4.242   8.614  41.617  1.00  0.00     0.006 C 
ATOM     18  C   UNL     1       3.024   6.977  39.996  1.00  0.00     0.008 C 
ATOM     19  C   UNL     1       1.731   8.436  41.575  1.00  0.00     0.012 C 
ATOM     20  C   UNL     1       5.242   7.388  41.733  1.00  0.00    -0.025 C 
ATOM     21  C   UNL     1       3.267   5.828  40.989  1.00  0.00     0.005 C 
ATOM     22  C   UNL     1       4.364   6.120  42.056  1.00  0.00     0.003 C 
ATOM     23  C   UNL     1       6.208   7.649  42.938  1.00  0.00     0.010 C 
ATOM     24  C   UNL     1       6.082   7.227  40.423  1.00  0.00     0.012 C 
ATOM     25  C   UNL     1       5.142   4.839  42.567  1.00  0.00    -0.006 C 
ATOM     26  C   UNL     1       7.002   6.415  43.379  1.00  0.00     0.033 C 
ATOM     27  C   UNL     1       6.085   5.239  43.748  1.00  0.00     0.120 C 
ATOM     28  C   UNL     1       4.119   3.790  43.088  1.00  0.00     0.014 C 
ATOM     29  C   UNL     1       5.988   4.125  41.475  1.00  0.00     0.014 C 
ENDROOT
BRANCH   1  30
ATOM     30  C   UNL     1       5.878  12.568  38.745  1.00  0.00     0.048 C 
ATOM     31  O   UNL     1       7.023  12.074  38.552  1.00  0.00    -0.550 OA
ATOM     32  O   UNL     1       5.762  13.662  39.595  1.00  0.00    -0.550 OA
ENDBRANCH   1  30
BRANCH  27  33
ATOM     33  O   UNL     1       5.340   5.598  44.889  1.00  0.00    -0.393 OA
ATOM     34  H   UNL     1       5.896   6.225  45.422  1.00  0.00     0.210 HD
ENDBRANCH  27  33
TORSDOF 2
ENDMDL
