MODEL 1
REMARK VINA RESULT:    -4.481      0.000      0.000
REMARK INTER + INTRA:          -7.659
REMARK INTER:                  -7.101
REMARK INTRA:                  -0.558
REMARK UNBOUND:                -0.558
REMARK SMILES CCCCCCCCCCCC(=O)[O-]
REMARK SMILES IDX 7 1 8 2 9 3 10 4 11 5 12 6 13 7 14 8 6 9 5 10 4 11 3 12 2 13
REMARK SMILES IDX 1 14
REMARK H PARENT
REMARK Flexibility Score: inf
ROOT
ATOM      1  C   UNL     1      10.051  14.406  22.925  1.00  0.00     0.000 C 
ENDROOT
BRANCH   1   2
ATOM      2  C   UNL     1      10.267  15.813  22.357  1.00  0.00     0.000 C 
BRANCH   2   3
ATOM      3  C   UNL     1      11.298  16.591  23.190  1.00  0.00     0.000 C 
BRANCH   3   4
ATOM      4  C   UNL     1      11.423  16.060  24.630  1.00  0.00     0.006 C 
BRANCH   4   5
ATOM      5  C   UNL     1      12.717  16.477  25.348  1.00  0.00     0.053 C 
BRANCH   5   6
ATOM      6  C   UNL     1      12.803  17.960  25.535  1.00  0.00     0.041 C 
ATOM      7  O   UNL     1      13.611  18.640  24.848  1.00  0.00    -0.550 OA
ATOM      8  O   UNL     1      12.016  18.589  26.492  1.00  0.00    -0.550 OA
ENDBRANCH   5   6
ENDBRANCH   4   5
ENDBRANCH   3   4
ENDBRANCH   2   3
ENDBRANCH   1   2
BRANCH   1   9
ATOM      9  C   UNL     1      10.180  13.341  21.825  1.00  0.00     0.000 C 
BRANCH   9  10
ATOM     10  C   UNL     1       8.923  12.464  21.688  1.00  0.00    -0.000 C 
BRANCH  10  11
ATOM     11  C   UNL     1       7.584  13.211  21.828  1.00  0.00    -0.000 C 
BRANCH  11  12
ATOM     12  C   UNL     1       6.788  12.784  23.073  1.00  0.00    -0.000 C 
BRANCH  12  13
ATOM     13  C   UNL     1       6.470  11.280  23.080  1.00  0.00    -0.003 C 
ATOM     14  C   UNL     1       5.134  10.953  22.416  1.00  0.00     0.004 C 
ENDBRANCH  12  13
ENDBRANCH  11  12
ENDBRANCH  10  11
ENDBRANCH   9  10
ENDBRANCH   1   9
TORSDOF 10
ENDMDL
MODEL 2
REMARK VINA RESULT:    -4.439      1.484      2.052
REMARK INTER + INTRA:          -7.592
REMARK INTER:                  -7.114
REMARK INTRA:                  -0.478
REMARK UNBOUND:                -0.558
REMARK SMILES CCCCCCCCCCCC(=O)[O-]
REMARK SMILES IDX 7 1 8 2 9 3 10 4 11 5 12 6 13 7 14 8 6 9 5 10 4 11 3 12 2 13
REMARK SMILES IDX 1 14
REMARK H PARENT
REMARK Flexibility Score: inf
ROOT
ATOM      1  C   UNL     1      11.093  15.008  22.685  1.00  0.00     0.000 C 
ENDROOT
BRANCH   1   2
ATOM      2  C   UNL     1      11.692  15.101  24.093  1.00  0.00     0.000 C 
BRANCH   2   3
ATOM      3  C   UNL     1      11.487  16.503  24.687  1.00  0.00     0.000 C 
BRANCH   3   4
ATOM      4  C   UNL     1      12.795  17.130  25.202  1.00  0.00     0.006 C 
BRANCH   4   5
ATOM      5  C   UNL     1      13.989  16.977  24.246  1.00  0.00     0.053 C 
BRANCH   5   6
ATOM      6  C   UNL     1      13.872  17.873  23.052  1.00  0.00     0.041 C 
ATOM      7  O   UNL     1      13.569  19.087  23.198  1.00  0.00    -0.550 OA
ATOM      8  O   UNL     1      14.064  17.361  21.775  1.00  0.00    -0.550 OA
ENDBRANCH   5   6
ENDBRANCH   4   5
ENDBRANCH   3   4
ENDBRANCH   2   3
ENDBRANCH   1   2
BRANCH   1   9
ATOM      9  C   UNL     1      10.071  13.865  22.595  1.00  0.00     0.000 C 
BRANCH   9  10
ATOM     10  C   UNL     1       8.645  14.356  22.290  1.00  0.00    -0.000 C 
BRANCH  10  11
ATOM     11  C   UNL     1       7.654  13.263  21.852  1.00  0.00    -0.000 C 
BRANCH  11  12
ATOM     12  C   UNL     1       6.785  12.742  23.011  1.00  0.00    -0.000 C 
BRANCH  12  13
ATOM     13  C   UNL     1       6.557  11.224  22.938  1.00  0.00    -0.003 C 
ATOM     14  C   UNL     1       5.120  10.857  22.573  1.00  0.00     0.004 C 
ENDBRANCH  12  13
ENDBRANCH  11  12
ENDBRANCH  10  11
ENDBRANCH   9  10
ENDBRANCH   1   9
TORSDOF 10
ENDMDL
MODEL 3
REMARK VINA RESULT:    -4.347      5.919      7.452
REMARK INTER + INTRA:          -7.446
REMARK INTER:                  -6.312
REMARK INTRA:                  -1.134
REMARK UNBOUND:                -0.558
REMARK SMILES CCCCCCCCCCCC(=O)[O-]
REMARK SMILES IDX 7 1 8 2 9 3 10 4 11 5 12 6 13 7 14 8 6 9 5 10 4 11 3 12 2 13
REMARK SMILES IDX 1 14
REMARK H PARENT
REMARK Flexibility Score: inf
ROOT
ATOM      1  C   UNL     1      14.692  19.214  22.754  1.00  0.00     0.000 C 
ENDROOT
BRANCH   1   2
ATOM      2  C   UNL     1      13.820  20.367  22.243  1.00  0.00     0.000 C 
BRANCH   2   3
ATOM      3  C   UNL     1      14.033  20.593  20.738  1.00  0.00     0.000 C 
BRANCH   3   4
ATOM      4  C   UNL     1      15.424  20.141  20.258  1.00  0.00     0.006 C 
BRANCH   4   5
ATOM      5  C   UNL     1      15.406  19.292  18.976  1.00  0.00     0.053 C 
BRANCH   5   6
ATOM      6  C   UNL     1      15.040  17.866  19.252  1.00  0.00     0.041 C 
ATOM      7  O   UNL     1      15.920  17.048  19.633  1.00  0.00    -0.550 OA
ATOM      8  O   UNL     1      13.736  17.431  19.055  1.00  0.00    -0.550 OA
ENDBRANCH   5   6
ENDBRANCH   4   5
ENDBRANCH   3   4
ENDBRANCH   2   3
ENDBRANCH   1   2
BRANCH   1   9
ATOM      9  C   UNL     1      13.894  17.903  22.812  1.00  0.00     0.000 C 
BRANCH   9  10
ATOM     10  C   UNL     1      14.032  17.175  24.160  1.00  0.00    -0.000 C 
BRANCH  10  11
ATOM     11  C   UNL     1      12.715  16.970  24.932  1.00  0.00    -0.000 C 
BRANCH  11  12
ATOM     12  C   UNL     1      12.608  17.861  26.181  1.00  0.00    -0.000 C 
BRANCH  12  13
ATOM     13  C   UNL     1      12.134  19.285  25.848  1.00  0.00    -0.003 C 
ATOM     14  C   UNL     1      10.991  19.307  24.834  1.00  0.00     0.004 C 
ENDBRANCH  12  13
ENDBRANCH  11  12
ENDBRANCH  10  11
ENDBRANCH   9  10
ENDBRANCH   1   9
TORSDOF 10
ENDMDL
MODEL 4
REMARK VINA RESULT:    -4.290      3.763      6.889
REMARK INTER + INTRA:          -7.357
REMARK INTER:                  -5.916
REMARK INTRA:                  -1.441
REMARK UNBOUND:                -0.558
REMARK SMILES CCCCCCCCCCCC(=O)[O-]
REMARK SMILES IDX 7 1 8 2 9 3 10 4 11 5 12 6 13 7 14 8 6 9 5 10 4 11 3 12 2 13
REMARK SMILES IDX 1 14
REMARK H PARENT
REMARK Flexibility Score: inf
ROOT
ATOM      1  C   UNL     1      13.829  19.049  21.671  1.00  0.00     0.000 C 
ENDROOT
BRANCH   1   2
ATOM      2  C   UNL     1      12.574  19.872  21.357  1.00  0.00     0.000 C 
BRANCH   2   3
ATOM      3  C   UNL     1      11.370  18.958  21.083  1.00  0.00     0.000 C 
BRANCH   3   4
ATOM      4  C   UNL     1      11.602  17.510  21.553  1.00  0.00     0.006 C 
BRANCH   4   5
ATOM      5  C   UNL     1      10.404  16.882  22.284  1.00  0.00     0.053 C 
BRANCH   5   6
ATOM      6  C   UNL     1      10.556  15.401  22.444  1.00  0.00     0.041 C 
ATOM      7  O   UNL     1       9.539  14.670  22.572  1.00  0.00    -0.550 OA
ATOM      8  O   UNL     1      11.823  14.832  22.487  1.00  0.00    -0.550 OA
ENDBRANCH   5   6
ENDBRANCH   4   5
ENDBRANCH   3   4
ENDBRANCH   2   3
ENDBRANCH   1   2
BRANCH   1   9
ATOM      9  C   UNL     1      14.626  19.678  22.824  1.00  0.00     0.000 C 
BRANCH   9  10
ATOM     10  C   UNL     1      14.803  18.726  24.020  1.00  0.00    -0.000 C 
BRANCH  10  11
ATOM     11  C   UNL     1      13.883  17.492  24.018  1.00  0.00    -0.000 C 
BRANCH  11  12
ATOM     12  C   UNL     1      12.961  17.430  25.247  1.00  0.00    -0.000 C 
BRANCH  12  13
ATOM     13  C   UNL     1      12.444  18.817  25.664  1.00  0.00    -0.003 C 
ATOM     14  C   UNL     1      11.232  19.267  24.850  1.00  0.00     0.004 C 
ENDBRANCH  12  13
ENDBRANCH  11  12
ENDBRANCH  10  11
ENDBRANCH   9  10
ENDBRANCH   1   9
TORSDOF 10
ENDMDL
MODEL 5
REMARK VINA RESULT:    -4.273      4.347      6.301
REMARK INTER + INTRA:          -7.329
REMARK INTER:                  -5.790
REMARK INTRA:                  -1.539
REMARK UNBOUND:                -0.558
REMARK SMILES CCCCCCCCCCCC(=O)[O-]
REMARK SMILES IDX 7 1 8 2 9 3 10 4 11 5 12 6 13 7 14 8 6 9 5 10 4 11 3 12 2 13
REMARK SMILES IDX 1 14
REMARK H PARENT
REMARK Flexibility Score: inf
ROOT
ATOM      1  C   UNL     1      11.006  19.265  24.770  1.00  0.00     0.000 C 
ENDROOT
BRANCH   1   2
ATOM      2  C   UNL     1      11.598  20.376  23.895  1.00  0.00     0.000 C 
BRANCH   2   3
ATOM      3  C   UNL     1      12.349  19.787  22.690  1.00  0.00     0.000 C 
BRANCH   3   4
ATOM      4  C   UNL     1      13.750  20.396  22.505  1.00  0.00     0.006 C 
BRANCH   4   5
ATOM      5  C   UNL     1      14.877  19.360  22.360  1.00  0.00     0.053 C 
BRANCH   5   6
ATOM      6  C   UNL     1      15.141  19.013  20.927  1.00  0.00     0.041 C 
ATOM      7  O   UNL     1      14.984  17.831  20.522  1.00  0.00    -0.550 OA
ATOM      8  O   UNL     1      15.594  19.988  20.047  1.00  0.00    -0.550 OA
ENDBRANCH   5   6
ENDBRANCH   4   5
ENDBRANCH   3   4
ENDBRANCH   2   3
ENDBRANCH   1   2
BRANCH   1   9
ATOM      9  C   UNL     1      11.899  18.989  25.989  1.00  0.00     0.000 C 
BRANCH   9  10
ATOM     10  C   UNL     1      12.882  17.827  25.764  1.00  0.00    -0.000 C 
BRANCH  10  11
ATOM     11  C   UNL     1      12.326  16.649  24.942  1.00  0.00    -0.000 C 
BRANCH  11  12
ATOM     12  C   UNL     1      13.260  16.227  23.795  1.00  0.00    -0.000 C 
BRANCH  12  13
ATOM     13  C   UNL     1      12.533  16.148  22.443  1.00  0.00    -0.003 C 
ATOM     14  C   UNL     1      11.016  16.279  22.577  1.00  0.00     0.004 C 
ENDBRANCH  12  13
ENDBRANCH  11  12
ENDBRANCH  10  11
ENDBRANCH   9  10
ENDBRANCH   1   9
TORSDOF 10
ENDMDL
MODEL 6
REMARK VINA RESULT:    -4.254      5.265      6.961
REMARK INTER + INTRA:          -7.299
REMARK INTER:                  -5.730
REMARK INTRA:                  -1.569
REMARK UNBOUND:                -0.558
REMARK SMILES CCCCCCCCCCCC(=O)[O-]
REMARK SMILES IDX 7 1 8 2 9 3 10 4 11 5 12 6 13 7 14 8 6 9 5 10 4 11 3 12 2 13
REMARK SMILES IDX 1 14
REMARK H PARENT
REMARK Flexibility Score: inf
ROOT
ATOM      1  C   UNL     1      11.192  17.601  21.879  1.00  0.00     0.000 C 
ENDROOT
BRANCH   1   2
ATOM      2  C   UNL     1      12.090  18.540  21.065  1.00  0.00     0.000 C 
BRANCH   2   3
ATOM      3  C   UNL     1      12.059  19.966  21.639  1.00  0.00     0.000 C 
BRANCH   3   4
ATOM      4  C   UNL     1      13.457  20.605  21.723  1.00  0.00     0.006 C 
BRANCH   4   5
ATOM      5  C   UNL     1      14.478  20.027  20.730  1.00  0.00     0.053 C 
BRANCH   5   6
ATOM      6  C   UNL     1      14.748  20.964  19.593  1.00  0.00     0.041 C 
ATOM      7  O   UNL     1      15.918  21.097  19.147  1.00  0.00    -0.550 OA
ATOM      8  O   UNL     1      13.714  21.715  19.048  1.00  0.00    -0.550 OA
ENDBRANCH   5   6
ENDBRANCH   4   5
ENDBRANCH   3   4
ENDBRANCH   2   3
ENDBRANCH   1   2
BRANCH   1   9
ATOM      9  C   UNL     1      12.032  16.625  22.717  1.00  0.00     0.000 C 
BRANCH   9  10
ATOM     10  C   UNL     1      13.529  16.981  22.733  1.00  0.00    -0.000 C 
BRANCH  10  11
ATOM     11  C   UNL     1      14.044  17.588  24.051  1.00  0.00    -0.000 C 
BRANCH  11  12
ATOM     12  C   UNL     1      12.939  17.744  25.110  1.00  0.00    -0.000 C 
BRANCH  12  13
ATOM     13  C   UNL     1      12.525  19.210  25.315  1.00  0.00    -0.003 C 
ATOM     14  C   UNL     1      11.022  19.430  25.153  1.00  0.00     0.004 C 
ENDBRANCH  12  13
ENDBRANCH  11  12
ENDBRANCH  10  11
ENDBRANCH   9  10
ENDBRANCH   1   9
TORSDOF 10
ENDMDL
MODEL 7
REMARK VINA RESULT:    -4.234      5.980      7.366
REMARK INTER + INTRA:          -7.267
REMARK INTER:                  -5.829
REMARK INTRA:                  -1.439
REMARK UNBOUND:                -0.558
REMARK SMILES CCCCCCCCCCCC(=O)[O-]
REMARK SMILES IDX 7 1 8 2 9 3 10 4 11 5 12 6 13 7 14 8 6 9 5 10 4 11 3 12 2 13
REMARK SMILES IDX 1 14
REMARK H PARENT
REMARK Flexibility Score: inf
ROOT
ATOM      1  C   UNL     1      14.394  19.520  22.421  1.00  0.00     0.000 C 
ENDROOT
BRANCH   1   2
ATOM      2  C   UNL     1      13.395  20.669  22.605  1.00  0.00     0.000 C 
BRANCH   2   3
ATOM      3  C   UNL     1      12.139  20.449  21.747  1.00  0.00     0.000 C 
BRANCH   3   4
ATOM      4  C   UNL     1      12.090  19.048  21.110  1.00  0.00     0.006 C 
BRANCH   4   5
ATOM      5  C   UNL     1      11.877  19.053  19.587  1.00  0.00     0.053 C 
BRANCH   5   6
ATOM      6  C   UNL     1      12.870  19.927  18.884  1.00  0.00     0.041 C 
ATOM      7  O   UNL     1      12.482  20.947  18.254  1.00  0.00    -0.550 OA
ATOM      8  O   UNL     1      14.219  19.596  18.894  1.00  0.00    -0.550 OA
ENDBRANCH   5   6
ENDBRANCH   4   5
ENDBRANCH   3   4
ENDBRANCH   2   3
ENDBRANCH   1   2
BRANCH   1   9
ATOM      9  C   UNL     1      14.685  18.823  23.758  1.00  0.00     0.000 C 
BRANCH   9  10
ATOM     10  C   UNL     1      14.077  17.412  23.846  1.00  0.00    -0.000 C 
BRANCH  10  11
ATOM     11  C   UNL     1      12.670  17.342  24.467  1.00  0.00    -0.000 C 
BRANCH  11  12
ATOM     12  C   UNL     1      12.630  17.856  25.917  1.00  0.00    -0.000 C 
BRANCH  12  13
ATOM     13  C   UNL     1      11.915  19.211  26.040  1.00  0.00    -0.003 C 
ATOM     14  C   UNL     1      10.812  19.397  24.999  1.00  0.00     0.004 C 
ENDBRANCH  12  13
ENDBRANCH  11  12
ENDBRANCH  10  11
ENDBRANCH   9  10
ENDBRANCH   1   9
TORSDOF 10
ENDMDL
MODEL 8
REMARK VINA RESULT:    -4.202      4.797      6.705
REMARK INTER + INTRA:          -7.217
REMARK INTER:                  -5.671
REMARK INTRA:                  -1.546
REMARK UNBOUND:                -0.558
REMARK SMILES CCCCCCCCCCCC(=O)[O-]
REMARK SMILES IDX 7 1 8 2 9 3 10 4 11 5 12 6 13 7 14 8 6 9 5 10 4 11 3 12 2 13
REMARK SMILES IDX 1 14
REMARK H PARENT
REMARK Flexibility Score: inf
ROOT
ATOM      1  C   UNL     1      14.681  18.605  24.115  1.00  0.00     0.000 C 
ENDROOT
BRANCH   1   2
ATOM      2  C   UNL     1      14.667  19.248  22.723  1.00  0.00     0.000 C 
BRANCH   2   3
ATOM      3  C   UNL     1      13.539  20.286  22.608  1.00  0.00     0.000 C 
BRANCH   3   4
ATOM      4  C   UNL     1      13.216  20.656  21.148  1.00  0.00     0.006 C 
BRANCH   4   5
ATOM      5  C   UNL     1      13.448  19.519  20.141  1.00  0.00     0.053 C 
BRANCH   5   6
ATOM      6  C   UNL     1      12.286  19.344  19.213  1.00  0.00     0.041 C 
ATOM      7  O   UNL     1      12.474  19.259  17.971  1.00  0.00    -0.550 OA
ATOM      8  O   UNL     1      10.992  19.309  19.717  1.00  0.00    -0.550 OA
ENDBRANCH   5   6
ENDBRANCH   4   5
ENDBRANCH   3   4
ENDBRANCH   2   3
ENDBRANCH   1   2
BRANCH   1   9
ATOM      9  C   UNL     1      13.371  18.889  24.866  1.00  0.00     0.000 C 
BRANCH   9  10
ATOM     10  C   UNL     1      12.813  17.650  25.588  1.00  0.00    -0.000 C 
BRANCH  10  11
ATOM     11  C   UNL     1      11.698  16.900  24.836  1.00  0.00    -0.000 C 
BRANCH  11  12
ATOM     12  C   UNL     1      11.033  17.755  23.743  1.00  0.00    -0.000 C 
BRANCH  12  13
ATOM     13  C   UNL     1      10.977  17.034  22.386  1.00  0.00    -0.003 C 
ATOM     14  C   UNL     1      12.333  16.479  21.952  1.00  0.00     0.004 C 
ENDBRANCH  12  13
ENDBRANCH  11  12
ENDBRANCH  10  11
ENDBRANCH   9  10
ENDBRANCH   1   9
TORSDOF 10
ENDMDL
MODEL 9
REMARK VINA RESULT:    -4.193      3.613      7.177
REMARK INTER + INTRA:          -7.202
REMARK INTER:                  -6.584
REMARK INTRA:                  -0.618
REMARK UNBOUND:                -0.558
REMARK SMILES CCCCCCCCCCCC(=O)[O-]
REMARK SMILES IDX 7 1 8 2 9 3 10 4 11 5 12 6 13 7 14 8 6 9 5 10 4 11 3 12 2 13
REMARK SMILES IDX 1 14
REMARK H PARENT
REMARK Flexibility Score: inf
ROOT
ATOM      1  C   UNL     1      11.412  14.206  23.318  1.00  0.00     0.000 C 
ENDROOT
BRANCH   1   2
ATOM      2  C   UNL     1      10.063  14.213  22.590  1.00  0.00     0.000 C 
BRANCH   2   3
ATOM      3  C   UNL     1      10.000  13.096  21.536  1.00  0.00     0.000 C 
BRANCH   3   4
ATOM      4  C   UNL     1       8.570  12.575  21.304  1.00  0.00     0.006 C 
BRANCH   4   5
ATOM      5  C   UNL     1       8.014  11.721  22.455  1.00  0.00     0.053 C 
BRANCH   5   6
ATOM      6  C   UNL     1       6.713  12.254  22.972  1.00  0.00     0.041 C 
ATOM      7  O   UNL     1       5.667  11.556  22.894  1.00  0.00    -0.550 OA
ATOM      8  O   UNL     1       6.648  13.534  23.508  1.00  0.00    -0.550 OA
ENDBRANCH   5   6
ENDBRANCH   4   5
ENDBRANCH   3   4
ENDBRANCH   2   3
ENDBRANCH   1   2
BRANCH   1   9
ATOM      9  C   UNL     1      11.362  15.080  24.580  1.00  0.00     0.000 C 
BRANCH   9  10
ATOM     10  C   UNL     1      12.709  15.750  24.902  1.00  0.00    -0.000 C 
BRANCH  10  11
ATOM     11  C   UNL     1      12.883  17.174  24.343  1.00  0.00    -0.000 C 
BRANCH  11  12
ATOM     12  C   UNL     1      11.555  17.809  23.898  1.00  0.00    -0.000 C 
BRANCH  12  13
ATOM     13  C   UNL     1      11.115  18.958  24.819  1.00  0.00    -0.003 C 
ATOM     14  C   UNL     1      12.086  19.197  25.974  1.00  0.00     0.004 C 
ENDBRANCH  12  13
ENDBRANCH  11  12
ENDBRANCH  10  11
ENDBRANCH   9  10
ENDBRANCH   1   9
TORSDOF 10
ENDMDL
