MODEL 1
REMARK VINA RESULT:    -3.818      0.000      0.000
REMARK INTER + INTRA:         -13.197
REMARK INTER:                  -8.730
REMARK INTRA:                  -4.468
REMARK UNBOUND:                -4.468
REMARK SMILES CCCCCCCCCCCCCCCCCCCCCCCC(=O)[O-]
REMARK SMILES IDX 13 1 14 2 15 3 16 4 17 5 18 6 19 7 20 8 21 9 22 10 23 11
REMARK SMILES IDX 24 12 25 13 26 14 12 15 11 16 10 17 9 18 8 19 7 20 6 21 5 22
REMARK SMILES IDX 4 23 3 24 2 25 1 26
REMARK H PARENT
REMARK Flexibility Score: inf
ROOT
ATOM      1  C   UNL     1       9.994  -8.151  33.692  1.00  0.00     0.000 C 
ENDROOT
BRANCH   1   2
ATOM      2  C   UNL     1       8.468  -7.996  33.599  1.00  0.00     0.000 C 
BRANCH   2   3
ATOM      3  C   UNL     1       8.025  -6.618  34.107  1.00  0.00     0.000 C 
BRANCH   3   4
ATOM      4  C   UNL     1       9.050  -5.537  33.732  1.00  0.00     0.000 C 
BRANCH   4   5
ATOM      5  C   UNL     1       8.609  -4.132  34.170  1.00  0.00     0.000 C 
BRANCH   5   6
ATOM      6  C   UNL     1       7.438  -4.162  35.166  1.00  0.00     0.000 C 
BRANCH   6   7
ATOM      7  C   UNL     1       7.876  -3.853  36.609  1.00  0.00     0.000 C 
BRANCH   7   8
ATOM      8  C   UNL     1       8.109  -5.091  37.498  1.00  0.00     0.000 C 
BRANCH   8   9
ATOM      9  C   UNL     1       9.567  -5.316  37.945  1.00  0.00     0.000 C 
BRANCH   9  10
ATOM     10  C   UNL     1      10.592  -4.322  37.366  1.00  0.00     0.006 C 
BRANCH  10  11
ATOM     11  C   UNL     1      11.641  -4.970  36.444  1.00  0.00     0.053 C 
BRANCH  11  12
ATOM     12  C   UNL     1      12.245  -3.995  35.480  1.00  0.00     0.041 C 
ATOM     13  O   UNL     1      12.267  -4.251  34.247  1.00  0.00    -0.550 OA
ATOM     14  O   UNL     1      12.747  -2.783  35.938  1.00  0.00    -0.550 OA
ENDBRANCH  11  12
ENDBRANCH  10  11
ENDBRANCH   9  10
ENDBRANCH   8   9
ENDBRANCH   7   8
ENDBRANCH   6   7
ENDBRANCH   5   6
ENDBRANCH   4   5
ENDBRANCH   3   4
ENDBRANCH   2   3
ENDBRANCH   1   2
BRANCH   1  15
ATOM     15  C   UNL     1      10.422  -9.282  34.641  1.00  0.00     0.000 C 
BRANCH  15  16
ATOM     16  C   UNL     1      10.299  -8.888  36.124  1.00  0.00     0.000 C 
BRANCH  16  17
ATOM     17  C   UNL     1       9.185  -9.663  36.847  1.00  0.00     0.000 C 
BRANCH  17  18
ATOM     18  C   UNL     1       8.204  -8.737  37.583  1.00  0.00    -0.000 C 
BRANCH  18  19
ATOM     19  C   UNL     1       6.759  -9.224  37.418  1.00  0.00    -0.000 C 
BRANCH  19  20
ATOM     20  C   UNL     1       6.569  -9.934  36.070  1.00  0.00    -0.000 C 
BRANCH  20  21
ATOM     21  C   UNL     1       5.130  -9.824  35.540  1.00  0.00    -0.000 C 
BRANCH  21  22
ATOM     22  C   UNL     1       4.988  -8.763  34.434  1.00  0.00    -0.000 C 
BRANCH  22  23
ATOM     23  C   UNL     1       4.040  -7.621  34.831  1.00  0.00    -0.000 C 
BRANCH  23  24
ATOM     24  C   UNL     1       4.663  -6.666  35.859  1.00  0.00    -0.000 C 
BRANCH  24  25
ATOM     25  C   UNL     1       3.916  -6.733  37.195  1.00  0.00    -0.003 C 
ATOM     26  C   UNL     1       2.610  -7.512  37.059  1.00  0.00     0.004 C 
ENDBRANCH  24  25
ENDBRANCH  23  24
ENDBRANCH  22  23
ENDBRANCH  21  22
ENDBRANCH  20  21
ENDBRANCH  19  20
ENDBRANCH  18  19
ENDBRANCH  17  18
ENDBRANCH  16  17
ENDBRANCH  15  16
ENDBRANCH   1  15
TORSDOF 22
ENDMDL
MODEL 2
REMARK VINA RESULT:    -3.758      1.121      3.470
REMARK INTER + INTRA:         -13.060
REMARK INTER:                  -8.795
REMARK INTRA:                  -4.265
REMARK UNBOUND:                -4.468
REMARK SMILES CCCCCCCCCCCCCCCCCCCCCCCC(=O)[O-]
REMARK SMILES IDX 13 1 14 2 15 3 16 4 17 5 18 6 19 7 20 8 21 9 22 10 23 11
REMARK SMILES IDX 24 12 25 13 26 14 12 15 11 16 10 17 9 18 8 19 7 20 6 21 5 22
REMARK SMILES IDX 4 23 3 24 2 25 1 26
REMARK H PARENT
REMARK Flexibility Score: inf
ROOT
ATOM      1  C   UNL     1       8.642  -4.759  33.968  1.00  0.00     0.000 C 
ENDROOT
BRANCH   1   2
ATOM      2  C   UNL     1       8.754  -5.924  32.972  1.00  0.00     0.000 C 
BRANCH   2   3
ATOM      3  C   UNL     1       8.662  -7.274  33.693  1.00  0.00     0.000 C 
BRANCH   3   4
ATOM      4  C   UNL     1       9.703  -8.262  33.148  1.00  0.00     0.000 C 
BRANCH   4   5
ATOM      5  C   UNL     1      10.414  -9.043  34.265  1.00  0.00     0.000 C 
BRANCH   5   6
ATOM      6  C   UNL     1       9.434  -9.623  35.298  1.00  0.00     0.000 C 
BRANCH   6   7
ATOM      7  C   UNL     1       9.782  -9.219  36.741  1.00  0.00     0.000 C 
BRANCH   7   8
ATOM      8  C   UNL     1      11.168  -8.567  36.919  1.00  0.00     0.000 C 
BRANCH   8   9
ATOM      9  C   UNL     1      11.150  -7.087  37.348  1.00  0.00     0.000 C 
BRANCH   9  10
ATOM     10  C   UNL     1      11.209  -6.067  36.195  1.00  0.00     0.006 C 
BRANCH  10  11
ATOM     11  C   UNL     1      11.490  -4.623  36.651  1.00  0.00     0.053 C 
BRANCH  11  12
ATOM     12  C   UNL     1      12.136  -3.795  35.581  1.00  0.00     0.041 C 
ATOM     13  O   UNL     1      12.094  -4.166  34.379  1.00  0.00    -0.550 OA
ATOM     14  O   UNL     1      12.749  -2.591  35.907  1.00  0.00    -0.550 OA
ENDBRANCH  11  12
ENDBRANCH  10  11
ENDBRANCH   9  10
ENDBRANCH   8   9
ENDBRANCH   7   8
ENDBRANCH   6   7
ENDBRANCH   5   6
ENDBRANCH   4   5
ENDBRANCH   3   4
ENDBRANCH   2   3
ENDBRANCH   1   2
BRANCH   1  15
ATOM     15  C   UNL     1       7.507  -4.952  34.986  1.00  0.00     0.000 C 
BRANCH  15  16
ATOM     16  C   UNL     1       7.788  -4.248  36.326  1.00  0.00     0.000 C 
BRANCH  16  17
ATOM     17  C   UNL     1       7.923  -5.239  37.493  1.00  0.00     0.000 C 
BRANCH  17  18
ATOM     18  C   UNL     1       7.458  -6.656  37.122  1.00  0.00    -0.000 C 
BRANCH  18  19
ATOM     19  C   UNL     1       6.493  -7.212  38.176  1.00  0.00    -0.000 C 
BRANCH  19  20
ATOM     20  C   UNL     1       5.187  -7.691  37.527  1.00  0.00    -0.000 C 
BRANCH  20  21
ATOM     21  C   UNL     1       4.596  -6.658  36.553  1.00  0.00    -0.000 C 
BRANCH  21  22
ATOM     22  C   UNL     1       4.199  -7.280  35.202  1.00  0.00    -0.000 C 
BRANCH  22  23
ATOM     23  C   UNL     1       5.342  -8.087  34.565  1.00  0.00    -0.000 C 
BRANCH  23  24
ATOM     24  C   UNL     1       4.854  -9.384  33.905  1.00  0.00    -0.000 C 
BRANCH  24  25
ATOM     25  C   UNL     1       4.670 -10.494  34.945  1.00  0.00    -0.003 C 
ATOM     26  C   UNL     1       3.202 -10.889  35.079  1.00  0.00     0.004 C 
ENDBRANCH  24  25
ENDBRANCH  23  24
ENDBRANCH  22  23
ENDBRANCH  21  22
ENDBRANCH  20  21
ENDBRANCH  19  20
ENDBRANCH  18  19
ENDBRANCH  17  18
ENDBRANCH  16  17
ENDBRANCH  15  16
ENDBRANCH   1  15
TORSDOF 22
ENDMDL
MODEL 3
REMARK VINA RESULT:    -3.721      2.315      4.341
REMARK INTER + INTRA:         -12.974
REMARK INTER:                  -9.357
REMARK INTRA:                  -3.617
REMARK UNBOUND:                -4.468
REMARK SMILES CCCCCCCCCCCCCCCCCCCCCCCC(=O)[O-]
REMARK SMILES IDX 13 1 14 2 15 3 16 4 17 5 18 6 19 7 20 8 21 9 22 10 23 11
REMARK SMILES IDX 24 12 25 13 26 14 12 15 11 16 10 17 9 18 8 19 7 20 6 21 5 22
REMARK SMILES IDX 4 23 3 24 2 25 1 26
REMARK H PARENT
REMARK Flexibility Score: inf
ROOT
ATOM      1  C   UNL     1      14.055  -5.690  38.533  1.00  0.00     0.000 C 
ENDROOT
BRANCH   1   2
ATOM      2  C   UNL     1      14.983  -4.891  37.604  1.00  0.00     0.000 C 
BRANCH   2   3
ATOM      3  C   UNL     1      14.182  -3.912  36.738  1.00  0.00     0.000 C 
BRANCH   3   4
ATOM      4  C   UNL     1      12.682  -4.239  36.781  1.00  0.00     0.000 C 
BRANCH   4   5
ATOM      5  C   UNL     1      11.866  -3.392  35.792  1.00  0.00     0.000 C 
BRANCH   5   6
ATOM      6  C   UNL     1      11.443  -4.184  34.543  1.00  0.00     0.000 C 
BRANCH   6   7
ATOM      7  C   UNL     1      11.263  -5.686  34.824  1.00  0.00     0.000 C 
BRANCH   7   8
ATOM      8  C   UNL     1       9.910  -6.275  34.378  1.00  0.00     0.000 C 
BRANCH   8   9
ATOM      9  C   UNL     1       8.901  -5.255  33.814  1.00  0.00     0.000 C 
BRANCH   9  10
ATOM     10  C   UNL     1       7.858  -4.737  34.823  1.00  0.00     0.006 C 
BRANCH  10  11
ATOM     11  C   UNL     1       7.981  -5.358  36.226  1.00  0.00     0.053 C 
BRANCH  11  12
ATOM     12  C   UNL     1       8.655  -4.446  37.205  1.00  0.00     0.041 C 
ATOM     13  O   UNL     1       8.445  -3.205  37.165  1.00  0.00    -0.550 OA
ATOM     14  O   UNL     1       9.484  -4.970  38.190  1.00  0.00    -0.550 OA
ENDBRANCH  11  12
ENDBRANCH  10  11
ENDBRANCH   9  10
ENDBRANCH   8   9
ENDBRANCH   7   8
ENDBRANCH   6   7
ENDBRANCH   5   6
ENDBRANCH   4   5
ENDBRANCH   3   4
ENDBRANCH   2   3
ENDBRANCH   1   2
BRANCH   1  15
ATOM     15  C   UNL     1      14.534  -7.132  38.760  1.00  0.00     0.000 C 
BRANCH  15  16
ATOM     16  C   UNL     1      13.389  -8.157  38.669  1.00  0.00     0.000 C 
BRANCH  16  17
ATOM     17  C   UNL     1      12.032  -7.497  38.375  1.00  0.00     0.000 C 
BRANCH  17  18
ATOM     18  C   UNL     1      11.223  -8.257  37.313  1.00  0.00    -0.000 C 
BRANCH  18  19
ATOM     19  C   UNL     1       9.755  -8.395  37.734  1.00  0.00    -0.000 C 
BRANCH  19  20
ATOM     20  C   UNL     1       9.120  -9.645  37.109  1.00  0.00    -0.000 C 
BRANCH  20  21
ATOM     21  C   UNL     1       8.482  -9.363  35.739  1.00  0.00    -0.000 C 
BRANCH  21  22
ATOM     22  C   UNL     1       7.039  -8.840  35.856  1.00  0.00    -0.000 C 
BRANCH  22  23
ATOM     23  C   UNL     1       6.487  -8.325  34.517  1.00  0.00    -0.000 C 
BRANCH  23  24
ATOM     24  C   UNL     1       4.953  -8.282  34.487  1.00  0.00    -0.000 C 
BRANCH  24  25
ATOM     25  C   UNL     1       4.418  -7.162  35.386  1.00  0.00    -0.003 C 
ATOM     26  C   UNL     1       3.149  -7.596  36.115  1.00  0.00     0.004 C 
ENDBRANCH  24  25
ENDBRANCH  23  24
ENDBRANCH  22  23
ENDBRANCH  21  22
ENDBRANCH  20  21
ENDBRANCH  19  20
ENDBRANCH  18  19
ENDBRANCH  17  18
ENDBRANCH  16  17
ENDBRANCH  15  16
ENDBRANCH   1  15
TORSDOF 22
ENDMDL
MODEL 4
REMARK VINA RESULT:    -3.716      1.094      2.345
REMARK INTER + INTRA:         -12.963
REMARK INTER:                  -8.254
REMARK INTRA:                  -4.709
REMARK UNBOUND:                -4.468
REMARK SMILES CCCCCCCCCCCCCCCCCCCCCCCC(=O)[O-]
REMARK SMILES IDX 13 1 14 2 15 3 16 4 17 5 18 6 19 7 20 8 21 9 22 10 23 11
REMARK SMILES IDX 24 12 25 13 26 14 12 15 11 16 10 17 9 18 8 19 7 20 6 21 5 22
REMARK SMILES IDX 4 23 3 24 2 25 1 26
REMARK H PARENT
REMARK Flexibility Score: inf
ROOT
ATOM      1  C   UNL     1       8.624  -7.122  33.552  1.00  0.00     0.000 C 
ENDROOT
BRANCH   1   2
ATOM      2  C   UNL     1       8.947  -5.687  33.105  1.00  0.00     0.000 C 
BRANCH   2   3
ATOM      3  C   UNL     1       8.337  -4.662  34.068  1.00  0.00     0.000 C 
BRANCH   3   4
ATOM      4  C   UNL     1       7.438  -5.348  35.106  1.00  0.00     0.000 C 
BRANCH   4   5
ATOM      5  C   UNL     1       7.860  -5.036  36.550  1.00  0.00     0.000 C 
BRANCH   5   6
ATOM      6  C   UNL     1       7.725  -6.252  37.482  1.00  0.00     0.000 C 
BRANCH   6   7
ATOM      7  C   UNL     1       9.057  -6.646  38.143  1.00  0.00     0.000 C 
BRANCH   7   8
ATOM      8  C   UNL     1      10.198  -5.623  37.972  1.00  0.00     0.000 C 
BRANCH   8   9
ATOM      9  C   UNL     1      11.368  -6.084  37.081  1.00  0.00     0.000 C 
BRANCH   9  10
ATOM     10  C   UNL     1      11.551  -5.290  35.773  1.00  0.00     0.006 C 
BRANCH  10  11
ATOM     11  C   UNL     1      11.430  -3.764  35.946  1.00  0.00     0.053 C 
BRANCH  11  12
ATOM     12  C   UNL     1      12.760  -3.095  36.117  1.00  0.00     0.041 C 
ATOM     13  O   UNL     1      12.824  -1.859  36.346  1.00  0.00    -0.550 OA
ATOM     14  O   UNL     1      13.929  -3.844  36.063  1.00  0.00    -0.550 OA
ENDBRANCH  11  12
ENDBRANCH  10  11
ENDBRANCH   9  10
ENDBRANCH   8   9
ENDBRANCH   7   8
ENDBRANCH   6   7
ENDBRANCH   5   6
ENDBRANCH   4   5
ENDBRANCH   3   4
ENDBRANCH   2   3
ENDBRANCH   1   2
BRANCH   1  15
ATOM     15  C   UNL     1       9.882  -7.947  33.865  1.00  0.00     0.000 C 
BRANCH  15  16
ATOM     16  C   UNL     1       9.746  -8.765  35.162  1.00  0.00     0.000 C 
BRANCH  16  17
ATOM     17  C   UNL     1      10.377 -10.162  35.044  1.00  0.00     0.000 C 
BRANCH  17  18
ATOM     18  C   UNL     1      10.143 -11.023  36.294  1.00  0.00    -0.000 C 
BRANCH  18  19
ATOM     19  C   UNL     1       9.445 -10.216  37.396  1.00  0.00    -0.000 C 
BRANCH  19  20
ATOM     20  C   UNL     1       8.114 -10.868  37.795  1.00  0.00    -0.000 C 
BRANCH  20  21
ATOM     21  C   UNL     1       6.912  -9.929  37.597  1.00  0.00    -0.000 C 
BRANCH  21  22
ATOM     22  C   UNL     1       6.281 -10.065  36.200  1.00  0.00    -0.000 C 
BRANCH  22  23
ATOM     23  C   UNL     1       6.062  -8.706  35.517  1.00  0.00    -0.000 C 
BRANCH  23  24
ATOM     24  C   UNL     1       4.769  -8.661  34.691  1.00  0.00    -0.000 C 
BRANCH  24  25
ATOM     25  C   UNL     1       3.930  -7.429  35.051  1.00  0.00    -0.003 C 
ATOM     26  C   UNL     1       4.239  -6.944  36.465  1.00  0.00     0.004 C 
ENDBRANCH  24  25
ENDBRANCH  23  24
ENDBRANCH  22  23
ENDBRANCH  21  22
ENDBRANCH  20  21
ENDBRANCH  19  20
ENDBRANCH  18  19
ENDBRANCH  17  18
ENDBRANCH  16  17
ENDBRANCH  15  16
ENDBRANCH   1  15
TORSDOF 22
ENDMDL
MODEL 5
REMARK VINA RESULT:    -3.709      1.710      4.415
REMARK INTER + INTRA:         -12.948
REMARK INTER:                  -8.940
REMARK INTRA:                  -4.008
REMARK UNBOUND:                -4.468
REMARK SMILES CCCCCCCCCCCCCCCCCCCCCCCC(=O)[O-]
REMARK SMILES IDX 13 1 14 2 15 3 16 4 17 5 18 6 19 7 20 8 21 9 22 10 23 11
REMARK SMILES IDX 24 12 25 13 26 14 12 15 11 16 10 17 9 18 8 19 7 20 6 21 5 22
REMARK SMILES IDX 4 23 3 24 2 25 1 26
REMARK H PARENT
REMARK Flexibility Score: inf
ROOT
ATOM      1  C   UNL     1      10.021  -7.208  34.321  1.00  0.00     0.000 C 
ENDROOT
BRANCH   1   2
ATOM      2  C   UNL     1      10.567  -8.626  34.087  1.00  0.00     0.000 C 
BRANCH   2   3
ATOM      3  C   UNL     1      10.195  -9.556  35.248  1.00  0.00     0.000 C 
BRANCH   3   4
ATOM      4  C   UNL     1      10.662  -8.975  36.591  1.00  0.00     0.000 C 
BRANCH   4   5
ATOM      5  C   UNL     1      11.150 -10.060  37.563  1.00  0.00     0.000 C 
BRANCH   5   6
ATOM      6  C   UNL     1      12.315  -9.583  38.446  1.00  0.00     0.000 C 
BRANCH   6   7
ATOM      7  C   UNL     1      12.249  -8.077  38.756  1.00  0.00     0.000 C 
BRANCH   7   8
ATOM      8  C   UNL     1      13.617  -7.386  38.924  1.00  0.00     0.000 C 
BRANCH   8   9
ATOM      9  C   UNL     1      13.620  -5.864  38.678  1.00  0.00     0.000 C 
BRANCH   9  10
ATOM     10  C   UNL     1      12.283  -5.275  38.189  1.00  0.00     0.006 C 
BRANCH  10  11
ATOM     11  C   UNL     1      12.232  -5.012  36.673  1.00  0.00     0.053 C 
BRANCH  11  12
ATOM     12  C   UNL     1      12.433  -3.567  36.329  1.00  0.00     0.041 C 
ATOM     13  O   UNL     1      11.603  -2.702  36.713  1.00  0.00    -0.550 OA
ATOM     14  O   UNL     1      13.560  -3.170  35.620  1.00  0.00    -0.550 OA
ENDBRANCH  11  12
ENDBRANCH  10  11
ENDBRANCH   9  10
ENDBRANCH   8   9
ENDBRANCH   7   8
ENDBRANCH   6   7
ENDBRANCH   5   6
ENDBRANCH   4   5
ENDBRANCH   3   4
ENDBRANCH   2   3
ENDBRANCH   1   2
BRANCH   1  15
ATOM     15  C   UNL     1       8.832  -6.869  33.409  1.00  0.00     0.000 C 
BRANCH  15  16
ATOM     16  C   UNL     1       8.705  -5.358  33.141  1.00  0.00     0.000 C 
BRANCH  16  17
ATOM     17  C   UNL     1       9.064  -4.511  34.373  1.00  0.00     0.000 C 
BRANCH  17  18
ATOM     18  C   UNL     1       7.863  -3.721  34.916  1.00  0.00    -0.000 C 
BRANCH  18  19
ATOM     19  C   UNL     1       7.504  -4.175  36.337  1.00  0.00    -0.000 C 
BRANCH  19  20
ATOM     20  C   UNL     1       8.743  -4.697  37.077  1.00  0.00    -0.000 C 
BRANCH  20  21
ATOM     21  C   UNL     1       8.488  -6.035  37.789  1.00  0.00    -0.000 C 
BRANCH  21  22
ATOM     22  C   UNL     1       7.116  -6.638  37.439  1.00  0.00    -0.000 C 
BRANCH  22  23
ATOM     23  C   UNL     1       7.231  -7.905  36.576  1.00  0.00    -0.000 C 
BRANCH  23  24
ATOM     24  C   UNL     1       6.152  -7.979  35.487  1.00  0.00    -0.000 C 
BRANCH  24  25
ATOM     25  C   UNL     1       5.086  -6.898  35.697  1.00  0.00    -0.003 C 
ATOM     26  C   UNL     1       3.747  -7.318  35.097  1.00  0.00     0.004 C 
ENDBRANCH  24  25
ENDBRANCH  23  24
ENDBRANCH  22  23
ENDBRANCH  21  22
ENDBRANCH  20  21
ENDBRANCH  19  20
ENDBRANCH  18  19
ENDBRANCH  17  18
ENDBRANCH  16  17
ENDBRANCH  15  16
ENDBRANCH   1  15
TORSDOF 22
ENDMDL
MODEL 6
REMARK VINA RESULT:    -3.674      1.378      3.564
REMARK INTER + INTRA:         -12.867
REMARK INTER:                  -8.473
REMARK INTRA:                  -4.395
REMARK UNBOUND:                -4.468
REMARK SMILES CCCCCCCCCCCCCCCCCCCCCCCC(=O)[O-]
REMARK SMILES IDX 13 1 14 2 15 3 16 4 17 5 18 6 19 7 20 8 21 9 22 10 23 11
REMARK SMILES IDX 24 12 25 13 26 14 12 15 11 16 10 17 9 18 8 19 7 20 6 21 5 22
REMARK SMILES IDX 4 23 3 24 2 25 1 26
REMARK H PARENT
REMARK Flexibility Score: inf
ROOT
ATOM      1  C   UNL     1       8.649  -5.476  33.000  1.00  0.00     0.000 C 
ENDROOT
BRANCH   1   2
ATOM      2  C   UNL     1       8.831  -6.999  33.091  1.00  0.00     0.000 C 
BRANCH   2   3
ATOM      3  C   UNL     1       9.884  -7.364  34.144  1.00  0.00     0.000 C 
BRANCH   3   4
ATOM      4  C   UNL     1      10.471  -8.758  33.877  1.00  0.00     0.000 C 
BRANCH   4   5
ATOM      5  C   UNL     1      10.110  -9.769  34.976  1.00  0.00     0.000 C 
BRANCH   5   6
ATOM      6  C   UNL     1       9.110  -9.201  35.997  1.00  0.00     0.000 C 
BRANCH   6   7
ATOM      7  C   UNL     1       9.619  -9.296  37.446  1.00  0.00     0.000 C 
BRANCH   7   8
ATOM      8  C   UNL     1      10.035  -7.954  38.080  1.00  0.00     0.000 C 
BRANCH   8   9
ATOM      9  C   UNL     1      11.395  -7.399  37.613  1.00  0.00     0.000 C 
BRANCH   9  10
ATOM     10  C   UNL     1      11.345  -6.013  36.944  1.00  0.00     0.006 C 
BRANCH  10  11
ATOM     11  C   UNL     1      10.937  -4.873  37.895  1.00  0.00     0.053 C 
BRANCH  11  12
ATOM     12  C   UNL     1      11.051  -3.520  37.259  1.00  0.00     0.041 C 
ATOM     13  O   UNL     1      10.461  -2.530  37.764  1.00  0.00    -0.550 OA
ATOM     14  O   UNL     1      11.842  -3.346  36.130  1.00  0.00    -0.550 OA
ENDBRANCH  11  12
ENDBRANCH  10  11
ENDBRANCH   9  10
ENDBRANCH   8   9
ENDBRANCH   7   8
ENDBRANCH   6   7
ENDBRANCH   5   6
ENDBRANCH   4   5
ENDBRANCH   3   4
ENDBRANCH   2   3
ENDBRANCH   1   2
BRANCH   1  15
ATOM     15  C   UNL     1       9.103  -4.743  34.272  1.00  0.00     0.000 C 
BRANCH  15  16
ATOM     16  C   UNL     1       7.961  -3.961  34.944  1.00  0.00     0.000 C 
BRANCH  16  17
ATOM     17  C   UNL     1       7.716  -4.410  36.394  1.00  0.00     0.000 C 
BRANCH  17  18
ATOM     18  C   UNL     1       7.295  -5.884  36.493  1.00  0.00    -0.000 C 
BRANCH  18  19
ATOM     19  C   UNL     1       5.966  -6.127  35.767  1.00  0.00    -0.000 C 
BRANCH  19  20
ATOM     20  C   UNL     1       5.941  -7.518  35.118  1.00  0.00    -0.000 C 
BRANCH  20  21
ATOM     21  C   UNL     1       4.513  -8.036  34.882  1.00  0.00    -0.000 C 
BRANCH  21  22
ATOM     22  C   UNL     1       3.463  -7.268  35.704  1.00  0.00    -0.000 C 
BRANCH  22  23
ATOM     23  C   UNL     1       2.604  -8.196  36.577  1.00  0.00    -0.000 C 
BRANCH  23  24
ATOM     24  C   UNL     1       3.426  -8.930  37.646  1.00  0.00    -0.000 C 
BRANCH  24  25
ATOM     25  C   UNL     1       4.166  -7.936  38.548  1.00  0.00    -0.003 C 
ATOM     26  C   UNL     1       5.619  -8.356  38.757  1.00  0.00     0.004 C 
ENDBRANCH  24  25
ENDBRANCH  23  24
ENDBRANCH  22  23
ENDBRANCH  21  22
ENDBRANCH  20  21
ENDBRANCH  19  20
ENDBRANCH  18  19
ENDBRANCH  17  18
ENDBRANCH  16  17
ENDBRANCH  15  16
ENDBRANCH   1  15
TORSDOF 22
ENDMDL
MODEL 7
REMARK VINA RESULT:    -3.646      2.030      4.905
REMARK INTER + INTRA:         -12.802
REMARK INTER:                  -8.486
REMARK INTRA:                  -4.316
REMARK UNBOUND:                -4.468
REMARK SMILES CCCCCCCCCCCCCCCCCCCCCCCC(=O)[O-]
REMARK SMILES IDX 13 1 14 2 15 3 16 4 17 5 18 6 19 7 20 8 21 9 22 10 23 11
REMARK SMILES IDX 24 12 25 13 26 14 12 15 11 16 10 17 9 18 8 19 7 20 6 21 5 22
REMARK SMILES IDX 4 23 3 24 2 25 1 26
REMARK H PARENT
REMARK Flexibility Score: inf
ROOT
ATOM      1  C   UNL     1      10.258 -10.395  35.694  1.00  0.00     0.000 C 
ENDROOT
BRANCH   1   2
ATOM      2  C   UNL     1      10.806 -11.813  35.923  1.00  0.00     0.000 C 
BRANCH   2   3
ATOM      3  C   UNL     1      11.149 -12.036  37.401  1.00  0.00     0.000 C 
BRANCH   3   4
ATOM      4  C   UNL     1      12.565 -11.535  37.720  1.00  0.00     0.000 C 
BRANCH   4   5
ATOM      5  C   UNL     1      12.636 -10.785  39.060  1.00  0.00     0.000 C 
BRANCH   5   6
ATOM      6  C   UNL     1      13.013  -9.304  38.889  1.00  0.00     0.000 C 
BRANCH   6   7
ATOM      7  C   UNL     1      11.784  -8.381  38.816  1.00  0.00     0.000 C 
BRANCH   7   8
ATOM      8  C   UNL     1      11.870  -7.263  37.757  1.00  0.00     0.000 C 
BRANCH   8   9
ATOM      9  C   UNL     1      10.787  -6.172  37.862  1.00  0.00     0.000 C 
BRANCH   9  10
ATOM     10  C   UNL     1      11.314  -4.725  37.907  1.00  0.00     0.006 C 
BRANCH  10  11
ATOM     11  C   UNL     1      12.652  -4.523  37.171  1.00  0.00     0.053 C 
BRANCH  11  12
ATOM     12  C   UNL     1      12.519  -3.652  35.959  1.00  0.00     0.041 C 
ATOM     13  O   UNL     1      12.167  -4.148  34.856  1.00  0.00    -0.550 OA
ATOM     14  O   UNL     1      12.744  -2.284  36.055  1.00  0.00    -0.550 OA
ENDBRANCH  11  12
ENDBRANCH  10  11
ENDBRANCH   9  10
ENDBRANCH   8   9
ENDBRANCH   7   8
ENDBRANCH   6   7
ENDBRANCH   5   6
ENDBRANCH   4   5
ENDBRANCH   3   4
ENDBRANCH   2   3
ENDBRANCH   1   2
BRANCH   1  15
ATOM     15  C   UNL     1       8.834 -10.211  36.241  1.00  0.00     0.000 C 
BRANCH  15  16
ATOM     16  C   UNL     1       8.643  -8.858  36.950  1.00  0.00     0.000 C 
BRANCH  16  17
ATOM     17  C   UNL     1       7.188  -8.624  37.388  1.00  0.00     0.000 C 
BRANCH  17  18
ATOM     18  C   UNL     1       6.814  -7.135  37.424  1.00  0.00    -0.000 C 
BRANCH  18  19
ATOM     19  C   UNL     1       5.984  -6.746  36.194  1.00  0.00    -0.000 C 
BRANCH  19  20
ATOM     20  C   UNL     1       6.366  -5.345  35.695  1.00  0.00    -0.000 C 
BRANCH  20  21
ATOM     21  C   UNL     1       7.666  -4.824  36.329  1.00  0.00    -0.000 C 
BRANCH  21  22
ATOM     22  C   UNL     1       8.667  -4.304  35.282  1.00  0.00    -0.000 C 
BRANCH  22  23
ATOM     23  C   UNL     1       8.789  -5.239  34.068  1.00  0.00    -0.000 C 
BRANCH  23  24
ATOM     24  C   UNL     1       9.615  -6.497  34.371  1.00  0.00    -0.000 C 
BRANCH  24  25
ATOM     25  C   UNL     1       9.295  -7.617  33.375  1.00  0.00    -0.003 C 
ATOM     26  C   UNL     1       7.816  -7.993  33.422  1.00  0.00     0.004 C 
ENDBRANCH  24  25
ENDBRANCH  23  24
ENDBRANCH  22  23
ENDBRANCH  21  22
ENDBRANCH  20  21
ENDBRANCH  19  20
ENDBRANCH  18  19
ENDBRANCH  17  18
ENDBRANCH  16  17
ENDBRANCH  15  16
ENDBRANCH   1  15
TORSDOF 22
ENDMDL
MODEL 8
REMARK VINA RESULT:    -3.617      2.297      4.927
REMARK INTER + INTRA:         -12.738
REMARK INTER:                  -8.720
REMARK INTRA:                  -4.017
REMARK UNBOUND:                -4.468
REMARK SMILES CCCCCCCCCCCCCCCCCCCCCCCC(=O)[O-]
REMARK SMILES IDX 13 1 14 2 15 3 16 4 17 5 18 6 19 7 20 8 21 9 22 10 23 11
REMARK SMILES IDX 24 12 25 13 26 14 12 15 11 16 10 17 9 18 8 19 7 20 6 21 5 22
REMARK SMILES IDX 4 23 3 24 2 25 1 26
REMARK H PARENT
REMARK Flexibility Score: inf
ROOT
ATOM      1  C   UNL     1       9.046  -8.932  38.361  1.00  0.00     0.000 C 
ENDROOT
BRANCH   1   2
ATOM      2  C   UNL     1       9.059 -10.076  37.336  1.00  0.00     0.000 C 
BRANCH   2   3
ATOM      3  C   UNL     1      10.429 -10.188  36.655  1.00  0.00     0.000 C 
BRANCH   3   4
ATOM      4  C   UNL     1      11.006 -11.602  36.807  1.00  0.00     0.000 C 
BRANCH   4   5
ATOM      5  C   UNL     1      12.347 -11.613  37.559  1.00  0.00     0.000 C 
BRANCH   5   6
ATOM      6  C   UNL     1      12.346 -10.683  38.784  1.00  0.00     0.000 C 
BRANCH   6   7
ATOM      7  C   UNL     1      13.494  -9.660  38.755  1.00  0.00     0.000 C 
BRANCH   7   8
ATOM      8  C   UNL     1      13.052  -8.183  38.793  1.00  0.00     0.000 C 
BRANCH   8   9
ATOM      9  C   UNL     1      14.197  -7.155  38.879  1.00  0.00     0.000 C 
BRANCH   9  10
ATOM     10  C   UNL     1      13.752  -5.682  38.965  1.00  0.00     0.006 C 
BRANCH  10  11
ATOM     11  C   UNL     1      12.751  -5.265  37.873  1.00  0.00     0.053 C 
BRANCH  11  12
ATOM     12  C   UNL     1      13.321  -4.261  36.918  1.00  0.00     0.041 C 
ATOM     13  O   UNL     1      14.502  -3.848  37.062  1.00  0.00    -0.550 OA
ATOM     14  O   UNL     1      12.563  -3.812  35.844  1.00  0.00    -0.550 OA
ENDBRANCH  11  12
ENDBRANCH  10  11
ENDBRANCH   9  10
ENDBRANCH   8   9
ENDBRANCH   7   8
ENDBRANCH   6   7
ENDBRANCH   5   6
ENDBRANCH   4   5
ENDBRANCH   3   4
ENDBRANCH   2   3
ENDBRANCH   1   2
BRANCH   1  15
ATOM     15  C   UNL     1       9.719  -7.654  37.838  1.00  0.00     0.000 C 
BRANCH  15  16
ATOM     16  C   UNL     1       8.983  -6.375  38.276  1.00  0.00     0.000 C 
BRANCH  16  17
ATOM     17  C   UNL     1       9.115  -5.240  37.247  1.00  0.00     0.000 C 
BRANCH  17  18
ATOM     18  C   UNL     1       9.577  -5.741  35.870  1.00  0.00    -0.000 C 
BRANCH  18  19
ATOM     19  C   UNL     1       8.992  -4.878  34.746  1.00  0.00    -0.000 C 
BRANCH  19  20
ATOM     20  C   UNL     1       8.867  -5.682  33.444  1.00  0.00    -0.000 C 
BRANCH  20  21
ATOM     21  C   UNL     1       8.974  -7.199  33.673  1.00  0.00    -0.000 C 
BRANCH  21  22
ATOM     22  C   UNL     1       7.621  -7.917  33.516  1.00  0.00    -0.000 C 
BRANCH  22  23
ATOM     23  C   UNL     1       7.035  -8.371  34.863  1.00  0.00    -0.000 C 
BRANCH  23  24
ATOM     24  C   UNL     1       5.705  -7.677  35.192  1.00  0.00    -0.000 C 
BRANCH  24  25
ATOM     25  C   UNL     1       5.898  -6.606  36.271  1.00  0.00    -0.003 C 
ATOM     26  C   UNL     1       5.483  -5.228  35.762  1.00  0.00     0.004 C 
ENDBRANCH  24  25
ENDBRANCH  23  24
ENDBRANCH  22  23
ENDBRANCH  21  22
ENDBRANCH  20  21
ENDBRANCH  19  20
ENDBRANCH  18  19
ENDBRANCH  17  18
ENDBRANCH  16  17
ENDBRANCH  15  16
ENDBRANCH   1  15
TORSDOF 22
ENDMDL
MODEL 9
REMARK VINA RESULT:    -3.587      3.272      6.268
REMARK INTER + INTRA:         -12.667
REMARK INTER:                  -8.504
REMARK INTRA:                  -4.164
REMARK UNBOUND:                -4.468
REMARK SMILES CCCCCCCCCCCCCCCCCCCCCCCC(=O)[O-]
REMARK SMILES IDX 13 1 14 2 15 3 16 4 17 5 18 6 19 7 20 8 21 9 22 10 23 11
REMARK SMILES IDX 24 12 25 13 26 14 12 15 11 16 10 17 9 18 8 19 7 20 6 21 5 22
REMARK SMILES IDX 4 23 3 24 2 25 1 26
REMARK H PARENT
REMARK Flexibility Score: inf
ROOT
ATOM      1  C   UNL     1      10.629  -7.411  34.379  1.00  0.00     0.000 C 
ENDROOT
BRANCH   1   2
ATOM      2  C   UNL     1       9.390  -7.674  33.508  1.00  0.00     0.000 C 
BRANCH   2   3
ATOM      3  C   UNL     1       8.681  -6.362  33.153  1.00  0.00     0.000 C 
BRANCH   3   4
ATOM      4  C   UNL     1       9.323  -5.173  33.882  1.00  0.00     0.000 C 
BRANCH   4   5
ATOM      5  C   UNL     1       8.292  -4.120  34.314  1.00  0.00     0.000 C 
BRANCH   5   6
ATOM      6  C   UNL     1       7.435  -4.584  35.504  1.00  0.00     0.000 C 
BRANCH   6   7
ATOM      7  C   UNL     1       8.282  -5.023  36.711  1.00  0.00     0.000 C 
BRANCH   7   8
ATOM      8  C   UNL     1       7.881  -6.377  37.331  1.00  0.00     0.000 C 
BRANCH   8   9
ATOM      9  C   UNL     1       6.528  -6.943  36.855  1.00  0.00     0.000 C 
BRANCH   9  10
ATOM     10  C   UNL     1       6.620  -8.076  35.815  1.00  0.00     0.006 C 
BRANCH  10  11
ATOM     11  C   UNL     1       5.674  -9.259  36.092  1.00  0.00     0.053 C 
BRANCH  11  12
ATOM     12  C   UNL     1       4.412  -9.191  35.287  1.00  0.00     0.041 C 
ATOM     13  O   UNL     1       4.039 -10.182  34.607  1.00  0.00    -0.550 OA
ATOM     14  O   UNL     1       3.625  -8.046  35.320  1.00  0.00    -0.550 OA
ENDBRANCH  11  12
ENDBRANCH  10  11
ENDBRANCH   9  10
ENDBRANCH   8   9
ENDBRANCH   7   8
ENDBRANCH   6   7
ENDBRANCH   5   6
ENDBRANCH   4   5
ENDBRANCH   3   4
ENDBRANCH   2   3
ENDBRANCH   1   2
BRANCH   1  15
ATOM     15  C   UNL     1      10.531  -8.059  35.769  1.00  0.00     0.000 C 
BRANCH  15  16
ATOM     16  C   UNL     1      10.148  -9.548  35.701  1.00  0.00     0.000 C 
BRANCH  16  17
ATOM     17  C   UNL     1       9.984 -10.177  37.095  1.00  0.00     0.000 C 
BRANCH  17  18
ATOM     18  C   UNL     1      10.726  -9.391  38.187  1.00  0.00    -0.000 C 
BRANCH  18  19
ATOM     19  C   UNL     1      12.021 -10.105  38.595  1.00  0.00    -0.000 C 
BRANCH  19  20
ATOM     20  C   UNL     1      13.166  -9.099  38.781  1.00  0.00    -0.000 C 
BRANCH  20  21
ATOM     21  C   UNL     1      12.676  -7.642  38.813  1.00  0.00    -0.000 C 
BRANCH  21  22
ATOM     22  C   UNL     1      13.835  -6.629  38.826  1.00  0.00    -0.000 C 
BRANCH  22  23
ATOM     23  C   UNL     1      13.431  -5.264  38.247  1.00  0.00    -0.000 C 
BRANCH  23  24
ATOM     24  C   UNL     1      12.021  -5.273  37.641  1.00  0.00    -0.000 C 
BRANCH  24  25
ATOM     25  C   UNL     1      11.770  -4.006  36.815  1.00  0.00    -0.003 C 
ATOM     26  C   UNL     1      12.404  -4.114  35.431  1.00  0.00     0.004 C 
ENDBRANCH  24  25
ENDBRANCH  23  24
ENDBRANCH  22  23
ENDBRANCH  21  22
ENDBRANCH  20  21
ENDBRANCH  19  20
ENDBRANCH  18  19
ENDBRANCH  17  18
ENDBRANCH  16  17
ENDBRANCH  15  16
ENDBRANCH   1  15
TORSDOF 22
ENDMDL
