MODEL 1
REMARK VINA RESULT:    -1.442      0.000      0.000
REMARK INTER + INTRA:         -10.036
REMARK INTER:                  -3.635
REMARK INTRA:                  -6.401
REMARK UNBOUND:                -6.401
REMARK SMILES CCCCCCCCCCCCCCCCCCCCCCCCCCCC(=O)[O-]
REMARK SMILES IDX 15 1 16 2 17 3 18 4 19 5 20 6 21 7 22 8 23 9 24 10 25 11
REMARK SMILES IDX 26 12 27 13 28 14 29 15 30 16 14 17 13 18 12 19 11 20 10 21
REMARK SMILES IDX 9 22 8 23 7 24 6 25 5 26 4 27 3 28 2 29 1 30
REMARK H PARENT
REMARK Flexibility Score: inf
ROOT
ATOM      1  C   UNL     1     175.782 203.712 197.457  1.00  0.00     0.000 C 
ENDROOT
BRANCH   1   2
ATOM      2  C   UNL     1     175.144 204.797 196.572  1.00  0.00     0.000 C 
BRANCH   2   3
ATOM      3  C   UNL     1     174.978 206.142 197.307  1.00  0.00     0.000 C 
BRANCH   3   4
ATOM      4  C   UNL     1     174.042 207.150 196.601  1.00  0.00     0.000 C 
BRANCH   4   5
ATOM      5  C   UNL     1     172.715 206.569 196.064  1.00  0.00     0.000 C 
BRANCH   5   6
ATOM      6  C   UNL     1     171.452 207.376 196.423  1.00  0.00     0.000 C 
BRANCH   6   7
ATOM      7  C   UNL     1     171.563 208.090 197.782  1.00  0.00     0.000 C 
BRANCH   7   8
ATOM      8  C   UNL     1     171.167 207.186 198.961  1.00  0.00     0.000 C 
BRANCH   8   9
ATOM      9  C   UNL     1     172.228 207.149 200.074  1.00  0.00     0.000 C 
BRANCH   9  10
ATOM     10  C   UNL     1     172.838 205.748 200.262  1.00  0.00     0.000 C 
BRANCH  10  11
ATOM     11  C   UNL     1     172.328 204.675 199.277  1.00  0.00     0.000 C 
BRANCH  11  12
ATOM     12  C   UNL     1     172.077 203.283 199.892  1.00  0.00     0.006 C 
BRANCH  12  13
ATOM     13  C   UNL     1     172.914 202.972 201.142  1.00  0.00     0.053 C 
BRANCH  13  14
ATOM     14  C   UNL     1     173.890 201.859 200.904  1.00  0.00     0.041 C 
ATOM     15  O   UNL     1     173.764 201.112 199.898  1.00  0.00    -0.550 OA
ATOM     16  O   UNL     1     174.923 201.632 201.802  1.00  0.00    -0.550 OA
ENDBRANCH  13  14
ENDBRANCH  12  13
ENDBRANCH  11  12
ENDBRANCH  10  11
ENDBRANCH   9  10
ENDBRANCH   8   9
ENDBRANCH   7   8
ENDBRANCH   6   7
ENDBRANCH   5   6
ENDBRANCH   4   5
ENDBRANCH   3   4
ENDBRANCH   2   3
ENDBRANCH   1   2
BRANCH   1  17
ATOM     17  C   UNL     1     175.918 204.159 198.924  1.00  0.00     0.000 C 
BRANCH  17  18
ATOM     18  C   UNL     1     177.325 203.958 199.521  1.00  0.00     0.000 C 
BRANCH  18  19
ATOM     19  C   UNL     1     177.453 204.215 201.037  1.00  0.00     0.000 C 
BRANCH  19  20
ATOM     20  C   UNL     1     176.228 204.912 201.667  1.00  0.00     0.000 C 
BRANCH  20  21
ATOM     21  C   UNL     1     176.619 205.955 202.731  1.00  0.00     0.000 C 
BRANCH  21  22
ATOM     22  C   UNL     1     176.602 207.397 202.195  1.00  0.00    -0.000 C 
BRANCH  22  23
ATOM     23  C   UNL     1     175.927 207.512 200.819  1.00  0.00    -0.000 C 
BRANCH  23  24
ATOM     24  C   UNL     1     176.879 208.125 199.778  1.00  0.00    -0.000 C 
BRANCH  24  25
ATOM     25  C   UNL     1     178.353 207.771 200.042  1.00  0.00    -0.000 C 
BRANCH  25  26
ATOM     26  C   UNL     1     179.092 207.133 198.848  1.00  0.00    -0.000 C 
BRANCH  26  27
ATOM     27  C   UNL     1     178.306 207.118 197.525  1.00  0.00    -0.000 C 
BRANCH  27  28
ATOM     28  C   UNL     1     178.682 205.928 196.625  1.00  0.00    -0.000 C 
BRANCH  28  29
ATOM     29  C   UNL     1     178.323 206.166 195.150  1.00  0.00    -0.003 C 
ATOM     30  C   UNL     1     177.530 207.454 194.930  1.00  0.00     0.004 C 
ENDBRANCH  28  29
ENDBRANCH  27  28
ENDBRANCH  26  27
ENDBRANCH  25  26
ENDBRANCH  24  25
ENDBRANCH  23  24
ENDBRANCH  22  23
ENDBRANCH  21  22
ENDBRANCH  20  21
ENDBRANCH  19  20
ENDBRANCH  18  19
ENDBRANCH  17  18
ENDBRANCH   1  17
TORSDOF 26
ENDMDL
MODEL 2
REMARK VINA RESULT:    -1.360      2.040      4.027
REMARK INTER + INTRA:          -9.827
REMARK INTER:                  -3.792
REMARK INTRA:                  -6.035
REMARK UNBOUND:                -6.401
REMARK SMILES CCCCCCCCCCCCCCCCCCCCCCCCCCCC(=O)[O-]
REMARK SMILES IDX 15 1 16 2 17 3 18 4 19 5 20 6 21 7 22 8 23 9 24 10 25 11
REMARK SMILES IDX 26 12 27 13 28 14 29 15 30 16 14 17 13 18 12 19 11 20 10 21
REMARK SMILES IDX 9 22 8 23 7 24 6 25 5 26 4 27 3 28 2 29 1 30
REMARK H PARENT
REMARK Flexibility Score: inf
ROOT
ATOM      1  C   UNL     1     175.504 203.309 199.545  1.00  0.00     0.000 C 
ENDROOT
BRANCH   1   2
ATOM      2  C   UNL     1     176.310 204.363 198.764  1.00  0.00     0.000 C 
BRANCH   2   3
ATOM      3  C   UNL     1     177.115 203.753 197.600  1.00  0.00     0.000 C 
BRANCH   3   4
ATOM      4  C   UNL     1     177.315 204.698 196.391  1.00  0.00     0.000 C 
BRANCH   4   5
ATOM      5  C   UNL     1     177.818 206.119 196.730  1.00  0.00     0.000 C 
BRANCH   5   6
ATOM      6  C   UNL     1     177.124 207.260 195.961  1.00  0.00     0.000 C 
BRANCH   6   7
ATOM      7  C   UNL     1     176.205 208.112 196.854  1.00  0.00     0.000 C 
BRANCH   7   8
ATOM      8  C   UNL     1     174.713 207.854 196.586  1.00  0.00     0.000 C 
BRANCH   8   9
ATOM      9  C   UNL     1     174.048 206.985 197.668  1.00  0.00     0.000 C 
BRANCH   9  10
ATOM     10  C   UNL     1     173.030 205.990 197.081  1.00  0.00     0.000 C 
BRANCH  10  11
ATOM     11  C   UNL     1     173.644 204.789 196.333  1.00  0.00     0.000 C 
BRANCH  11  12
ATOM     12  C   UNL     1     172.799 203.499 196.352  1.00  0.00     0.006 C 
BRANCH  12  13
ATOM     13  C   UNL     1     172.333 203.056 197.748  1.00  0.00     0.053 C 
BRANCH  13  14
ATOM     14  C   UNL     1     170.839 203.047 197.866  1.00  0.00     0.041 C 
ATOM     15  O   UNL     1     170.131 203.613 196.993  1.00  0.00    -0.550 OA
ATOM     16  O   UNL     1     170.229 202.432 198.951  1.00  0.00    -0.550 OA
ENDBRANCH  13  14
ENDBRANCH  12  13
ENDBRANCH  11  12
ENDBRANCH  10  11
ENDBRANCH   9  10
ENDBRANCH   8   9
ENDBRANCH   7   8
ENDBRANCH   6   7
ENDBRANCH   5   6
ENDBRANCH   4   5
ENDBRANCH   3   4
ENDBRANCH   2   3
ENDBRANCH   1   2
BRANCH   1  17
ATOM     17  C   UNL     1     174.931 203.867 200.859  1.00  0.00     0.000 C 
BRANCH  17  18
ATOM     18  C   UNL     1     173.867 204.968 200.672  1.00  0.00     0.000 C 
BRANCH  18  19
ATOM     19  C   UNL     1     173.820 206.049 201.772  1.00  0.00     0.000 C 
BRANCH  19  20
ATOM     20  C   UNL     1     173.805 207.496 201.236  1.00  0.00     0.000 C 
BRANCH  20  21
ATOM     21  C   UNL     1     175.220 208.072 201.036  1.00  0.00     0.000 C 
BRANCH  21  22
ATOM     22  C   UNL     1     176.278 207.388 201.918  1.00  0.00    -0.000 C 
BRANCH  22  23
ATOM     23  C   UNL     1     177.416 206.755 201.100  1.00  0.00    -0.000 C 
BRANCH  23  24
ATOM     24  C   UNL     1     177.982 207.745 200.069  1.00  0.00    -0.000 C 
BRANCH  24  25
ATOM     25  C   UNL     1     179.412 207.387 199.626  1.00  0.00    -0.000 C 
BRANCH  25  26
ATOM     26  C   UNL     1     180.035 206.179 200.355  1.00  0.00    -0.000 C 
BRANCH  26  27
ATOM     27  C   UNL     1     180.119 204.886 199.525  1.00  0.00    -0.000 C 
BRANCH  27  28
ATOM     28  C   UNL     1     180.339 203.636 200.394  1.00  0.00    -0.000 C 
BRANCH  28  29
ATOM     29  C   UNL     1     179.026 202.909 200.726  1.00  0.00    -0.003 C 
ATOM     30  C   UNL     1     178.485 203.260 202.112  1.00  0.00     0.004 C 
ENDBRANCH  28  29
ENDBRANCH  27  28
ENDBRANCH  26  27
ENDBRANCH  25  26
ENDBRANCH  24  25
ENDBRANCH  23  24
ENDBRANCH  22  23
ENDBRANCH  21  22
ENDBRANCH  20  21
ENDBRANCH  19  20
ENDBRANCH  18  19
ENDBRANCH  17  18
ENDBRANCH   1  17
TORSDOF 26
ENDMDL
MODEL 3
REMARK VINA RESULT:    -1.347      2.762      6.919
REMARK INTER + INTRA:          -9.796
REMARK INTER:                  -3.843
REMARK INTRA:                  -5.953
REMARK UNBOUND:                -6.401
REMARK SMILES CCCCCCCCCCCCCCCCCCCCCCCCCCCC(=O)[O-]
REMARK SMILES IDX 15 1 16 2 17 3 18 4 19 5 20 6 21 7 22 8 23 9 24 10 25 11
REMARK SMILES IDX 26 12 27 13 28 14 29 15 30 16 14 17 13 18 12 19 11 20 10 21
REMARK SMILES IDX 9 22 8 23 7 24 6 25 5 26 4 27 3 28 2 29 1 30
REMARK H PARENT
REMARK Flexibility Score: inf
ROOT
ATOM      1  C   UNL     1     175.418 207.441 198.427  1.00  0.00     0.000 C 
ENDROOT
BRANCH   1   2
ATOM      2  C   UNL     1     174.258 207.287 199.427  1.00  0.00     0.000 C 
BRANCH   2   3
ATOM      3  C   UNL     1     174.588 207.873 200.814  1.00  0.00     0.000 C 
BRANCH   3   4
ATOM      4  C   UNL     1     176.094 208.124 201.065  1.00  0.00     0.000 C 
BRANCH   4   5
ATOM      5  C   UNL     1     176.800 207.096 201.976  1.00  0.00     0.000 C 
BRANCH   5   6
ATOM      6  C   UNL     1     175.953 205.867 202.360  1.00  0.00     0.000 C 
BRANCH   6   7
ATOM      7  C   UNL     1     176.784 204.746 203.010  1.00  0.00     0.000 C 
BRANCH   7   8
ATOM      8  C   UNL     1     178.298 204.980 202.883  1.00  0.00     0.000 C 
BRANCH   8   9
ATOM      9  C   UNL     1     178.983 203.989 201.926  1.00  0.00     0.000 C 
BRANCH   9  10
ATOM     10  C   UNL     1     179.761 204.696 200.802  1.00  0.00     0.000 C 
BRANCH  10  11
ATOM     11  C   UNL     1     179.896 206.225 200.960  1.00  0.00     0.000 C 
BRANCH  11  12
ATOM     12  C   UNL     1     180.387 206.976 199.706  1.00  0.00     0.006 C 
BRANCH  12  13
ATOM     13  C   UNL     1     179.277 207.371 198.719  1.00  0.00     0.053 C 
BRANCH  13  14
ATOM     14  C   UNL     1     179.492 206.770 197.362  1.00  0.00     0.041 C 
ATOM     15  O   UNL     1     179.371 207.480 196.329  1.00  0.00    -0.550 OA
ATOM     16  O   UNL     1     179.801 205.423 197.236  1.00  0.00    -0.550 OA
ENDBRANCH  13  14
ENDBRANCH  12  13
ENDBRANCH  11  12
ENDBRANCH  10  11
ENDBRANCH   9  10
ENDBRANCH   8   9
ENDBRANCH   7   8
ENDBRANCH   6   7
ENDBRANCH   5   6
ENDBRANCH   4   5
ENDBRANCH   3   4
ENDBRANCH   2   3
ENDBRANCH   1   2
BRANCH   1  17
ATOM     17  C   UNL     1     175.802 206.105 197.767  1.00  0.00     0.000 C 
BRANCH  17  18
ATOM     18  C   UNL     1     176.488 205.102 198.715  1.00  0.00     0.000 C 
BRANCH  18  19
ATOM     19  C   UNL     1     175.762 203.754 198.904  1.00  0.00     0.000 C 
BRANCH  19  20
ATOM     20  C   UNL     1     176.594 202.685 199.644  1.00  0.00     0.000 C 
BRANCH  20  21
ATOM     21  C   UNL     1     175.720 201.689 200.430  1.00  0.00     0.000 C 
BRANCH  21  22
ATOM     22  C   UNL     1     176.297 201.347 201.815  1.00  0.00    -0.000 C 
BRANCH  22  23
ATOM     23  C   UNL     1     175.226 200.845 202.797  1.00  0.00    -0.000 C 
BRANCH  23  24
ATOM     24  C   UNL     1     173.814 201.240 202.337  1.00  0.00    -0.000 C 
BRANCH  24  25
ATOM     25  C   UNL     1     173.247 202.437 203.122  1.00  0.00    -0.000 C 
BRANCH  25  26
ATOM     26  C   UNL     1     172.319 203.365 202.312  1.00  0.00    -0.000 C 
BRANCH  26  27
ATOM     27  C   UNL     1     173.027 204.255 201.275  1.00  0.00    -0.000 C 
BRANCH  27  28
ATOM     28  C   UNL     1     172.296 204.284 199.921  1.00  0.00    -0.000 C 
BRANCH  28  29
ATOM     29  C   UNL     1     171.525 202.985 199.638  1.00  0.00    -0.003 C 
ATOM     30  C   UNL     1     172.365 201.943 198.899  1.00  0.00     0.004 C 
ENDBRANCH  28  29
ENDBRANCH  27  28
ENDBRANCH  26  27
ENDBRANCH  25  26
ENDBRANCH  24  25
ENDBRANCH  23  24
ENDBRANCH  22  23
ENDBRANCH  21  22
ENDBRANCH  20  21
ENDBRANCH  19  20
ENDBRANCH  18  19
ENDBRANCH  17  18
ENDBRANCH   1  17
TORSDOF 26
ENDMDL
MODEL 4
REMARK VINA RESULT:    -1.331      2.935      6.168
REMARK INTER + INTRA:          -9.755
REMARK INTER:                  -3.947
REMARK INTRA:                  -5.808
REMARK UNBOUND:                -6.401
REMARK SMILES CCCCCCCCCCCCCCCCCCCCCCCCCCCC(=O)[O-]
REMARK SMILES IDX 15 1 16 2 17 3 18 4 19 5 20 6 21 7 22 8 23 9 24 10 25 11
REMARK SMILES IDX 26 12 27 13 28 14 29 15 30 16 14 17 13 18 12 19 11 20 10 21
REMARK SMILES IDX 9 22 8 23 7 24 6 25 5 26 4 27 3 28 2 29 1 30
REMARK H PARENT
REMARK Flexibility Score: inf
ROOT
ATOM      1  C   UNL     1     176.175 203.281 199.913  1.00  0.00     0.000 C 
ENDROOT
BRANCH   1   2
ATOM      2  C   UNL     1     177.044 204.195 199.032  1.00  0.00     0.000 C 
BRANCH   2   3
ATOM      3  C   UNL     1     178.296 203.479 198.488  1.00  0.00     0.000 C 
BRANCH   3   4
ATOM      4  C   UNL     1     179.471 204.420 198.130  1.00  0.00     0.000 C 
BRANCH   4   5
ATOM      5  C   UNL     1     179.437 205.815 198.793  1.00  0.00     0.000 C 
BRANCH   5   6
ATOM      6  C   UNL     1     179.715 206.999 197.847  1.00  0.00     0.000 C 
BRANCH   6   7
ATOM      7  C   UNL     1     179.214 206.750 196.413  1.00  0.00     0.000 C 
BRANCH   7   8
ATOM      8  C   UNL     1     177.881 207.458 196.119  1.00  0.00     0.000 C 
BRANCH   8   9
ATOM      9  C   UNL     1     176.671 206.509 196.172  1.00  0.00     0.000 C 
BRANCH   9  10
ATOM     10  C   UNL     1     176.936 205.173 195.455  1.00  0.00     0.000 C 
BRANCH  10  11
ATOM     11  C   UNL     1     175.692 204.286 195.241  1.00  0.00     0.000 C 
BRANCH  11  12
ATOM     12  C   UNL     1     175.241 204.127 193.775  1.00  0.00     0.006 C 
BRANCH  12  13
ATOM     13  C   UNL     1     175.166 205.440 192.980  1.00  0.00     0.053 C 
BRANCH  13  14
ATOM     14  C   UNL     1     173.767 205.756 192.543  1.00  0.00     0.041 C 
ATOM     15  O   UNL     1     172.786 205.316 193.198  1.00  0.00    -0.550 OA
ATOM     16  O   UNL     1     173.546 206.515 191.403  1.00  0.00    -0.550 OA
ENDBRANCH  13  14
ENDBRANCH  12  13
ENDBRANCH  11  12
ENDBRANCH  10  11
ENDBRANCH   9  10
ENDBRANCH   8   9
ENDBRANCH   7   8
ENDBRANCH   6   7
ENDBRANCH   5   6
ENDBRANCH   4   5
ENDBRANCH   3   4
ENDBRANCH   2   3
ENDBRANCH   1   2
BRANCH   1  17
ATOM     17  C   UNL     1     177.005 202.512 200.957  1.00  0.00     0.000 C 
BRANCH  17  18
ATOM     18  C   UNL     1     177.163 203.242 202.305  1.00  0.00     0.000 C 
BRANCH  18  19
ATOM     19  C   UNL     1     178.418 204.130 202.445  1.00  0.00     0.000 C 
BRANCH  19  20
ATOM     20  C   UNL     1     178.149 205.638 202.264  1.00  0.00     0.000 C 
BRANCH  20  21
ATOM     21  C   UNL     1     176.673 206.013 202.495  1.00  0.00     0.000 C 
BRANCH  21  22
ATOM     22  C   UNL     1     176.303 207.389 201.915  1.00  0.00    -0.000 C 
BRANCH  22  23
ATOM     23  C   UNL     1     177.171 207.777 200.707  1.00  0.00    -0.000 C 
BRANCH  23  24
ATOM     24  C   UNL     1     176.315 207.990 199.448  1.00  0.00    -0.000 C 
BRANCH  24  25
ATOM     25  C   UNL     1     174.809 207.821 199.718  1.00  0.00    -0.000 C 
BRANCH  25  26
ATOM     26  C   UNL     1     174.158 206.605 199.027  1.00  0.00    -0.000 C 
BRANCH  26  27
ATOM     27  C   UNL     1     173.412 205.641 199.966  1.00  0.00    -0.000 C 
BRANCH  27  28
ATOM     28  C   UNL     1     172.777 206.357 201.170  1.00  0.00    -0.000 C 
BRANCH  28  29
ATOM     29  C   UNL     1     173.006 205.606 202.492  1.00  0.00    -0.003 C 
ATOM     30  C   UNL     1     173.457 204.160 202.285  1.00  0.00     0.004 C 
ENDBRANCH  28  29
ENDBRANCH  27  28
ENDBRANCH  26  27
ENDBRANCH  25  26
ENDBRANCH  24  25
ENDBRANCH  23  24
ENDBRANCH  22  23
ENDBRANCH  21  22
ENDBRANCH  20  21
ENDBRANCH  19  20
ENDBRANCH  18  19
ENDBRANCH  17  18
ENDBRANCH   1  17
TORSDOF 26
ENDMDL
MODEL 5
REMARK VINA RESULT:    -1.293      2.804      7.056
REMARK INTER + INTRA:          -9.659
REMARK INTER:                  -4.117
REMARK INTRA:                  -5.542
REMARK UNBOUND:                -6.401
REMARK SMILES CCCCCCCCCCCCCCCCCCCCCCCCCCCC(=O)[O-]
REMARK SMILES IDX 15 1 16 2 17 3 18 4 19 5 20 6 21 7 22 8 23 9 24 10 25 11
REMARK SMILES IDX 26 12 27 13 28 14 29 15 30 16 14 17 13 18 12 19 11 20 10 21
REMARK SMILES IDX 9 22 8 23 7 24 6 25 5 26 4 27 3 28 2 29 1 30
REMARK H PARENT
REMARK Flexibility Score: inf
ROOT
ATOM      1  C   UNL     1     175.802 203.731 196.903  1.00  0.00     0.000 C 
ENDROOT
BRANCH   1   2
ATOM      2  C   UNL     1     176.185 204.242 198.303  1.00  0.00     0.000 C 
BRANCH   2   3
ATOM      3  C   UNL     1     176.894 203.170 199.153  1.00  0.00     0.000 C 
BRANCH   3   4
ATOM      4  C   UNL     1     176.900 203.454 200.674  1.00  0.00     0.000 C 
BRANCH   4   5
ATOM      5  C   UNL     1     178.099 204.275 201.196  1.00  0.00     0.000 C 
BRANCH   5   6
ATOM      6  C   UNL     1     177.781 205.233 202.361  1.00  0.00     0.000 C 
BRANCH   6   7
ATOM      7  C   UNL     1     176.436 205.959 202.188  1.00  0.00     0.000 C 
BRANCH   7   8
ATOM      8  C   UNL     1     176.591 207.358 201.569  1.00  0.00     0.000 C 
BRANCH   8   9
ATOM      9  C   UNL     1     176.160 207.414 200.093  1.00  0.00     0.000 C 
BRANCH   9  10
ATOM     10  C   UNL     1     177.319 207.792 199.154  1.00  0.00     0.000 C 
BRANCH  10  11
ATOM     11  C   UNL     1     178.722 207.750 199.795  1.00  0.00     0.000 C 
BRANCH  11  12
ATOM     12  C   UNL     1     179.769 206.909 199.037  1.00  0.00     0.006 C 
BRANCH  12  13
ATOM     13  C   UNL     1     179.233 206.189 197.790  1.00  0.00     0.053 C 
BRANCH  13  14
ATOM     14  C   UNL     1     179.995 206.560 196.553  1.00  0.00     0.041 C 
ATOM     15  O   UNL     1     180.949 205.840 196.158  1.00  0.00    -0.550 OA
ATOM     16  O   UNL     1     179.668 207.712 195.851  1.00  0.00    -0.550 OA
ENDBRANCH  13  14
ENDBRANCH  12  13
ENDBRANCH  11  12
ENDBRANCH  10  11
ENDBRANCH   9  10
ENDBRANCH   8   9
ENDBRANCH   7   8
ENDBRANCH   6   7
ENDBRANCH   5   6
ENDBRANCH   4   5
ENDBRANCH   3   4
ENDBRANCH   2   3
ENDBRANCH   1   2
BRANCH   1  17
ATOM     17  C   UNL     1     175.311 204.862 195.981  1.00  0.00     0.000 C 
BRANCH  17  18
ATOM     18  C   UNL     1     175.681 206.279 196.462  1.00  0.00     0.000 C 
BRANCH  18  19
ATOM     19  C   UNL     1     175.964 207.312 195.350  1.00  0.00     0.000 C 
BRANCH  19  20
ATOM     20  C   UNL     1     175.331 206.964 193.987  1.00  0.00     0.000 C 
BRANCH  20  21
ATOM     21  C   UNL     1     174.503 208.123 193.401  1.00  0.00     0.000 C 
BRANCH  21  22
ATOM     22  C   UNL     1     173.000 207.809 193.321  1.00  0.00    -0.000 C 
BRANCH  22  23
ATOM     23  C   UNL     1     172.468 207.119 194.588  1.00  0.00    -0.000 C 
BRANCH  23  24
ATOM     24  C   UNL     1     172.281 208.124 195.737  1.00  0.00    -0.000 C 
BRANCH  24  25
ATOM     25  C   UNL     1     172.054 207.438 197.095  1.00  0.00    -0.000 C 
BRANCH  25  26
ATOM     26  C   UNL     1     171.955 205.899 197.037  1.00  0.00    -0.000 C 
BRANCH  26  27
ATOM     27  C   UNL     1     172.527 205.160 198.260  1.00  0.00    -0.000 C 
BRANCH  27  28
ATOM     28  C   UNL     1     173.140 206.117 199.298  1.00  0.00    -0.000 C 
BRANCH  28  29
ATOM     29  C   UNL     1     172.663 205.820 200.728  1.00  0.00    -0.003 C 
ATOM     30  C   UNL     1     172.776 207.030 201.656  1.00  0.00     0.004 C 
ENDBRANCH  28  29
ENDBRANCH  27  28
ENDBRANCH  26  27
ENDBRANCH  25  26
ENDBRANCH  24  25
ENDBRANCH  23  24
ENDBRANCH  22  23
ENDBRANCH  21  22
ENDBRANCH  20  21
ENDBRANCH  19  20
ENDBRANCH  18  19
ENDBRANCH  17  18
ENDBRANCH   1  17
TORSDOF 26
ENDMDL
MODEL 6
REMARK VINA RESULT:    -1.279      1.510      3.646
REMARK INTER + INTRA:          -9.624
REMARK INTER:                  -4.412
REMARK INTRA:                  -5.212
REMARK UNBOUND:                -6.401
REMARK SMILES CCCCCCCCCCCCCCCCCCCCCCCCCCCC(=O)[O-]
REMARK SMILES IDX 15 1 16 2 17 3 18 4 19 5 20 6 21 7 22 8 23 9 24 10 25 11
REMARK SMILES IDX 26 12 27 13 28 14 29 15 30 16 14 17 13 18 12 19 11 20 10 21
REMARK SMILES IDX 9 22 8 23 7 24 6 25 5 26 4 27 3 28 2 29 1 30
REMARK H PARENT
REMARK Flexibility Score: inf
ROOT
ATOM      1  C   UNL     1     174.438 204.593 201.070  1.00  0.00     0.000 C 
ENDROOT
BRANCH   1   2
ATOM      2  C   UNL     1     174.086 204.436 202.559  1.00  0.00     0.000 C 
BRANCH   2   3
ATOM      3  C   UNL     1     172.661 204.926 202.887  1.00  0.00     0.000 C 
BRANCH   3   4
ATOM      4  C   UNL     1     171.992 205.756 201.767  1.00  0.00     0.000 C 
BRANCH   4   5
ATOM      5  C   UNL     1     171.942 207.282 202.005  1.00  0.00     0.000 C 
BRANCH   5   6
ATOM      6  C   UNL     1     172.798 208.125 201.040  1.00  0.00     0.000 C 
BRANCH   6   7
ATOM      7  C   UNL     1     172.336 208.014 199.576  1.00  0.00     0.000 C 
BRANCH   7   8
ATOM      8  C   UNL     1     173.362 207.300 198.682  1.00  0.00     0.000 C 
BRANCH   8   9
ATOM      9  C   UNL     1     172.710 206.418 197.603  1.00  0.00     0.000 C 
BRANCH   9  10
ATOM     10  C   UNL     1     171.604 205.510 198.172  1.00  0.00     0.000 C 
BRANCH  10  11
ATOM     11  C   UNL     1     171.774 204.006 197.874  1.00  0.00     0.000 C 
BRANCH  11  12
ATOM     12  C   UNL     1     171.934 203.104 199.115  1.00  0.00     0.006 C 
BRANCH  12  13
ATOM     13  C   UNL     1     172.465 201.692 198.818  1.00  0.00     0.053 C 
BRANCH  13  14
ATOM     14  C   UNL     1     173.168 201.095 200.000  1.00  0.00     0.041 C 
ATOM     15  O   UNL     1     172.513 200.485 200.884  1.00  0.00    -0.550 OA
ATOM     16  O   UNL     1     174.543 201.233 200.137  1.00  0.00    -0.550 OA
ENDBRANCH  13  14
ENDBRANCH  12  13
ENDBRANCH  11  12
ENDBRANCH  10  11
ENDBRANCH   9  10
ENDBRANCH   8   9
ENDBRANCH   7   8
ENDBRANCH   6   7
ENDBRANCH   5   6
ENDBRANCH   4   5
ENDBRANCH   3   4
ENDBRANCH   2   3
ENDBRANCH   1   2
BRANCH   1  17
ATOM     17  C   UNL     1     175.640 205.529 200.847  1.00  0.00     0.000 C 
BRANCH  17  18
ATOM     18  C   UNL     1     175.903 206.510 202.007  1.00  0.00     0.000 C 
BRANCH  18  19
ATOM     19  C   UNL     1     176.309 207.941 201.595  1.00  0.00     0.000 C 
BRANCH  19  20
ATOM     20  C   UNL     1     176.809 208.063 200.140  1.00  0.00     0.000 C 
BRANCH  20  21
ATOM     21  C   UNL     1     178.346 208.110 200.041  1.00  0.00     0.000 C 
BRANCH  21  22
ATOM     22  C   UNL     1     178.974 206.731 199.776  1.00  0.00    -0.000 C 
BRANCH  22  23
ATOM     23  C   UNL     1     180.382 206.826 199.166  1.00  0.00    -0.000 C 
BRANCH  23  24
ATOM     24  C   UNL     1     180.321 206.981 197.638  1.00  0.00    -0.000 C 
BRANCH  24  25
ATOM     25  C   UNL     1     179.071 206.325 197.024  1.00  0.00    -0.000 C 
BRANCH  25  26
ATOM     26  C   UNL     1     178.109 207.299 196.314  1.00  0.00    -0.000 C 
BRANCH  26  27
ATOM     27  C   UNL     1     176.613 207.041 196.565  1.00  0.00    -0.000 C 
BRANCH  27  28
ATOM     28  C   UNL     1     176.355 205.717 197.306  1.00  0.00    -0.000 C 
BRANCH  28  29
ATOM     29  C   UNL     1     176.365 204.502 196.365  1.00  0.00    -0.003 C 
ATOM     30  C   UNL     1     175.049 203.724 196.384  1.00  0.00     0.004 C 
ENDBRANCH  28  29
ENDBRANCH  27  28
ENDBRANCH  26  27
ENDBRANCH  25  26
ENDBRANCH  24  25
ENDBRANCH  23  24
ENDBRANCH  22  23
ENDBRANCH  21  22
ENDBRANCH  20  21
ENDBRANCH  19  20
ENDBRANCH  18  19
ENDBRANCH  17  18
ENDBRANCH   1  17
TORSDOF 26
ENDMDL
MODEL 7
REMARK VINA RESULT:    -1.274     15.869     19.005
REMARK INTER + INTRA:          -9.612
REMARK INTER:                  -3.099
REMARK INTRA:                  -6.513
REMARK UNBOUND:                -6.401
REMARK SMILES CCCCCCCCCCCCCCCCCCCCCCCCCCCC(=O)[O-]
REMARK SMILES IDX 15 1 16 2 17 3 18 4 19 5 20 6 21 7 22 8 23 9 24 10 25 11
REMARK SMILES IDX 26 12 27 13 28 14 29 15 30 16 14 17 13 18 12 19 11 20 10 21
REMARK SMILES IDX 9 22 8 23 7 24 6 25 5 26 4 27 3 28 2 29 1 30
REMARK H PARENT
REMARK Flexibility Score: inf
ROOT
ATOM      1  C   UNL     1     165.168 198.173 183.708  1.00  0.00     0.000 C 
ENDROOT
BRANCH   1   2
ATOM      2  C   UNL     1     165.108 199.706 183.588  1.00  0.00     0.000 C 
BRANCH   2   3
ATOM      3  C   UNL     1     164.964 200.403 184.955  1.00  0.00     0.000 C 
BRANCH   3   4
ATOM      4  C   UNL     1     164.360 199.517 186.070  1.00  0.00     0.000 C 
BRANCH   4   5
ATOM      5  C   UNL     1     163.384 200.227 187.034  1.00  0.00     0.000 C 
BRANCH   5   6
ATOM      6  C   UNL     1     163.503 199.810 188.513  1.00  0.00     0.000 C 
BRANCH   6   7
ATOM      7  C   UNL     1     164.728 200.426 189.212  1.00  0.00     0.000 C 
BRANCH   7   8
ATOM      8  C   UNL     1     165.642 199.366 189.848  1.00  0.00     0.000 C 
BRANCH   8   9
ATOM      9  C   UNL     1     166.891 199.061 189.003  1.00  0.00     0.000 C 
BRANCH   9  10
ATOM     10  C   UNL     1     167.377 200.286 188.206  1.00  0.00     0.000 C 
BRANCH  10  11
ATOM     11  C   UNL     1     168.104 199.961 186.884  1.00  0.00     0.000 C 
BRANCH  11  12
ATOM     12  C   UNL     1     167.981 198.499 186.407  1.00  0.00     0.006 C 
BRANCH  12  13
ATOM     13  C   UNL     1     168.503 198.241 184.986  1.00  0.00     0.053 C 
BRANCH  13  14
ATOM     14  C   UNL     1     169.444 197.075 184.934  1.00  0.00     0.041 C 
ATOM     15  O   UNL     1     170.339 196.945 185.810  1.00  0.00    -0.550 OA
ATOM     16  O   UNL     1     169.348 196.145 183.908  1.00  0.00    -0.550 OA
ENDBRANCH  13  14
ENDBRANCH  12  13
ENDBRANCH  11  12
ENDBRANCH  10  11
ENDBRANCH   9  10
ENDBRANCH   8   9
ENDBRANCH   7   8
ENDBRANCH   6   7
ENDBRANCH   5   6
ENDBRANCH   4   5
ENDBRANCH   3   4
ENDBRANCH   2   3
ENDBRANCH   1   2
BRANCH   1  17
ATOM     17  C   UNL     1     164.076 197.478 182.875  1.00  0.00     0.000 C 
BRANCH  17  18
ATOM     18  C   UNL     1     162.751 197.250 183.629  1.00  0.00     0.000 C 
BRANCH  18  19
ATOM     19  C   UNL     1     162.376 195.777 183.896  1.00  0.00     0.000 C 
BRANCH  19  20
ATOM     20  C   UNL     1     161.702 195.533 185.263  1.00  0.00     0.000 C 
BRANCH  20  21
ATOM     21  C   UNL     1     161.374 196.841 186.007  1.00  0.00     0.000 C 
BRANCH  21  22
ATOM     22  C   UNL     1     161.650 196.760 187.518  1.00  0.00    -0.000 C 
BRANCH  22  23
ATOM     23  C   UNL     1     162.629 195.633 187.883  1.00  0.00    -0.000 C 
BRANCH  23  24
ATOM     24  C   UNL     1     163.783 196.154 188.756  1.00  0.00    -0.000 C 
BRANCH  24  25
ATOM     25  C   UNL     1     165.160 195.964 188.095  1.00  0.00    -0.000 C 
BRANCH  25  26
ATOM     26  C   UNL     1     165.163 196.078 186.557  1.00  0.00    -0.000 C 
BRANCH  26  27
ATOM     27  C   UNL     1     166.256 195.263 185.843  1.00  0.00    -0.000 C 
BRANCH  27  28
ATOM     28  C   UNL     1     165.705 194.423 184.678  1.00  0.00    -0.000 C 
BRANCH  28  29
ATOM     29  C   UNL     1     164.741 193.322 185.148  1.00  0.00    -0.003 C 
ATOM     30  C   UNL     1     165.294 192.508 186.319  1.00  0.00     0.004 C 
ENDBRANCH  28  29
ENDBRANCH  27  28
ENDBRANCH  26  27
ENDBRANCH  25  26
ENDBRANCH  24  25
ENDBRANCH  23  24
ENDBRANCH  22  23
ENDBRANCH  21  22
ENDBRANCH  20  21
ENDBRANCH  19  20
ENDBRANCH  18  19
ENDBRANCH  17  18
ENDBRANCH   1  17
TORSDOF 26
ENDMDL
MODEL 8
REMARK VINA RESULT:    -1.268      2.443      4.403
REMARK INTER + INTRA:          -9.598
REMARK INTER:                  -4.016
REMARK INTRA:                  -5.582
REMARK UNBOUND:                -6.401
REMARK SMILES CCCCCCCCCCCCCCCCCCCCCCCCCCCC(=O)[O-]
REMARK SMILES IDX 15 1 16 2 17 3 18 4 19 5 20 6 21 7 22 8 23 9 24 10 25 11
REMARK SMILES IDX 26 12 27 13 28 14 29 15 30 16 14 17 13 18 12 19 11 20 10 21
REMARK SMILES IDX 9 22 8 23 7 24 6 25 5 26 4 27 3 28 2 29 1 30
REMARK H PARENT
REMARK Flexibility Score: inf
ROOT
ATOM      1  C   UNL     1     177.661 203.696 198.283  1.00  0.00     0.000 C 
ENDROOT
BRANCH   1   2
ATOM      2  C   UNL     1     176.432 204.622 198.252  1.00  0.00     0.000 C 
BRANCH   2   3
ATOM      3  C   UNL     1     176.229 205.295 196.881  1.00  0.00     0.000 C 
BRANCH   3   4
ATOM      4  C   UNL     1     175.563 206.690 196.940  1.00  0.00     0.000 C 
BRANCH   4   5
ATOM      5  C   UNL     1     174.067 206.734 196.558  1.00  0.00     0.000 C 
BRANCH   5   6
ATOM      6  C   UNL     1     173.087 206.770 197.746  1.00  0.00     0.000 C 
BRANCH   6   7
ATOM      7  C   UNL     1     172.776 205.371 198.309  1.00  0.00     0.000 C 
BRANCH   7   8
ATOM      8  C   UNL     1     171.278 205.030 198.254  1.00  0.00     0.000 C 
BRANCH   8   9
ATOM      9  C   UNL     1     170.828 204.108 199.402  1.00  0.00     0.000 C 
BRANCH   9  10
ATOM     10  C   UNL     1     171.906 203.950 200.488  1.00  0.00     0.000 C 
BRANCH  10  11
ATOM     11  C   UNL     1     171.377 203.930 201.938  1.00  0.00     0.000 C 
BRANCH  11  12
ATOM     12  C   UNL     1     171.615 205.223 202.744  1.00  0.00     0.006 C 
BRANCH  12  13
ATOM     13  C   UNL     1     172.217 206.383 201.936  1.00  0.00     0.053 C 
BRANCH  13  14
ATOM     14  C   UNL     1     171.204 207.448 201.639  1.00  0.00     0.041 C 
ATOM     15  O   UNL     1     170.932 207.747 200.447  1.00  0.00    -0.550 OA
ATOM     16  O   UNL     1     170.579 208.125 202.677  1.00  0.00    -0.550 OA
ENDBRANCH  13  14
ENDBRANCH  12  13
ENDBRANCH  11  12
ENDBRANCH  10  11
ENDBRANCH   9  10
ENDBRANCH   8   9
ENDBRANCH   7   8
ENDBRANCH   6   7
ENDBRANCH   5   6
ENDBRANCH   4   5
ENDBRANCH   3   4
ENDBRANCH   2   3
ENDBRANCH   1   2
BRANCH   1  17
ATOM     17  C   UNL     1     178.386 203.730 199.640  1.00  0.00     0.000 C 
BRANCH  17  18
ATOM     18  C   UNL     1     179.813 204.309 199.583  1.00  0.00     0.000 C 
BRANCH  18  19
ATOM     19  C   UNL     1     180.211 205.231 200.755  1.00  0.00     0.000 C 
BRANCH  19  20
ATOM     20  C   UNL     1     180.186 206.736 200.413  1.00  0.00     0.000 C 
BRANCH  20  21
ATOM     21  C   UNL     1     179.766 207.009 198.957  1.00  0.00     0.000 C 
BRANCH  21  22
ATOM     22  C   UNL     1     178.374 207.656 198.843  1.00  0.00    -0.000 C 
BRANCH  22  23
ATOM     23  C   UNL     1     177.781 208.035 200.210  1.00  0.00    -0.000 C 
BRANCH  23  24
ATOM     24  C   UNL     1     176.287 207.681 200.290  1.00  0.00    -0.000 C 
BRANCH  24  25
ATOM     25  C   UNL     1     175.893 207.080 201.651  1.00  0.00    -0.000 C 
BRANCH  25  26
ATOM     26  C   UNL     1     176.948 206.147 202.280  1.00  0.00    -0.000 C 
BRANCH  26  27
ATOM     27  C   UNL     1     176.435 204.748 202.669  1.00  0.00    -0.000 C 
BRANCH  27  28
ATOM     28  C   UNL     1     175.251 204.288 201.801  1.00  0.00    -0.000 C 
BRANCH  28  29
ATOM     29  C   UNL     1     175.343 202.802 201.417  1.00  0.00    -0.003 C 
ATOM     30  C   UNL     1     174.498 201.901 202.317  1.00  0.00     0.004 C 
ENDBRANCH  28  29
ENDBRANCH  27  28
ENDBRANCH  26  27
ENDBRANCH  25  26
ENDBRANCH  24  25
ENDBRANCH  23  24
ENDBRANCH  22  23
ENDBRANCH  21  22
ENDBRANCH  20  21
ENDBRANCH  19  20
ENDBRANCH  18  19
ENDBRANCH  17  18
ENDBRANCH   1  17
TORSDOF 26
ENDMDL
