MODEL 1
REMARK VINA RESULT:    -5.146      0.000      0.000
REMARK INTER + INTRA:         -10.482
REMARK INTER:                  -8.756
REMARK INTRA:                  -1.727
REMARK UNBOUND:                -1.727
REMARK SMILES CCCCCCCCCCCCCC(=O)[O-]
REMARK SMILES IDX 8 1 9 2 10 3 11 4 12 5 13 6 14 7 15 8 16 9 7 10 6 11 5 12
REMARK SMILES IDX 4 13 3 14 2 15 1 16
REMARK H PARENT
REMARK Flexibility Score: inf
ROOT
ATOM      1  C   UNL     1      20.600  23.218  10.617  1.00  0.00     0.000 C 
ENDROOT
BRANCH   1   2
ATOM      2  C   UNL     1      21.728  23.119   9.584  1.00  0.00     0.000 C 
BRANCH   2   3
ATOM      3  C   UNL     1      21.177  23.212   8.155  1.00  0.00     0.000 C 
BRANCH   3   4
ATOM      4  C   UNL     1      21.777  22.116   7.262  1.00  0.00     0.000 C 
BRANCH   4   5
ATOM      5  C   UNL     1      20.949  21.869   5.991  1.00  0.00     0.006 C 
BRANCH   5   6
ATOM      6  C   UNL     1      19.568  22.535   6.047  1.00  0.00     0.053 C 
BRANCH   6   7
ATOM      7  C   UNL     1      18.510  21.518   6.339  1.00  0.00     0.041 C 
ATOM      8  O   UNL     1      17.299  21.786   6.125  1.00  0.00    -0.550 OA
ATOM      9  O   UNL     1      18.857  20.293   6.894  1.00  0.00    -0.550 OA
ENDBRANCH   6   7
ENDBRANCH   5   6
ENDBRANCH   4   5
ENDBRANCH   3   4
ENDBRANCH   2   3
ENDBRANCH   1   2
BRANCH   1  10
ATOM     10  C   UNL     1      19.420  22.315  10.230  1.00  0.00     0.000 C 
BRANCH  10  11
ATOM     11  C   UNL     1      18.129  22.675  10.983  1.00  0.00    -0.000 C 
BRANCH  11  12
ATOM     12  C   UNL     1      17.490  23.977  10.471  1.00  0.00    -0.000 C 
BRANCH  12  13
ATOM     13  C   UNL     1      17.047  23.885   8.999  1.00  0.00    -0.000 C 
BRANCH  13  14
ATOM     14  C   UNL     1      17.741  24.878   8.050  1.00  0.00    -0.000 C 
BRANCH  14  15
ATOM     15  C   UNL     1      18.665  25.861   8.784  1.00  0.00    -0.003 C 
ATOM     16  C   UNL     1      18.080  27.271   8.781  1.00  0.00     0.004 C 
ENDBRANCH  14  15
ENDBRANCH  13  14
ENDBRANCH  12  13
ENDBRANCH  11  12
ENDBRANCH  10  11
ENDBRANCH   1  10
TORSDOF 12
ENDMDL
MODEL 2
REMARK VINA RESULT:    -5.036      1.533      3.835
REMARK INTER + INTRA:         -10.296
REMARK INTER:                  -8.412
REMARK INTRA:                  -1.883
REMARK UNBOUND:                -1.727
REMARK SMILES CCCCCCCCCCCCCC(=O)[O-]
REMARK SMILES IDX 8 1 9 2 10 3 11 4 12 5 13 6 14 7 15 8 16 9 7 10 6 11 5 12
REMARK SMILES IDX 4 13 3 14 2 15 1 16
REMARK H PARENT
REMARK Flexibility Score: inf
ROOT
ATOM      1  C   UNL     1      17.899  25.216   7.794  1.00  0.00     0.000 C 
ENDROOT
BRANCH   1   2
ATOM      2  C   UNL     1      16.880  24.078   7.928  1.00  0.00     0.000 C 
BRANCH   2   3
ATOM      3  C   UNL     1      17.307  22.857   7.104  1.00  0.00     0.000 C 
BRANCH   3   4
ATOM      4  C   UNL     1      18.420  23.223   6.111  1.00  0.00     0.000 C 
BRANCH   4   5
ATOM      5  C   UNL     1      19.475  22.115   5.968  1.00  0.00     0.006 C 
BRANCH   5   6
ATOM      6  C   UNL     1      20.702  22.349   6.857  1.00  0.00     0.053 C 
BRANCH   6   7
ATOM      7  C   UNL     1      21.386  21.052   7.155  1.00  0.00     0.041 C 
ATOM      8  O   UNL     1      20.944  19.977   6.670  1.00  0.00    -0.550 OA
ATOM      9  O   UNL     1      22.483  21.023   8.006  1.00  0.00    -0.550 OA
ENDBRANCH   6   7
ENDBRANCH   5   6
ENDBRANCH   4   5
ENDBRANCH   3   4
ENDBRANCH   2   3
ENDBRANCH   1   2
BRANCH   1  10
ATOM     10  C   UNL     1      17.946  26.065   9.073  1.00  0.00     0.000 C 
BRANCH  10  11
ATOM     11  C   UNL     1      19.135  25.705   9.978  1.00  0.00    -0.000 C 
BRANCH  11  12
ATOM     12  C   UNL     1      20.023  24.602   9.375  1.00  0.00    -0.000 C 
BRANCH  12  13
ATOM     13  C   UNL     1      20.329  23.471  10.374  1.00  0.00    -0.000 C 
BRANCH  13  14
ATOM     14  C   UNL     1      19.443  22.221  10.229  1.00  0.00    -0.000 C 
BRANCH  14  15
ATOM     15  C   UNL     1      18.547  21.977  11.451  1.00  0.00    -0.003 C 
ATOM     16  C   UNL     1      17.275  22.818  11.378  1.00  0.00     0.004 C 
ENDBRANCH  14  15
ENDBRANCH  13  14
ENDBRANCH  12  13
ENDBRANCH  11  12
ENDBRANCH  10  11
ENDBRANCH   1  10
TORSDOF 12
ENDMDL
MODEL 3
REMARK VINA RESULT:    -4.956      2.237      4.896
REMARK INTER + INTRA:         -10.160
REMARK INTER:                  -8.144
REMARK INTRA:                  -2.016
REMARK UNBOUND:                -1.727
REMARK SMILES CCCCCCCCCCCCCC(=O)[O-]
REMARK SMILES IDX 8 1 9 2 10 3 11 4 12 5 13 6 14 7 15 8 16 9 7 10 6 11 5 12
REMARK SMILES IDX 4 13 3 14 2 15 1 16
REMARK H PARENT
REMARK Flexibility Score: inf
ROOT
ATOM      1  C   UNL     1      18.658  20.906   8.789  1.00  0.00     0.000 C 
ENDROOT
BRANCH   1   2
ATOM      2  C   UNL     1      17.955  21.197  10.120  1.00  0.00     0.000 C 
BRANCH   2   3
ATOM      3  C   UNL     1      18.676  22.310  10.892  1.00  0.00     0.000 C 
BRANCH   3   4
ATOM      4  C   UNL     1      20.027  22.644  10.242  1.00  0.00     0.000 C 
BRANCH   4   5
ATOM      5  C   UNL     1      20.117  24.109   9.785  1.00  0.00     0.006 C 
BRANCH   5   6
ATOM      6  C   UNL     1      18.896  24.936  10.207  1.00  0.00     0.053 C 
BRANCH   6   7
ATOM      7  C   UNL     1      18.505  25.882   9.116  1.00  0.00     0.041 C 
ATOM      8  O   UNL     1      19.225  26.880   8.854  1.00  0.00    -0.550 OA
ATOM      9  O   UNL     1      17.318  25.688   8.421  1.00  0.00    -0.550 OA
ENDBRANCH   6   7
ENDBRANCH   5   6
ENDBRANCH   4   5
ENDBRANCH   3   4
ENDBRANCH   2   3
ENDBRANCH   1   2
BRANCH   1  10
ATOM     10  C   UNL     1      17.675  21.013   7.614  1.00  0.00     0.000 C 
BRANCH  10  11
ATOM     11  C   UNL     1      17.630  22.425   7.008  1.00  0.00    -0.000 C 
BRANCH  11  12
ATOM     12  C   UNL     1      18.998  22.880   6.470  1.00  0.00    -0.000 C 
BRANCH  12  13
ATOM     13  C   UNL     1      19.550  21.947   5.377  1.00  0.00    -0.000 C 
BRANCH  13  14
ATOM     14  C   UNL     1      21.055  21.644   5.483  1.00  0.00    -0.000 C 
BRANCH  14  15
ATOM     15  C   UNL     1      21.658  22.070   6.829  1.00  0.00    -0.003 C 
ATOM     16  C   UNL     1      22.175  20.862   7.607  1.00  0.00     0.004 C 
ENDBRANCH  14  15
ENDBRANCH  13  14
ENDBRANCH  12  13
ENDBRANCH  11  12
ENDBRANCH  10  11
ENDBRANCH   1  10
TORSDOF 12
ENDMDL
MODEL 4
REMARK VINA RESULT:    -4.927      2.131      3.810
REMARK INTER + INTRA:         -10.111
REMARK INTER:                  -8.707
REMARK INTRA:                  -1.404
REMARK UNBOUND:                -1.727
REMARK SMILES CCCCCCCCCCCCCC(=O)[O-]
REMARK SMILES IDX 8 1 9 2 10 3 11 4 12 5 13 6 14 7 15 8 16 9 7 10 6 11 5 12
REMARK SMILES IDX 4 13 3 14 2 15 1 16
REMARK H PARENT
REMARK Flexibility Score: inf
ROOT
ATOM      1  C   UNL     1      20.945  21.864   6.050  1.00  0.00     0.000 C 
ENDROOT
BRANCH   1   2
ATOM      2  C   UNL     1      20.819  21.169   7.411  1.00  0.00     0.000 C 
BRANCH   2   3
ATOM      3  C   UNL     1      21.755  21.807   8.445  1.00  0.00     0.000 C 
BRANCH   3   4
ATOM      4  C   UNL     1      21.269  23.211   8.835  1.00  0.00     0.000 C 
BRANCH   4   5
ATOM      5  C   UNL     1      20.394  23.205  10.098  1.00  0.00     0.006 C 
BRANCH   5   6
ATOM      6  C   UNL     1      19.359  22.073  10.094  1.00  0.00     0.053 C 
BRANCH   6   7
ATOM      7  C   UNL     1      18.527  22.122  11.337  1.00  0.00     0.041 C 
ATOM      8  O   UNL     1      19.007  21.737  12.435  1.00  0.00    -0.550 OA
ATOM      9  O   UNL     1      17.206  22.546  11.274  1.00  0.00    -0.550 OA
ENDBRANCH   6   7
ENDBRANCH   5   6
ENDBRANCH   4   5
ENDBRANCH   3   4
ENDBRANCH   2   3
ENDBRANCH   1   2
BRANCH   1  10
ATOM     10  C   UNL     1      19.562  22.135   5.441  1.00  0.00     0.000 C 
BRANCH  10  11
ATOM     11  C   UNL     1      18.492  22.421   6.507  1.00  0.00    -0.000 C 
BRANCH  11  12
ATOM     12  C   UNL     1      18.343  23.923   6.807  1.00  0.00    -0.000 C 
BRANCH  12  13
ATOM     13  C   UNL     1      17.091  24.242   7.644  1.00  0.00    -0.000 C 
BRANCH  13  14
ATOM     14  C   UNL     1      17.363  25.020   8.944  1.00  0.00    -0.000 C 
BRANCH  14  15
ATOM     15  C   UNL     1      17.715  26.494   8.697  1.00  0.00    -0.003 C 
ATOM     16  C   UNL     1      19.164  26.785   9.078  1.00  0.00     0.004 C 
ENDBRANCH  14  15
ENDBRANCH  13  14
ENDBRANCH  12  13
ENDBRANCH  11  12
ENDBRANCH  10  11
ENDBRANCH   1  10
TORSDOF 12
ENDMDL
MODEL 5
REMARK VINA RESULT:    -4.926      2.269      2.785
REMARK INTER + INTRA:         -10.109
REMARK INTER:                  -8.532
REMARK INTRA:                  -1.577
REMARK UNBOUND:                -1.727
REMARK SMILES CCCCCCCCCCCCCC(=O)[O-]
REMARK SMILES IDX 8 1 9 2 10 3 11 4 12 5 13 6 14 7 15 8 16 9 7 10 6 11 5 12
REMARK SMILES IDX 4 13 3 14 2 15 1 16
REMARK H PARENT
REMARK Flexibility Score: inf
ROOT
ATOM      1  C   UNL     1      20.596  23.105   9.775  1.00  0.00     0.000 C 
ENDROOT
BRANCH   1   2
ATOM      2  C   UNL     1      21.078  23.303   8.333  1.00  0.00     0.000 C 
BRANCH   2   3
ATOM      3  C   UNL     1      19.924  23.129   7.337  1.00  0.00     0.000 C 
BRANCH   3   4
ATOM      4  C   UNL     1      20.342  22.231   6.163  1.00  0.00     0.000 C 
BRANCH   4   5
ATOM      5  C   UNL     1      21.774  21.694   6.308  1.00  0.00     0.006 C 
BRANCH   5   6
ATOM      6  C   UNL     1      21.812  20.230   6.765  1.00  0.00     0.053 C 
BRANCH   6   7
ATOM      7  C   UNL     1      23.170  19.883   7.292  1.00  0.00     0.041 C 
ATOM      8  O   UNL     1      23.555  20.339   8.400  1.00  0.00    -0.550 OA
ATOM      9  O   UNL     1      24.028  19.096   6.535  1.00  0.00    -0.550 OA
ENDBRANCH   6   7
ENDBRANCH   5   6
ENDBRANCH   4   5
ENDBRANCH   3   4
ENDBRANCH   2   3
ENDBRANCH   1   2
BRANCH   1  10
ATOM     10  C   UNL     1      19.494  22.037   9.845  1.00  0.00     0.000 C 
BRANCH  10  11
ATOM     11  C   UNL     1      18.447  22.338  10.930  1.00  0.00    -0.000 C 
BRANCH  11  12
ATOM     12  C   UNL     1      17.725  23.677  10.697  1.00  0.00    -0.000 C 
BRANCH  12  13
ATOM     13  C   UNL     1      16.882  23.684   9.409  1.00  0.00    -0.000 C 
BRANCH  13  14
ATOM     14  C   UNL     1      17.181  24.846   8.446  1.00  0.00    -0.000 C 
BRANCH  14  15
ATOM     15  C   UNL     1      17.602  26.132   9.172  1.00  0.00    -0.003 C 
ATOM     16  C   UNL     1      19.021  26.543   8.787  1.00  0.00     0.004 C 
ENDBRANCH  14  15
ENDBRANCH  13  14
ENDBRANCH  12  13
ENDBRANCH  11  12
ENDBRANCH  10  11
ENDBRANCH   1  10
TORSDOF 12
ENDMDL
MODEL 6
REMARK VINA RESULT:    -4.920      1.966      3.197
REMARK INTER + INTRA:         -10.099
REMARK INTER:                  -8.047
REMARK INTRA:                  -2.052
REMARK UNBOUND:                -1.727
REMARK SMILES CCCCCCCCCCCCCC(=O)[O-]
REMARK SMILES IDX 8 1 9 2 10 3 11 4 12 5 13 6 14 7 15 8 16 9 7 10 6 11 5 12
REMARK SMILES IDX 4 13 3 14 2 15 1 16
REMARK H PARENT
REMARK Flexibility Score: inf
ROOT
ATOM      1  C   UNL     1      16.967  21.764   7.760  1.00  0.00     0.000 C 
ENDROOT
BRANCH   1   2
ATOM      2  C   UNL     1      16.944  23.097   7.004  1.00  0.00     0.000 C 
BRANCH   2   3
ATOM      3  C   UNL     1      18.251  23.315   6.231  1.00  0.00     0.000 C 
BRANCH   3   4
ATOM      4  C   UNL     1      18.855  21.976   5.781  1.00  0.00     0.000 C 
BRANCH   4   5
ATOM      5  C   UNL     1      20.391  21.999   5.755  1.00  0.00     0.006 C 
BRANCH   5   6
ATOM      6  C   UNL     1      20.998  22.472   7.081  1.00  0.00     0.053 C 
BRANCH   6   7
ATOM      7  C   UNL     1      21.934  21.439   7.625  1.00  0.00     0.041 C 
ATOM      8  O   UNL     1      22.133  20.369   6.992  1.00  0.00    -0.550 OA
ATOM      9  O   UNL     1      22.549  21.636   8.854  1.00  0.00    -0.550 OA
ENDBRANCH   6   7
ENDBRANCH   5   6
ENDBRANCH   4   5
ENDBRANCH   3   4
ENDBRANCH   2   3
ENDBRANCH   1   2
BRANCH   1  10
ATOM     10  C   UNL     1      17.135  21.991   9.270  1.00  0.00     0.000 C 
BRANCH  10  11
ATOM     11  C   UNL     1      18.497  21.507   9.792  1.00  0.00    -0.000 C 
BRANCH  11  12
ATOM     12  C   UNL     1      19.350  22.652  10.366  1.00  0.00    -0.000 C 
BRANCH  12  13
ATOM     13  C   UNL     1      18.723  24.038  10.130  1.00  0.00    -0.000 C 
BRANCH  13  14
ATOM     14  C   UNL     1      19.563  24.989   9.259  1.00  0.00    -0.000 C 
BRANCH  14  15
ATOM     15  C   UNL     1      18.933  26.382   9.115  1.00  0.00    -0.003 C 
ATOM     16  C   UNL     1      17.413  26.290   9.013  1.00  0.00     0.004 C 
ENDBRANCH  14  15
ENDBRANCH  13  14
ENDBRANCH  12  13
ENDBRANCH  11  12
ENDBRANCH  10  11
ENDBRANCH   1  10
TORSDOF 12
ENDMDL
MODEL 7
REMARK VINA RESULT:    -4.911      2.085      5.122
REMARK INTER + INTRA:         -10.083
REMARK INTER:                  -8.431
REMARK INTRA:                  -1.653
REMARK UNBOUND:                -1.727
REMARK SMILES CCCCCCCCCCCCCC(=O)[O-]
REMARK SMILES IDX 8 1 9 2 10 3 11 4 12 5 13 6 14 7 15 8 16 9 7 10 6 11 5 12
REMARK SMILES IDX 4 13 3 14 2 15 1 16
REMARK H PARENT
REMARK Flexibility Score: inf
ROOT
ATOM      1  C   UNL     1      16.908  24.239   7.891  1.00  0.00     0.000 C 
ENDROOT
BRANCH   1   2
ATOM      2  C   UNL     1      17.550  25.447   8.582  1.00  0.00     0.000 C 
BRANCH   2   3
ATOM      3  C   UNL     1      19.058  25.239   8.769  1.00  0.00     0.000 C 
BRANCH   3   4
ATOM      4  C   UNL     1      19.349  24.433  10.044  1.00  0.00     0.000 C 
BRANCH   4   5
ATOM      5  C   UNL     1      20.268  23.229   9.787  1.00  0.00     0.006 C 
BRANCH   5   6
ATOM      6  C   UNL     1      19.516  21.892   9.830  1.00  0.00     0.053 C 
BRANCH   6   7
ATOM      7  C   UNL     1      18.501  21.900  10.930  1.00  0.00     0.041 C 
ATOM      8  O   UNL     1      18.866  21.783  12.129  1.00  0.00    -0.550 OA
ATOM      9  O   UNL     1      17.149  21.987  10.627  1.00  0.00    -0.550 OA
ENDBRANCH   6   7
ENDBRANCH   5   6
ENDBRANCH   4   5
ENDBRANCH   3   4
ENDBRANCH   2   3
ENDBRANCH   1   2
BRANCH   1  10
ATOM     10  C   UNL     1      17.606  23.934   6.557  1.00  0.00     0.000 C 
BRANCH  10  11
ATOM     11  C   UNL     1      18.061  22.470   6.449  1.00  0.00    -0.000 C 
BRANCH  11  12
ATOM     12  C   UNL     1      19.289  22.299   5.538  1.00  0.00    -0.000 C 
BRANCH  12  13
ATOM     13  C   UNL     1      20.619  22.367   6.311  1.00  0.00    -0.000 C 
BRANCH  13  14
ATOM     14  C   UNL     1      21.690  21.364   5.849  1.00  0.00    -0.000 C 
BRANCH  14  15
ATOM     15  C   UNL     1      22.007  20.297   6.906  1.00  0.00    -0.003 C 
ATOM     16  C   UNL     1      22.815  20.887   8.059  1.00  0.00     0.004 C 
ENDBRANCH  14  15
ENDBRANCH  13  14
ENDBRANCH  12  13
ENDBRANCH  11  12
ENDBRANCH  10  11
ENDBRANCH   1  10
TORSDOF 12
ENDMDL
MODEL 8
REMARK VINA RESULT:    -4.870      1.839      3.504
REMARK INTER + INTRA:         -10.013
REMARK INTER:                  -8.409
REMARK INTRA:                  -1.604
REMARK UNBOUND:                -1.727
REMARK SMILES CCCCCCCCCCCCCC(=O)[O-]
REMARK SMILES IDX 8 1 9 2 10 3 11 4 12 5 13 6 14 7 15 8 16 9 7 10 6 11 5 12
REMARK SMILES IDX 4 13 3 14 2 15 1 16
REMARK H PARENT
REMARK Flexibility Score: inf
ROOT
ATOM      1  C   UNL     1      19.014  20.867   6.102  1.00  0.00     0.000 C 
ENDROOT
BRANCH   1   2
ATOM      2  C   UNL     1      19.953  21.598   5.136  1.00  0.00     0.000 C 
BRANCH   2   3
ATOM      3  C   UNL     1      21.398  21.579   5.650  1.00  0.00     0.000 C 
BRANCH   3   4
ATOM      4  C   UNL     1      21.516  20.736   6.929  1.00  0.00     0.000 C 
BRANCH   4   5
ATOM      5  C   UNL     1      22.147  21.513   8.095  1.00  0.00     0.006 C 
BRANCH   5   6
ATOM      6  C   UNL     1      21.424  22.835   8.384  1.00  0.00     0.053 C 
BRANCH   6   7
ATOM      7  C   UNL     1      20.653  22.738   9.663  1.00  0.00     0.041 C 
ATOM      8  O   UNL     1      20.947  23.479  10.637  1.00  0.00    -0.550 OA
ATOM      9  O   UNL     1      19.642  21.795   9.795  1.00  0.00    -0.550 OA
ENDBRANCH   6   7
ENDBRANCH   5   6
ENDBRANCH   4   5
ENDBRANCH   3   4
ENDBRANCH   2   3
ENDBRANCH   1   2
BRANCH   1  10
ATOM     10  C   UNL     1      17.904  21.802   6.603  1.00  0.00     0.000 C 
BRANCH  10  11
ATOM     11  C   UNL     1      18.212  23.283   6.332  1.00  0.00    -0.000 C 
BRANCH  11  12
ATOM     12  C   UNL     1      17.290  24.231   7.118  1.00  0.00    -0.000 C 
BRANCH  12  13
ATOM     13  C   UNL     1      17.203  23.875   8.613  1.00  0.00    -0.000 C 
BRANCH  13  14
ATOM     14  C   UNL     1      17.567  25.020   9.574  1.00  0.00    -0.000 C 
BRANCH  14  15
ATOM     15  C   UNL     1      18.737  25.876   9.069  1.00  0.00    -0.003 C 
ATOM     16  C   UNL     1      18.272  27.283   8.702  1.00  0.00     0.004 C 
ENDBRANCH  14  15
ENDBRANCH  13  14
ENDBRANCH  12  13
ENDBRANCH  11  12
ENDBRANCH  10  11
ENDBRANCH   1  10
TORSDOF 12
ENDMDL
MODEL 9
REMARK VINA RESULT:    -4.845      1.945      4.053
REMARK INTER + INTRA:          -9.971
REMARK INTER:                  -7.929
REMARK INTRA:                  -2.043
REMARK UNBOUND:                -1.727
REMARK SMILES CCCCCCCCCCCCCC(=O)[O-]
REMARK SMILES IDX 8 1 9 2 10 3 11 4 12 5 13 6 14 7 15 8 16 9 7 10 6 11 5 12
REMARK SMILES IDX 4 13 3 14 2 15 1 16
REMARK H PARENT
REMARK Flexibility Score: inf
ROOT
ATOM      1  C   UNL     1      17.129  22.716   6.850  1.00  0.00     0.000 C 
ENDROOT
BRANCH   1   2
ATOM      2  C   UNL     1      18.391  21.857   6.710  1.00  0.00     0.000 C 
BRANCH   2   3
ATOM      3  C   UNL     1      19.601  22.716   6.321  1.00  0.00     0.000 C 
BRANCH   3   4
ATOM      4  C   UNL     1      20.683  22.667   7.410  1.00  0.00     0.000 C 
BRANCH   4   5
ATOM      5  C   UNL     1      20.979  21.237   7.887  1.00  0.00     0.006 C 
BRANCH   5   6
ATOM      6  C   UNL     1      22.472  20.890   7.822  1.00  0.00     0.053 C 
BRANCH   6   7
ATOM      7  C   UNL     1      22.733  19.908   6.723  1.00  0.00     0.041 C 
ATOM      8  O   UNL     1      23.723  19.134   6.787  1.00  0.00    -0.550 OA
ATOM      9  O   UNL     1      21.910  19.883   5.604  1.00  0.00    -0.550 OA
ENDBRANCH   6   7
ENDBRANCH   5   6
ENDBRANCH   4   5
ENDBRANCH   3   4
ENDBRANCH   2   3
ENDBRANCH   1   2
BRANCH   1  10
ATOM     10  C   UNL     1      17.476  24.211   6.838  1.00  0.00     0.000 C 
BRANCH  10  11
ATOM     11  C   UNL     1      17.244  24.883   8.200  1.00  0.00    -0.000 C 
BRANCH  11  12
ATOM     12  C   UNL     1      18.523  25.523   8.769  1.00  0.00    -0.000 C 
BRANCH  12  13
ATOM     13  C   UNL     1      19.099  24.742   9.964  1.00  0.00    -0.000 C 
BRANCH  13  14
ATOM     14  C   UNL     1      18.180  23.641  10.522  1.00  0.00    -0.000 C 
BRANCH  14  15
ATOM     15  C   UNL     1      18.894  22.293  10.689  1.00  0.00    -0.003 C 
ATOM     16  C   UNL     1      17.958  21.131  10.367  1.00  0.00     0.004 C 
ENDBRANCH  14  15
ENDBRANCH  13  14
ENDBRANCH  12  13
ENDBRANCH  11  12
ENDBRANCH  10  11
ENDBRANCH   1  10
TORSDOF 12
ENDMDL
