MODEL 1
REMARK VINA RESULT:    -5.841      0.000      0.000
REMARK INTER + INTRA:         -17.699
REMARK INTER:                 -13.354
REMARK INTRA:                  -4.345
REMARK UNBOUND:                -4.345
REMARK SMILES CCCCCCCCCCCCCCCCCCCCCCCC(=O)[O-]
REMARK SMILES IDX 13 1 14 2 15 3 16 4 17 5 18 6 19 7 20 8 21 9 22 10 23 11
REMARK SMILES IDX 24 12 25 13 26 14 12 15 11 16 10 17 9 18 8 19 7 20 6 21 5 22
REMARK SMILES IDX 4 23 3 24 2 25 1 26
REMARK H PARENT
REMARK Flexibility Score: inf
ROOT
ATOM      1  C   UNL     1      11.217  72.710  -2.296  1.00  0.00     0.000 C 
ENDROOT
BRANCH   1   2
ATOM      2  C   UNL     1      12.715  72.530  -1.990  1.00  0.00     0.000 C 
BRANCH   2   3
ATOM      3  C   UNL     1      13.675  73.274  -2.940  1.00  0.00     0.000 C 
BRANCH   3   4
ATOM      4  C   UNL     1      13.168  73.438  -4.384  1.00  0.00     0.000 C 
BRANCH   4   5
ATOM      5  C   UNL     1      12.903  74.904  -4.755  1.00  0.00     0.000 C 
BRANCH   5   6
ATOM      6  C   UNL     1      13.952  75.834  -4.134  1.00  0.00     0.000 C 
BRANCH   6   7
ATOM      7  C   UNL     1      13.334  76.913  -3.226  1.00  0.00     0.000 C 
BRANCH   7   8
ATOM      8  C   UNL     1      11.870  76.624  -2.827  1.00  0.00     0.000 C 
BRANCH   8   9
ATOM      9  C   UNL     1      11.752  76.134  -1.373  1.00  0.00     0.000 C 
BRANCH   9  10
ATOM     10  C   UNL     1      13.097  76.171  -0.623  1.00  0.00     0.006 C 
BRANCH  10  11
ATOM     11  C   UNL     1      13.073  77.016   0.661  1.00  0.00     0.053 C 
BRANCH  11  12
ATOM     12  C   UNL     1      13.722  78.353   0.470  1.00  0.00     0.041 C 
ATOM     13  O   UNL     1      13.336  79.121  -0.450  1.00  0.00    -0.550 OA
ATOM     14  O   UNL     1      14.752  78.752   1.311  1.00  0.00    -0.550 OA
ENDBRANCH  11  12
ENDBRANCH  10  11
ENDBRANCH   9  10
ENDBRANCH   8   9
ENDBRANCH   7   8
ENDBRANCH   6   7
ENDBRANCH   5   6
ENDBRANCH   4   5
ENDBRANCH   3   4
ENDBRANCH   2   3
ENDBRANCH   1   2
BRANCH   1  15
ATOM     15  C   UNL     1      10.465  71.372  -2.398  1.00  0.00     0.000 C 
BRANCH  15  16
ATOM     16  C   UNL     1       9.591  71.264  -3.662  1.00  0.00     0.000 C 
BRANCH  16  17
ATOM     17  C   UNL     1      10.261  71.716  -4.974  1.00  0.00     0.000 C 
BRANCH  17  18
ATOM     18  C   UNL     1       9.273  71.850  -6.143  1.00  0.00    -0.000 C 
BRANCH  18  19
ATOM     19  C   UNL     1       8.495  73.177  -6.117  1.00  0.00    -0.000 C 
BRANCH  19  20
ATOM     20  C   UNL     1       9.392  74.418  -5.926  1.00  0.00    -0.000 C 
BRANCH  20  21
ATOM     21  C   UNL     1       9.116  75.133  -4.596  1.00  0.00    -0.000 C 
BRANCH  21  22
ATOM     22  C   UNL     1       7.784  74.673  -3.990  1.00  0.00    -0.000 C 
BRANCH  22  23
ATOM     23  C   UNL     1       7.954  74.291  -2.513  1.00  0.00    -0.000 C 
BRANCH  23  24
ATOM     24  C   UNL     1       6.970  75.024  -1.588  1.00  0.00    -0.000 C 
BRANCH  24  25
ATOM     25  C   UNL     1       7.652  76.011  -0.618  1.00  0.00    -0.003 C 
ATOM     26  C   UNL     1       8.141  77.275  -1.326  1.00  0.00     0.004 C 
ENDBRANCH  24  25
ENDBRANCH  23  24
ENDBRANCH  22  23
ENDBRANCH  21  22
ENDBRANCH  20  21
ENDBRANCH  19  20
ENDBRANCH  18  19
ENDBRANCH  17  18
ENDBRANCH  16  17
ENDBRANCH  15  16
ENDBRANCH   1  15
TORSDOF 22
ENDMDL
MODEL 2
REMARK VINA RESULT:    -5.818      2.294      5.515
REMARK INTER + INTRA:         -17.646
REMARK INTER:                 -13.921
REMARK INTRA:                  -3.725
REMARK UNBOUND:                -4.345
REMARK SMILES CCCCCCCCCCCCCCCCCCCCCCCC(=O)[O-]
REMARK SMILES IDX 13 1 14 2 15 3 16 4 17 5 18 6 19 7 20 8 21 9 22 10 23 11
REMARK SMILES IDX 24 12 25 13 26 14 12 15 11 16 10 17 9 18 8 19 7 20 6 21 5 22
REMARK SMILES IDX 4 23 3 24 2 25 1 26
REMARK H PARENT
REMARK Flexibility Score: inf
ROOT
ATOM      1  C   UNL     1      11.305  71.749  -1.585  1.00  0.00     0.000 C 
ENDROOT
BRANCH   1   2
ATOM      2  C   UNL     1       9.904  71.895  -2.207  1.00  0.00     0.000 C 
BRANCH   2   3
ATOM      3  C   UNL     1       9.665  71.069  -3.487  1.00  0.00     0.000 C 
BRANCH   3   4
ATOM      4  C   UNL     1      10.201  71.704  -4.783  1.00  0.00     0.000 C 
BRANCH   4   5
ATOM      5  C   UNL     1       9.163  71.708  -5.914  1.00  0.00     0.000 C 
BRANCH   5   6
ATOM      6  C   UNL     1       8.678  73.132  -6.219  1.00  0.00     0.000 C 
BRANCH   6   7
ATOM      7  C   UNL     1       9.639  74.216  -5.700  1.00  0.00     0.000 C 
BRANCH   7   8
ATOM      8  C   UNL     1       8.971  75.236  -4.752  1.00  0.00     0.000 C 
BRANCH   8   9
ATOM      9  C   UNL     1       7.844  74.600  -3.918  1.00  0.00     0.000 C 
BRANCH   9  10
ATOM     10  C   UNL     1       7.819  75.112  -2.466  1.00  0.00     0.006 C 
BRANCH  10  11
ATOM     11  C   UNL     1       6.582  74.667  -1.668  1.00  0.00     0.053 C 
BRANCH  11  12
ATOM     12  C   UNL     1       6.410  75.455  -0.406  1.00  0.00     0.041 C 
ATOM     13  O   UNL     1       7.184  76.414  -0.144  1.00  0.00    -0.550 OA
ATOM     14  O   UNL     1       5.392  75.133   0.482  1.00  0.00    -0.550 OA
ENDBRANCH  11  12
ENDBRANCH  10  11
ENDBRANCH   9  10
ENDBRANCH   8   9
ENDBRANCH   7   8
ENDBRANCH   6   7
ENDBRANCH   5   6
ENDBRANCH   4   5
ENDBRANCH   3   4
ENDBRANCH   2   3
ENDBRANCH   1   2
BRANCH   1  15
ATOM     15  C   UNL     1      12.128  73.047  -1.660  1.00  0.00     0.000 C 
BRANCH  15  16
ATOM     16  C   UNL     1      13.635  72.797  -1.852  1.00  0.00     0.000 C 
BRANCH  16  17
ATOM     17  C   UNL     1      14.225  73.286  -3.188  1.00  0.00     0.000 C 
BRANCH  17  18
ATOM     18  C   UNL     1      13.169  73.453  -4.291  1.00  0.00    -0.000 C 
BRANCH  18  19
ATOM     19  C   UNL     1      12.964  74.920  -4.705  1.00  0.00    -0.000 C 
BRANCH  19  20
ATOM     20  C   UNL     1      14.070  75.868  -4.193  1.00  0.00    -0.000 C 
BRANCH  20  21
ATOM     21  C   UNL     1      13.517  76.949  -3.254  1.00  0.00    -0.000 C 
BRANCH  21  22
ATOM     22  C   UNL     1      12.084  76.620  -2.820  1.00  0.00    -0.000 C 
BRANCH  22  23
ATOM     23  C   UNL     1      11.954  76.640  -1.290  1.00  0.00    -0.000 C 
BRANCH  23  24
ATOM     24  C   UNL     1      13.264  76.275  -0.574  1.00  0.00    -0.000 C 
BRANCH  24  25
ATOM     25  C   UNL     1      13.386  76.885   0.839  1.00  0.00    -0.003 C 
ATOM     26  C   UNL     1      14.604  76.356   1.595  1.00  0.00     0.004 C 
ENDBRANCH  24  25
ENDBRANCH  23  24
ENDBRANCH  22  23
ENDBRANCH  21  22
ENDBRANCH  20  21
ENDBRANCH  19  20
ENDBRANCH  18  19
ENDBRANCH  17  18
ENDBRANCH  16  17
ENDBRANCH  15  16
ENDBRANCH   1  15
TORSDOF 22
ENDMDL
MODEL 3
REMARK VINA RESULT:    -5.816      2.555      5.314
REMARK INTER + INTRA:         -17.640
REMARK INTER:                 -14.217
REMARK INTRA:                  -3.423
REMARK UNBOUND:                -4.345
REMARK SMILES CCCCCCCCCCCCCCCCCCCCCCCC(=O)[O-]
REMARK SMILES IDX 13 1 14 2 15 3 16 4 17 5 18 6 19 7 20 8 21 9 22 10 23 11
REMARK SMILES IDX 24 12 25 13 26 14 12 15 11 16 10 17 9 18 8 19 7 20 6 21 5 22
REMARK SMILES IDX 4 23 3 24 2 25 1 26
REMARK H PARENT
REMARK Flexibility Score: inf
ROOT
ATOM      1  C   UNL     1      12.403  73.051  -1.665  1.00  0.00     0.000 C 
ENDROOT
BRANCH   1   2
ATOM      2  C   UNL     1      11.640  71.794  -1.208  1.00  0.00     0.000 C 
BRANCH   2   3
ATOM      3  C   UNL     1      10.532  71.313  -2.166  1.00  0.00     0.000 C 
BRANCH   3   4
ATOM      4  C   UNL     1      10.499  72.018  -3.534  1.00  0.00     0.000 C 
BRANCH   4   5
ATOM      5  C   UNL     1       9.521  71.359  -4.516  1.00  0.00     0.000 C 
BRANCH   5   6
ATOM      6  C   UNL     1       9.623  71.989  -5.912  1.00  0.00     0.000 C 
BRANCH   6   7
ATOM      7  C   UNL     1       8.579  73.095  -6.147  1.00  0.00     0.000 C 
BRANCH   7   8
ATOM      8  C   UNL     1       9.159  74.524  -6.069  1.00  0.00     0.000 C 
BRANCH   8   9
ATOM      9  C   UNL     1       9.102  75.095  -4.641  1.00  0.00     0.000 C 
BRANCH   9  10
ATOM     10  C   UNL     1       7.721  74.914  -3.984  1.00  0.00     0.006 C 
BRANCH  10  11
ATOM     11  C   UNL     1       7.782  74.445  -2.521  1.00  0.00     0.053 C 
BRANCH  11  12
ATOM     12  C   UNL     1       6.594  74.902  -1.730  1.00  0.00     0.041 C 
ATOM     13  O   UNL     1       5.446  74.455  -1.992  1.00  0.00    -0.550 OA
ATOM     14  O   UNL     1       6.755  75.820  -0.702  1.00  0.00    -0.550 OA
ENDBRANCH  11  12
ENDBRANCH  10  11
ENDBRANCH   9  10
ENDBRANCH   8   9
ENDBRANCH   7   8
ENDBRANCH   6   7
ENDBRANCH   5   6
ENDBRANCH   4   5
ENDBRANCH   3   4
ENDBRANCH   2   3
ENDBRANCH   1   2
BRANCH   1  15
ATOM     15  C   UNL     1      13.903  72.791  -1.885  1.00  0.00     0.000 C 
BRANCH  15  16
ATOM     16  C   UNL     1      14.402  73.263  -3.264  1.00  0.00     0.000 C 
BRANCH  16  17
ATOM     17  C   UNL     1      13.325  73.372  -4.360  1.00  0.00     0.000 C 
BRANCH  17  18
ATOM     18  C   UNL     1      12.900  74.820  -4.649  1.00  0.00    -0.000 C 
BRANCH  18  19
ATOM     19  C   UNL     1      13.932  75.853  -4.165  1.00  0.00    -0.000 C 
BRANCH  19  20
ATOM     20  C   UNL     1      13.319  76.995  -3.327  1.00  0.00    -0.000 C 
BRANCH  20  21
ATOM     21  C   UNL     1      12.190  76.500  -2.412  1.00  0.00    -0.000 C 
BRANCH  21  22
ATOM     22  C   UNL     1      11.394  77.677  -1.835  1.00  0.00    -0.000 C 
BRANCH  22  23
ATOM     23  C   UNL     1      10.020  77.216  -1.329  1.00  0.00    -0.000 C 
BRANCH  23  24
ATOM     24  C   UNL     1       9.087  78.386  -0.980  1.00  0.00    -0.000 C 
BRANCH  24  25
ATOM     25  C   UNL     1       8.198  78.839  -2.157  1.00  0.00    -0.003 C 
ATOM     26  C   UNL     1       7.853  80.327  -2.083  1.00  0.00     0.004 C 
ENDBRANCH  24  25
ENDBRANCH  23  24
ENDBRANCH  22  23
ENDBRANCH  21  22
ENDBRANCH  20  21
ENDBRANCH  19  20
ENDBRANCH  18  19
ENDBRANCH  17  18
ENDBRANCH  16  17
ENDBRANCH  15  16
ENDBRANCH   1  15
TORSDOF 22
ENDMDL
MODEL 4
REMARK VINA RESULT:    -5.812      1.338      2.493
REMARK INTER + INTRA:         -17.632
REMARK INTER:                 -13.757
REMARK INTRA:                  -3.875
REMARK UNBOUND:                -4.345
REMARK SMILES CCCCCCCCCCCCCCCCCCCCCCCC(=O)[O-]
REMARK SMILES IDX 13 1 14 2 15 3 16 4 17 5 18 6 19 7 20 8 21 9 22 10 23 11
REMARK SMILES IDX 24 12 25 13 26 14 12 15 11 16 10 17 9 18 8 19 7 20 6 21 5 22
REMARK SMILES IDX 4 23 3 24 2 25 1 26
REMARK H PARENT
REMARK Flexibility Score: inf
ROOT
ATOM      1  C   UNL     1      10.621  71.577  -3.204  1.00  0.00     0.000 C 
ENDROOT
BRANCH   1   2
ATOM      2  C   UNL     1      10.278  72.628  -2.133  1.00  0.00     0.000 C 
BRANCH   2   3
ATOM      3  C   UNL     1      11.456  73.061  -1.236  1.00  0.00     0.000 C 
BRANCH   3   4
ATOM      4  C   UNL     1      12.720  72.191  -1.353  1.00  0.00     0.000 C 
BRANCH   4   5
ATOM      5  C   UNL     1      14.013  73.019  -1.324  1.00  0.00     0.000 C 
BRANCH   5   6
ATOM      6  C   UNL     1      14.711  73.010  -2.689  1.00  0.00     0.000 C 
BRANCH   6   7
ATOM      7  C   UNL     1      13.831  73.580  -3.816  1.00  0.00     0.000 C 
BRANCH   7   8
ATOM      8  C   UNL     1      13.981  75.105  -4.011  1.00  0.00     0.000 C 
BRANCH   8   9
ATOM      9  C   UNL     1      12.764  75.879  -3.475  1.00  0.00     0.000 C 
BRANCH   9  10
ATOM     10  C   UNL     1      13.034  76.539  -2.110  1.00  0.00     0.006 C 
BRANCH  10  11
ATOM     11  C   UNL     1      11.776  76.722  -1.245  1.00  0.00     0.053 C 
BRANCH  11  12
ATOM     12  C   UNL     1      11.944  77.807  -0.226  1.00  0.00     0.041 C 
ATOM     13  O   UNL     1      12.662  77.619   0.792  1.00  0.00    -0.550 OA
ATOM     14  O   UNL     1      11.309  79.030  -0.401  1.00  0.00    -0.550 OA
ENDBRANCH  11  12
ENDBRANCH  10  11
ENDBRANCH   9  10
ENDBRANCH   8   9
ENDBRANCH   7   8
ENDBRANCH   6   7
ENDBRANCH   5   6
ENDBRANCH   4   5
ENDBRANCH   3   4
ENDBRANCH   2   3
ENDBRANCH   1   2
BRANCH   1  15
ATOM     15  C   UNL     1       9.492  71.382  -4.231  1.00  0.00     0.000 C 
BRANCH  15  16
ATOM     16  C   UNL     1       9.923  71.711  -5.672  1.00  0.00     0.000 C 
BRANCH  16  17
ATOM     17  C   UNL     1      11.090  72.707  -5.807  1.00  0.00     0.000 C 
BRANCH  17  18
ATOM     18  C   UNL     1      10.627  74.160  -5.996  1.00  0.00    -0.000 C 
BRANCH  18  19
ATOM     19  C   UNL     1       9.105  74.282  -6.184  1.00  0.00    -0.000 C 
BRANCH  19  20
ATOM     20  C   UNL     1       8.444  75.308  -5.238  1.00  0.00    -0.000 C 
BRANCH  20  21
ATOM     21  C   UNL     1       9.189  75.425  -3.901  1.00  0.00    -0.000 C 
BRANCH  21  22
ATOM     22  C   UNL     1       8.237  75.846  -2.775  1.00  0.00    -0.000 C 
BRANCH  22  23
ATOM     23  C   UNL     1       6.903  75.092  -2.872  1.00  0.00    -0.000 C 
BRANCH  23  24
ATOM     24  C   UNL     1       6.549  74.332  -1.583  1.00  0.00    -0.000 C 
BRANCH  24  25
ATOM     25  C   UNL     1       5.147  74.668  -1.034  1.00  0.00    -0.003 C 
ATOM     26  C   UNL     1       5.209  75.437   0.285  1.00  0.00     0.004 C 
ENDBRANCH  24  25
ENDBRANCH  23  24
ENDBRANCH  22  23
ENDBRANCH  21  22
ENDBRANCH  20  21
ENDBRANCH  19  20
ENDBRANCH  18  19
ENDBRANCH  17  18
ENDBRANCH  16  17
ENDBRANCH  15  16
ENDBRANCH   1  15
TORSDOF 22
ENDMDL
MODEL 5
REMARK VINA RESULT:    -5.758      2.127      5.354
REMARK INTER + INTRA:         -17.509
REMARK INTER:                 -13.249
REMARK INTRA:                  -4.259
REMARK UNBOUND:                -4.345
REMARK SMILES CCCCCCCCCCCCCCCCCCCCCCCC(=O)[O-]
REMARK SMILES IDX 13 1 14 2 15 3 16 4 17 5 18 6 19 7 20 8 21 9 22 10 23 11
REMARK SMILES IDX 24 12 25 13 26 14 12 15 11 16 10 17 9 18 8 19 7 20 6 21 5 22
REMARK SMILES IDX 4 23 3 24 2 25 1 26
REMARK H PARENT
REMARK Flexibility Score: inf
ROOT
ATOM      1  C   UNL     1      11.380  72.653  -1.792  1.00  0.00     0.000 C 
ENDROOT
BRANCH   1   2
ATOM      2  C   UNL     1      10.569  71.381  -2.102  1.00  0.00     0.000 C 
BRANCH   2   3
ATOM      3  C   UNL     1       9.828  71.387  -3.454  1.00  0.00     0.000 C 
BRANCH   3   4
ATOM      4  C   UNL     1      10.611  72.008  -4.625  1.00  0.00     0.000 C 
BRANCH   4   5
ATOM      5  C   UNL     1       9.869  71.886  -5.964  1.00  0.00     0.000 C 
BRANCH   5   6
ATOM      6  C   UNL     1       8.740  72.920  -6.072  1.00  0.00     0.000 C 
BRANCH   6   7
ATOM      7  C   UNL     1       9.256  74.370  -6.082  1.00  0.00     0.000 C 
BRANCH   7   8
ATOM      8  C   UNL     1       8.907  75.163  -4.803  1.00  0.00     0.000 C 
BRANCH   8   9
ATOM      9  C   UNL     1       7.777  74.497  -3.999  1.00  0.00     0.000 C 
BRANCH   9  10
ATOM     10  C   UNL     1       8.044  74.501  -2.482  1.00  0.00     0.006 C 
BRANCH  10  11
ATOM     11  C   UNL     1       6.783  74.700  -1.626  1.00  0.00     0.053 C 
BRANCH  11  12
ATOM     12  C   UNL     1       6.998  75.691  -0.524  1.00  0.00     0.041 C 
ATOM     13  O   UNL     1       6.028  76.084   0.177  1.00  0.00    -0.550 OA
ATOM     14  O   UNL     1       8.272  76.181  -0.268  1.00  0.00    -0.550 OA
ENDBRANCH  11  12
ENDBRANCH  10  11
ENDBRANCH   9  10
ENDBRANCH   8   9
ENDBRANCH   7   8
ENDBRANCH   6   7
ENDBRANCH   5   6
ENDBRANCH   4   5
ENDBRANCH   3   4
ENDBRANCH   2   3
ENDBRANCH   1   2
BRANCH   1  15
ATOM     15  C   UNL     1      12.797  72.346  -1.279  1.00  0.00     0.000 C 
BRANCH  15  16
ATOM     16  C   UNL     1      13.875  73.252  -1.903  1.00  0.00     0.000 C 
BRANCH  16  17
ATOM     17  C   UNL     1      13.960  73.223  -3.440  1.00  0.00     0.000 C 
BRANCH  17  18
ATOM     18  C   UNL     1      13.925  74.623  -4.074  1.00  0.00    -0.000 C 
BRANCH  18  19
ATOM     19  C   UNL     1      12.508  75.222  -4.119  1.00  0.00    -0.000 C 
BRANCH  19  20
ATOM     20  C   UNL     1      12.349  76.500  -3.269  1.00  0.00    -0.000 C 
BRANCH  20  21
ATOM     21  C   UNL     1      11.276  76.341  -2.182  1.00  0.00    -0.000 C 
BRANCH  21  22
ATOM     22  C   UNL     1      11.912  76.226  -0.792  1.00  0.00    -0.000 C 
BRANCH  22  23
ATOM     23  C   UNL     1      13.236  77.000  -0.727  1.00  0.00    -0.000 C 
BRANCH  23  24
ATOM     24  C   UNL     1      13.163  78.237   0.183  1.00  0.00    -0.000 C 
BRANCH  24  25
ATOM     25  C   UNL     1      13.432  79.565  -0.556  1.00  0.00    -0.003 C 
ATOM     26  C   UNL     1      12.333  79.899  -1.565  1.00  0.00     0.004 C 
ENDBRANCH  24  25
ENDBRANCH  23  24
ENDBRANCH  22  23
ENDBRANCH  21  22
ENDBRANCH  20  21
ENDBRANCH  19  20
ENDBRANCH  18  19
ENDBRANCH  17  18
ENDBRANCH  16  17
ENDBRANCH  15  16
ENDBRANCH   1  15
TORSDOF 22
ENDMDL
MODEL 6
REMARK VINA RESULT:    -5.704      1.256      4.678
REMARK INTER + INTRA:         -17.384
REMARK INTER:                 -12.973
REMARK INTRA:                  -4.411
REMARK UNBOUND:                -4.345
REMARK SMILES CCCCCCCCCCCCCCCCCCCCCCCC(=O)[O-]
REMARK SMILES IDX 13 1 14 2 15 3 16 4 17 5 18 6 19 7 20 8 21 9 22 10 23 11
REMARK SMILES IDX 24 12 25 13 26 14 12 15 11 16 10 17 9 18 8 19 7 20 6 21 5 22
REMARK SMILES IDX 4 23 3 24 2 25 1 26
REMARK H PARENT
REMARK Flexibility Score: inf
ROOT
ATOM      1  C   UNL     1       8.598  72.925  -6.252  1.00  0.00     0.000 C 
ENDROOT
BRANCH   1   2
ATOM      2  C   UNL     1       9.139  74.366  -6.200  1.00  0.00     0.000 C 
BRANCH   2   3
ATOM      3  C   UNL     1       8.740  75.174  -4.949  1.00  0.00     0.000 C 
BRANCH   3   4
ATOM      4  C   UNL     1       7.749  74.469  -4.005  1.00  0.00     0.000 C 
BRANCH   4   5
ATOM      5  C   UNL     1       7.474  75.274  -2.727  1.00  0.00     0.000 C 
BRANCH   5   6
ATOM      6  C   UNL     1       8.065  76.687  -2.821  1.00  0.00     0.000 C 
BRANCH   6   7
ATOM      7  C   UNL     1       9.375  76.842  -2.029  1.00  0.00     0.000 C 
BRANCH   7   8
ATOM      8  C   UNL     1       9.456  75.938  -0.779  1.00  0.00     0.000 C 
BRANCH   8   9
ATOM      9  C   UNL     1      10.287  76.580   0.346  1.00  0.00     0.000 C 
BRANCH   9  10
ATOM     10  C   UNL     1      11.235  77.679  -0.168  1.00  0.00     0.006 C 
BRANCH  10  11
ATOM     11  C   UNL     1      12.614  77.684   0.512  1.00  0.00     0.053 C 
BRANCH  11  12
ATOM     12  C   UNL     1      13.073  79.069   0.849  1.00  0.00     0.041 C 
ATOM     13  O   UNL     1      12.963  79.507   2.025  1.00  0.00    -0.550 OA
ATOM     14  O   UNL     1      13.627  79.878  -0.135  1.00  0.00    -0.550 OA
ENDBRANCH  11  12
ENDBRANCH  10  11
ENDBRANCH   9  10
ENDBRANCH   8   9
ENDBRANCH   7   8
ENDBRANCH   6   7
ENDBRANCH   5   6
ENDBRANCH   4   5
ENDBRANCH   3   4
ENDBRANCH   2   3
ENDBRANCH   1   2
BRANCH   1  15
ATOM     15  C   UNL     1       9.657  71.877  -5.870  1.00  0.00     0.000 C 
BRANCH  15  16
ATOM     16  C   UNL     1       9.473  71.323  -4.445  1.00  0.00     0.000 C 
BRANCH  16  17
ATOM     17  C   UNL     1      10.556  71.730  -3.428  1.00  0.00     0.000 C 
BRANCH  17  18
ATOM     18  C   UNL     1       9.977  72.239  -2.098  1.00  0.00    -0.000 C 
BRANCH  18  19
ATOM     19  C   UNL     1      11.061  72.743  -1.129  1.00  0.00    -0.000 C 
BRANCH  19  20
ATOM     20  C   UNL     1      12.445  72.100  -1.360  1.00  0.00    -0.000 C 
BRANCH  20  21
ATOM     21  C   UNL     1      13.539  73.151  -1.595  1.00  0.00    -0.000 C 
BRANCH  21  22
ATOM     22  C   UNL     1      12.997  74.569  -1.376  1.00  0.00    -0.000 C 
BRANCH  22  23
ATOM     23  C   UNL     1      13.187  75.432  -2.631  1.00  0.00    -0.000 C 
BRANCH  23  24
ATOM     24  C   UNL     1      12.123  75.166  -3.707  1.00  0.00    -0.000 C 
BRANCH  24  25
ATOM     25  C   UNL     1      12.716  74.825  -5.091  1.00  0.00    -0.003 C 
ATOM     26  C   UNL     1      12.889  73.320  -5.291  1.00  0.00     0.004 C 
ENDBRANCH  24  25
ENDBRANCH  23  24
ENDBRANCH  22  23
ENDBRANCH  21  22
ENDBRANCH  20  21
ENDBRANCH  19  20
ENDBRANCH  18  19
ENDBRANCH  17  18
ENDBRANCH  16  17
ENDBRANCH  15  16
ENDBRANCH   1  15
TORSDOF 22
ENDMDL
MODEL 7
REMARK VINA RESULT:    -5.686      1.549      2.025
REMARK INTER + INTRA:         -17.344
REMARK INTER:                 -12.857
REMARK INTRA:                  -4.487
REMARK UNBOUND:                -4.345
REMARK SMILES CCCCCCCCCCCCCCCCCCCCCCCC(=O)[O-]
REMARK SMILES IDX 13 1 14 2 15 3 16 4 17 5 18 6 19 7 20 8 21 9 22 10 23 11
REMARK SMILES IDX 24 12 25 13 26 14 12 15 11 16 10 17 9 18 8 19 7 20 6 21 5 22
REMARK SMILES IDX 4 23 3 24 2 25 1 26
REMARK H PARENT
REMARK Flexibility Score: inf
ROOT
ATOM      1  C   UNL     1      10.277  73.480  -2.188  1.00  0.00     0.000 C 
ENDROOT
BRANCH   1   2
ATOM      2  C   UNL     1      11.087  73.562  -0.881  1.00  0.00     0.000 C 
BRANCH   2   3
ATOM      3  C   UNL     1      12.618  73.613  -1.058  1.00  0.00     0.000 C 
BRANCH   3   4
ATOM      4  C   UNL     1      13.187  72.643  -2.109  1.00  0.00     0.000 C 
BRANCH   4   5
ATOM      5  C   UNL     1      14.055  73.350  -3.158  1.00  0.00     0.000 C 
BRANCH   5   6
ATOM      6  C   UNL     1      13.217  73.806  -4.360  1.00  0.00     0.000 C 
BRANCH   6   7
ATOM      7  C   UNL     1      13.477  75.271  -4.750  1.00  0.00     0.000 C 
BRANCH   7   8
ATOM      8  C   UNL     1      13.427  76.251  -3.557  1.00  0.00     0.000 C 
BRANCH   8   9
ATOM      9  C   UNL     1      11.983  76.587  -3.145  1.00  0.00     0.000 C 
BRANCH   9  10
ATOM     10  C   UNL     1      11.892  77.175  -1.724  1.00  0.00     0.006 C 
BRANCH  10  11
ATOM     11  C   UNL     1      12.697  78.470  -1.532  1.00  0.00     0.053 C 
BRANCH  11  12
ATOM     12  C   UNL     1      12.117  79.616  -2.302  1.00  0.00     0.041 C 
ATOM     13  O   UNL     1      12.794  80.190  -3.196  1.00  0.00    -0.550 OA
ATOM     14  O   UNL     1      10.825  80.051  -2.035  1.00  0.00    -0.550 OA
ENDBRANCH  11  12
ENDBRANCH  10  11
ENDBRANCH   9  10
ENDBRANCH   8   9
ENDBRANCH   7   8
ENDBRANCH   6   7
ENDBRANCH   5   6
ENDBRANCH   4   5
ENDBRANCH   3   4
ENDBRANCH   2   3
ENDBRANCH   1   2
BRANCH   1  15
ATOM     15  C   UNL     1       9.377  72.235  -2.255  1.00  0.00     0.000 C 
BRANCH  15  16
ATOM     16  C   UNL     1       9.813  71.232  -3.340  1.00  0.00     0.000 C 
BRANCH  16  17
ATOM     17  C   UNL     1      10.330  71.853  -4.651  1.00  0.00     0.000 C 
BRANCH  17  18
ATOM     18  C   UNL     1       9.329  71.737  -5.812  1.00  0.00    -0.000 C 
BRANCH  18  19
ATOM     19  C   UNL     1       8.722  73.092  -6.214  1.00  0.00    -0.000 C 
BRANCH  19  20
ATOM     20  C   UNL     1       9.459  74.305  -5.607  1.00  0.00    -0.000 C 
BRANCH  20  21
ATOM     21  C   UNL     1       8.489  75.414  -5.175  1.00  0.00    -0.000 C 
BRANCH  21  22
ATOM     22  C   UNL     1       7.567  74.931  -4.049  1.00  0.00    -0.000 C 
BRANCH  22  23
ATOM     23  C   UNL     1       7.532  75.942  -2.894  1.00  0.00    -0.000 C 
BRANCH  23  24
ATOM     24  C   UNL     1       7.128  75.307  -1.554  1.00  0.00    -0.000 C 
BRANCH  24  25
ATOM     25  C   UNL     1       7.698  76.043  -0.324  1.00  0.00    -0.003 C 
ATOM     26  C   UNL     1       8.415  77.339  -0.706  1.00  0.00     0.004 C 
ENDBRANCH  24  25
ENDBRANCH  23  24
ENDBRANCH  22  23
ENDBRANCH  21  22
ENDBRANCH  20  21
ENDBRANCH  19  20
ENDBRANCH  18  19
ENDBRANCH  17  18
ENDBRANCH  16  17
ENDBRANCH  15  16
ENDBRANCH   1  15
TORSDOF 22
ENDMDL
MODEL 8
REMARK VINA RESULT:    -5.659      2.953      5.418
REMARK INTER + INTRA:         -17.283
REMARK INTER:                 -13.745
REMARK INTRA:                  -3.537
REMARK UNBOUND:                -4.345
REMARK SMILES CCCCCCCCCCCCCCCCCCCCCCCC(=O)[O-]
REMARK SMILES IDX 13 1 14 2 15 3 16 4 17 5 18 6 19 7 20 8 21 9 22 10 23 11
REMARK SMILES IDX 24 12 25 13 26 14 12 15 11 16 10 17 9 18 8 19 7 20 6 21 5 22
REMARK SMILES IDX 4 23 3 24 2 25 1 26
REMARK H PARENT
REMARK Flexibility Score: inf
ROOT
ATOM      1  C   UNL     1      10.040  72.339  -2.115  1.00  0.00     0.000 C 
ENDROOT
BRANCH   1   2
ATOM      2  C   UNL     1      10.572  71.738  -3.428  1.00  0.00     0.000 C 
BRANCH   2   3
ATOM      3  C   UNL     1       9.492  71.329  -4.450  1.00  0.00     0.000 C 
BRANCH   3   4
ATOM      4  C   UNL     1       9.707  71.865  -5.877  1.00  0.00     0.000 C 
BRANCH   4   5
ATOM      5  C   UNL     1       8.731  72.993  -6.238  1.00  0.00     0.000 C 
BRANCH   5   6
ATOM      6  C   UNL     1       9.379  74.371  -6.053  1.00  0.00     0.000 C 
BRANCH   6   7
ATOM      7  C   UNL     1       9.134  74.964  -4.654  1.00  0.00     0.000 C 
BRANCH   7   8
ATOM      8  C   UNL     1       7.957  75.963  -4.600  1.00  0.00     0.000 C 
BRANCH   8   9
ATOM      9  C   UNL     1       6.841  75.491  -3.651  1.00  0.00     0.000 C 
BRANCH   9  10
ATOM     10  C   UNL     1       7.388  74.844  -2.365  1.00  0.00     0.006 C 
BRANCH  10  11
ATOM     11  C   UNL     1       6.909  75.523  -1.071  1.00  0.00     0.053 C 
BRANCH  11  12
ATOM     12  C   UNL     1       5.600  74.973  -0.596  1.00  0.00     0.041 C 
ATOM     13  O   UNL     1       5.265  75.083   0.614  1.00  0.00    -0.550 OA
ATOM     14  O   UNL     1       4.745  74.341  -1.489  1.00  0.00    -0.550 OA
ENDBRANCH  11  12
ENDBRANCH  10  11
ENDBRANCH   9  10
ENDBRANCH   8   9
ENDBRANCH   7   8
ENDBRANCH   6   7
ENDBRANCH   5   6
ENDBRANCH   4   5
ENDBRANCH   3   4
ENDBRANCH   2   3
ENDBRANCH   1   2
BRANCH   1  15
ATOM     15  C   UNL     1      11.143  73.004  -1.273  1.00  0.00     0.000 C 
BRANCH  15  16
ATOM     16  C   UNL     1      12.529  72.364  -1.479  1.00  0.00     0.000 C 
BRANCH  16  17
ATOM     17  C   UNL     1      13.648  73.328  -1.916  1.00  0.00     0.000 C 
BRANCH  17  18
ATOM     18  C   UNL     1      13.951  73.260  -3.421  1.00  0.00    -0.000 C 
BRANCH  18  19
ATOM     19  C   UNL     1      13.146  74.285  -4.238  1.00  0.00    -0.000 C 
BRANCH  19  20
ATOM     20  C   UNL     1      13.786  75.690  -4.271  1.00  0.00    -0.000 C 
BRANCH  20  21
ATOM     21  C   UNL     1      13.187  76.623  -3.209  1.00  0.00    -0.000 C 
BRANCH  21  22
ATOM     22  C   UNL     1      11.703  76.314  -2.978  1.00  0.00    -0.000 C 
BRANCH  22  23
ATOM     23  C   UNL     1      11.291  76.642  -1.536  1.00  0.00    -0.000 C 
BRANCH  23  24
ATOM     24  C   UNL     1      10.051  77.546  -1.458  1.00  0.00    -0.000 C 
BRANCH  24  25
ATOM     25  C   UNL     1      10.388  79.049  -1.354  1.00  0.00    -0.003 C 
ATOM     26  C   UNL     1       9.273  79.933  -1.912  1.00  0.00     0.004 C 
ENDBRANCH  24  25
ENDBRANCH  23  24
ENDBRANCH  22  23
ENDBRANCH  21  22
ENDBRANCH  20  21
ENDBRANCH  19  20
ENDBRANCH  18  19
ENDBRANCH  17  18
ENDBRANCH  16  17
ENDBRANCH  15  16
ENDBRANCH   1  15
TORSDOF 22
ENDMDL
MODEL 9
REMARK VINA RESULT:    -5.606      2.725      6.016
REMARK INTER + INTRA:         -17.162
REMARK INTER:                 -13.288
REMARK INTRA:                  -3.874
REMARK UNBOUND:                -4.345
REMARK SMILES CCCCCCCCCCCCCCCCCCCCCCCC(=O)[O-]
REMARK SMILES IDX 13 1 14 2 15 3 16 4 17 5 18 6 19 7 20 8 21 9 22 10 23 11
REMARK SMILES IDX 24 12 25 13 26 14 12 15 11 16 10 17 9 18 8 19 7 20 6 21 5 22
REMARK SMILES IDX 4 23 3 24 2 25 1 26
REMARK H PARENT
REMARK Flexibility Score: inf
ROOT
ATOM      1  C   UNL     1      12.838  72.834  -2.738  1.00  0.00     0.000 C 
ENDROOT
BRANCH   1   2
ATOM      2  C   UNL     1      11.752  72.508  -3.779  1.00  0.00     0.000 C 
BRANCH   2   3
ATOM      3  C   UNL     1      10.595  71.624  -3.268  1.00  0.00     0.000 C 
BRANCH   3   4
ATOM      4  C   UNL     1       9.511  71.300  -4.311  1.00  0.00     0.000 C 
BRANCH   4   5
ATOM      5  C   UNL     1       9.850  71.845  -5.706  1.00  0.00     0.000 C 
BRANCH   5   6
ATOM      6  C   UNL     1       8.763  72.804  -6.209  1.00  0.00     0.000 C 
BRANCH   6   7
ATOM      7  C   UNL     1       9.168  74.284  -6.088  1.00  0.00     0.000 C 
BRANCH   7   8
ATOM      8  C   UNL     1       8.537  75.003  -4.875  1.00  0.00     0.000 C 
BRANCH   8   9
ATOM      9  C   UNL     1       9.585  75.370  -3.810  1.00  0.00     0.000 C 
BRANCH   9  10
ATOM     10  C   UNL     1       9.224  74.835  -2.411  1.00  0.00     0.006 C 
BRANCH  10  11
ATOM     11  C   UNL     1       7.879  74.090  -2.356  1.00  0.00     0.053 C 
BRANCH  11  12
ATOM     12  C   UNL     1       6.835  74.864  -1.611  1.00  0.00     0.041 C 
ATOM     13  O   UNL     1       7.137  75.936  -1.022  1.00  0.00    -0.550 OA
ATOM     14  O   UNL     1       5.526  74.402  -1.567  1.00  0.00    -0.550 OA
ENDBRANCH  11  12
ENDBRANCH  10  11
ENDBRANCH   9  10
ENDBRANCH   8   9
ENDBRANCH   7   8
ENDBRANCH   6   7
ENDBRANCH   5   6
ENDBRANCH   4   5
ENDBRANCH   3   4
ENDBRANCH   2   3
ENDBRANCH   1   2
BRANCH   1  15
ATOM     15  C   UNL     1      14.001  73.652  -3.326  1.00  0.00     0.000 C 
BRANCH  15  16
ATOM     16  C   UNL     1      13.546  74.676  -4.382  1.00  0.00     0.000 C 
BRANCH  16  17
ATOM     17  C   UNL     1      13.836  76.151  -4.047  1.00  0.00     0.000 C 
BRANCH  17  18
ATOM     18  C   UNL     1      12.823  76.759  -3.065  1.00  0.00    -0.000 C 
BRANCH  18  19
ATOM     19  C   UNL     1      13.317  76.739  -1.608  1.00  0.00    -0.000 C 
BRANCH  19  20
ATOM     20  C   UNL     1      12.211  76.403  -0.584  1.00  0.00    -0.000 C 
BRANCH  20  21
ATOM     21  C   UNL     1      12.324  77.255   0.688  1.00  0.00    -0.000 C 
BRANCH  21  22
ATOM     22  C   UNL     1      12.413  78.748   0.346  1.00  0.00    -0.000 C 
BRANCH  22  23
ATOM     23  C   UNL     1      11.061  79.281  -0.147  1.00  0.00    -0.000 C 
BRANCH  23  24
ATOM     24  C   UNL     1      11.196  80.261  -1.323  1.00  0.00    -0.000 C 
BRANCH  24  25
ATOM     25  C   UNL     1      12.655  80.665  -1.626  1.00  0.00    -0.003 C 
ATOM     26  C   UNL     1      13.030  80.426  -3.089  1.00  0.00     0.004 C 
ENDBRANCH  24  25
ENDBRANCH  23  24
ENDBRANCH  22  23
ENDBRANCH  21  22
ENDBRANCH  20  21
ENDBRANCH  19  20
ENDBRANCH  18  19
ENDBRANCH  17  18
ENDBRANCH  16  17
ENDBRANCH  15  16
ENDBRANCH   1  15
TORSDOF 22
ENDMDL
