MODEL 1
REMARK VINA RESULT:    -7.876      0.000      0.000
REMARK INTER + INTRA:          -9.585
REMARK INTER:                  -9.487
REMARK INTRA:                  -0.098
REMARK UNBOUND:                -0.098
REMARK SMILES O=c1c(O)c(-c2ccc(O)cc2O)oc2cc(O)cc(O)c12
REMARK SMILES IDX 5 1 3 2 2 3 1 4 22 5 20 6 19 7 17 8 16 9 15 10 14 11 6 12
REMARK SMILES IDX 8 13 7 14 9 15 11 16 12 17 10 18 13 20 4 22 21 24 18 26
REMARK H PARENT 10 19 13 21 4 23 21 25 18 27
REMARK Flexibility Score: inf
ROOT
ATOM      1  C   UNL     1      17.174  22.619  40.779  1.00  0.00     0.184 A 
ATOM      2  C   UNL     1      16.786  23.638  39.890  1.00  0.00     0.208 A 
ATOM      3  C   UNL     1      15.645  24.401  40.187  1.00  0.00     0.238 A 
ATOM      4  O   UNL     1      15.283  25.311  39.393  1.00  0.00    -0.285 OA
ATOM      5  C   UNL     1      14.925  24.143  41.371  1.00  0.00     0.111 A 
ATOM      6  C   UNL     1      13.768  24.868  41.747  1.00  0.00     0.134 A 
ATOM      7  C   UNL     1      13.110  24.556  42.946  1.00  0.00     0.093 A 
ATOM      8  C   UNL     1      13.588  23.536  43.776  1.00  0.00     0.123 A 
ATOM      9  C   UNL     1      14.729  22.819  43.410  1.00  0.00     0.094 A 
ATOM     10  C   UNL     1      15.397  23.113  42.218  1.00  0.00     0.146 A 
ATOM     11  O   UNL     1      16.476  22.412  41.893  1.00  0.00    -0.451 OA
ENDROOT
BRANCH   1  12
ATOM     12  C   UNL     1      18.355  21.765  40.519  1.00  0.00     0.063 A 
ATOM     13  C   UNL     1      20.656  21.517  39.763  1.00  0.00     0.047 A 
ATOM     14  C   UNL     1      19.550  22.327  40.035  1.00  0.00     0.020 A 
ATOM     15  C   UNL     1      20.581  20.134  39.961  1.00  0.00     0.119 A 
ATOM     16  C   UNL     1      19.395  19.564  40.429  1.00  0.00     0.093 A 
ATOM     17  C   UNL     1      18.280  20.369  40.707  1.00  0.00     0.130 A 
BRANCH  15  18
ATOM     18  O   UNL     1      21.677  19.317  39.694  1.00  0.00    -0.508 OA
ATOM     19  H   UNL     1      22.621  19.686  39.680  1.00  0.00     0.293 HD
ENDBRANCH  15  18
BRANCH  17  20
ATOM     20  O   UNL     1      17.102  19.787  41.180  1.00  0.00    -0.507 OA
ATOM     21  H   UNL     1      16.245  20.320  41.271  1.00  0.00     0.293 HD
ENDBRANCH  17  20
ENDBRANCH   1  12
BRANCH   2  22
ATOM     22  O   UNL     1      17.542  23.897  38.744  1.00  0.00    -0.502 OA
ATOM     23  H   UNL     1      17.985  23.159  38.208  1.00  0.00     0.293 HD
ENDBRANCH   2  22
BRANCH   6  24
ATOM     24  O   UNL     1      13.269  25.891  40.940  1.00  0.00    -0.507 OA
ATOM     25  H   UNL     1      13.084  25.750  39.954  1.00  0.00     0.293 HD
ENDBRANCH   6  24
BRANCH   8  26
ATOM     26  O   UNL     1      12.936  23.227  44.968  1.00  0.00    -0.508 OA
ATOM     27  H   UNL     1      12.448  23.934  45.505  1.00  0.00     0.293 HD
ENDBRANCH   8  26
TORSDOF 6
ENDMDL
MODEL 2
REMARK VINA RESULT:    -7.537      1.284      6.382
REMARK INTER + INTRA:          -9.178
REMARK INTER:                  -9.470
REMARK INTRA:                   0.292
REMARK UNBOUND:                -0.098
REMARK SMILES O=c1c(O)c(-c2ccc(O)cc2O)oc2cc(O)cc(O)c12
REMARK SMILES IDX 5 1 3 2 2 3 1 4 22 5 20 6 19 7 17 8 16 9 15 10 14 11 6 12
REMARK SMILES IDX 8 13 7 14 9 15 11 16 12 17 10 18 13 20 4 22 21 24 18 26
REMARK H PARENT 10 19 13 21 4 23 21 25 18 27
REMARK Flexibility Score: inf
ROOT
ATOM      1  C   UNL     1      16.310  23.384  40.825  1.00  0.00     0.184 A 
ATOM      2  C   UNL     1      16.796  24.233  39.814  1.00  0.00     0.208 A 
ATOM      3  C   UNL     1      17.960  23.867  39.121  1.00  0.00     0.238 A 
ATOM      4  O   UNL     1      18.410  24.625  38.219  1.00  0.00    -0.285 OA
ATOM      5  C   UNL     1      18.608  22.656  39.439  1.00  0.00     0.111 A 
ATOM      6  C   UNL     1      19.784  22.212  38.786  1.00  0.00     0.134 A 
ATOM      7  C   UNL     1      20.364  20.989  39.155  1.00  0.00     0.093 A 
ATOM      8  C   UNL     1      19.792  20.203  40.161  1.00  0.00     0.123 A 
ATOM      9  C   UNL     1      18.633  20.637  40.807  1.00  0.00     0.094 A 
ATOM     10  C   UNL     1      18.040  21.853  40.456  1.00  0.00     0.146 A 
ATOM     11  O   UNL     1      16.941  22.243  41.090  1.00  0.00    -0.451 OA
ENDROOT
BRANCH   1  12
ATOM     12  C   UNL     1      15.098  23.716  41.608  1.00  0.00     0.063 A 
ATOM     13  C   UNL     1      12.986  24.908  41.824  1.00  0.00     0.047 A 
ATOM     14  C   UNL     1      14.117  24.572  41.076  1.00  0.00     0.020 A 
ATOM     15  C   UNL     1      12.824  24.403  43.120  1.00  0.00     0.119 A 
ATOM     16  C   UNL     1      13.800  23.563  43.663  1.00  0.00     0.093 A 
ATOM     17  C   UNL     1      14.937  23.219  42.918  1.00  0.00     0.130 A 
BRANCH  15  18
ATOM     18  O   UNL     1      11.701  24.731  43.875  1.00  0.00    -0.508 OA
ATOM     19  H   UNL     1      11.732  25.458  44.581  1.00  0.00     0.293 HD
ENDBRANCH  15  18
BRANCH  17  20
ATOM     20  O   UNL     1      15.900  22.373  43.471  1.00  0.00    -0.507 OA
ATOM     21  H   UNL     1      16.363  22.595  44.345  1.00  0.00     0.293 HD
ENDBRANCH  17  20
ENDBRANCH   1  12
BRANCH   2  22
ATOM     22  O   UNL     1      16.111  25.408  39.493  1.00  0.00    -0.502 OA
ATOM     23  H   UNL     1      15.162  25.402  39.135  1.00  0.00     0.293 HD
ENDBRANCH   2  22
BRANCH   6  24
ATOM     24  O   UNL     1      20.376  22.973  37.779  1.00  0.00    -0.507 OA
ATOM     25  H   UNL     1      19.838  23.620  37.214  1.00  0.00     0.293 HD
ENDBRANCH   6  24
BRANCH   8  26
ATOM     26  O   UNL     1      20.368  18.988  40.527  1.00  0.00    -0.508 OA
ATOM     27  H   UNL     1      21.064  18.535  39.946  1.00  0.00     0.293 HD
ENDBRANCH   8  26
TORSDOF 6
ENDMDL
MODEL 3
REMARK VINA RESULT:    -7.365      1.245      1.852
REMARK INTER + INTRA:          -8.970
REMARK INTER:                  -8.747
REMARK INTRA:                  -0.223
REMARK UNBOUND:                -0.098
REMARK SMILES O=c1c(O)c(-c2ccc(O)cc2O)oc2cc(O)cc(O)c12
REMARK SMILES IDX 5 1 3 2 2 3 1 4 22 5 20 6 19 7 17 8 16 9 15 10 14 11 6 12
REMARK SMILES IDX 8 13 7 14 9 15 11 16 12 17 10 18 13 20 4 22 21 24 18 26
REMARK H PARENT 10 19 13 21 4 23 21 25 18 27
REMARK Flexibility Score: inf
ROOT
ATOM      1  C   UNL     1      16.231  22.593  41.437  1.00  0.00     0.184 A 
ATOM      2  C   UNL     1      15.677  23.593  40.616  1.00  0.00     0.208 A 
ATOM      3  C   UNL     1      14.620  24.371  41.113  1.00  0.00     0.238 A 
ATOM      4  O   UNL     1      14.110  25.264  40.384  1.00  0.00    -0.285 OA
ATOM      5  C   UNL     1      14.145  24.146  42.421  1.00  0.00     0.111 A 
ATOM      6  C   UNL     1      13.086  24.888  42.999  1.00  0.00     0.134 A 
ATOM      7  C   UNL     1      12.676  24.609  44.312  1.00  0.00     0.093 A 
ATOM      8  C   UNL     1      13.306  23.605  45.056  1.00  0.00     0.123 A 
ATOM      9  C   UNL     1      14.350  22.872  44.491  1.00  0.00     0.094 A 
ATOM     10  C   UNL     1      14.772  23.133  43.184  1.00  0.00     0.146 A 
ATOM     11  O   UNL     1      15.765  22.417  42.671  1.00  0.00    -0.451 OA
ENDROOT
BRANCH   1  12
ATOM     12  C   UNL     1      17.336  21.724  40.971  1.00  0.00     0.063 A 
ATOM     13  C   UNL     1      18.205  19.510  40.455  1.00  0.00     0.047 A 
ATOM     14  C   UNL     1      17.155  20.334  40.868  1.00  0.00     0.020 A 
ATOM     15  C   UNL     1      19.454  20.063  40.150  1.00  0.00     0.119 A 
ATOM     16  C   UNL     1      19.648  21.441  40.262  1.00  0.00     0.093 A 
ATOM     17  C   UNL     1      18.599  22.276  40.674  1.00  0.00     0.130 A 
BRANCH  15  18
ATOM     18  O   UNL     1      20.509  19.251  39.737  1.00  0.00    -0.508 OA
ATOM     19  H   UNL     1      20.423  18.241  39.716  1.00  0.00     0.293 HD
ENDBRANCH  15  18
BRANCH  17  20
ATOM     20  O   UNL     1      18.805  23.653  40.776  1.00  0.00    -0.507 OA
ATOM     21  H   UNL     1      19.733  24.057  40.716  1.00  0.00     0.293 HD
ENDBRANCH  17  20
ENDBRANCH   1  12
BRANCH   2  22
ATOM     22  O   UNL     1      16.195  23.821  39.338  1.00  0.00    -0.502 OA
ATOM     23  H   UNL     1      17.190  23.895  39.162  1.00  0.00     0.293 HD
ENDBRANCH   2  22
BRANCH   6  24
ATOM     24  O   UNL     1      12.440  25.895  42.282  1.00  0.00    -0.507 OA
ATOM     25  H   UNL     1      12.082  26.727  42.736  1.00  0.00     0.293 HD
ENDBRANCH   6  24
BRANCH   8  26
ATOM     26  O   UNL     1      12.899  23.329  46.360  1.00  0.00    -0.508 OA
ATOM     27  H   UNL     1      13.500  22.835  47.010  1.00  0.00     0.293 HD
ENDBRANCH   8  26
TORSDOF 6
ENDMDL
MODEL 4
REMARK VINA RESULT:    -7.250      1.429      6.502
REMARK INTER + INTRA:          -8.832
REMARK INTER:                  -9.011
REMARK INTRA:                   0.180
REMARK UNBOUND:                -0.098
REMARK SMILES O=c1c(O)c(-c2ccc(O)cc2O)oc2cc(O)cc(O)c12
REMARK SMILES IDX 5 1 3 2 2 3 1 4 22 5 20 6 19 7 17 8 16 9 15 10 14 11 6 12
REMARK SMILES IDX 8 13 7 14 9 15 11 16 12 17 10 18 13 20 4 22 21 24 18 26
REMARK H PARENT 10 19 13 21 4 23 21 25 18 27
REMARK Flexibility Score: inf
ROOT
ATOM      1  C   UNL     1      14.749  23.776  42.006  1.00  0.00     0.184 A 
ATOM      2  C   UNL     1      14.863  24.743  40.990  1.00  0.00     0.208 A 
ATOM      3  C   UNL     1      15.865  24.592  40.019  1.00  0.00     0.238 A 
ATOM      4  O   UNL     1      15.982  25.457  39.109  1.00  0.00    -0.285 OA
ATOM      5  C   UNL     1      16.722  23.475  40.070  1.00  0.00     0.111 A 
ATOM      6  C   UNL     1      17.755  23.246  39.128  1.00  0.00     0.134 A 
ATOM      7  C   UNL     1      18.562  22.105  39.243  1.00  0.00     0.093 A 
ATOM      8  C   UNL     1      18.355  21.188  40.280  1.00  0.00     0.123 A 
ATOM      9  C   UNL     1      17.339  21.409  41.211  1.00  0.00     0.094 A 
ATOM     10  C   UNL     1      16.526  22.541  41.115  1.00  0.00     0.146 A 
ATOM     11  O   UNL     1      15.569  22.728  42.017  1.00  0.00    -0.451 OA
ENDROOT
BRANCH   1  12
ATOM     12  C   UNL     1      13.728  23.881  43.073  1.00  0.00     0.063 A 
ATOM     13  C   UNL     1      11.548  24.648  43.840  1.00  0.00     0.047 A 
ATOM     14  C   UNL     1      12.501  24.523  42.826  1.00  0.00     0.020 A 
ATOM     15  C   UNL     1      11.811  24.141  45.118  1.00  0.00     0.119 A 
ATOM     16  C   UNL     1      13.032  23.514  45.378  1.00  0.00     0.093 A 
ATOM     17  C   UNL     1      13.994  23.384  44.365  1.00  0.00     0.130 A 
BRANCH  15  18
ATOM     18  O   UNL     1      10.868  24.260  46.136  1.00  0.00    -0.508 OA
ATOM     19  H   UNL     1       9.925  24.582  45.950  1.00  0.00     0.293 HD
ENDBRANCH  15  18
BRANCH  17  20
ATOM     20  O   UNL     1      15.207  22.749  44.637  1.00  0.00    -0.507 OA
ATOM     21  H   UNL     1      15.684  22.871  45.523  1.00  0.00     0.293 HD
ENDBRANCH  17  20
ENDBRANCH   1  12
BRANCH   2  22
ATOM     22  O   UNL     1      13.973  25.820  40.941  1.00  0.00    -0.502 OA
ATOM     23  H   UNL     1      13.096  25.774  40.436  1.00  0.00     0.293 HD
ENDBRANCH   2  22
BRANCH   6  24
ATOM     24  O   UNL     1      17.983  24.142  38.083  1.00  0.00    -0.507 OA
ATOM     25  H   UNL     1      18.682  23.963  37.370  1.00  0.00     0.293 HD
ENDBRANCH   6  24
BRANCH   8  26
ATOM     26  O   UNL     1      19.157  20.054  40.394  1.00  0.00    -0.508 OA
ATOM     27  H   UNL     1      20.167  20.121  40.445  1.00  0.00     0.293 HD
ENDBRANCH   8  26
TORSDOF 6
ENDMDL
MODEL 5
REMARK VINA RESULT:    -6.951      1.779      6.560
REMARK INTER + INTRA:          -8.471
REMARK INTER:                  -8.447
REMARK INTRA:                  -0.024
REMARK UNBOUND:                -0.098
REMARK SMILES O=c1c(O)c(-c2ccc(O)cc2O)oc2cc(O)cc(O)c12
REMARK SMILES IDX 5 1 3 2 2 3 1 4 22 5 20 6 19 7 17 8 16 9 15 10 14 11 6 12
REMARK SMILES IDX 8 13 7 14 9 15 11 16 12 17 10 18 13 20 4 22 21 24 18 26
REMARK H PARENT 10 19 13 21 4 23 21 25 18 27
REMARK Flexibility Score: inf
ROOT
ATOM      1  C   UNL     1      14.230  23.639  42.647  1.00  0.00     0.184 A 
ATOM      2  C   UNL     1      14.027  24.722  41.771  1.00  0.00     0.208 A 
ATOM      3  C   UNL     1      14.871  24.862  40.659  1.00  0.00     0.238 A 
ATOM      4  O   UNL     1      14.704  25.832  39.871  1.00  0.00    -0.285 OA
ATOM      5  C   UNL     1      15.890  23.914  40.434  1.00  0.00     0.111 A 
ATOM      6  C   UNL     1      16.782  23.980  39.335  1.00  0.00     0.134 A 
ATOM      7  C   UNL     1      17.765  22.992  39.177  1.00  0.00     0.093 A 
ATOM      8  C   UNL     1      17.873  21.941  40.094  1.00  0.00     0.123 A 
ATOM      9  C   UNL     1      16.997  21.872  41.178  1.00  0.00     0.094 A 
ATOM     10  C   UNL     1      16.012  22.847  41.355  1.00  0.00     0.146 A 
ATOM     11  O   UNL     1      15.195  22.758  42.398  1.00  0.00    -0.451 OA
ENDROOT
BRANCH   1  12
ATOM     12  C   UNL     1      13.388  23.440  43.850  1.00  0.00     0.063 A 
ATOM     13  C   UNL     1      11.219  23.548  44.948  1.00  0.00     0.047 A 
ATOM     14  C   UNL     1      12.009  23.709  43.807  1.00  0.00     0.020 A 
ATOM     15  C   UNL     1      11.798  23.126  46.151  1.00  0.00     0.119 A 
ATOM     16  C   UNL     1      13.170  22.870  46.207  1.00  0.00     0.093 A 
ATOM     17  C   UNL     1      13.970  23.027  45.066  1.00  0.00     0.130 A 
BRANCH  15  18
ATOM     18  O   UNL     1      11.020  22.963  47.295  1.00  0.00    -0.508 OA
ATOM     19  H   UNL     1      10.069  23.309  47.343  1.00  0.00     0.293 HD
ENDBRANCH  15  18
BRANCH  17  20
ATOM     20  O   UNL     1      15.339  22.761  45.135  1.00  0.00    -0.507 OA
ATOM     21  H   UNL     1      15.966  23.343  45.679  1.00  0.00     0.293 HD
ENDBRANCH  17  20
ENDBRANCH   1  12
BRANCH   2  22
ATOM     22  O   UNL     1      12.983  25.623  41.996  1.00  0.00    -0.502 OA
ATOM     23  H   UNL     1      12.697  26.305  41.303  1.00  0.00     0.293 HD
ENDBRANCH   2  22
BRANCH   6  24
ATOM     24  O   UNL     1      16.697  25.016  38.404  1.00  0.00    -0.507 OA
ATOM     25  H   UNL     1      17.185  24.976  37.517  1.00  0.00     0.293 HD
ENDBRANCH   6  24
BRANCH   8  26
ATOM     26  O   UNL     1      18.850  20.960  39.936  1.00  0.00    -0.508 OA
ATOM     27  H   UNL     1      18.625  19.974  39.991  1.00  0.00     0.293 HD
ENDBRANCH   8  26
TORSDOF 6
ENDMDL
MODEL 6
REMARK VINA RESULT:    -6.866      1.522      6.931
REMARK INTER + INTRA:          -8.369
REMARK INTER:                  -7.981
REMARK INTRA:                  -0.388
REMARK UNBOUND:                -0.098
REMARK SMILES O=c1c(O)c(-c2ccc(O)cc2O)oc2cc(O)cc(O)c12
REMARK SMILES IDX 5 1 3 2 2 3 1 4 22 5 20 6 19 7 17 8 16 9 15 10 14 11 6 12
REMARK SMILES IDX 8 13 7 14 9 15 11 16 12 17 10 18 13 20 4 22 21 24 18 26
REMARK H PARENT 10 19 13 21 4 23 21 25 18 27
REMARK Flexibility Score: inf
ROOT
ATOM      1  C   UNL     1      16.889  22.379  41.222  1.00  0.00     0.184 A 
ATOM      2  C   UNL     1      16.984  20.989  41.027  1.00  0.00     0.208 A 
ATOM      3  C   UNL     1      18.161  20.459  40.477  1.00  0.00     0.238 A 
ATOM      4  O   UNL     1      18.254  19.215  40.290  1.00  0.00    -0.285 OA
ATOM      5  C   UNL     1      19.225  21.322  40.147  1.00  0.00     0.111 A 
ATOM      6  C   UNL     1      20.447  20.869  39.592  1.00  0.00     0.134 A 
ATOM      7  C   UNL     1      21.462  21.792  39.299  1.00  0.00     0.093 A 
ATOM      8  C   UNL     1      21.280  23.156  39.549  1.00  0.00     0.123 A 
ATOM      9  C   UNL     1      20.077  23.607  40.096  1.00  0.00     0.094 A 
ATOM     10  C   UNL     1      19.053  22.705  40.394  1.00  0.00     0.146 A 
ATOM     11  O   UNL     1      17.918  23.163  40.909  1.00  0.00    -0.451 OA
ENDROOT
BRANCH   1  12
ATOM     12  C   UNL     1      15.670  23.008  41.780  1.00  0.00     0.063 A 
ATOM     13  C   UNL     1      14.093  23.293  43.613  1.00  0.00     0.047 A 
ATOM     14  C   UNL     1      15.258  22.722  43.094  1.00  0.00     0.020 A 
ATOM     15  C   UNL     1      13.318  24.149  42.822  1.00  0.00     0.119 A 
ATOM     16  C   UNL     1      13.711  24.429  41.512  1.00  0.00     0.093 A 
ATOM     17  C   UNL     1      14.880  23.861  40.983  1.00  0.00     0.130 A 
BRANCH  15  18
ATOM     18  O   UNL     1      12.154  24.724  43.329  1.00  0.00    -0.508 OA
ATOM     19  H   UNL     1      11.240  24.476  42.968  1.00  0.00     0.293 HD
ENDBRANCH  15  18
BRANCH  17  20
ATOM     20  O   UNL     1      15.264  24.154  39.674  1.00  0.00    -0.507 OA
ATOM     21  H   UNL     1      15.441  25.106  39.372  1.00  0.00     0.293 HD
ENDBRANCH  17  20
ENDBRANCH   1  12
BRANCH   2  22
ATOM     22  O   UNL     1      15.928  20.153  41.401  1.00  0.00    -0.502 OA
ATOM     23  H   UNL     1      15.368  19.650  40.722  1.00  0.00     0.293 HD
ENDBRANCH   2  22
BRANCH   6  24
ATOM     24  O   UNL     1      20.659  19.515  39.333  1.00  0.00    -0.507 OA
ATOM     25  H   UNL     1      20.691  19.153  38.387  1.00  0.00     0.293 HD
ENDBRANCH   6  24
BRANCH   8  26
ATOM     26  O   UNL     1      22.288  24.072  39.258  1.00  0.00    -0.508 OA
ATOM     27  H   UNL     1      22.269  25.017  39.624  1.00  0.00     0.293 HD
ENDBRANCH   8  26
TORSDOF 6
ENDMDL
MODEL 7
REMARK VINA RESULT:    -6.055      1.556      2.274
REMARK INTER + INTRA:          -7.392
REMARK INTER:                  -7.984
REMARK INTRA:                   0.592
REMARK UNBOUND:                -0.098
REMARK SMILES O=c1c(O)c(-c2ccc(O)cc2O)oc2cc(O)cc(O)c12
REMARK SMILES IDX 5 1 3 2 2 3 1 4 22 5 20 6 19 7 17 8 16 9 15 10 14 11 6 12
REMARK SMILES IDX 8 13 7 14 9 15 11 16 12 17 10 18 13 20 4 22 21 24 18 26
REMARK H PARENT 10 19 13 21 4 23 21 25 18 27
REMARK Flexibility Score: inf
ROOT
ATOM      1  C   UNL     1      19.026  22.498  39.557  1.00  0.00     0.184 A 
ATOM      2  C   UNL     1      18.740  23.595  38.723  1.00  0.00     0.208 A 
ATOM      3  C   UNL     1      17.555  24.318  38.934  1.00  0.00     0.238 A 
ATOM      4  O   UNL     1      17.285  25.297  38.188  1.00  0.00    -0.285 OA
ATOM      5  C   UNL     1      16.688  23.943  39.980  1.00  0.00     0.111 A 
ATOM      6  C   UNL     1      15.476  24.620  40.262  1.00  0.00     0.134 A 
ATOM      7  C   UNL     1      14.670  24.189  41.326  1.00  0.00     0.093 A 
ATOM      8  C   UNL     1      15.053  23.098  42.113  1.00  0.00     0.123 A 
ATOM      9  C   UNL     1      16.246  22.427  41.839  1.00  0.00     0.094 A 
ATOM     10  C   UNL     1      17.062  22.839  40.782  1.00  0.00     0.146 A 
ATOM     11  O   UNL     1      18.189  22.180  40.541  1.00  0.00    -0.451 OA
ENDROOT
BRANCH   1  12
ATOM     12  C   UNL     1      20.248  21.681  39.380  1.00  0.00     0.063 A 
ATOM     13  C   UNL     1      22.316  21.208  38.186  1.00  0.00     0.047 A 
ATOM     14  C   UNL     1      21.177  21.995  38.372  1.00  0.00     0.020 A 
ATOM     15  C   UNL     1      22.538  20.090  38.998  1.00  0.00     0.119 A 
ATOM     16  C   UNL     1      21.615  19.761  39.993  1.00  0.00     0.093 A 
ATOM     17  C   UNL     1      20.469  20.546  40.188  1.00  0.00     0.130 A 
BRANCH  15  18
ATOM     18  O   UNL     1      23.671  19.298  38.822  1.00  0.00    -0.508 OA
ATOM     19  H   UNL     1      23.926  18.582  39.492  1.00  0.00     0.293 HD
ENDBRANCH  15  18
BRANCH  17  20
ATOM     20  O   UNL     1      19.558  20.209  41.190  1.00  0.00    -0.507 OA
ATOM     21  H   UNL     1      19.827  19.639  41.983  1.00  0.00     0.293 HD
ENDBRANCH  17  20
ENDBRANCH   1  12
BRANCH   2  22
ATOM     22  O   UNL     1      19.639  23.969  37.720  1.00  0.00    -0.502 OA
ATOM     23  H   UNL     1      20.086  23.291  37.114  1.00  0.00     0.293 HD
ENDBRANCH   2  22
BRANCH   6  24
ATOM     24  O   UNL     1      15.070  25.712  39.495  1.00  0.00    -0.507 OA
ATOM     25  H   UNL     1      15.624  26.559  39.438  1.00  0.00     0.293 HD
ENDBRANCH   6  24
BRANCH   8  26
ATOM     26  O   UNL     1      14.252  22.671  43.171  1.00  0.00    -0.508 OA
ATOM     27  H   UNL     1      13.447  23.204  43.476  1.00  0.00     0.293 HD
ENDBRANCH   8  26
TORSDOF 6
ENDMDL
MODEL 8
REMARK VINA RESULT:    -5.832      1.711      6.860
REMARK INTER + INTRA:          -7.123
REMARK INTER:                  -7.303
REMARK INTRA:                   0.180
REMARK UNBOUND:                -0.098
REMARK SMILES O=c1c(O)c(-c2ccc(O)cc2O)oc2cc(O)cc(O)c12
REMARK SMILES IDX 5 1 3 2 2 3 1 4 22 5 20 6 19 7 17 8 16 9 15 10 14 11 6 12
REMARK SMILES IDX 8 13 7 14 9 15 11 16 12 17 10 18 13 20 4 22 21 24 18 26
REMARK H PARENT 10 19 13 21 4 23 21 25 18 27
REMARK Flexibility Score: inf
ROOT
ATOM      1  C   UNL     1      16.503  23.056  40.949  1.00  0.00     0.184 A 
ATOM      2  C   UNL     1      17.076  21.771  41.002  1.00  0.00     0.208 A 
ATOM      3  C   UNL     1      18.173  21.482  40.175  1.00  0.00     0.238 A 
ATOM      4  O   UNL     1      18.688  20.332  40.209  1.00  0.00    -0.285 OA
ATOM      5  C   UNL     1      18.685  22.481  39.324  1.00  0.00     0.111 A 
ATOM      6  C   UNL     1      19.789  22.273  38.461  1.00  0.00     0.134 A 
ATOM      7  C   UNL     1      20.245  23.322  37.649  1.00  0.00     0.093 A 
ATOM      8  C   UNL     1      19.620  24.573  37.683  1.00  0.00     0.123 A 
ATOM      9  C   UNL     1      18.531  24.783  38.531  1.00  0.00     0.094 A 
ATOM     10  C   UNL     1      18.061  23.751  39.347  1.00  0.00     0.146 A 
ATOM     11  O   UNL     1      17.021  23.978  40.141  1.00  0.00    -0.451 OA
ENDROOT
BRANCH   1  12
ATOM     12  C   UNL     1      15.335  23.424  41.780  1.00  0.00     0.063 A 
ATOM     13  C   UNL     1      14.008  23.139  43.801  1.00  0.00     0.047 A 
ATOM     14  C   UNL     1      15.125  22.812  43.029  1.00  0.00     0.020 A 
ATOM     15  C   UNL     1      13.078  24.075  43.332  1.00  0.00     0.119 A 
ATOM     16  C   UNL     1      13.270  24.678  42.088  1.00  0.00     0.093 A 
ATOM     17  C   UNL     1      14.390  24.358  41.306  1.00  0.00     0.130 A 
BRANCH  15  18
ATOM     18  O   UNL     1      11.961  24.408  44.094  1.00  0.00    -0.508 OA
ATOM     19  H   UNL     1      11.483  23.719  44.663  1.00  0.00     0.293 HD
ENDBRANCH  15  18
BRANCH  17  20
ATOM     20  O   UNL     1      14.572  24.974  40.067  1.00  0.00    -0.507 OA
ATOM     21  H   UNL     1      13.790  25.340  39.536  1.00  0.00     0.293 HD
ENDBRANCH  17  20
ENDBRANCH   1  12
BRANCH   2  22
ATOM     22  O   UNL     1      16.572  20.813  41.886  1.00  0.00    -0.502 OA
ATOM     23  H   UNL     1      17.101  19.990  42.152  1.00  0.00     0.293 HD
ENDBRANCH   2  22
BRANCH   6  24
ATOM     24  O   UNL     1      20.433  21.037  38.407  1.00  0.00    -0.507 OA
ATOM     25  H   UNL     1      21.444  20.963  38.387  1.00  0.00     0.293 HD
ENDBRANCH   6  24
BRANCH   8  26
ATOM     26  O   UNL     1      20.073  25.615  36.876  1.00  0.00    -0.508 OA
ATOM     27  H   UNL     1      21.000  26.008  36.988  1.00  0.00     0.293 HD
ENDBRANCH   8  26
TORSDOF 6
ENDMDL
