MODEL 1
REMARK VINA RESULT:    -5.675      0.000      0.000
REMARK INTER + INTRA:          -6.942
REMARK INTER:                  -6.670
REMARK INTRA:                  -0.272
REMARK UNBOUND:                -0.272
REMARK SMILES O=c1cc(-c2ccc(O)c(O)c2)oc2cc(O)cc(O)c12
REMARK SMILES IDX 4 1 3 2 2 3 1 4 21 5 19 6 18 7 16 8 15 9 14 10 13 11 5 12
REMARK SMILES IDX 6 13 7 14 8 15 12 16 10 17 9 18 11 20 20 22 17 24
REMARK H PARENT 9 19 11 21 20 23 17 25
REMARK Flexibility Score: inf
ROOT
ATOM      1  C   UNL     1       1.886   5.256  10.700  1.00  0.00     0.138 A 
ATOM      2  C   UNL     1       2.578   5.630   9.540  1.00  0.00     0.100 A 
ATOM      3  C   UNL     1       2.402   6.912   9.016  1.00  0.00     0.197 A 
ATOM      4  O   UNL     1       3.085   7.240   8.011  1.00  0.00    -0.289 OA
ATOM      5  C   UNL     1       1.505   7.811   9.640  1.00  0.00     0.107 A 
ATOM      6  C   UNL     1       1.216   9.127   9.170  1.00  0.00     0.134 A 
ATOM      7  C   UNL     1       0.398   9.968   9.935  1.00  0.00     0.093 A 
ATOM      8  C   UNL     1      -0.189   9.519  11.121  1.00  0.00     0.123 A 
ATOM      9  C   UNL     1       0.044   8.217  11.559  1.00  0.00     0.094 A 
ATOM     10  C   UNL     1       0.883   7.365  10.837  1.00  0.00     0.146 A 
ATOM     11  O   UNL     1       1.091   6.136  11.297  1.00  0.00    -0.456 OA
ENDROOT
BRANCH   1  12
ATOM     12  C   UNL     1       2.034   3.905  11.299  1.00  0.00     0.021 A 
ATOM     13  C   UNL     1       0.916   3.130  11.662  1.00  0.00     0.016 A 
ATOM     14  C   UNL     1       1.084   1.866  12.233  1.00  0.00     0.051 A 
ATOM     15  C   UNL     1       2.370   1.357  12.460  1.00  0.00     0.157 A 
ATOM     16  C   UNL     1       3.321   3.393  11.542  1.00  0.00     0.062 A 
ATOM     17  C   UNL     1       3.492   2.127  12.114  1.00  0.00     0.158 A 
BRANCH  15  18
ATOM     18  O   UNL     1       2.534   0.096  13.029  1.00  0.00    -0.504 OA
ATOM     19  H   UNL     1       2.513  -0.746  12.468  1.00  0.00     0.293 HD
ENDBRANCH  15  18
BRANCH  17  20
ATOM     20  O   UNL     1       4.786   1.651  12.330  1.00  0.00    -0.504 OA
ATOM     21  H   UNL     1       4.975   0.673  12.515  1.00  0.00     0.293 HD
ENDBRANCH  17  20
ENDBRANCH   1  12
BRANCH   6  22
ATOM     22  O   UNL     1       1.681   9.644   7.958  1.00  0.00    -0.507 OA
ATOM     23  H   UNL     1       1.733  10.625   7.731  1.00  0.00     0.293 HD
ENDBRANCH   6  22
BRANCH   8  24
ATOM     24  O   UNL     1      -1.013  10.358  11.869  1.00  0.00    -0.508 OA
ATOM     25  H   UNL     1      -1.206  10.176  12.847  1.00  0.00     0.293 HD
ENDBRANCH   8  24
TORSDOF 5
ENDMDL
MODEL 2
REMARK VINA RESULT:    -5.508      0.632      1.505
REMARK INTER + INTRA:          -6.746
REMARK INTER:                  -6.455
REMARK INTRA:                  -0.291
REMARK UNBOUND:                -0.272
REMARK SMILES O=c1cc(-c2ccc(O)c(O)c2)oc2cc(O)cc(O)c12
REMARK SMILES IDX 4 1 3 2 2 3 1 4 21 5 19 6 18 7 16 8 15 9 14 10 13 11 5 12
REMARK SMILES IDX 6 13 7 14 8 15 12 16 10 17 9 18 11 20 20 22 17 24
REMARK H PARENT 9 19 11 21 20 23 17 25
REMARK Flexibility Score: inf
ROOT
ATOM      1  C   UNL     1       1.912   5.276  10.732  1.00  0.00     0.138 A 
ATOM      2  C   UNL     1       2.593   5.642   9.562  1.00  0.00     0.100 A 
ATOM      3  C   UNL     1       2.401   6.914   9.021  1.00  0.00     0.197 A 
ATOM      4  O   UNL     1       3.074   7.234   8.006  1.00  0.00    -0.289 OA
ATOM      5  C   UNL     1       1.498   7.812   9.637  1.00  0.00     0.107 A 
ATOM      6  C   UNL     1       1.192   9.118   9.151  1.00  0.00     0.134 A 
ATOM      7  C   UNL     1       0.371   9.961   9.909  1.00  0.00     0.093 A 
ATOM      8  C   UNL     1      -0.204   9.524  11.105  1.00  0.00     0.123 A 
ATOM      9  C   UNL     1       0.046   8.230  11.560  1.00  0.00     0.094 A 
ATOM     10  C   UNL     1       0.889   7.377  10.845  1.00  0.00     0.146 A 
ATOM     11  O   UNL     1       1.112   6.157  11.322  1.00  0.00    -0.456 OA
ENDROOT
BRANCH   1  12
ATOM     12  C   UNL     1       2.079   3.936  11.350  1.00  0.00     0.021 A 
ATOM     13  C   UNL     1       3.348   3.351  11.516  1.00  0.00     0.016 A 
ATOM     14  C   UNL     1       3.475   2.084  12.092  1.00  0.00     0.051 A 
ATOM     15  C   UNL     1       2.338   1.376  12.503  1.00  0.00     0.157 A 
ATOM     16  C   UNL     1       0.942   3.214  11.754  1.00  0.00     0.062 A 
ATOM     17  C   UNL     1       1.065   1.946  12.331  1.00  0.00     0.158 A 
BRANCH  15  18
ATOM     18  O   UNL     1       2.468   0.114  13.078  1.00  0.00    -0.504 OA
ATOM     19  H   UNL     1       1.677  -0.511  13.174  1.00  0.00     0.293 HD
ENDBRANCH  15  18
BRANCH  17  20
ATOM     20  O   UNL     1      -0.087   1.267  12.727  1.00  0.00    -0.504 OA
ATOM     21  H   UNL     1      -0.651   1.576  13.511  1.00  0.00     0.293 HD
ENDBRANCH  17  20
ENDBRANCH   1  12
BRANCH   6  22
ATOM     22  O   UNL     1       1.645   9.622   7.929  1.00  0.00    -0.507 OA
ATOM     23  H   UNL     1       2.276   9.143   7.305  1.00  0.00     0.293 HD
ENDBRANCH   6  22
BRANCH   8  24
ATOM     24  O   UNL     1      -1.032  10.364  11.846  1.00  0.00    -0.508 OA
ATOM     25  H   UNL     1      -2.038  10.237  11.862  1.00  0.00     0.293 HD
ENDBRANCH   8  24
TORSDOF 5
ENDMDL
MODEL 3
REMARK VINA RESULT:    -5.221      1.545      2.886
REMARK INTER + INTRA:          -6.408
REMARK INTER:                  -6.132
REMARK INTRA:                  -0.276
REMARK UNBOUND:                -0.272
REMARK SMILES O=c1cc(-c2ccc(O)c(O)c2)oc2cc(O)cc(O)c12
REMARK SMILES IDX 4 1 3 2 2 3 1 4 21 5 19 6 18 7 16 8 15 9 14 10 13 11 5 12
REMARK SMILES IDX 6 13 7 14 8 15 12 16 10 17 9 18 11 20 20 22 17 24
REMARK H PARENT 9 19 11 21 20 23 17 25
REMARK Flexibility Score: inf
ROOT
ATOM      1  C   UNL     1       1.974   6.138  10.536  1.00  0.00     0.138 A 
ATOM      2  C   UNL     1       0.916   6.795  11.178  1.00  0.00     0.100 A 
ATOM      3  C   UNL     1       0.700   8.153  10.937  1.00  0.00     0.197 A 
ATOM      4  O   UNL     1      -0.296   8.701  11.479  1.00  0.00    -0.289 OA
ATOM      5  C   UNL     1       1.568   8.862  10.073  1.00  0.00     0.107 A 
ATOM      6  C   UNL     1       1.469  10.256   9.786  1.00  0.00     0.134 A 
ATOM      7  C   UNL     1       2.314  10.824   8.824  1.00  0.00     0.093 A 
ATOM      8  C   UNL     1       3.294  10.060   8.185  1.00  0.00     0.123 A 
ATOM      9  C   UNL     1       3.434   8.710   8.499  1.00  0.00     0.094 A 
ATOM     10  C   UNL     1       2.584   8.106   9.428  1.00  0.00     0.146 A 
ATOM     11  O   UNL     1       2.741   6.813   9.687  1.00  0.00    -0.456 OA
ENDROOT
BRANCH   1  12
ATOM     12  C   UNL     1       2.250   4.695  10.757  1.00  0.00     0.021 A 
ATOM     13  C   UNL     1       1.299   3.705  10.445  1.00  0.00     0.016 A 
ATOM     14  C   UNL     1       1.582   2.355  10.672  1.00  0.00     0.051 A 
ATOM     15  C   UNL     1       2.812   1.972  11.222  1.00  0.00     0.157 A 
ATOM     16  C   UNL     1       3.477   4.304  11.320  1.00  0.00     0.062 A 
ATOM     17  C   UNL     1       3.763   2.953  11.548  1.00  0.00     0.158 A 
BRANCH  15  18
ATOM     18  O   UNL     1       3.091   0.625  11.445  1.00  0.00    -0.504 OA
ATOM     19  H   UNL     1       2.650  -0.106  10.901  1.00  0.00     0.293 HD
ENDBRANCH  15  18
BRANCH  17  20
ATOM     20  O   UNL     1       4.997   2.605  12.099  1.00  0.00    -0.504 OA
ATOM     21  H   UNL     1       5.873   2.915  11.695  1.00  0.00     0.293 HD
ENDBRANCH  17  20
ENDBRANCH   1  12
BRANCH   6  22
ATOM     22  O   UNL     1       0.583  11.125  10.429  1.00  0.00    -0.507 OA
ATOM     23  H   UNL     1       0.536  12.120  10.272  1.00  0.00     0.293 HD
ENDBRANCH   6  22
BRANCH   8  24
ATOM     24  O   UNL     1       4.141  10.637   7.241  1.00  0.00    -0.508 OA
ATOM     25  H   UNL     1       4.788  11.376   7.491  1.00  0.00     0.293 HD
ENDBRANCH   8  24
TORSDOF 5
ENDMDL
MODEL 4
REMARK VINA RESULT:    -5.119      9.847     11.848
REMARK INTER + INTRA:          -6.289
REMARK INTER:                  -6.019
REMARK INTRA:                  -0.270
REMARK UNBOUND:                -0.272
REMARK SMILES O=c1cc(-c2ccc(O)c(O)c2)oc2cc(O)cc(O)c12
REMARK SMILES IDX 4 1 3 2 2 3 1 4 21 5 19 6 18 7 16 8 15 9 14 10 13 11 5 12
REMARK SMILES IDX 6 13 7 14 8 15 12 16 10 17 9 18 11 20 20 22 17 24
REMARK H PARENT 9 19 11 21 20 23 17 25
REMARK Flexibility Score: inf
ROOT
ATOM      1  C   UNL     1       8.309   5.626   1.115  1.00  0.00     0.138 A 
ATOM      2  C   UNL     1       8.394   6.829   0.402  1.00  0.00     0.100 A 
ATOM      3  C   UNL     1       8.586   8.028   1.092  1.00  0.00     0.197 A 
ATOM      4  O   UNL     1       8.722   9.083   0.420  1.00  0.00    -0.289 OA
ATOM      5  C   UNL     1       8.660   8.022   2.505  1.00  0.00     0.107 A 
ATOM      6  C   UNL     1       8.812   9.187   3.315  1.00  0.00     0.134 A 
ATOM      7  C   UNL     1       8.990   9.048   4.697  1.00  0.00     0.093 A 
ATOM      8  C   UNL     1       8.961   7.790   5.305  1.00  0.00     0.123 A 
ATOM      9  C   UNL     1       8.758   6.651   4.528  1.00  0.00     0.094 A 
ATOM     10  C   UNL     1       8.612   6.754   3.143  1.00  0.00     0.146 A 
ATOM     11  O   UNL     1       8.436   5.641   2.438  1.00  0.00    -0.456 OA
ENDROOT
BRANCH   1  12
ATOM     12  C   UNL     1       8.104   4.323   0.433  1.00  0.00     0.021 A 
ATOM     13  C   UNL     1       9.123   3.718  -0.327  1.00  0.00     0.016 A 
ATOM     14  C   UNL     1       8.900   2.497  -0.967  1.00  0.00     0.051 A 
ATOM     15  C   UNL     1       7.656   1.861  -0.867  1.00  0.00     0.157 A 
ATOM     16  C   UNL     1       6.854   3.685   0.518  1.00  0.00     0.062 A 
ATOM     17  C   UNL     1       6.628   2.461  -0.122  1.00  0.00     0.158 A 
BRANCH  15  18
ATOM     18  O   UNL     1       7.438   0.642  -1.506  1.00  0.00    -0.504 OA
ATOM     19  H   UNL     1       6.505   0.272  -1.640  1.00  0.00     0.293 HD
ENDBRANCH  15  18
BRANCH  17  20
ATOM     20  O   UNL     1       5.376   1.857  -0.004  1.00  0.00    -0.504 OA
ATOM     21  H   UNL     1       5.240   0.866  -0.166  1.00  0.00     0.293 HD
ENDBRANCH  17  20
ENDBRANCH   1  12
BRANCH   6  22
ATOM     22  O   UNL     1       8.771  10.494   2.820  1.00  0.00    -0.507 OA
ATOM     23  H   UNL     1       8.020  11.148   2.981  1.00  0.00     0.293 HD
ENDBRANCH   6  22
BRANCH   8  24
ATOM     24  O   UNL     1       9.124   7.662   6.682  1.00  0.00    -0.508 OA
ATOM     25  H   UNL     1       9.984   7.938   7.142  1.00  0.00     0.293 HD
ENDBRANCH   8  24
TORSDOF 5
ENDMDL
MODEL 5
REMARK VINA RESULT:    -5.098      2.503      3.637
REMARK INTER + INTRA:          -6.264
REMARK INTER:                  -5.992
REMARK INTRA:                  -0.272
REMARK UNBOUND:                -0.272
REMARK SMILES O=c1cc(-c2ccc(O)c(O)c2)oc2cc(O)cc(O)c12
REMARK SMILES IDX 4 1 3 2 2 3 1 4 21 5 19 6 18 7 16 8 15 9 14 10 13 11 5 12
REMARK SMILES IDX 6 13 7 14 8 15 12 16 10 17 9 18 11 20 20 22 17 24
REMARK H PARENT 9 19 11 21 20 23 17 25
REMARK Flexibility Score: inf
ROOT
ATOM      1  C   UNL     1       2.516   6.229  10.260  1.00  0.00     0.138 A 
ATOM      2  C   UNL     1       1.627   6.877   9.391  1.00  0.00     0.100 A 
ATOM      3  C   UNL     1       2.047   8.012   8.695  1.00  0.00     0.197 A 
ATOM      4  O   UNL     1       1.248   8.534   7.875  1.00  0.00    -0.289 OA
ATOM      5  C   UNL     1       3.354   8.516   8.895  1.00  0.00     0.107 A 
ATOM      6  C   UNL     1       3.877   9.689   8.272  1.00  0.00     0.134 A 
ATOM      7  C   UNL     1       5.223  10.026   8.457  1.00  0.00     0.093 A 
ATOM      8  C   UNL     1       6.049   9.268   9.291  1.00  0.00     0.123 A 
ATOM      9  C   UNL     1       5.532   8.152   9.948  1.00  0.00     0.094 A 
ATOM     10  C   UNL     1       4.203   7.770   9.756  1.00  0.00     0.146 A 
ATOM     11  O   UNL     1       3.754   6.691  10.389  1.00  0.00    -0.456 OA
ENDROOT
BRANCH   1  12
ATOM     12  C   UNL     1       2.121   5.019  11.026  1.00  0.00     0.021 A 
ATOM     13  C   UNL     1       2.369   4.905  12.407  1.00  0.00     0.016 A 
ATOM     14  C   UNL     1       1.995   3.752  13.101  1.00  0.00     0.051 A 
ATOM     15  C   UNL     1       1.376   2.689  12.429  1.00  0.00     0.157 A 
ATOM     16  C   UNL     1       1.510   3.944  10.356  1.00  0.00     0.062 A 
ATOM     17  C   UNL     1       1.135   2.788  11.049  1.00  0.00     0.158 A 
BRANCH  15  18
ATOM     18  O   UNL     1       1.004   1.541  13.125  1.00  0.00    -0.504 OA
ATOM     19  H   UNL     1       0.263   1.555  13.815  1.00  0.00     0.293 HD
ENDBRANCH  15  18
BRANCH  17  20
ATOM     20  O   UNL     1       0.523   1.747  10.348  1.00  0.00    -0.504 OA
ATOM     21  H   UNL     1       0.651   0.776  10.608  1.00  0.00     0.293 HD
ENDBRANCH  17  20
ENDBRANCH   1  12
BRANCH   6  22
ATOM     22  O   UNL     1       3.117  10.562   7.489  1.00  0.00    -0.507 OA
ATOM     23  H   UNL     1       3.031  11.554   7.649  1.00  0.00     0.293 HD
ENDBRANCH   6  22
BRANCH   8  24
ATOM     24  O   UNL     1       7.383   9.620   9.481  1.00  0.00    -0.508 OA
ATOM     25  H   UNL     1       7.647  10.545   9.802  1.00  0.00     0.293 HD
ENDBRANCH   8  24
TORSDOF 5
ENDMDL
MODEL 6
REMARK VINA RESULT:    -5.040     21.456     22.270
REMARK INTER + INTRA:          -6.196
REMARK INTER:                  -5.878
REMARK INTRA:                  -0.318
REMARK UNBOUND:                -0.272
REMARK SMILES O=c1cc(-c2ccc(O)c(O)c2)oc2cc(O)cc(O)c12
REMARK SMILES IDX 4 1 3 2 2 3 1 4 21 5 19 6 18 7 16 8 15 9 14 10 13 11 5 12
REMARK SMILES IDX 6 13 7 14 8 15 12 16 10 17 9 18 11 20 20 22 17 24
REMARK H PARENT 9 19 11 21 20 23 17 25
REMARK Flexibility Score: inf
ROOT
ATOM      1  C   UNL     1      -5.648  -4.970  -6.496  1.00  0.00     0.138 A 
ATOM      2  C   UNL     1      -6.041  -3.681  -6.881  1.00  0.00     0.100 A 
ATOM      3  C   UNL     1      -7.391  -3.328  -6.834  1.00  0.00     0.197 A 
ATOM      4  O   UNL     1      -7.705  -2.145  -7.125  1.00  0.00    -0.289 OA
ATOM      5  C   UNL     1      -8.354  -4.282  -6.429  1.00  0.00     0.107 A 
ATOM      6  C   UNL     1      -9.761  -4.048  -6.382  1.00  0.00     0.134 A 
ATOM      7  C   UNL     1     -10.607  -5.030  -5.854  1.00  0.00     0.093 A 
ATOM      8  C   UNL     1     -10.104  -6.262  -5.428  1.00  0.00     0.123 A 
ATOM      9  C   UNL     1      -8.737  -6.521  -5.521  1.00  0.00     0.094 A 
ATOM     10  C   UNL     1      -7.863  -5.548  -6.010  1.00  0.00     0.146 A 
ATOM     11  O   UNL     1      -6.566  -5.830  -6.068  1.00  0.00    -0.456 OA
ENDROOT
BRANCH   1  12
ATOM     12  C   UNL     1      -4.227  -5.399  -6.528  1.00  0.00     0.021 A 
ATOM     13  C   UNL     1      -3.221  -4.586  -7.084  1.00  0.00     0.016 A 
ATOM     14  C   UNL     1      -1.893  -5.018  -7.109  1.00  0.00     0.051 A 
ATOM     15  C   UNL     1      -1.546  -6.272  -6.589  1.00  0.00     0.157 A 
ATOM     16  C   UNL     1      -3.873  -6.662  -6.020  1.00  0.00     0.062 A 
ATOM     17  C   UNL     1      -2.543  -7.097  -6.044  1.00  0.00     0.158 A 
BRANCH  15  18
ATOM     18  O   UNL     1      -0.220  -6.700  -6.616  1.00  0.00    -0.504 OA
ATOM     19  H   UNL     1       0.525  -6.142  -6.218  1.00  0.00     0.293 HD
ENDBRANCH  15  18
BRANCH  17  20
ATOM     20  O   UNL     1      -2.233  -8.353  -5.520  1.00  0.00    -0.504 OA
ATOM     21  H   UNL     1      -1.374  -8.836  -5.757  1.00  0.00     0.293 HD
ENDBRANCH  17  20
ENDBRANCH   1  12
BRANCH   6  22
ATOM     22  O   UNL     1     -10.375  -2.887  -6.860  1.00  0.00    -0.507 OA
ATOM     23  H   UNL     1     -11.371  -2.742  -6.915  1.00  0.00     0.293 HD
ENDBRANCH   6  22
BRANCH   8  24
ATOM     24  O   UNL     1     -10.955  -7.240  -4.918  1.00  0.00    -0.508 OA
ATOM     25  H   UNL     1     -11.873  -7.402  -5.315  1.00  0.00     0.293 HD
ENDBRANCH   8  24
TORSDOF 5
ENDMDL
MODEL 7
REMARK VINA RESULT:    -4.661      2.236      7.285
REMARK INTER + INTRA:          -5.750
REMARK INTER:                  -5.434
REMARK INTRA:                  -0.317
REMARK UNBOUND:                -0.272
REMARK SMILES O=c1cc(-c2ccc(O)c(O)c2)oc2cc(O)cc(O)c12
REMARK SMILES IDX 4 1 3 2 2 3 1 4 21 5 19 6 18 7 16 8 15 9 14 10 13 11 5 12
REMARK SMILES IDX 6 13 7 14 8 15 12 16 10 17 9 18 11 20 20 22 17 24
REMARK H PARENT 9 19 11 21 20 23 17 25
REMARK Flexibility Score: inf
ROOT
ATOM      1  C   UNL     1       2.784   5.539  10.331  1.00  0.00     0.138 A 
ATOM      2  C   UNL     1       1.634   4.757  10.500  1.00  0.00     0.100 A 
ATOM      3  C   UNL     1       1.725   3.528  11.156  1.00  0.00     0.197 A 
ATOM      4  O   UNL     1       0.664   2.878  11.348  1.00  0.00    -0.289 OA
ATOM      5  C   UNL     1       2.981   3.068  11.617  1.00  0.00     0.107 A 
ATOM      6  C   UNL     1       3.201   1.815  12.262  1.00  0.00     0.134 A 
ATOM      7  C   UNL     1       4.468   1.517  12.779  1.00  0.00     0.093 A 
ATOM      8  C   UNL     1       5.537   2.402  12.620  1.00  0.00     0.123 A 
ATOM      9  C   UNL     1       5.345   3.606  11.944  1.00  0.00     0.094 A 
ATOM     10  C   UNL     1       4.085   3.946  11.447  1.00  0.00     0.146 A 
ATOM     11  O   UNL     1       3.942   5.110  10.821  1.00  0.00    -0.456 OA
ENDROOT
BRANCH   1  12
ATOM     12  C   UNL     1       2.745   6.853   9.640  1.00  0.00     0.021 A 
ATOM     13  C   UNL     1       1.623   7.262   8.893  1.00  0.00     0.016 A 
ATOM     14  C   UNL     1       1.617   8.499   8.244  1.00  0.00     0.051 A 
ATOM     15  C   UNL     1       2.730   9.346   8.322  1.00  0.00     0.157 A 
ATOM     16  C   UNL     1       3.863   7.702   9.702  1.00  0.00     0.062 A 
ATOM     17  C   UNL     1       3.859   8.943   9.054  1.00  0.00     0.158 A 
BRANCH  15  18
ATOM     18  O   UNL     1       2.719  10.580   7.675  1.00  0.00    -0.504 OA
ATOM     19  H   UNL     1       3.554  11.149   7.602  1.00  0.00     0.293 HD
ENDBRANCH  15  18
BRANCH  17  20
ATOM     20  O   UNL     1       4.986   9.760   9.150  1.00  0.00    -0.504 OA
ATOM     21  H   UNL     1       5.846   9.551   8.656  1.00  0.00     0.293 HD
ENDBRANCH  17  20
ENDBRANCH   1  12
BRANCH   6  22
ATOM     22  O   UNL     1       2.224   0.825  12.398  1.00  0.00    -0.507 OA
ATOM     23  H   UNL     1       1.238   0.961  12.233  1.00  0.00     0.293 HD
ENDBRANCH   6  22
BRANCH   8  24
ATOM     24  O   UNL     1       6.798   2.092  13.125  1.00  0.00    -0.508 OA
ATOM     25  H   UNL     1       7.644   2.343  12.627  1.00  0.00     0.293 HD
ENDBRANCH   8  24
TORSDOF 5
ENDMDL
MODEL 8
REMARK VINA RESULT:    -4.631      2.148      6.937
REMARK INTER + INTRA:          -5.715
REMARK INTER:                  -5.424
REMARK INTRA:                  -0.292
REMARK UNBOUND:                -0.272
REMARK SMILES O=c1cc(-c2ccc(O)c(O)c2)oc2cc(O)cc(O)c12
REMARK SMILES IDX 4 1 3 2 2 3 1 4 21 5 19 6 18 7 16 8 15 9 14 10 13 11 5 12
REMARK SMILES IDX 6 13 7 14 8 15 12 16 10 17 9 18 11 20 20 22 17 24
REMARK H PARENT 9 19 11 21 20 23 17 25
REMARK Flexibility Score: inf
ROOT
ATOM      1  C   UNL     1       3.174   5.737  10.396  1.00  0.00     0.138 A 
ATOM      2  C   UNL     1       4.426   5.233  10.774  1.00  0.00     0.100 A 
ATOM      3  C   UNL     1       4.504   4.018  11.456  1.00  0.00     0.197 A 
ATOM      4  O   UNL     1       5.645   3.561  11.726  1.00  0.00    -0.289 OA
ATOM      5  C   UNL     1       3.318   3.320  11.787  1.00  0.00     0.107 A 
ATOM      6  C   UNL     1       3.273   2.094  12.517  1.00  0.00     0.134 A 
ATOM      7  C   UNL     1       2.049   1.436  12.685  1.00  0.00     0.093 A 
ATOM      8  C   UNL     1       0.860   1.990  12.203  1.00  0.00     0.123 A 
ATOM      9  C   UNL     1       0.887   3.214  11.538  1.00  0.00     0.094 A 
ATOM     10  C   UNL     1       2.097   3.878  11.323  1.00  0.00     0.146 A 
ATOM     11  O   UNL     1       2.080   5.036  10.671  1.00  0.00    -0.456 OA
ENDROOT
BRANCH   1  12
ATOM     12  C   UNL     1       3.034   7.025   9.670  1.00  0.00     0.021 A 
ATOM     13  C   UNL     1       1.869   7.342   8.946  1.00  0.00     0.016 A 
ATOM     14  C   UNL     1       1.768   8.558   8.264  1.00  0.00     0.051 A 
ATOM     15  C   UNL     1       2.829   9.473   8.286  1.00  0.00     0.157 A 
ATOM     16  C   UNL     1       4.099   7.943   9.677  1.00  0.00     0.062 A 
ATOM     17  C   UNL     1       4.000   9.161   8.995  1.00  0.00     0.158 A 
BRANCH  15  18
ATOM     18  O   UNL     1       2.724  10.684   7.606  1.00  0.00    -0.504 OA
ATOM     19  H   UNL     1       3.458  11.380   7.644  1.00  0.00     0.293 HD
ENDBRANCH  15  18
BRANCH  17  20
ATOM     20  O   UNL     1       5.076  10.049   9.035  1.00  0.00    -0.504 OA
ATOM     21  H   UNL     1       5.821  10.022   8.348  1.00  0.00     0.293 HD
ENDBRANCH  17  20
ENDBRANCH   1  12
BRANCH   6  22
ATOM     22  O   UNL     1       4.389   1.498  13.112  1.00  0.00    -0.507 OA
ATOM     23  H   UNL     1       4.942   0.765  12.695  1.00  0.00     0.293 HD
ENDBRANCH   6  22
BRANCH   8  24
ATOM     24  O   UNL     1      -0.356   1.336  12.388  1.00  0.00    -0.508 OA
ATOM     25  H   UNL     1      -0.870   1.410  13.258  1.00  0.00     0.293 HD
ENDBRANCH   8  24
TORSDOF 5
ENDMDL
MODEL 9
REMARK VINA RESULT:    -4.539     10.789     12.713
REMARK INTER + INTRA:          -5.607
REMARK INTER:                  -5.341
REMARK INTRA:                  -0.266
REMARK UNBOUND:                -0.272
REMARK SMILES O=c1cc(-c2ccc(O)c(O)c2)oc2cc(O)cc(O)c12
REMARK SMILES IDX 4 1 3 2 2 3 1 4 21 5 19 6 18 7 16 8 15 9 14 10 13 11 5 12
REMARK SMILES IDX 6 13 7 14 8 15 12 16 10 17 9 18 11 20 20 22 17 24
REMARK H PARENT 9 19 11 21 20 23 17 25
REMARK Flexibility Score: inf
ROOT
ATOM      1  C   UNL     1       8.327   4.452   0.714  1.00  0.00     0.138 A 
ATOM      2  C   UNL     1       8.371   4.373   2.113  1.00  0.00     0.100 A 
ATOM      3  C   UNL     1       8.535   5.538   2.865  1.00  0.00     0.197 A 
ATOM      4  O   UNL     1       8.507   5.443   4.120  1.00  0.00    -0.289 OA
ATOM      5  C   UNL     1       8.687   6.783   2.210  1.00  0.00     0.107 A 
ATOM      6  C   UNL     1       8.902   8.029   2.872  1.00  0.00     0.134 A 
ATOM      7  C   UNL     1       8.922   9.212   2.125  1.00  0.00     0.093 A 
ATOM      8  C   UNL     1       8.797   9.189   0.733  1.00  0.00     0.123 A 
ATOM      9  C   UNL     1       8.641   7.972   0.073  1.00  0.00     0.094 A 
ATOM     10  C   UNL     1       8.582   6.777   0.793  1.00  0.00     0.146 A 
ATOM     11  O   UNL     1       8.418   5.640   0.125  1.00  0.00    -0.456 OA
ENDROOT
BRANCH   1  12
ATOM     12  C   UNL     1       8.156   3.245  -0.134  1.00  0.00     0.021 A 
ATOM     13  C   UNL     1       9.094   2.899  -1.125  1.00  0.00     0.016 A 
ATOM     14  C   UNL     1       8.903   1.763  -1.915  1.00  0.00     0.051 A 
ATOM     15  C   UNL     1       7.770   0.958  -1.737  1.00  0.00     0.157 A 
ATOM     16  C   UNL     1       7.015   2.440   0.030  1.00  0.00     0.062 A 
ATOM     17  C   UNL     1       6.821   1.302  -0.760  1.00  0.00     0.158 A 
BRANCH  15  18
ATOM     18  O   UNL     1       7.583  -0.174  -2.527  1.00  0.00    -0.504 OA
ATOM     19  H   UNL     1       8.088  -0.306  -3.395  1.00  0.00     0.293 HD
ENDBRANCH  15  18
BRANCH  17  20
ATOM     20  O   UNL     1       5.680   0.524  -0.560  1.00  0.00    -0.504 OA
ATOM     21  H   UNL     1       4.751   0.866  -0.777  1.00  0.00     0.293 HD
ENDBRANCH  17  20
ENDBRANCH   1  12
BRANCH   6  22
ATOM     22  O   UNL     1       9.124   8.154   4.246  1.00  0.00    -0.507 OA
ATOM     23  H   UNL     1       9.472   8.985   4.700  1.00  0.00     0.293 HD
ENDBRANCH   6  22
BRANCH   8  24
ATOM     24  O   UNL     1       8.833  10.371  -0.004  1.00  0.00    -0.508 OA
ATOM     25  H   UNL     1       8.721  10.370  -1.012  1.00  0.00     0.293 HD
ENDBRANCH   8  24
TORSDOF 5
ENDMDL
