MODEL 1
REMARK VINA RESULT:    -0.405      0.000      0.000
REMARK INTER + INTRA:          -2.300
REMARK INTER:                  -0.927
REMARK INTRA:                  -1.374
REMARK UNBOUND:                -1.374
REMARK SMILES CCCCCCCCCCCCCCCCCCCCCCCC(=O)[O-]
REMARK SMILES IDX 13 1 14 2 15 3 16 4 17 5 18 6 19 7 20 8 21 9 22 10 23 11
REMARK SMILES IDX 24 12 25 13 26 14 12 15 11 16 10 17 9 18 8 19 7 20 6 21 5 22
REMARK SMILES IDX 4 23 3 24 2 25 1 26
REMARK H PARENT
REMARK Flexibility Score: inf
ROOT
ATOM      1  C   UNL     1     -11.465  36.657  -2.943  1.00  0.00     0.000 C 
ENDROOT
BRANCH   1   2
ATOM      2  C   UNL     1     -11.332  36.069  -1.528  1.00  0.00     0.000 C 
BRANCH   2   3
ATOM      3  C   UNL     1      -9.975  36.397  -0.883  1.00  0.00     0.000 C 
BRANCH   3   4
ATOM      4  C   UNL     1      -9.266  37.584  -1.559  1.00  0.00     0.000 C 
BRANCH   4   5
ATOM      5  C   UNL     1      -7.814  37.821  -1.097  1.00  0.00     0.000 C 
BRANCH   5   6
ATOM      6  C   UNL     1      -7.465  37.241   0.289  1.00  0.00     0.000 C 
BRANCH   6   7
ATOM      7  C   UNL     1      -6.047  37.571   0.798  1.00  0.00     0.000 C 
BRANCH   7   8
ATOM      8  C   UNL     1      -5.243  36.357   1.297  1.00  0.00     0.000 C 
BRANCH   8   9
ATOM      9  C   UNL     1      -4.628  35.539   0.148  1.00  0.00     0.000 C 
BRANCH   9  10
ATOM     10  C   UNL     1      -4.901  34.029   0.282  1.00  0.00     0.006 C 
BRANCH  10  11
ATOM     11  C   UNL     1      -5.835  33.658   1.446  1.00  0.00     0.053 C 
BRANCH  11  12
ATOM     12  C   UNL     1      -7.113  33.043   0.964  1.00  0.00     0.041 C 
ATOM     13  O   UNL     1      -7.382  31.844   1.239  1.00  0.00    -0.550 OA
ATOM     14  O   UNL     1      -8.024  33.804   0.243  1.00  0.00    -0.550 OA
ENDBRANCH  11  12
ENDBRANCH  10  11
ENDBRANCH   9  10
ENDBRANCH   8   9
ENDBRANCH   7   8
ENDBRANCH   6   7
ENDBRANCH   5   6
ENDBRANCH   4   5
ENDBRANCH   3   4
ENDBRANCH   2   3
ENDBRANCH   1   2
BRANCH   1  15
ATOM     15  C   UNL     1     -12.500  35.901  -3.798  1.00  0.00     0.000 C 
BRANCH  15  16
ATOM     16  C   UNL     1     -12.113  35.860  -5.292  1.00  0.00     0.000 C 
BRANCH  16  17
ATOM     17  C   UNL     1     -13.318  35.894  -6.252  1.00  0.00     0.000 C 
BRANCH  17  18
ATOM     18  C   UNL     1     -13.015  36.449  -7.655  1.00  0.00    -0.000 C 
BRANCH  18  19
ATOM     19  C   UNL     1     -13.450  35.497  -8.779  1.00  0.00    -0.000 C 
BRANCH  19  20
ATOM     20  C   UNL     1     -14.765  34.787  -8.422  1.00  0.00    -0.000 C 
BRANCH  20  21
ATOM     21  C   UNL     1     -15.153  33.713  -9.459  1.00  0.00    -0.000 C 
BRANCH  21  22
ATOM     22  C   UNL     1     -14.768  34.074 -10.903  1.00  0.00    -0.000 C 
BRANCH  22  23
ATOM     23  C   UNL     1     -15.815  33.629 -11.937  1.00  0.00    -0.000 C 
BRANCH  23  24
ATOM     24  C   UNL     1     -17.145  33.212 -11.274  1.00  0.00    -0.000 C 
BRANCH  24  25
ATOM     25  C   UNL     1     -18.363  33.993 -11.796  1.00  0.00    -0.003 C 
ATOM     26  C   UNL     1     -18.462  34.003 -13.320  1.00  0.00     0.004 C 
ENDBRANCH  24  25
ENDBRANCH  23  24
ENDBRANCH  22  23
ENDBRANCH  21  22
ENDBRANCH  20  21
ENDBRANCH  19  20
ENDBRANCH  18  19
ENDBRANCH  17  18
ENDBRANCH  16  17
ENDBRANCH  15  16
ENDBRANCH   1  15
TORSDOF 22
ENDMDL
MODEL 2
REMARK VINA RESULT:    -0.286      4.227     12.495
REMARK INTER + INTRA:          -2.027
REMARK INTER:                  -0.695
REMARK INTRA:                  -1.332
REMARK UNBOUND:                -1.374
REMARK SMILES CCCCCCCCCCCCCCCCCCCCCCCC(=O)[O-]
REMARK SMILES IDX 13 1 14 2 15 3 16 4 17 5 18 6 19 7 20 8 21 9 22 10 23 11
REMARK SMILES IDX 24 12 25 13 26 14 12 15 11 16 10 17 9 18 8 19 7 20 6 21 5 22
REMARK SMILES IDX 4 23 3 24 2 25 1 26
REMARK H PARENT
REMARK Flexibility Score: inf
ROOT
ATOM      1  C   UNL     1      -9.859  36.445  -1.007  1.00  0.00     0.000 C 
ENDROOT
BRANCH   1   2
ATOM      2  C   UNL     1     -11.240  36.270  -1.659  1.00  0.00     0.000 C 
BRANCH   2   3
ATOM      3  C   UNL     1     -11.186  36.399  -3.191  1.00  0.00     0.000 C 
BRANCH   3   4
ATOM      4  C   UNL     1     -12.557  36.181  -3.855  1.00  0.00     0.000 C 
BRANCH   4   5
ATOM      5  C   UNL     1     -12.506  35.531  -5.252  1.00  0.00     0.000 C 
BRANCH   5   6
ATOM      6  C   UNL     1     -13.243  36.306  -6.363  1.00  0.00     0.000 C 
BRANCH   6   7
ATOM      7  C   UNL     1     -13.764  35.441  -7.529  1.00  0.00     0.000 C 
BRANCH   7   8
ATOM      8  C   UNL     1     -13.042  35.665  -8.870  1.00  0.00     0.000 C 
BRANCH   8   9
ATOM      9  C   UNL     1     -13.822  35.091 -10.067  1.00  0.00     0.000 C 
BRANCH   9  10
ATOM     10  C   UNL     1     -15.039  34.251  -9.634  1.00  0.00     0.006 C 
BRANCH  10  11
ATOM     11  C   UNL     1     -15.695  33.457 -10.776  1.00  0.00     0.053 C 
BRANCH  11  12
ATOM     12  C   UNL     1     -17.176  33.672 -10.830  1.00  0.00     0.041 C 
ATOM     13  O   UNL     1     -17.908  33.274  -9.885  1.00  0.00    -0.550 OA
ATOM     14  O   UNL     1     -17.745  34.345 -11.904  1.00  0.00    -0.550 OA
ENDBRANCH  11  12
ENDBRANCH  10  11
ENDBRANCH   9  10
ENDBRANCH   8   9
ENDBRANCH   7   8
ENDBRANCH   6   7
ENDBRANCH   5   6
ENDBRANCH   4   5
ENDBRANCH   3   4
ENDBRANCH   2   3
ENDBRANCH   1   2
BRANCH   1  15
ATOM     15  C   UNL     1      -9.202  37.788  -1.375  1.00  0.00     0.000 C 
BRANCH  15  16
ATOM     16  C   UNL     1      -7.701  37.828  -1.016  1.00  0.00     0.000 C 
BRANCH  16  17
ATOM     17  C   UNL     1      -7.420  38.096   0.475  1.00  0.00     0.000 C 
BRANCH  17  18
ATOM     18  C   UNL     1      -5.939  38.011   0.883  1.00  0.00    -0.000 C 
BRANCH  18  19
ATOM     19  C   UNL     1      -5.723  37.229   2.187  1.00  0.00    -0.000 C 
BRANCH  19  20
ATOM     20  C   UNL     1      -4.601  36.192   2.028  1.00  0.00    -0.000 C 
BRANCH  20  21
ATOM     21  C   UNL     1      -4.666  35.460   0.672  1.00  0.00    -0.000 C 
BRANCH  21  22
ATOM     22  C   UNL     1      -5.498  34.167   0.700  1.00  0.00    -0.000 C 
BRANCH  22  23
ATOM     23  C   UNL     1      -7.006  34.423   0.853  1.00  0.00    -0.000 C 
BRANCH  23  24
ATOM     24  C   UNL     1      -7.799  33.115   1.058  1.00  0.00    -0.000 C 
BRANCH  24  25
ATOM     25  C   UNL     1      -6.906  31.871   1.206  1.00  0.00    -0.003 C 
ATOM     26  C   UNL     1      -7.630  30.683   1.836  1.00  0.00     0.004 C 
ENDBRANCH  24  25
ENDBRANCH  23  24
ENDBRANCH  22  23
ENDBRANCH  21  22
ENDBRANCH  20  21
ENDBRANCH  19  20
ENDBRANCH  18  19
ENDBRANCH  17  18
ENDBRANCH  16  17
ENDBRANCH  15  16
ENDBRANCH   1  15
TORSDOF 22
ENDMDL
MODEL 3
REMARK VINA RESULT:    -0.162      0.977      2.167
REMARK INTER + INTRA:          -1.744
REMARK INTER:                  -0.436
REMARK INTRA:                  -1.308
REMARK UNBOUND:                -1.374
REMARK SMILES CCCCCCCCCCCCCCCCCCCCCCCC(=O)[O-]
REMARK SMILES IDX 13 1 14 2 15 3 16 4 17 5 18 6 19 7 20 8 21 9 22 10 23 11
REMARK SMILES IDX 24 12 25 13 26 14 12 15 11 16 10 17 9 18 8 19 7 20 6 21 5 22
REMARK SMILES IDX 4 23 3 24 2 25 1 26
REMARK H PARENT
REMARK Flexibility Score: inf
ROOT
ATOM      1  C   UNL     1      -9.956  36.521  -1.521  1.00  0.00     0.000 C 
ENDROOT
BRANCH   1   2
ATOM      2  C   UNL     1      -9.357  37.936  -1.577  1.00  0.00     0.000 C 
BRANCH   2   3
ATOM      3  C   UNL     1      -7.905  37.939  -2.085  1.00  0.00     0.000 C 
BRANCH   3   4
ATOM      4  C   UNL     1      -6.880  37.751  -0.952  1.00  0.00     0.000 C 
BRANCH   4   5
ATOM      5  C   UNL     1      -5.409  37.964  -1.367  1.00  0.00     0.000 C 
BRANCH   5   6
ATOM      6  C   UNL     1      -4.389  37.916  -0.211  1.00  0.00     0.000 C 
BRANCH   6   7
ATOM      7  C   UNL     1      -5.004  37.867   1.203  1.00  0.00     0.000 C 
BRANCH   7   8
ATOM      8  C   UNL     1      -4.877  36.509   1.915  1.00  0.00     0.000 C 
BRANCH   8   9
ATOM      9  C   UNL     1      -4.187  35.444   1.043  1.00  0.00     0.000 C 
BRANCH   9  10
ATOM     10  C   UNL     1      -4.989  34.132   0.962  1.00  0.00     0.006 C 
BRANCH  10  11
ATOM     11  C   UNL     1      -6.354  34.183   1.668  1.00  0.00     0.053 C 
BRANCH  11  12
ATOM     12  C   UNL     1      -7.388  33.371   0.949  1.00  0.00     0.041 C 
ATOM     13  O   UNL     1      -7.336  32.113   0.978  1.00  0.00    -0.550 OA
ATOM     14  O   UNL     1      -8.428  34.002   0.279  1.00  0.00    -0.550 OA
ENDBRANCH  11  12
ENDBRANCH  10  11
ENDBRANCH   9  10
ENDBRANCH   8   9
ENDBRANCH   7   8
ENDBRANCH   6   7
ENDBRANCH   5   6
ENDBRANCH   4   5
ENDBRANCH   3   4
ENDBRANCH   2   3
ENDBRANCH   1   2
BRANCH   1  15
ATOM     15  C   UNL     1     -11.484  36.538  -1.331  1.00  0.00     0.000 C 
BRANCH  15  16
ATOM     16  C   UNL     1     -12.226  35.782  -2.454  1.00  0.00     0.000 C 
BRANCH  16  17
ATOM     17  C   UNL     1     -11.860  36.253  -3.875  1.00  0.00     0.000 C 
BRANCH  17  18
ATOM     18  C   UNL     1     -12.585  35.513  -5.013  1.00  0.00    -0.000 C 
BRANCH  18  19
ATOM     19  C   UNL     1     -13.090  36.459  -6.113  1.00  0.00    -0.000 C 
BRANCH  19  20
ATOM     20  C   UNL     1     -13.730  35.670  -7.266  1.00  0.00    -0.000 C 
BRANCH  20  21
ATOM     21  C   UNL     1     -12.941  35.814  -8.584  1.00  0.00    -0.000 C 
BRANCH  21  22
ATOM     22  C   UNL     1     -13.618  35.145  -9.792  1.00  0.00    -0.000 C 
BRANCH  22  23
ATOM     23  C   UNL     1     -14.862  34.328  -9.411  1.00  0.00    -0.000 C 
BRANCH  23  24
ATOM     24  C   UNL     1     -15.569  33.735 -10.648  1.00  0.00    -0.000 C 
BRANCH  24  25
ATOM     25  C   UNL     1     -17.098  33.646 -10.499  1.00  0.00    -0.003 C 
ATOM     26  C   UNL     1     -17.766  32.860 -11.625  1.00  0.00     0.004 C 
ENDBRANCH  24  25
ENDBRANCH  23  24
ENDBRANCH  22  23
ENDBRANCH  21  22
ENDBRANCH  20  21
ENDBRANCH  19  20
ENDBRANCH  18  19
ENDBRANCH  17  18
ENDBRANCH  16  17
ENDBRANCH  15  16
ENDBRANCH   1  15
TORSDOF 22
ENDMDL
MODEL 4
REMARK VINA RESULT:     0.334      1.219      2.218
REMARK INTER + INTRA:          -0.610
REMARK INTER:                   0.471
REMARK INTRA:                  -1.081
REMARK UNBOUND:                -1.374
REMARK SMILES CCCCCCCCCCCCCCCCCCCCCCCC(=O)[O-]
REMARK SMILES IDX 13 1 14 2 15 3 16 4 17 5 18 6 19 7 20 8 21 9 22 10 23 11
REMARK SMILES IDX 24 12 25 13 26 14 12 15 11 16 10 17 9 18 8 19 7 20 6 21 5 22
REMARK SMILES IDX 4 23 3 24 2 25 1 26
REMARK H PARENT
REMARK Flexibility Score: inf
ROOT
ATOM      1  C   UNL     1     -12.253  35.600  -5.009  1.00  0.00     0.000 C 
ENDROOT
BRANCH   1   2
ATOM      2  C   UNL     1     -12.189  36.069  -3.547  1.00  0.00     0.000 C 
BRANCH   2   3
ATOM      3  C   UNL     1     -10.792  36.580  -3.155  1.00  0.00     0.000 C 
BRANCH   3   4
ATOM      4  C   UNL     1     -10.617  36.723  -1.632  1.00  0.00     0.000 C 
BRANCH   4   5
ATOM      5  C   UNL     1      -9.452  37.634  -1.196  1.00  0.00     0.000 C 
BRANCH   5   6
ATOM      6  C   UNL     1      -8.244  36.902  -0.578  1.00  0.00     0.000 C 
BRANCH   6   7
ATOM      7  C   UNL     1      -7.107  37.819  -0.083  1.00  0.00     0.000 C 
BRANCH   7   8
ATOM      8  C   UNL     1      -6.303  37.263   1.106  1.00  0.00     0.000 C 
BRANCH   8   9
ATOM      9  C   UNL     1      -5.373  36.104   0.704  1.00  0.00     0.000 C 
BRANCH   9  10
ATOM     10  C   UNL     1      -5.551  34.863   1.599  1.00  0.00     0.006 C 
BRANCH  10  11
ATOM     11  C   UNL     1      -5.726  33.547   0.824  1.00  0.00     0.053 C 
BRANCH  11  12
ATOM     12  C   UNL     1      -7.095  32.966   1.006  1.00  0.00     0.041 C 
ATOM     13  O   UNL     1      -8.101  33.722   1.057  1.00  0.00    -0.550 OA
ATOM     14  O   UNL     1      -7.264  31.590   1.082  1.00  0.00    -0.550 OA
ENDBRANCH  11  12
ENDBRANCH  10  11
ENDBRANCH   9  10
ENDBRANCH   8   9
ENDBRANCH   7   8
ENDBRANCH   6   7
ENDBRANCH   5   6
ENDBRANCH   4   5
ENDBRANCH   3   4
ENDBRANCH   2   3
ENDBRANCH   1   2
BRANCH   1  15
ATOM     15  C   UNL     1     -13.376  36.297  -5.801  1.00  0.00     0.000 C 
BRANCH  15  16
ATOM     16  C   UNL     1     -13.674  35.595  -7.143  1.00  0.00     0.000 C 
BRANCH  16  17
ATOM     17  C   UNL     1     -13.102  36.328  -8.373  1.00  0.00     0.000 C 
BRANCH  17  18
ATOM     18  C   UNL     1     -13.130  35.520  -9.682  1.00  0.00    -0.000 C 
BRANCH  18  19
ATOM     19  C   UNL     1     -14.449  34.759  -9.885  1.00  0.00    -0.000 C 
BRANCH  19  20
ATOM     20  C   UNL     1     -14.510  34.125 -11.283  1.00  0.00    -0.000 C 
BRANCH  20  21
ATOM     21  C   UNL     1     -15.636  33.078 -11.405  1.00  0.00    -0.000 C 
BRANCH  21  22
ATOM     22  C   UNL     1     -16.786  33.504 -12.332  1.00  0.00    -0.000 C 
BRANCH  22  23
ATOM     23  C   UNL     1     -18.020  34.013 -11.570  1.00  0.00    -0.000 C 
BRANCH  23  24
ATOM     24  C   UNL     1     -18.062  33.492 -10.118  1.00  0.00    -0.000 C 
BRANCH  24  25
ATOM     25  C   UNL     1     -19.094  34.214  -9.235  1.00  0.00    -0.003 C 
ATOM     26  C   UNL     1     -19.738  33.301  -8.194  1.00  0.00     0.004 C 
ENDBRANCH  24  25
ENDBRANCH  23  24
ENDBRANCH  22  23
ENDBRANCH  21  22
ENDBRANCH  20  21
ENDBRANCH  19  20
ENDBRANCH  18  19
ENDBRANCH  17  18
ENDBRANCH  16  17
ENDBRANCH  15  16
ENDBRANCH   1  15
TORSDOF 22
ENDMDL
MODEL 5
REMARK VINA RESULT:     0.700      1.264      1.866
REMARK INTER + INTRA:           0.227
REMARK INTER:                   1.183
REMARK INTRA:                  -0.956
REMARK UNBOUND:                -1.374
REMARK SMILES CCCCCCCCCCCCCCCCCCCCCCCC(=O)[O-]
REMARK SMILES IDX 13 1 14 2 15 3 16 4 17 5 18 6 19 7 20 8 21 9 22 10 23 11
REMARK SMILES IDX 24 12 25 13 26 14 12 15 11 16 10 17 9 18 8 19 7 20 6 21 5 22
REMARK SMILES IDX 4 23 3 24 2 25 1 26
REMARK H PARENT
REMARK Flexibility Score: inf
ROOT
ATOM      1  C   UNL     1     -11.326  36.705  -1.270  1.00  0.00     0.000 C 
ENDROOT
BRANCH   1   2
ATOM      2  C   UNL     1      -9.833  36.344  -1.310  1.00  0.00     0.000 C 
BRANCH   2   3
ATOM      3  C   UNL     1      -8.934  37.581  -1.471  1.00  0.00     0.000 C 
BRANCH   3   4
ATOM      4  C   UNL     1      -8.200  37.955  -0.171  1.00  0.00     0.000 C 
BRANCH   4   5
ATOM      5  C   UNL     1      -6.789  37.347  -0.024  1.00  0.00     0.000 C 
BRANCH   5   6
ATOM      6  C   UNL     1      -6.507  36.667   1.331  1.00  0.00     0.000 C 
BRANCH   6   7
ATOM      7  C   UNL     1      -5.018  36.403   1.632  1.00  0.00     0.000 C 
BRANCH   7   8
ATOM      8  C   UNL     1      -4.618  34.916   1.652  1.00  0.00     0.000 C 
BRANCH   8   9
ATOM      9  C   UNL     1      -5.525  34.046   0.764  1.00  0.00     0.000 C 
BRANCH   9  10
ATOM     10  C   UNL     1      -5.863  32.689   1.409  1.00  0.00     0.006 C 
BRANCH  10  11
ATOM     11  C   UNL     1      -7.328  32.256   1.239  1.00  0.00     0.053 C 
BRANCH  11  12
ATOM     12  C   UNL     1      -7.544  30.833   1.654  1.00  0.00     0.041 C 
ATOM     13  O   UNL     1      -7.650  30.539   2.874  1.00  0.00    -0.550 OA
ATOM     14  O   UNL     1      -7.666  29.838   0.693  1.00  0.00    -0.550 OA
ENDBRANCH  11  12
ENDBRANCH  10  11
ENDBRANCH   9  10
ENDBRANCH   8   9
ENDBRANCH   7   8
ENDBRANCH   6   7
ENDBRANCH   5   6
ENDBRANCH   4   5
ENDBRANCH   3   4
ENDBRANCH   2   3
ENDBRANCH   1   2
BRANCH   1  15
ATOM     15  C   UNL     1     -12.153  35.901  -2.291  1.00  0.00     0.000 C 
BRANCH  15  16
ATOM     16  C   UNL     1     -11.740  36.198  -3.748  1.00  0.00     0.000 C 
BRANCH  16  17
ATOM     17  C   UNL     1     -12.913  36.181  -4.748  1.00  0.00     0.000 C 
BRANCH  17  18
ATOM     18  C   UNL     1     -12.559  35.675  -6.157  1.00  0.00    -0.000 C 
BRANCH  18  19
ATOM     19  C   UNL     1     -13.700  35.871  -7.166  1.00  0.00    -0.000 C 
BRANCH  19  20
ATOM     20  C   UNL     1     -13.151  36.099  -8.583  1.00  0.00    -0.000 C 
BRANCH  20  21
ATOM     21  C   UNL     1     -13.515  34.950  -9.545  1.00  0.00    -0.000 C 
BRANCH  21  22
ATOM     22  C   UNL     1     -14.876  34.297  -9.251  1.00  0.00    -0.000 C 
BRANCH  22  23
ATOM     23  C   UNL     1     -15.837  34.338 -10.449  1.00  0.00    -0.000 C 
BRANCH  23  24
ATOM     24  C   UNL     1     -17.124  33.525 -10.190  1.00  0.00    -0.000 C 
BRANCH  24  25
ATOM     25  C   UNL     1     -17.763  32.961 -11.471  1.00  0.00    -0.003 C 
ATOM     26  C   UNL     1     -17.852  33.986 -12.600  1.00  0.00     0.004 C 
ENDBRANCH  24  25
ENDBRANCH  23  24
ENDBRANCH  22  23
ENDBRANCH  21  22
ENDBRANCH  20  21
ENDBRANCH  19  20
ENDBRANCH  18  19
ENDBRANCH  17  18
ENDBRANCH  16  17
ENDBRANCH  15  16
ENDBRANCH   1  15
TORSDOF 22
ENDMDL
MODEL 6
REMARK VINA RESULT:     0.748      2.181      4.561
REMARK INTER + INTRA:           0.336
REMARK INTER:                   1.362
REMARK INTRA:                  -1.026
REMARK UNBOUND:                -1.374
REMARK SMILES CCCCCCCCCCCCCCCCCCCCCCCC(=O)[O-]
REMARK SMILES IDX 13 1 14 2 15 3 16 4 17 5 18 6 19 7 20 8 21 9 22 10 23 11
REMARK SMILES IDX 24 12 25 13 26 14 12 15 11 16 10 17 9 18 8 19 7 20 6 21 5 22
REMARK SMILES IDX 4 23 3 24 2 25 1 26
REMARK H PARENT
REMARK Flexibility Score: inf
ROOT
ATOM      1  C   UNL     1     -13.842  35.378  -7.451  1.00  0.00     0.000 C 
ENDROOT
BRANCH   1   2
ATOM      2  C   UNL     1     -13.683  36.228  -6.180  1.00  0.00     0.000 C 
BRANCH   2   3
ATOM      3  C   UNL     1     -12.377  35.921  -5.428  1.00  0.00     0.000 C 
BRANCH   3   4
ATOM      4  C   UNL     1     -12.519  36.078  -3.903  1.00  0.00     0.000 C 
BRANCH   4   5
ATOM      5  C   UNL     1     -11.201  36.369  -3.156  1.00  0.00     0.000 C 
BRANCH   5   6
ATOM      6  C   UNL     1     -11.310  36.385  -1.618  1.00  0.00     0.000 C 
BRANCH   6   7
ATOM      7  C   UNL     1      -9.983  36.626  -0.870  1.00  0.00     0.000 C 
BRANCH   7   8
ATOM      8  C   UNL     1      -8.995  37.557  -1.596  1.00  0.00     0.000 C 
BRANCH   8   9
ATOM      9  C   UNL     1      -7.748  37.874  -0.751  1.00  0.00     0.000 C 
BRANCH   9  10
ATOM     10  C   UNL     1      -7.355  36.715   0.185  1.00  0.00     0.006 C 
BRANCH  10  11
ATOM     11  C   UNL     1      -5.974  36.876   0.842  1.00  0.00     0.053 C 
BRANCH  11  12
ATOM     12  C   UNL     1      -5.329  35.553   1.121  1.00  0.00     0.041 C 
ATOM     13  O   UNL     1      -5.754  34.510   0.558  1.00  0.00    -0.550 OA
ATOM     14  O   UNL     1      -4.237  35.477   1.976  1.00  0.00    -0.550 OA
ENDBRANCH  11  12
ENDBRANCH  10  11
ENDBRANCH   9  10
ENDBRANCH   8   9
ENDBRANCH   7   8
ENDBRANCH   6   7
ENDBRANCH   5   6
ENDBRANCH   4   5
ENDBRANCH   3   4
ENDBRANCH   2   3
ENDBRANCH   1   2
BRANCH   1  15
ATOM     15  C   UNL     1     -13.278  36.080  -8.701  1.00  0.00     0.000 C 
BRANCH  15  16
ATOM     16  C   UNL     1     -13.338  35.185  -9.957  1.00  0.00     0.000 C 
BRANCH  16  17
ATOM     17  C   UNL     1     -14.681  34.452 -10.142  1.00  0.00     0.000 C 
BRANCH  17  18
ATOM     18  C   UNL     1     -14.988  34.010 -11.583  1.00  0.00    -0.000 C 
BRANCH  18  19
ATOM     19  C   UNL     1     -16.207  33.080 -11.675  1.00  0.00    -0.000 C 
BRANCH  19  20
ATOM     20  C   UNL     1     -17.362  33.760 -12.425  1.00  0.00    -0.000 C 
BRANCH  20  21
ATOM     21  C   UNL     1     -18.567  34.052 -11.507  1.00  0.00    -0.000 C 
BRANCH  21  22
ATOM     22  C   UNL     1     -18.563  33.245 -10.198  1.00  0.00    -0.000 C 
BRANCH  22  23
ATOM     23  C   UNL     1     -18.887  34.098  -8.961  1.00  0.00    -0.000 C 
BRANCH  23  24
ATOM     24  C   UNL     1     -19.902  33.404  -8.027  1.00  0.00    -0.000 C 
BRANCH  24  25
ATOM     25  C   UNL     1     -21.079  34.306  -7.620  1.00  0.00    -0.003 C 
ATOM     26  C   UNL     1     -22.401  33.550  -7.499  1.00  0.00     0.004 C 
ENDBRANCH  24  25
ENDBRANCH  23  24
ENDBRANCH  22  23
ENDBRANCH  21  22
ENDBRANCH  20  21
ENDBRANCH  19  20
ENDBRANCH  18  19
ENDBRANCH  17  18
ENDBRANCH  16  17
ENDBRANCH  15  16
ENDBRANCH   1  15
TORSDOF 22
ENDMDL
MODEL 7
REMARK VINA RESULT:     0.788      5.153     13.734
REMARK INTER + INTRA:           0.429
REMARK INTER:                   1.308
REMARK INTRA:                  -0.879
REMARK UNBOUND:                -1.374
REMARK SMILES CCCCCCCCCCCCCCCCCCCCCCCC(=O)[O-]
REMARK SMILES IDX 13 1 14 2 15 3 16 4 17 5 18 6 19 7 20 8 21 9 22 10 23 11
REMARK SMILES IDX 24 12 25 13 26 14 12 15 11 16 10 17 9 18 8 19 7 20 6 21 5 22
REMARK SMILES IDX 4 23 3 24 2 25 1 26
REMARK H PARENT
REMARK Flexibility Score: inf
ROOT
ATOM      1  C   UNL     1     -13.257  36.498  -8.176  1.00  0.00     0.000 C 
ENDROOT
BRANCH   1   2
ATOM      2  C   UNL     1     -13.116  35.418  -9.261  1.00  0.00     0.000 C 
BRANCH   2   3
ATOM      3  C   UNL     1     -14.387  34.563  -9.406  1.00  0.00     0.000 C 
BRANCH   3   4
ATOM      4  C   UNL     1     -14.790  34.343 -10.875  1.00  0.00     0.000 C 
BRANCH   4   5
ATOM      5  C   UNL     1     -15.648  33.087 -11.131  1.00  0.00     0.000 C 
BRANCH   5   6
ATOM      6  C   UNL     1     -16.896  33.313 -12.007  1.00  0.00     0.000 C 
BRANCH   6   7
ATOM      7  C   UNL     1     -18.098  33.952 -11.282  1.00  0.00     0.000 C 
BRANCH   7   8
ATOM      8  C   UNL     1     -18.355  33.411  -9.864  1.00  0.00     0.000 C 
BRANCH   8   9
ATOM      9  C   UNL     1     -19.331  34.291  -9.061  1.00  0.00     0.000 C 
BRANCH   9  10
ATOM     10  C   UNL     1     -20.223  33.472  -8.110  1.00  0.00     0.006 C 
BRANCH  10  11
ATOM     11  C   UNL     1     -21.257  34.308  -7.338  1.00  0.00     0.053 C 
BRANCH  11  12
ATOM     12  C   UNL     1     -22.622  33.693  -7.384  1.00  0.00     0.041 C 
ATOM     13  O   UNL     1     -22.831  32.575  -6.845  1.00  0.00    -0.550 OA
ATOM     14  O   UNL     1     -23.672  34.372  -7.990  1.00  0.00    -0.550 OA
ENDBRANCH  11  12
ENDBRANCH  10  11
ENDBRANCH   9  10
ENDBRANCH   8   9
ENDBRANCH   7   8
ENDBRANCH   6   7
ENDBRANCH   5   6
ENDBRANCH   4   5
ENDBRANCH   3   4
ENDBRANCH   2   3
ENDBRANCH   1   2
BRANCH   1  15
ATOM     15  C   UNL     1     -13.531  35.898  -6.784  1.00  0.00     0.000 C 
BRANCH  15  16
ATOM     16  C   UNL     1     -12.280  35.913  -5.879  1.00  0.00     0.000 C 
BRANCH  16  17
ATOM     17  C   UNL     1     -12.596  36.033  -4.375  1.00  0.00     0.000 C 
BRANCH  17  18
ATOM     18  C   UNL     1     -11.366  36.031  -3.450  1.00  0.00    -0.000 C 
BRANCH  18  19
ATOM     19  C   UNL     1     -11.709  36.404  -2.001  1.00  0.00    -0.000 C 
BRANCH  19  20
ATOM     20  C   UNL     1     -10.438  36.512  -1.144  1.00  0.00    -0.000 C 
BRANCH  20  21
ATOM     21  C   UNL     1      -9.727  37.870  -1.318  1.00  0.00    -0.000 C 
BRANCH  21  22
ATOM     22  C   UNL     1      -8.192  37.776  -1.311  1.00  0.00    -0.000 C 
BRANCH  22  23
ATOM     23  C   UNL     1      -7.613  37.465   0.078  1.00  0.00    -0.000 C 
BRANCH  23  24
ATOM     24  C   UNL     1      -6.164  36.940  -0.001  1.00  0.00    -0.000 C 
BRANCH  24  25
ATOM     25  C   UNL     1      -5.569  36.568   1.368  1.00  0.00    -0.003 C 
ATOM     26  C   UNL     1      -5.063  37.777   2.152  1.00  0.00     0.004 C 
ENDBRANCH  24  25
ENDBRANCH  23  24
ENDBRANCH  22  23
ENDBRANCH  21  22
ENDBRANCH  20  21
ENDBRANCH  19  20
ENDBRANCH  18  19
ENDBRANCH  17  18
ENDBRANCH  16  17
ENDBRANCH  15  16
ENDBRANCH   1  15
TORSDOF 22
ENDMDL
MODEL 8
REMARK VINA RESULT:     1.060      4.794     13.307
REMARK INTER + INTRA:           1.051
REMARK INTER:                   2.557
REMARK INTRA:                  -1.507
REMARK UNBOUND:                -1.374
REMARK SMILES CCCCCCCCCCCCCCCCCCCCCCCC(=O)[O-]
REMARK SMILES IDX 13 1 14 2 15 3 16 4 17 5 18 6 19 7 20 8 21 9 22 10 23 11
REMARK SMILES IDX 24 12 25 13 26 14 12 15 11 16 10 17 9 18 8 19 7 20 6 21 5 22
REMARK SMILES IDX 4 23 3 24 2 25 1 26
REMARK H PARENT
REMARK Flexibility Score: inf
ROOT
ATOM      1  C   UNL     1     -12.366  35.788  -3.849  1.00  0.00     0.000 C 
ENDROOT
BRANCH   1   2
ATOM      2  C   UNL     1     -12.309  35.919  -5.380  1.00  0.00     0.000 C 
BRANCH   2   3
ATOM      3  C   UNL     1     -13.672  36.292  -5.987  1.00  0.00     0.000 C 
BRANCH   3   4
ATOM      4  C   UNL     1     -13.948  35.567  -7.317  1.00  0.00     0.000 C 
BRANCH   4   5
ATOM      5  C   UNL     1     -13.167  36.116  -8.529  1.00  0.00     0.000 C 
BRANCH   5   6
ATOM      6  C   UNL     1     -13.129  35.186  -9.759  1.00  0.00     0.000 C 
BRANCH   6   7
ATOM      7  C   UNL     1     -14.467  35.041 -10.511  1.00  0.00     0.000 C 
BRANCH   7   8
ATOM      8  C   UNL     1     -15.192  33.702 -10.282  1.00  0.00     0.000 C 
BRANCH   8   9
ATOM      9  C   UNL     1     -16.534  33.872  -9.547  1.00  0.00     0.000 C 
BRANCH   9  10
ATOM     10  C   UNL     1     -17.733  33.375 -10.377  1.00  0.00     0.006 C 
BRANCH  10  11
ATOM     11  C   UNL     1     -18.139  34.316 -11.524  1.00  0.00     0.053 C 
BRANCH  11  12
ATOM     12  C   UNL     1     -17.979  33.667 -12.864  1.00  0.00     0.041 C 
ATOM     13  O   UNL     1     -16.867  33.186 -13.206  1.00  0.00    -0.550 OA
ATOM     14  O   UNL     1     -19.067  33.562 -13.722  1.00  0.00    -0.550 OA
ENDBRANCH  11  12
ENDBRANCH  10  11
ENDBRANCH   9  10
ENDBRANCH   8   9
ENDBRANCH   7   8
ENDBRANCH   6   7
ENDBRANCH   5   6
ENDBRANCH   4   5
ENDBRANCH   3   4
ENDBRANCH   2   3
ENDBRANCH   1   2
BRANCH   1  15
ATOM     15  C   UNL     1     -11.219  36.544  -3.152  1.00  0.00     0.000 C 
BRANCH  15  16
ATOM     16  C   UNL     1     -11.237  36.359  -1.619  1.00  0.00     0.000 C 
BRANCH  16  17
ATOM     17  C   UNL     1      -9.841  36.400  -0.967  1.00  0.00     0.000 C 
BRANCH  17  18
ATOM     18  C   UNL     1      -9.158  37.778  -0.978  1.00  0.00    -0.000 C 
BRANCH  18  19
ATOM     19  C   UNL     1      -7.963  37.844  -1.940  1.00  0.00    -0.000 C 
BRANCH  19  20
ATOM     20  C   UNL     1      -6.647  38.042  -1.171  1.00  0.00    -0.000 C 
BRANCH  20  21
ATOM     21  C   UNL     1      -6.865  38.121   0.354  1.00  0.00    -0.000 C 
BRANCH  21  22
ATOM     22  C   UNL     1      -6.001  37.135   1.159  1.00  0.00    -0.000 C 
BRANCH  22  23
ATOM     23  C   UNL     1      -6.641  35.745   1.298  1.00  0.00    -0.000 C 
BRANCH  23  24
ATOM     24  C   UNL     1      -6.032  34.724   0.314  1.00  0.00    -0.000 C 
BRANCH  24  25
ATOM     25  C   UNL     1      -4.590  34.316   0.665  1.00  0.00    -0.003 C 
ATOM     26  C   UNL     1      -4.370  34.121   2.164  1.00  0.00     0.004 C 
ENDBRANCH  24  25
ENDBRANCH  23  24
ENDBRANCH  22  23
ENDBRANCH  21  22
ENDBRANCH  20  21
ENDBRANCH  19  20
ENDBRANCH  18  19
ENDBRANCH  17  18
ENDBRANCH  16  17
ENDBRANCH  15  16
ENDBRANCH   1  15
TORSDOF 22
ENDMDL
MODEL 9
REMARK VINA RESULT:     1.192      5.054     13.188
REMARK INTER + INTRA:           1.351
REMARK INTER:                   2.186
REMARK INTRA:                  -0.835
REMARK UNBOUND:                -1.374
REMARK SMILES CCCCCCCCCCCCCCCCCCCCCCCC(=O)[O-]
REMARK SMILES IDX 13 1 14 2 15 3 16 4 17 5 18 6 19 7 20 8 21 9 22 10 23 11
REMARK SMILES IDX 24 12 25 13 26 14 12 15 11 16 10 17 9 18 8 19 7 20 6 21 5 22
REMARK SMILES IDX 4 23 3 24 2 25 1 26
REMARK H PARENT
REMARK Flexibility Score: inf
ROOT
ATOM      1  C   UNL     1     -11.229  36.606  -2.824  1.00  0.00     0.000 C 
ENDROOT
BRANCH   1   2
ATOM      2  C   UNL     1     -12.468  35.911  -3.412  1.00  0.00     0.000 C 
BRANCH   2   3
ATOM      3  C   UNL     1     -12.309  35.595  -4.908  1.00  0.00     0.000 C 
BRANCH   3   4
ATOM      4  C   UNL     1     -13.324  36.348  -5.786  1.00  0.00     0.000 C 
BRANCH   4   5
ATOM      5  C   UNL     1     -13.006  36.345  -7.295  1.00  0.00     0.000 C 
BRANCH   5   6
ATOM      6  C   UNL     1     -14.008  35.568  -8.174  1.00  0.00     0.000 C 
BRANCH   6   7
ATOM      7  C   UNL     1     -13.408  34.934  -9.445  1.00  0.00     0.000 C 
BRANCH   7   8
ATOM      8  C   UNL     1     -14.355  34.902 -10.658  1.00  0.00     0.000 C 
BRANCH   8   9
ATOM      9  C   UNL     1     -15.397  33.772 -10.568  1.00  0.00     0.000 C 
BRANCH   9  10
ATOM     10  C   UNL     1     -16.172  33.573 -11.884  1.00  0.00     0.006 C 
BRANCH  10  11
ATOM     11  C   UNL     1     -17.701  33.585 -11.723  1.00  0.00     0.053 C 
BRANCH  11  12
ATOM     12  C   UNL     1     -18.402  33.712 -13.041  1.00  0.00     0.041 C 
ATOM     13  O   UNL     1     -19.587  34.137 -13.089  1.00  0.00    -0.550 OA
ATOM     14  O   UNL     1     -17.736  33.396 -14.218  1.00  0.00    -0.550 OA
ENDBRANCH  11  12
ENDBRANCH  10  11
ENDBRANCH   9  10
ENDBRANCH   8   9
ENDBRANCH   7   8
ENDBRANCH   6   7
ENDBRANCH   5   6
ENDBRANCH   4   5
ENDBRANCH   3   4
ENDBRANCH   2   3
ENDBRANCH   1   2
BRANCH   1  15
ATOM     15  C   UNL     1     -11.011  36.262  -1.339  1.00  0.00     0.000 C 
BRANCH  15  16
ATOM     16  C   UNL     1      -9.576  36.578  -0.865  1.00  0.00     0.000 C 
BRANCH  16  17
ATOM     17  C   UNL     1      -9.013  37.905  -1.411  1.00  0.00     0.000 C 
BRANCH  17  18
ATOM     18  C   UNL     1      -7.479  38.014  -1.400  1.00  0.00    -0.000 C 
BRANCH  18  19
ATOM     19  C   UNL     1      -6.878  37.831   0.001  1.00  0.00    -0.000 C 
BRANCH  19  20
ATOM     20  C   UNL     1      -5.488  37.180  -0.076  1.00  0.00    -0.000 C 
BRANCH  20  21
ATOM     21  C   UNL     1      -5.094  36.482   1.242  1.00  0.00    -0.000 C 
BRANCH  21  22
ATOM     22  C   UNL     1      -4.363  35.143   1.044  1.00  0.00    -0.000 C 
BRANCH  22  23
ATOM     23  C   UNL     1      -5.319  33.948   0.903  1.00  0.00    -0.000 C 
BRANCH  23  24
ATOM     24  C   UNL     1      -6.797  34.389   0.849  1.00  0.00    -0.000 C 
BRANCH  24  25
ATOM     25  C   UNL     1      -7.792  33.220   0.948  1.00  0.00    -0.003 C 
ATOM     26  C   UNL     1      -7.137  31.909   1.380  1.00  0.00     0.004 C 
ENDBRANCH  24  25
ENDBRANCH  23  24
ENDBRANCH  22  23
ENDBRANCH  21  22
ENDBRANCH  20  21
ENDBRANCH  19  20
ENDBRANCH  18  19
ENDBRANCH  17  18
ENDBRANCH  16  17
ENDBRANCH  15  16
ENDBRANCH   1  15
TORSDOF 22
ENDMDL
