MODEL 1
REMARK VINA RESULT:    -4.877      0.000      0.000
REMARK INTER + INTRA:          -8.990
REMARK INTER:                  -7.727
REMARK INTRA:                  -1.263
REMARK UNBOUND:                -1.263
REMARK SMILES CCCCCCCCCCCC(=O)[O-]
REMARK SMILES IDX 7 1 8 2 9 3 10 4 11 5 12 6 13 7 14 8 6 9 5 10 4 11 3 12 2 13
REMARK SMILES IDX 1 14
REMARK H PARENT
REMARK Flexibility Score: inf
ROOT
ATOM      1  C   UNL     1       2.957  47.893  25.193  1.00  0.00     0.000 C 
ENDROOT
BRANCH   1   2
ATOM      2  C   UNL     1       4.009  46.908  25.713  1.00  0.00     0.000 C 
BRANCH   2   3
ATOM      3  C   UNL     1       5.375  47.168  25.067  1.00  0.00     0.000 C 
BRANCH   3   4
ATOM      4  C   UNL     1       5.654  48.675  24.956  1.00  0.00     0.006 C 
BRANCH   4   5
ATOM      5  C   UNL     1       7.048  48.967  24.386  1.00  0.00     0.053 C 
BRANCH   5   6
ATOM      6  C   UNL     1       8.063  49.167  25.469  1.00  0.00     0.041 C 
ATOM      7  O   UNL     1       9.276  49.338  25.176  1.00  0.00    -0.550 OA
ATOM      8  O   UNL     1       7.675  49.130  26.802  1.00  0.00    -0.550 OA
ENDBRANCH   5   6
ENDBRANCH   4   5
ENDBRANCH   3   4
ENDBRANCH   2   3
ENDBRANCH   1   2
BRANCH   1   9
ATOM      9  C   UNL     1       1.586  47.218  25.063  1.00  0.00     0.000 C 
BRANCH   9  10
ATOM     10  C   UNL     1       1.164  47.107  23.593  1.00  0.00    -0.000 C 
BRANCH  10  11
ATOM     11  C   UNL     1       2.007  48.031  22.706  1.00  0.00    -0.000 C 
BRANCH  11  12
ATOM     12  C   UNL     1       2.567  47.270  21.495  1.00  0.00    -0.000 C 
BRANCH  12  13
ATOM     13  C   UNL     1       4.042  46.875  21.676  1.00  0.00    -0.003 C 
ATOM     14  C   UNL     1       5.006  47.985  21.260  1.00  0.00     0.004 C 
ENDBRANCH  12  13
ENDBRANCH  11  12
ENDBRANCH  10  11
ENDBRANCH   9  10
ENDBRANCH   1   9
TORSDOF 10
ENDMDL
MODEL 2
REMARK VINA RESULT:    -4.820      0.962      2.920
REMARK INTER + INTRA:          -8.900
REMARK INTER:                  -7.787
REMARK INTRA:                  -1.113
REMARK UNBOUND:                -1.263
REMARK SMILES CCCCCCCCCCCC(=O)[O-]
REMARK SMILES IDX 7 1 8 2 9 3 10 4 11 5 12 6 13 7 14 8 6 9 5 10 4 11 3 12 2 13
REMARK SMILES IDX 1 14
REMARK H PARENT
REMARK Flexibility Score: inf
ROOT
ATOM      1  C   UNL     1       4.649  47.909  21.676  1.00  0.00     0.000 C 
ENDROOT
BRANCH   1   2
ATOM      2  C   UNL     1       5.707  46.938  22.212  1.00  0.00     0.000 C 
BRANCH   2   3
ATOM      3  C   UNL     1       6.059  47.255  23.669  1.00  0.00     0.000 C 
BRANCH   3   4
ATOM      4  C   UNL     1       6.966  48.492  23.760  1.00  0.00     0.006 C 
BRANCH   4   5
ATOM      5  C   UNL     1       6.615  49.383  24.958  1.00  0.00     0.053 C 
BRANCH   5   6
ATOM      6  C   UNL     1       7.724  49.429  25.963  1.00  0.00     0.041 C 
ATOM      7  O   UNL     1       7.624  48.795  27.047  1.00  0.00    -0.550 OA
ATOM      8  O   UNL     1       8.854  50.200  25.718  1.00  0.00    -0.550 OA
ENDBRANCH   5   6
ENDBRANCH   4   5
ENDBRANCH   3   4
ENDBRANCH   2   3
ENDBRANCH   1   2
BRANCH   1   9
ATOM      9  C   UNL     1       3.501  47.154  20.996  1.00  0.00     0.000 C 
BRANCH   9  10
ATOM     10  C   UNL     1       2.201  47.287  21.800  1.00  0.00    -0.000 C 
BRANCH  10  11
ATOM     11  C   UNL     1       2.297  48.432  22.816  1.00  0.00    -0.000 C 
BRANCH  11  12
ATOM     12  C   UNL     1       1.799  47.983  24.197  1.00  0.00    -0.000 C 
BRANCH  12  13
ATOM     13  C   UNL     1       2.842  47.148  24.958  1.00  0.00    -0.003 C 
ATOM     14  C   UNL     1       3.423  47.884  26.165  1.00  0.00     0.004 C 
ENDBRANCH  12  13
ENDBRANCH  11  12
ENDBRANCH  10  11
ENDBRANCH   9  10
ENDBRANCH   1   9
TORSDOF 10
ENDMDL
MODEL 3
REMARK VINA RESULT:    -4.532      3.968      6.542
REMARK INTER + INTRA:          -8.444
REMARK INTER:                  -7.802
REMARK INTRA:                  -0.642
REMARK UNBOUND:                -1.263
REMARK SMILES CCCCCCCCCCCC(=O)[O-]
REMARK SMILES IDX 7 1 8 2 9 3 10 4 11 5 12 6 13 7 14 8 6 9 5 10 4 11 3 12 2 13
REMARK SMILES IDX 1 14
REMARK H PARENT
REMARK Flexibility Score: inf
ROOT
ATOM      1  C   UNL     1       5.937  47.989  22.384  1.00  0.00     0.000 C 
ENDROOT
BRANCH   1   2
ATOM      2  C   UNL     1       4.790  47.440  21.529  1.00  0.00     0.000 C 
BRANCH   2   3
ATOM      3  C   UNL     1       3.601  47.022  22.403  1.00  0.00     0.000 C 
BRANCH   3   4
ATOM      4  C   UNL     1       2.514  48.108  22.409  1.00  0.00     0.006 C 
BRANCH   4   5
ATOM      5  C   UNL     1       1.169  47.579  22.923  1.00  0.00     0.053 C 
BRANCH   5   6
ATOM      6  C   UNL     1       0.189  47.372  21.808  1.00  0.00     0.041 C 
ATOM      7  O   UNL     1      -1.044  47.302  22.054  1.00  0.00    -0.550 OA
ATOM      8  O   UNL     1       0.642  47.222  20.503  1.00  0.00    -0.550 OA
ENDBRANCH   5   6
ENDBRANCH   4   5
ENDBRANCH   3   4
ENDBRANCH   2   3
ENDBRANCH   1   2
BRANCH   1   9
ATOM      9  C   UNL     1       5.859  47.455  23.819  1.00  0.00     0.000 C 
BRANCH   9  10
ATOM     10  C   UNL     1       5.819  48.605  24.834  1.00  0.00    -0.000 C 
BRANCH  10  11
ATOM     11  C   UNL     1       6.014  48.085  26.263  1.00  0.00    -0.000 C 
BRANCH  11  12
ATOM     12  C   UNL     1       7.337  48.591  26.856  1.00  0.00    -0.000 C 
BRANCH  12  13
ATOM     13  C   UNL     1       7.950  49.739  26.037  1.00  0.00    -0.003 C 
ATOM     14  C   UNL     1       9.264  49.348  25.362  1.00  0.00     0.004 C 
ENDBRANCH  12  13
ENDBRANCH  11  12
ENDBRANCH  10  11
ENDBRANCH   9  10
ENDBRANCH   1   9
TORSDOF 10
ENDMDL
MODEL 4
REMARK VINA RESULT:    -4.480      1.169      2.053
REMARK INTER + INTRA:          -8.362
REMARK INTER:                  -7.744
REMARK INTRA:                  -0.618
REMARK UNBOUND:                -1.263
REMARK SMILES CCCCCCCCCCCC(=O)[O-]
REMARK SMILES IDX 7 1 8 2 9 3 10 4 11 5 12 6 13 7 14 8 6 9 5 10 4 11 3 12 2 13
REMARK SMILES IDX 1 14
REMARK H PARENT
REMARK Flexibility Score: inf
ROOT
ATOM      1  C   UNL     1       3.922  47.594  25.393  1.00  0.00     0.000 C 
ENDROOT
BRANCH   1   2
ATOM      2  C   UNL     1       5.228  46.965  24.897  1.00  0.00     0.000 C 
BRANCH   2   3
ATOM      3  C   UNL     1       5.623  47.524  23.525  1.00  0.00     0.000 C 
BRANCH   3   4
ATOM      4  C   UNL     1       6.864  48.423  23.633  1.00  0.00     0.006 C 
BRANCH   4   5
ATOM      5  C   UNL     1       6.771  49.404  24.809  1.00  0.00     0.053 C 
BRANCH   5   6
ATOM      6  C   UNL     1       7.935  49.268  25.741  1.00  0.00     0.041 C 
ATOM      7  O   UNL     1       9.106  49.481  25.328  1.00  0.00    -0.550 OA
ATOM      8  O   UNL     1       7.730  48.874  27.058  1.00  0.00    -0.550 OA
ENDBRANCH   5   6
ENDBRANCH   4   5
ENDBRANCH   3   4
ENDBRANCH   2   3
ENDBRANCH   1   2
BRANCH   1   9
ATOM      9  C   UNL     1       2.715  47.025  24.640  1.00  0.00     0.000 C 
BRANCH   9  10
ATOM     10  C   UNL     1       1.803  48.148  24.131  1.00  0.00    -0.000 C 
BRANCH  10  11
ATOM     11  C   UNL     1       2.098  48.473  22.662  1.00  0.00    -0.000 C 
BRANCH  11  12
ATOM     12  C   UNL     1       1.906  47.234  21.775  1.00  0.00    -0.000 C 
BRANCH  12  13
ATOM     13  C   UNL     1       0.615  47.297  20.943  1.00  0.00    -0.003 C 
ATOM     14  C   UNL     1      -0.646  47.300  21.807  1.00  0.00     0.004 C 
ENDBRANCH  12  13
ENDBRANCH  11  12
ENDBRANCH  10  11
ENDBRANCH   9  10
ENDBRANCH   1   9
TORSDOF 10
ENDMDL
MODEL 5
REMARK VINA RESULT:    -4.458      1.430      2.838
REMARK INTER + INTRA:          -8.327
REMARK INTER:                  -7.689
REMARK INTRA:                  -0.638
REMARK UNBOUND:                -1.263
REMARK SMILES CCCCCCCCCCCC(=O)[O-]
REMARK SMILES IDX 7 1 8 2 9 3 10 4 11 5 12 6 13 7 14 8 6 9 5 10 4 11 3 12 2 13
REMARK SMILES IDX 1 14
REMARK H PARENT
REMARK Flexibility Score: inf
ROOT
ATOM      1  C   UNL     1       4.984  47.554  21.449  1.00  0.00     0.000 C 
ENDROOT
BRANCH   1   2
ATOM      2  C   UNL     1       5.703  46.934  22.653  1.00  0.00     0.000 C 
BRANCH   2   3
ATOM      3  C   UNL     1       6.699  47.923  23.269  1.00  0.00     0.000 C 
BRANCH   3   4
ATOM      4  C   UNL     1       6.252  48.353  24.674  1.00  0.00     0.006 C 
BRANCH   4   5
ATOM      5  C   UNL     1       6.737  49.763  25.033  1.00  0.00     0.053 C 
BRANCH   5   6
ATOM      6  C   UNL     1       7.872  49.731  26.009  1.00  0.00     0.041 C 
ATOM      7  O   UNL     1       8.853  50.507  25.865  1.00  0.00    -0.550 OA
ATOM      8  O   UNL     1       7.862  48.820  27.059  1.00  0.00    -0.550 OA
ENDBRANCH   5   6
ENDBRANCH   4   5
ENDBRANCH   3   4
ENDBRANCH   2   3
ENDBRANCH   1   2
BRANCH   1   9
ATOM      9  C   UNL     1       3.469  47.605  21.678  1.00  0.00     0.000 C 
BRANCH   9  10
ATOM     10  C   UNL     1       3.119  48.546  22.837  1.00  0.00    -0.000 C 
BRANCH  10  11
ATOM     11  C   UNL     1       1.603  48.760  22.934  1.00  0.00    -0.000 C 
BRANCH  11  12
ATOM     12  C   UNL     1       0.870  47.421  23.107  1.00  0.00    -0.000 C 
BRANCH  12  13
ATOM     13  C   UNL     1      -0.319  47.271  22.145  1.00  0.00    -0.003 C 
ATOM     14  C   UNL     1       0.109  47.215  20.679  1.00  0.00     0.004 C 
ENDBRANCH  12  13
ENDBRANCH  11  12
ENDBRANCH  10  11
ENDBRANCH   9  10
ENDBRANCH   1   9
TORSDOF 10
ENDMDL
MODEL 6
REMARK VINA RESULT:    -4.351     10.249     11.136
REMARK INTER + INTRA:          -8.157
REMARK INTER:                  -7.149
REMARK INTRA:                  -1.007
REMARK UNBOUND:                -1.263
REMARK SMILES CCCCCCCCCCCC(=O)[O-]
REMARK SMILES IDX 7 1 8 2 9 3 10 4 11 5 12 6 13 7 14 8 6 9 5 10 4 11 3 12 2 13
REMARK SMILES IDX 1 14
REMARK H PARENT
REMARK Flexibility Score: inf
ROOT
ATOM      1  C   UNL     1       2.861  58.224  23.829  1.00  0.00     0.000 C 
ENDROOT
BRANCH   1   2
ATOM      2  C   UNL     1       1.711  57.756  22.930  1.00  0.00     0.000 C 
BRANCH   2   3
ATOM      3  C   UNL     1       0.351  58.073  23.564  1.00  0.00     0.000 C 
BRANCH   3   4
ATOM      4  C   UNL     1       0.524  58.672  24.968  1.00  0.00     0.006 C 
BRANCH   4   5
ATOM      5  C   UNL     1      -0.192  60.021  25.117  1.00  0.00     0.053 C 
BRANCH   5   6
ATOM      6  C   UNL     1       0.105  60.939  23.971  1.00  0.00     0.041 C 
ATOM      7  O   UNL     1      -0.807  61.258  23.163  1.00  0.00    -0.550 OA
ATOM      8  O   UNL     1       1.396  61.415  23.777  1.00  0.00    -0.550 OA
ENDBRANCH   5   6
ENDBRANCH   4   5
ENDBRANCH   3   4
ENDBRANCH   2   3
ENDBRANCH   1   2
BRANCH   1   9
ATOM      9  C   UNL     1       3.696  57.036  24.319  1.00  0.00     0.000 C 
BRANCH   9  10
ATOM     10  C   UNL     1       2.953  56.253  25.409  1.00  0.00    -0.000 C 
BRANCH  10  11
ATOM     11  C   UNL     1       3.136  54.743  25.223  1.00  0.00    -0.000 C 
BRANCH  11  12
ATOM     12  C   UNL     1       3.469  54.405  23.762  1.00  0.00    -0.000 C 
BRANCH  12  13
ATOM     13  C   UNL     1       2.223  54.031  22.943  1.00  0.00    -0.003 C 
ATOM     14  C   UNL     1       2.530  53.823  21.461  1.00  0.00     0.004 C 
ENDBRANCH  12  13
ENDBRANCH  11  12
ENDBRANCH  10  11
ENDBRANCH   9  10
ENDBRANCH   1   9
TORSDOF 10
ENDMDL
MODEL 7
REMARK VINA RESULT:    -4.309     10.128     10.990
REMARK INTER + INTRA:          -8.091
REMARK INTER:                  -7.022
REMARK INTRA:                  -1.069
REMARK UNBOUND:                -1.263
REMARK SMILES CCCCCCCCCCCC(=O)[O-]
REMARK SMILES IDX 7 1 8 2 9 3 10 4 11 5 12 6 13 7 14 8 6 9 5 10 4 11 3 12 2 13
REMARK SMILES IDX 1 14
REMARK H PARENT
REMARK Flexibility Score: inf
ROOT
ATOM      1  C   UNL     1       2.845  56.890  24.439  1.00  0.00     0.000 C 
ENDROOT
BRANCH   1   2
ATOM      2  C   UNL     1       3.522  57.963  23.579  1.00  0.00     0.000 C 
BRANCH   2   3
ATOM      3  C   UNL     1       2.977  57.946  22.146  1.00  0.00     0.000 C 
BRANCH   3   4
ATOM      4  C   UNL     1       1.908  56.855  21.977  1.00  0.00     0.006 C 
BRANCH   4   5
ATOM      5  C   UNL     1       2.329  55.781  20.965  1.00  0.00     0.053 C 
BRANCH   5   6
ATOM      6  C   UNL     1       2.329  54.413  21.573  1.00  0.00     0.041 C 
ATOM      7  O   UNL     1       2.081  54.264  22.799  1.00  0.00    -0.550 OA
ATOM      8  O   UNL     1       2.637  53.304  20.794  1.00  0.00    -0.550 OA
ENDBRANCH   5   6
ENDBRANCH   4   5
ENDBRANCH   3   4
ENDBRANCH   2   3
ENDBRANCH   1   2
BRANCH   1   9
ATOM      9  C   UNL     1       1.972  57.526  25.527  1.00  0.00     0.000 C 
BRANCH   9  10
ATOM     10  C   UNL     1       0.549  57.777  25.015  1.00  0.00    -0.000 C 
BRANCH  10  11
ATOM     11  C   UNL     1       0.183  59.263  25.115  1.00  0.00    -0.000 C 
BRANCH  11  12
ATOM     12  C   UNL     1       0.378  59.969  23.766  1.00  0.00    -0.000 C 
BRANCH  12  13
ATOM     13  C   UNL     1       0.999  61.367  23.916  1.00  0.00    -0.003 C 
ATOM     14  C   UNL     1       2.448  61.425  23.432  1.00  0.00     0.004 C 
ENDBRANCH  12  13
ENDBRANCH  11  12
ENDBRANCH  10  11
ENDBRANCH   9  10
ENDBRANCH   1   9
TORSDOF 10
ENDMDL
MODEL 8
REMARK VINA RESULT:    -4.259     10.144     10.820
REMARK INTER + INTRA:          -8.012
REMARK INTER:                  -7.035
REMARK INTRA:                  -0.977
REMARK UNBOUND:                -1.263
REMARK SMILES CCCCCCCCCCCC(=O)[O-]
REMARK SMILES IDX 7 1 8 2 9 3 10 4 11 5 12 6 13 7 14 8 6 9 5 10 4 11 3 12 2 13
REMARK SMILES IDX 1 14
REMARK H PARENT
REMARK Flexibility Score: inf
ROOT
ATOM      1  C   UNL     1       0.875  57.740  24.698  1.00  0.00     0.000 C 
ENDROOT
BRANCH   1   2
ATOM      2  C   UNL     1       2.149  57.344  25.454  1.00  0.00     0.000 C 
BRANCH   2   3
ATOM      3  C   UNL     1       3.162  56.678  24.516  1.00  0.00     0.000 C 
BRANCH   3   4
ATOM      4  C   UNL     1       2.450  55.867  23.422  1.00  0.00     0.006 C 
BRANCH   4   5
ATOM      5  C   UNL     1       2.818  54.378  23.472  1.00  0.00     0.053 C 
BRANCH   5   6
ATOM      6  C   UNL     1       2.212  53.617  22.333  1.00  0.00     0.041 C 
ATOM      7  O   UNL     1       1.327  52.748  22.552  1.00  0.00    -0.550 OA
ATOM      8  O   UNL     1       2.651  53.842  21.034  1.00  0.00    -0.550 OA
ENDBRANCH   5   6
ENDBRANCH   4   5
ENDBRANCH   3   4
ENDBRANCH   2   3
ENDBRANCH   1   2
BRANCH   1   9
ATOM      9  C   UNL     1      -0.001  58.671  25.544  1.00  0.00     0.000 C 
BRANCH   9  10
ATOM     10  C   UNL     1       0.015  60.099  24.987  1.00  0.00    -0.000 C 
BRANCH  10  11
ATOM     11  C   UNL     1       0.745  60.157  23.640  1.00  0.00    -0.000 C 
BRANCH  11  12
ATOM     12  C   UNL     1       1.888  61.182  23.678  1.00  0.00    -0.000 C 
BRANCH  12  13
ATOM     13  C   UNL     1       2.926  60.950  22.568  1.00  0.00    -0.003 C 
ATOM     14  C   UNL     1       3.124  59.470  22.243  1.00  0.00     0.004 C 
ENDBRANCH  12  13
ENDBRANCH  11  12
ENDBRANCH  10  11
ENDBRANCH   9  10
ENDBRANCH   1   9
TORSDOF 10
ENDMDL
MODEL 9
REMARK VINA RESULT:    -4.239     10.707     11.427
REMARK INTER + INTRA:          -7.980
REMARK INTER:                  -6.885
REMARK INTRA:                  -1.095
REMARK UNBOUND:                -1.263
REMARK SMILES CCCCCCCCCCCC(=O)[O-]
REMARK SMILES IDX 7 1 8 2 9 3 10 4 11 5 12 6 13 7 14 8 6 9 5 10 4 11 3 12 2 13
REMARK SMILES IDX 1 14
REMARK H PARENT
REMARK Flexibility Score: inf
ROOT
ATOM      1  C   UNL     1       3.120  57.717  24.559  1.00  0.00     0.000 C 
ENDROOT
BRANCH   1   2
ATOM      2  C   UNL     1       1.787  57.515  25.287  1.00  0.00     0.000 C 
BRANCH   2   3
ATOM      3  C   UNL     1       0.631  58.155  24.509  1.00  0.00     0.000 C 
BRANCH   3   4
ATOM      4  C   UNL     1      -0.293  58.947  25.447  1.00  0.00     0.006 C 
BRANCH   4   5
ATOM      5  C   UNL     1       0.075  60.435  25.505  1.00  0.00     0.053 C 
BRANCH   5   6
ATOM      6  C   UNL     1       0.244  61.021  24.137  1.00  0.00     0.041 C 
ATOM      7  O   UNL     1       1.371  61.442  23.762  1.00  0.00    -0.550 OA
ATOM      8  O   UNL     1      -0.850  61.134  23.288  1.00  0.00    -0.550 OA
ENDBRANCH   5   6
ENDBRANCH   4   5
ENDBRANCH   3   4
ENDBRANCH   2   3
ENDBRANCH   1   2
BRANCH   1   9
ATOM      9  C   UNL     1       2.923  58.499  23.255  1.00  0.00     0.000 C 
BRANCH   9  10
ATOM     10  C   UNL     1       3.247  57.628  22.036  1.00  0.00    -0.000 C 
BRANCH  10  11
ATOM     11  C   UNL     1       2.032  56.793  21.617  1.00  0.00    -0.000 C 
BRANCH  11  12
ATOM     12  C   UNL     1       2.422  55.323  21.406  1.00  0.00    -0.000 C 
BRANCH  12  13
ATOM     13  C   UNL     1       2.009  54.426  22.584  1.00  0.00    -0.003 C 
ATOM     14  C   UNL     1       3.103  54.301  23.644  1.00  0.00     0.004 C 
ENDBRANCH  12  13
ENDBRANCH  11  12
ENDBRANCH  10  11
ENDBRANCH   9  10
ENDBRANCH   1   9
TORSDOF 10
ENDMDL
