MODEL 1
REMARK VINA RESULT:    -4.311      0.000      0.000
REMARK INTER + INTRA:         -12.414
REMARK INTER:                  -9.855
REMARK INTRA:                  -2.558
REMARK UNBOUND:                -2.558
REMARK SMILES CCCCCCCCCCCCCCCCCCCCCCCC(=O)[O-]
REMARK SMILES IDX 13 1 14 2 15 3 16 4 17 5 18 6 19 7 20 8 21 9 22 10 23 11
REMARK SMILES IDX 24 12 25 13 26 14 12 15 11 16 10 17 9 18 8 19 7 20 6 21 5 22
REMARK SMILES IDX 4 23 3 24 2 25 1 26
REMARK H PARENT
REMARK Flexibility Score: inf
ROOT
ATOM      1  C   UNL     1      -6.508 -12.042   6.456  1.00  0.00     0.000 C 
ENDROOT
BRANCH   1   2
ATOM      2  C   UNL     1      -7.702 -11.661   7.351  1.00  0.00     0.000 C 
BRANCH   2   3
ATOM      3  C   UNL     1      -8.853 -10.944   6.622  1.00  0.00     0.000 C 
BRANCH   3   4
ATOM      4  C   UNL     1      -8.615 -10.687   5.119  1.00  0.00     0.000 C 
BRANCH   4   5
ATOM      5  C   UNL     1      -9.300  -9.427   4.551  1.00  0.00     0.000 C 
BRANCH   5   6
ATOM      6  C   UNL     1     -10.466  -8.883   5.397  1.00  0.00     0.000 C 
BRANCH   6   7
ATOM      7  C   UNL     1     -11.845  -8.942   4.714  1.00  0.00     0.000 C 
BRANCH   7   8
ATOM      8  C   UNL     1     -12.292 -10.373   4.338  1.00  0.00     0.000 C 
BRANCH   8   9
ATOM      9  C   UNL     1     -13.013 -10.425   2.984  1.00  0.00     0.000 C 
BRANCH   9  10
ATOM     10  C   UNL     1     -12.413 -11.516   2.083  1.00  0.00     0.006 C 
BRANCH  10  11
ATOM     11  C   UNL     1     -11.085 -12.054   2.630  1.00  0.00     0.053 C 
BRANCH  11  12
ATOM     12  C   UNL     1      -9.986 -11.956   1.616  1.00  0.00     0.041 C 
ATOM     13  O   UNL     1      -9.785 -12.898   0.807  1.00  0.00    -0.550 OA
ATOM     14  O   UNL     1      -9.164 -10.836   1.587  1.00  0.00    -0.550 OA
ENDBRANCH  11  12
ENDBRANCH  10  11
ENDBRANCH   9  10
ENDBRANCH   8   9
ENDBRANCH   7   8
ENDBRANCH   6   7
ENDBRANCH   5   6
ENDBRANCH   4   5
ENDBRANCH   3   4
ENDBRANCH   2   3
ENDBRANCH   1   2
BRANCH   1  15
ATOM     15  C   UNL     1      -5.143 -11.964   7.175  1.00  0.00     0.000 C 
BRANCH  15  16
ATOM     16  C   UNL     1      -4.070 -12.827   6.491  1.00  0.00     0.000 C 
BRANCH  16  17
ATOM     17  C   UNL     1      -2.923 -11.987   5.905  1.00  0.00     0.000 C 
BRANCH  17  18
ATOM     18  C   UNL     1      -1.593 -12.202   6.648  1.00  0.00    -0.000 C 
BRANCH  18  19
ATOM     19  C   UNL     1      -0.373 -11.843   5.784  1.00  0.00    -0.000 C 
BRANCH  19  20
ATOM     20  C   UNL     1       0.934 -11.805   6.598  1.00  0.00    -0.000 C 
BRANCH  20  21
ATOM     21  C   UNL     1       0.977 -10.629   7.587  1.00  0.00    -0.000 C 
BRANCH  21  22
ATOM     22  C   UNL     1       0.835  -9.266   6.889  1.00  0.00    -0.000 C 
BRANCH  22  23
ATOM     23  C   UNL     1      -0.325  -8.431   7.455  1.00  0.00    -0.000 C 
BRANCH  23  24
ATOM     24  C   UNL     1      -1.451  -8.215   6.428  1.00  0.00    -0.000 C 
BRANCH  24  25
ATOM     25  C   UNL     1      -2.848  -8.406   7.037  1.00  0.00    -0.003 C 
ATOM     26  C   UNL     1      -2.813  -9.138   8.379  1.00  0.00     0.004 C 
ENDBRANCH  24  25
ENDBRANCH  23  24
ENDBRANCH  22  23
ENDBRANCH  21  22
ENDBRANCH  20  21
ENDBRANCH  19  20
ENDBRANCH  18  19
ENDBRANCH  17  18
ENDBRANCH  16  17
ENDBRANCH  15  16
ENDBRANCH   1  15
TORSDOF 22
ENDMDL
MODEL 2
REMARK VINA RESULT:    -4.213      1.870      5.254
REMARK INTER + INTRA:         -12.189
REMARK INTER:                  -7.969
REMARK INTRA:                  -4.221
REMARK UNBOUND:                -2.558
REMARK SMILES CCCCCCCCCCCCCCCCCCCCCCCC(=O)[O-]
REMARK SMILES IDX 13 1 14 2 15 3 16 4 17 5 18 6 19 7 20 8 21 9 22 10 23 11
REMARK SMILES IDX 24 12 25 13 26 14 12 15 11 16 10 17 9 18 8 19 7 20 6 21 5 22
REMARK SMILES IDX 4 23 3 24 2 25 1 26
REMARK H PARENT
REMARK Flexibility Score: inf
ROOT
ATOM      1  C   UNL     1      -2.588  -9.197   6.272  1.00  0.00     0.000 C 
ENDROOT
BRANCH   1   2
ATOM      2  C   UNL     1      -3.233 -10.199   7.247  1.00  0.00     0.000 C 
BRANCH   2   3
ATOM      3  C   UNL     1      -3.030  -9.871   8.738  1.00  0.00     0.000 C 
BRANCH   3   4
ATOM      4  C   UNL     1      -3.552 -10.941   9.719  1.00  0.00     0.000 C 
BRANCH   4   5
ATOM      5  C   UNL     1      -3.724 -12.353   9.122  1.00  0.00     0.000 C 
BRANCH   5   6
ATOM      6  C   UNL     1      -5.153 -12.921   9.195  1.00  0.00     0.000 C 
BRANCH   6   7
ATOM      7  C   UNL     1      -6.246 -12.002   8.614  1.00  0.00     0.000 C 
BRANCH   7   8
ATOM      8  C   UNL     1      -6.996 -12.613   7.410  1.00  0.00     0.000 C 
BRANCH   8   9
ATOM      9  C   UNL     1      -7.151 -11.619   6.251  1.00  0.00     0.000 C 
BRANCH   9  10
ATOM     10  C   UNL     1      -8.534 -10.950   6.280  1.00  0.00     0.006 C 
BRANCH  10  11
ATOM     11  C   UNL     1      -8.838 -10.190   4.983  1.00  0.00     0.053 C 
BRANCH  11  12
ATOM     12  C   UNL     1      -9.644 -11.020   4.029  1.00  0.00     0.041 C 
ATOM     13  O   UNL     1      -9.836 -10.623   2.850  1.00  0.00    -0.550 OA
ATOM     14  O   UNL     1     -10.209 -12.216   4.454  1.00  0.00    -0.550 OA
ENDBRANCH  11  12
ENDBRANCH  10  11
ENDBRANCH   9  10
ENDBRANCH   8   9
ENDBRANCH   7   8
ENDBRANCH   6   7
ENDBRANCH   5   6
ENDBRANCH   4   5
ENDBRANCH   3   4
ENDBRANCH   2   3
ENDBRANCH   1   2
BRANCH   1  15
ATOM     15  C   UNL     1      -1.447  -8.366   6.900  1.00  0.00     0.000 C 
BRANCH  15  16
ATOM     16  C   UNL     1      -0.070  -8.724   6.315  1.00  0.00     0.000 C 
BRANCH  16  17
ATOM     17  C   UNL     1       1.025  -8.803   7.392  1.00  0.00     0.000 C 
BRANCH  17  18
ATOM     18  C   UNL     1       0.455  -8.751   8.820  1.00  0.00    -0.000 C 
BRANCH  18  19
ATOM     19  C   UNL     1       0.610 -10.087   9.563  1.00  0.00    -0.000 C 
BRANCH  19  20
ATOM     20  C   UNL     1       0.870 -11.265   8.607  1.00  0.00    -0.000 C 
BRANCH  20  21
ATOM     21  C   UNL     1      -0.067 -12.455   8.872  1.00  0.00    -0.000 C 
BRANCH  21  22
ATOM     22  C   UNL     1      -0.489 -13.173   7.578  1.00  0.00    -0.000 C 
BRANCH  22  23
ATOM     23  C   UNL     1      -0.249 -12.316   6.324  1.00  0.00    -0.000 C 
BRANCH  23  24
ATOM     24  C   UNL     1      -1.263 -12.616   5.205  1.00  0.00    -0.000 C 
BRANCH  24  25
ATOM     25  C   UNL     1      -2.426 -13.497   5.684  1.00  0.00    -0.003 C 
ATOM     26  C   UNL     1      -3.771 -13.072   5.092  1.00  0.00     0.004 C 
ENDBRANCH  24  25
ENDBRANCH  23  24
ENDBRANCH  22  23
ENDBRANCH  21  22
ENDBRANCH  20  21
ENDBRANCH  19  20
ENDBRANCH  18  19
ENDBRANCH  17  18
ENDBRANCH  16  17
ENDBRANCH  15  16
ENDBRANCH   1  15
TORSDOF 22
ENDMDL
MODEL 3
REMARK VINA RESULT:    -4.211      1.533      3.594
REMARK INTER + INTRA:         -12.184
REMARK INTER:                  -9.520
REMARK INTRA:                  -2.665
REMARK UNBOUND:                -2.558
REMARK SMILES CCCCCCCCCCCCCCCCCCCCCCCC(=O)[O-]
REMARK SMILES IDX 13 1 14 2 15 3 16 4 17 5 18 6 19 7 20 8 21 9 22 10 23 11
REMARK SMILES IDX 24 12 25 13 26 14 12 15 11 16 10 17 9 18 8 19 7 20 6 21 5 22
REMARK SMILES IDX 4 23 3 24 2 25 1 26
REMARK H PARENT
REMARK Flexibility Score: inf
ROOT
ATOM      1  C   UNL     1      -3.688 -10.962   7.048  1.00  0.00     0.000 C 
ENDROOT
BRANCH   1   2
ATOM      2  C   UNL     1      -4.765 -12.003   7.408  1.00  0.00     0.000 C 
BRANCH   2   3
ATOM      3  C   UNL     1      -5.639 -12.463   6.227  1.00  0.00     0.000 C 
BRANCH   3   4
ATOM      4  C   UNL     1      -6.870 -13.308   6.616  1.00  0.00     0.000 C 
BRANCH   4   5
ATOM      5  C   UNL     1      -8.233 -12.609   6.429  1.00  0.00     0.000 C 
BRANCH   5   6
ATOM      6  C   UNL     1      -8.158 -11.171   5.883  1.00  0.00     0.000 C 
BRANCH   6   7
ATOM      7  C   UNL     1      -9.455 -10.353   6.032  1.00  0.00     0.000 C 
BRANCH   7   8
ATOM      8  C   UNL     1      -9.870  -9.607   4.744  1.00  0.00     0.000 C 
BRANCH   8   9
ATOM      9  C   UNL     1      -9.248 -10.224   3.483  1.00  0.00     0.000 C 
BRANCH   9  10
ATOM     10  C   UNL     1     -10.101 -11.389   2.962  1.00  0.00     0.006 C 
BRANCH  10  11
ATOM     11  C   UNL     1     -11.583 -11.231   3.326  1.00  0.00     0.053 C 
BRANCH  11  12
ATOM     12  C   UNL     1     -12.446 -11.114   2.106  1.00  0.00     0.041 C 
ATOM     13  O   UNL     1     -12.177 -11.782   1.074  1.00  0.00    -0.550 OA
ATOM     14  O   UNL     1     -13.527 -10.242   2.100  1.00  0.00    -0.550 OA
ENDBRANCH  11  12
ENDBRANCH  10  11
ENDBRANCH   9  10
ENDBRANCH   8   9
ENDBRANCH   7   8
ENDBRANCH   6   7
ENDBRANCH   5   6
ENDBRANCH   4   5
ENDBRANCH   3   4
ENDBRANCH   2   3
ENDBRANCH   1   2
BRANCH   1  15
ATOM     15  C   UNL     1      -3.142 -10.188   8.267  1.00  0.00     0.000 C 
BRANCH  15  16
ATOM     16  C   UNL     1      -2.657  -8.776   7.896  1.00  0.00     0.000 C 
BRANCH  16  17
ATOM     17  C   UNL     1      -2.212  -8.672   6.428  1.00  0.00     0.000 C 
BRANCH  17  18
ATOM     18  C   UNL     1      -0.710  -8.372   6.284  1.00  0.00    -0.000 C 
BRANCH  18  19
ATOM     19  C   UNL     1       0.079  -8.698   7.562  1.00  0.00    -0.000 C 
BRANCH  19  20
ATOM     20  C   UNL     1       1.074  -9.855   7.360  1.00  0.00    -0.000 C 
BRANCH  20  21
ATOM     21  C   UNL     1       0.412 -11.234   7.518  1.00  0.00    -0.000 C 
BRANCH  21  22
ATOM     22  C   UNL     1       0.533 -12.095   6.249  1.00  0.00    -0.000 C 
BRANCH  22  23
ATOM     23  C   UNL     1      -0.682 -11.949   5.319  1.00  0.00    -0.000 C 
BRANCH  23  24
ATOM     24  C   UNL     1      -1.012 -13.254   4.573  1.00  0.00    -0.000 C 
BRANCH  24  25
ATOM     25  C   UNL     1      -2.276 -13.939   5.115  1.00  0.00    -0.003 C 
ATOM     26  C   UNL     1      -2.114 -14.421   6.557  1.00  0.00     0.004 C 
ENDBRANCH  24  25
ENDBRANCH  23  24
ENDBRANCH  22  23
ENDBRANCH  21  22
ENDBRANCH  20  21
ENDBRANCH  19  20
ENDBRANCH  18  19
ENDBRANCH  17  18
ENDBRANCH  16  17
ENDBRANCH  15  16
ENDBRANCH   1  15
TORSDOF 22
ENDMDL
MODEL 4
REMARK VINA RESULT:    -4.191      1.392      4.065
REMARK INTER + INTRA:         -12.138
REMARK INTER:                  -9.174
REMARK INTRA:                  -2.965
REMARK UNBOUND:                -2.558
REMARK SMILES CCCCCCCCCCCCCCCCCCCCCCCC(=O)[O-]
REMARK SMILES IDX 13 1 14 2 15 3 16 4 17 5 18 6 19 7 20 8 21 9 22 10 23 11
REMARK SMILES IDX 24 12 25 13 26 14 12 15 11 16 10 17 9 18 8 19 7 20 6 21 5 22
REMARK SMILES IDX 4 23 3 24 2 25 1 26
REMARK H PARENT
REMARK Flexibility Score: inf
ROOT
ATOM      1  C   UNL     1      -2.478 -12.164   7.276  1.00  0.00     0.000 C 
ENDROOT
BRANCH   1   2
ATOM      2  C   UNL     1      -2.970 -12.061   5.820  1.00  0.00     0.000 C 
BRANCH   2   3
ATOM      3  C   UNL     1      -3.938 -13.176   5.385  1.00  0.00     0.000 C 
BRANCH   3   4
ATOM      4  C   UNL     1      -5.159 -13.377   6.305  1.00  0.00     0.000 C 
BRANCH   4   5
ATOM      5  C   UNL     1      -6.202 -12.241   6.272  1.00  0.00     0.000 C 
BRANCH   5   6
ATOM      6  C   UNL     1      -7.550 -12.575   6.938  1.00  0.00     0.000 C 
BRANCH   6   7
ATOM      7  C   UNL     1      -8.793 -12.224   6.098  1.00  0.00     0.000 C 
BRANCH   7   8
ATOM      8  C   UNL     1      -8.582 -11.024   5.148  1.00  0.00     0.000 C 
BRANCH   8   9
ATOM      9  C   UNL     1      -9.854 -10.182   4.977  1.00  0.00     0.000 C 
BRANCH   9  10
ATOM     10  C   UNL     1     -10.177  -9.966   3.491  1.00  0.00     0.006 C 
BRANCH  10  11
ATOM     11  C   UNL     1      -9.382 -10.913   2.582  1.00  0.00     0.053 C 
BRANCH  11  12
ATOM     12  C   UNL     1     -10.274 -11.647   1.629  1.00  0.00     0.041 C 
ATOM     13  O   UNL     1     -11.447 -11.241   1.417  1.00  0.00    -0.550 OA
ATOM     14  O   UNL     1      -9.821 -12.799   0.998  1.00  0.00    -0.550 OA
ENDBRANCH  11  12
ENDBRANCH  10  11
ENDBRANCH   9  10
ENDBRANCH   8   9
ENDBRANCH   7   8
ENDBRANCH   6   7
ENDBRANCH   5   6
ENDBRANCH   4   5
ENDBRANCH   3   4
ENDBRANCH   2   3
ENDBRANCH   1   2
BRANCH   1  15
ATOM     15  C   UNL     1      -2.796 -10.915   8.128  1.00  0.00     0.000 C 
BRANCH  15  16
ATOM     16  C   UNL     1      -3.345  -9.753   7.283  1.00  0.00     0.000 C 
BRANCH  16  17
ATOM     17  C   UNL     1      -2.512  -8.469   7.434  1.00  0.00     0.000 C 
BRANCH  17  18
ATOM     18  C   UNL     1      -1.520  -8.267   6.275  1.00  0.00    -0.000 C 
BRANCH  18  19
ATOM     19  C   UNL     1      -0.105  -8.755   6.622  1.00  0.00    -0.000 C 
BRANCH  19  20
ATOM     20  C   UNL     1       0.218  -8.608   8.120  1.00  0.00    -0.000 C 
BRANCH  20  21
ATOM     21  C   UNL     1       0.764  -9.906   8.734  1.00  0.00    -0.000 C 
BRANCH  21  22
ATOM     22  C   UNL     1       0.910 -11.033   7.698  1.00  0.00    -0.000 C 
BRANCH  22  23
ATOM     23  C   UNL     1       1.193 -12.398   8.346  1.00  0.00    -0.000 C 
BRANCH  23  24
ATOM     24  C   UNL     1       0.963 -13.570   7.376  1.00  0.00    -0.000 C 
BRANCH  24  25
ATOM     25  C   UNL     1       0.772 -13.104   5.924  1.00  0.00    -0.003 C 
ATOM     26  C   UNL     1       0.405 -14.249   4.980  1.00  0.00     0.004 C 
ENDBRANCH  24  25
ENDBRANCH  23  24
ENDBRANCH  22  23
ENDBRANCH  21  22
ENDBRANCH  20  21
ENDBRANCH  19  20
ENDBRANCH  18  19
ENDBRANCH  17  18
ENDBRANCH  16  17
ENDBRANCH  15  16
ENDBRANCH   1  15
TORSDOF 22
ENDMDL
MODEL 5
REMARK VINA RESULT:    -4.173      1.304      2.852
REMARK INTER + INTRA:         -12.097
REMARK INTER:                  -9.345
REMARK INTRA:                  -2.752
REMARK UNBOUND:                -2.558
REMARK SMILES CCCCCCCCCCCCCCCCCCCCCCCC(=O)[O-]
REMARK SMILES IDX 13 1 14 2 15 3 16 4 17 5 18 6 19 7 20 8 21 9 22 10 23 11
REMARK SMILES IDX 24 12 25 13 26 14 12 15 11 16 10 17 9 18 8 19 7 20 6 21 5 22
REMARK SMILES IDX 4 23 3 24 2 25 1 26
REMARK H PARENT
REMARK Flexibility Score: inf
ROOT
ATOM      1  C   UNL     1      -5.921 -12.478   6.154  1.00  0.00     0.000 C 
ENDROOT
BRANCH   1   2
ATOM      2  C   UNL     1      -7.115 -12.593   7.120  1.00  0.00     0.000 C 
BRANCH   2   3
ATOM      3  C   UNL     1      -8.457 -12.098   6.551  1.00  0.00     0.000 C 
BRANCH   3   4
ATOM      4  C   UNL     1      -9.110 -10.939   7.332  1.00  0.00     0.000 C 
BRANCH   4   5
ATOM      5  C   UNL     1     -10.647 -10.862   7.231  1.00  0.00     0.000 C 
BRANCH   5   6
ATOM      6  C   UNL     1     -11.218  -9.442   7.055  1.00  0.00     0.000 C 
BRANCH   6   7
ATOM      7  C   UNL     1     -10.562  -8.614   5.934  1.00  0.00     0.000 C 
BRANCH   7   8
ATOM      8  C   UNL     1     -10.771  -9.204   4.522  1.00  0.00     0.000 C 
BRANCH   8   9
ATOM      9  C   UNL     1      -9.458  -9.679   3.884  1.00  0.00     0.000 C 
BRANCH   9  10
ATOM     10  C   UNL     1      -9.667 -10.981   3.096  1.00  0.00     0.006 C 
BRANCH  10  11
ATOM     11  C   UNL     1     -11.092 -11.529   3.251  1.00  0.00     0.053 C 
BRANCH  11  12
ATOM     12  C   UNL     1     -11.885 -11.378   1.989  1.00  0.00     0.041 C 
ATOM     13  O   UNL     1     -11.471 -11.889   0.915  1.00  0.00    -0.550 OA
ATOM     14  O   UNL     1     -13.067 -10.647   1.993  1.00  0.00    -0.550 OA
ENDBRANCH  11  12
ENDBRANCH  10  11
ENDBRANCH   9  10
ENDBRANCH   8   9
ENDBRANCH   7   8
ENDBRANCH   6   7
ENDBRANCH   5   6
ENDBRANCH   4   5
ENDBRANCH   3   4
ENDBRANCH   2   3
ENDBRANCH   1   2
BRANCH   1  15
ATOM     15  C   UNL     1      -4.776 -13.467   6.462  1.00  0.00     0.000 C 
BRANCH  15  16
ATOM     16  C   UNL     1      -3.637 -12.816   7.265  1.00  0.00     0.000 C 
BRANCH  16  17
ATOM     17  C   UNL     1      -3.591 -11.289   7.089  1.00  0.00     0.000 C 
BRANCH  17  18
ATOM     18  C   UNL     1      -3.551 -10.540   8.432  1.00  0.00    -0.000 C 
BRANCH  18  19
ATOM     19  C   UNL     1      -2.610  -9.325   8.400  1.00  0.00    -0.000 C 
BRANCH  19  20
ATOM     20  C   UNL     1      -2.785  -8.479   7.126  1.00  0.00    -0.000 C 
BRANCH  20  21
ATOM     21  C   UNL     1      -1.489  -8.376   6.305  1.00  0.00    -0.000 C 
BRANCH  21  22
ATOM     22  C   UNL     1      -0.228  -8.468   7.181  1.00  0.00    -0.000 C 
BRANCH  22  23
ATOM     23  C   UNL     1       0.719  -9.594   6.735  1.00  0.00    -0.000 C 
BRANCH  23  24
ATOM     24  C   UNL     1       0.580 -10.858   7.603  1.00  0.00    -0.000 C 
BRANCH  24  25
ATOM     25  C   UNL     1       0.238 -12.106   6.776  1.00  0.00    -0.003 C 
ATOM     26  C   UNL     1      -0.356 -11.764   5.410  1.00  0.00     0.004 C 
ENDBRANCH  24  25
ENDBRANCH  23  24
ENDBRANCH  22  23
ENDBRANCH  21  22
ENDBRANCH  20  21
ENDBRANCH  19  20
ENDBRANCH  18  19
ENDBRANCH  17  18
ENDBRANCH  16  17
ENDBRANCH  15  16
ENDBRANCH   1  15
TORSDOF 22
ENDMDL
MODEL 6
REMARK VINA RESULT:    -4.151      2.194      5.280
REMARK INTER + INTRA:         -12.047
REMARK INTER:                  -9.132
REMARK INTRA:                  -2.915
REMARK UNBOUND:                -2.558
REMARK SMILES CCCCCCCCCCCCCCCCCCCCCCCC(=O)[O-]
REMARK SMILES IDX 13 1 14 2 15 3 16 4 17 5 18 6 19 7 20 8 21 9 22 10 23 11
REMARK SMILES IDX 24 12 25 13 26 14 12 15 11 16 10 17 9 18 8 19 7 20 6 21 5 22
REMARK SMILES IDX 4 23 3 24 2 25 1 26
REMARK H PARENT
REMARK Flexibility Score: inf
ROOT
ATOM      1  C   UNL     1      -2.866  -8.562   6.896  1.00  0.00     0.000 C 
ENDROOT
BRANCH   1   2
ATOM      2  C   UNL     1      -2.884 -10.094   7.048  1.00  0.00     0.000 C 
BRANCH   2   3
ATOM      3  C   UNL     1      -3.611 -10.611   8.303  1.00  0.00     0.000 C 
BRANCH   3   4
ATOM      4  C   UNL     1      -4.467 -11.876   8.089  1.00  0.00     0.000 C 
BRANCH   4   5
ATOM      5  C   UNL     1      -4.660 -12.298   6.618  1.00  0.00     0.000 C 
BRANCH   5   6
ATOM      6  C   UNL     1      -6.089 -12.741   6.250  1.00  0.00     0.000 C 
BRANCH   6   7
ATOM      7  C   UNL     1      -7.142 -12.509   7.349  1.00  0.00     0.000 C 
BRANCH   7   8
ATOM      8  C   UNL     1      -8.397 -11.753   6.858  1.00  0.00     0.000 C 
BRANCH   8   9
ATOM      9  C   UNL     1      -8.122 -10.915   5.602  1.00  0.00     0.000 C 
BRANCH   9  10
ATOM     10  C   UNL     1      -9.199 -11.155   4.533  1.00  0.00     0.006 C 
BRANCH  10  11
ATOM     11  C   UNL     1      -9.771  -9.842   3.983  1.00  0.00     0.053 C 
BRANCH  11  12
ATOM     12  C   UNL     1     -10.775  -9.239   4.918  1.00  0.00     0.041 C 
ATOM     13  O   UNL     1     -10.742  -8.006   5.174  1.00  0.00    -0.550 OA
ATOM     14  O   UNL     1     -11.727 -10.044   5.530  1.00  0.00    -0.550 OA
ENDBRANCH  11  12
ENDBRANCH  10  11
ENDBRANCH   9  10
ENDBRANCH   8   9
ENDBRANCH   7   8
ENDBRANCH   6   7
ENDBRANCH   5   6
ENDBRANCH   4   5
ENDBRANCH   3   4
ENDBRANCH   2   3
ENDBRANCH   1   2
BRANCH   1  15
ATOM     15  C   UNL     1      -1.519  -8.005   6.387  1.00  0.00     0.000 C 
BRANCH  15  16
ATOM     16  C   UNL     1      -0.415  -9.076   6.356  1.00  0.00     0.000 C 
BRANCH  16  17
ATOM     17  C   UNL     1       0.722  -8.779   7.347  1.00  0.00     0.000 C 
BRANCH  17  18
ATOM     18  C   UNL     1       0.239  -8.738   8.808  1.00  0.00    -0.000 C 
BRANCH  18  19
ATOM     19  C   UNL     1       0.731  -9.943   9.624  1.00  0.00    -0.000 C 
BRANCH  19  20
ATOM     20  C   UNL     1      -0.224 -11.147   9.530  1.00  0.00    -0.000 C 
BRANCH  20  21
ATOM     21  C   UNL     1       0.347 -12.285   8.669  1.00  0.00    -0.000 C 
BRANCH  21  22
ATOM     22  C   UNL     1      -0.600 -12.693   7.528  1.00  0.00    -0.000 C 
BRANCH  22  23
ATOM     23  C   UNL     1       0.105 -12.732   6.162  1.00  0.00    -0.000 C 
BRANCH  23  24
ATOM     24  C   UNL     1       1.624 -12.945   6.289  1.00  0.00    -0.000 C 
BRANCH  24  25
ATOM     25  C   UNL     1       2.103 -14.210   5.560  1.00  0.00    -0.003 C 
ATOM     26  C   UNL     1       3.618 -14.403   5.648  1.00  0.00     0.004 C 
ENDBRANCH  24  25
ENDBRANCH  23  24
ENDBRANCH  22  23
ENDBRANCH  21  22
ENDBRANCH  20  21
ENDBRANCH  19  20
ENDBRANCH  18  19
ENDBRANCH  17  18
ENDBRANCH  16  17
ENDBRANCH  15  16
ENDBRANCH   1  15
TORSDOF 22
ENDMDL
MODEL 7
REMARK VINA RESULT:    -4.136      4.017      9.146
REMARK INTER + INTRA:         -12.014
REMARK INTER:                  -8.544
REMARK INTRA:                  -3.469
REMARK UNBOUND:                -2.558
REMARK SMILES CCCCCCCCCCCCCCCCCCCCCCCC(=O)[O-]
REMARK SMILES IDX 13 1 14 2 15 3 16 4 17 5 18 6 19 7 20 8 21 9 22 10 23 11
REMARK SMILES IDX 24 12 25 13 26 14 12 15 11 16 10 17 9 18 8 19 7 20 6 21 5 22
REMARK SMILES IDX 4 23 3 24 2 25 1 26
REMARK H PARENT
REMARK Flexibility Score: inf
ROOT
ATOM      1  C   UNL     1      -0.635 -12.574   4.992  1.00  0.00     0.000 C 
ENDROOT
BRANCH   1   2
ATOM      2  C   UNL     1       0.194 -12.747   6.278  1.00  0.00     0.000 C 
BRANCH   2   3
ATOM      3  C   UNL     1      -0.304 -13.855   7.224  1.00  0.00     0.000 C 
BRANCH   3   4
ATOM      4  C   UNL     1      -1.378 -13.413   8.239  1.00  0.00     0.000 C 
BRANCH   4   5
ATOM      5  C   UNL     1      -1.261 -11.956   8.729  1.00  0.00     0.000 C 
BRANCH   5   6
ATOM      6  C   UNL     1      -2.597 -11.278   9.084  1.00  0.00     0.000 C 
BRANCH   6   7
ATOM      7  C   UNL     1      -2.746  -9.832   8.575  1.00  0.00     0.000 C 
BRANCH   7   8
ATOM      8  C   UNL     1      -3.247  -9.734   7.117  1.00  0.00     0.000 C 
BRANCH   8   9
ATOM      9  C   UNL     1      -2.104  -9.489   6.121  1.00  0.00     0.000 C 
BRANCH   9  10
ATOM     10  C   UNL     1      -1.193  -8.348   6.598  1.00  0.00     0.006 C 
BRANCH  10  11
ATOM     11  C   UNL     1       0.289  -8.744   6.580  1.00  0.00     0.053 C 
BRANCH  11  12
ATOM     12  C   UNL     1       0.796  -9.062   7.954  1.00  0.00     0.041 C 
ATOM     13  O   UNL     1       0.548  -8.288   8.916  1.00  0.00    -0.550 OA
ATOM     14  O   UNL     1       1.568 -10.197   8.165  1.00  0.00    -0.550 OA
ENDBRANCH  11  12
ENDBRANCH  10  11
ENDBRANCH   9  10
ENDBRANCH   8   9
ENDBRANCH   7   8
ENDBRANCH   6   7
ENDBRANCH   5   6
ENDBRANCH   4   5
ENDBRANCH   3   4
ENDBRANCH   2   3
ENDBRANCH   1   2
BRANCH   1  15
ATOM     15  C   UNL     1      -1.101 -13.908   4.370  1.00  0.00     0.000 C 
BRANCH  15  16
ATOM     16  C   UNL     1      -2.632 -14.060   4.387  1.00  0.00     0.000 C 
BRANCH  16  17
ATOM     17  C   UNL     1      -3.335 -12.871   5.063  1.00  0.00     0.000 C 
BRANCH  17  18
ATOM     18  C   UNL     1      -4.752 -13.221   5.550  1.00  0.00    -0.000 C 
BRANCH  18  19
ATOM     19  C   UNL     1      -4.923 -13.007   7.063  1.00  0.00    -0.000 C 
BRANCH  19  20
ATOM     20  C   UNL     1      -6.186 -12.196   7.403  1.00  0.00    -0.000 C 
BRANCH  20  21
ATOM     21  C   UNL     1      -7.423 -12.682   6.631  1.00  0.00    -0.000 C 
BRANCH  21  22
ATOM     22  C   UNL     1      -8.175 -11.533   5.938  1.00  0.00    -0.000 C 
BRANCH  22  23
ATOM     23  C   UNL     1      -9.510 -11.987   5.325  1.00  0.00    -0.000 C 
BRANCH  23  24
ATOM     24  C   UNL     1     -10.452 -10.807   5.028  1.00  0.00    -0.000 C 
BRANCH  24  25
ATOM     25  C   UNL     1      -9.739  -9.449   5.107  1.00  0.00    -0.003 C 
ATOM     26  C   UNL     1     -10.711  -8.278   5.249  1.00  0.00     0.004 C 
ENDBRANCH  24  25
ENDBRANCH  23  24
ENDBRANCH  22  23
ENDBRANCH  21  22
ENDBRANCH  20  21
ENDBRANCH  19  20
ENDBRANCH  18  19
ENDBRANCH  17  18
ENDBRANCH  16  17
ENDBRANCH  15  16
ENDBRANCH   1  15
TORSDOF 22
ENDMDL
MODEL 8
REMARK VINA RESULT:    -4.100     11.722     15.167
REMARK INTER + INTRA:         -11.932
REMARK INTER:                  -7.484
REMARK INTRA:                  -4.447
REMARK UNBOUND:                -2.558
REMARK SMILES CCCCCCCCCCCCCCCCCCCCCCCC(=O)[O-]
REMARK SMILES IDX 13 1 14 2 15 3 16 4 17 5 18 6 19 7 20 8 21 9 22 10 23 11
REMARK SMILES IDX 24 12 25 13 26 14 12 15 11 16 10 17 9 18 8 19 7 20 6 21 5 22
REMARK SMILES IDX 4 23 3 24 2 25 1 26
REMARK H PARENT
REMARK Flexibility Score: inf
ROOT
ATOM      1  C   UNL     1      -9.290  -1.004   4.932  1.00  0.00     0.000 C 
ENDROOT
BRANCH   1   2
ATOM      2  C   UNL     1      -8.973  -0.362   3.568  1.00  0.00     0.000 C 
BRANCH   2   3
ATOM      3  C   UNL     1      -7.745   0.566   3.561  1.00  0.00     0.000 C 
BRANCH   3   4
ATOM      4  C   UNL     1      -7.535   1.383   4.853  1.00  0.00     0.000 C 
BRANCH   4   5
ATOM      5  C   UNL     1      -7.224   2.879   4.643  1.00  0.00     0.000 C 
BRANCH   5   6
ATOM      6  C   UNL     1      -8.273   3.849   5.217  1.00  0.00     0.000 C 
BRANCH   6   7
ATOM      7  C   UNL     1      -8.829   3.459   6.600  1.00  0.00     0.000 C 
BRANCH   7   8
ATOM      8  C   UNL     1      -8.322   4.357   7.749  1.00  0.00     0.000 C 
BRANCH   8   9
ATOM      9  C   UNL     1      -7.485   3.580   8.775  1.00  0.00     0.000 C 
BRANCH   9  10
ATOM     10  C   UNL     1      -6.019   3.480   8.327  1.00  0.00     0.006 C 
BRANCH  10  11
ATOM     11  C   UNL     1      -5.606   2.036   8.013  1.00  0.00     0.053 C 
BRANCH  11  12
ATOM     12  C   UNL     1      -4.258   1.973   7.361  1.00  0.00     0.041 C 
ATOM     13  O   UNL     1      -3.835   0.888   6.884  1.00  0.00    -0.550 OA
ATOM     14  O   UNL     1      -3.458   3.108   7.307  1.00  0.00    -0.550 OA
ENDBRANCH  11  12
ENDBRANCH  10  11
ENDBRANCH   9  10
ENDBRANCH   8   9
ENDBRANCH   7   8
ENDBRANCH   6   7
ENDBRANCH   5   6
ENDBRANCH   4   5
ENDBRANCH   3   4
ENDBRANCH   2   3
ENDBRANCH   1   2
BRANCH   1  15
ATOM     15  C   UNL     1     -10.637  -0.549   5.534  1.00  0.00     0.000 C 
BRANCH  15  16
ATOM     16  C   UNL     1     -11.028   0.871   5.090  1.00  0.00     0.000 C 
BRANCH  16  17
ATOM     17  C   UNL     1     -12.207   1.438   5.898  1.00  0.00     0.000 C 
BRANCH  17  18
ATOM     18  C   UNL     1     -12.994   0.346   6.642  1.00  0.00    -0.000 C 
BRANCH  18  19
ATOM     19  C   UNL     1     -13.695   0.881   7.901  1.00  0.00    -0.000 C 
BRANCH  19  20
ATOM     20  C   UNL     1     -13.678   2.418   7.975  1.00  0.00    -0.000 C 
BRANCH  20  21
ATOM     21  C   UNL     1     -13.048   2.938   9.278  1.00  0.00    -0.000 C 
BRANCH  21  22
ATOM     22  C   UNL     1     -11.528   3.141   9.159  1.00  0.00    -0.000 C 
BRANCH  22  23
ATOM     23  C   UNL     1     -10.750   2.446  10.288  1.00  0.00    -0.000 C 
BRANCH  23  24
ATOM     24  C   UNL     1     -10.596   0.933  10.052  1.00  0.00    -0.000 C 
BRANCH  24  25
ATOM     25  C   UNL     1      -9.913   0.612   8.714  1.00  0.00    -0.003 C 
ATOM     26  C   UNL     1      -8.542  -0.041   8.893  1.00  0.00     0.004 C 
ENDBRANCH  24  25
ENDBRANCH  23  24
ENDBRANCH  22  23
ENDBRANCH  21  22
ENDBRANCH  20  21
ENDBRANCH  19  20
ENDBRANCH  18  19
ENDBRANCH  17  18
ENDBRANCH  16  17
ENDBRANCH  15  16
ENDBRANCH   1  15
TORSDOF 22
ENDMDL
MODEL 9
REMARK VINA RESULT:    -4.037      1.487      2.907
REMARK INTER + INTRA:         -11.788
REMARK INTER:                  -8.952
REMARK INTRA:                  -2.835
REMARK UNBOUND:                -2.558
REMARK SMILES CCCCCCCCCCCCCCCCCCCCCCCC(=O)[O-]
REMARK SMILES IDX 13 1 14 2 15 3 16 4 17 5 18 6 19 7 20 8 21 9 22 10 23 11
REMARK SMILES IDX 24 12 25 13 26 14 12 15 11 16 10 17 9 18 8 19 7 20 6 21 5 22
REMARK SMILES IDX 4 23 3 24 2 25 1 26
REMARK H PARENT
REMARK Flexibility Score: inf
ROOT
ATOM      1  C   UNL     1      -2.945 -12.102   7.775  1.00  0.00     0.000 C 
ENDROOT
BRANCH   1   2
ATOM      2  C   UNL     1      -4.255 -11.380   7.412  1.00  0.00     0.000 C 
BRANCH   2   3
ATOM      3  C   UNL     1      -5.265 -12.232   6.622  1.00  0.00     0.000 C 
BRANCH   3   4
ATOM      4  C   UNL     1      -6.325 -12.953   7.482  1.00  0.00     0.000 C 
BRANCH   4   5
ATOM      5  C   UNL     1      -7.598 -12.133   7.779  1.00  0.00     0.000 C 
BRANCH   5   6
ATOM      6  C   UNL     1      -8.587 -12.018   6.605  1.00  0.00     0.000 C 
BRANCH   6   7
ATOM      7  C   UNL     1      -8.695 -10.612   5.984  1.00  0.00     0.000 C 
BRANCH   7   8
ATOM      8  C   UNL     1      -9.884 -10.452   5.011  1.00  0.00     0.000 C 
BRANCH   8   9
ATOM      9  C   UNL     1      -9.452  -9.905   3.643  1.00  0.00     0.000 C 
BRANCH   9  10
ATOM     10  C   UNL     1      -9.524 -10.998   2.566  1.00  0.00     0.006 C 
BRANCH  10  11
ATOM     11  C   UNL     1     -10.690 -11.968   2.801  1.00  0.00     0.053 C 
BRANCH  11  12
ATOM     12  C   UNL     1     -11.961 -11.469   2.184  1.00  0.00     0.041 C 
ATOM     13  O   UNL     1     -12.248 -11.769   0.995  1.00  0.00    -0.550 OA
ATOM     14  O   UNL     1     -12.812 -10.648   2.912  1.00  0.00    -0.550 OA
ENDBRANCH  11  12
ENDBRANCH  10  11
ENDBRANCH   9  10
ENDBRANCH   8   9
ENDBRANCH   7   8
ENDBRANCH   6   7
ENDBRANCH   5   6
ENDBRANCH   4   5
ENDBRANCH   3   4
ENDBRANCH   2   3
ENDBRANCH   1   2
BRANCH   1  15
ATOM     15  C   UNL     1      -2.281 -12.821   6.580  1.00  0.00     0.000 C 
BRANCH  15  16
ATOM     16  C   UNL     1      -1.780 -11.838   5.509  1.00  0.00     0.000 C 
BRANCH  16  17
ATOM     17  C   UNL     1      -0.248 -11.701   5.505  1.00  0.00     0.000 C 
BRANCH  17  18
ATOM     18  C   UNL     1       0.449 -12.832   6.280  1.00  0.00    -0.000 C 
BRANCH  18  19
ATOM     19  C   UNL     1       1.333 -12.304   7.422  1.00  0.00    -0.000 C 
BRANCH  19  20
ATOM     20  C   UNL     1       0.549 -12.114   8.733  1.00  0.00    -0.000 C 
BRANCH  20  21
ATOM     21  C   UNL     1       0.904 -10.800   9.445  1.00  0.00    -0.000 C 
BRANCH  21  22
ATOM     22  C   UNL     1      -0.011  -9.636   9.028  1.00  0.00    -0.000 C 
BRANCH  22  23
ATOM     23  C   UNL     1       0.597  -8.781   7.904  1.00  0.00    -0.000 C 
BRANCH  23  24
ATOM     24  C   UNL     1      -0.414  -8.475   6.785  1.00  0.00    -0.000 C 
BRANCH  24  25
ATOM     25  C   UNL     1      -1.870  -8.567   7.265  1.00  0.00    -0.003 C 
ATOM     26  C   UNL     1      -2.863  -7.995   6.253  1.00  0.00     0.004 C 
ENDBRANCH  24  25
ENDBRANCH  23  24
ENDBRANCH  22  23
ENDBRANCH  21  22
ENDBRANCH  20  21
ENDBRANCH  19  20
ENDBRANCH  18  19
ENDBRANCH  17  18
ENDBRANCH  16  17
ENDBRANCH  15  16
ENDBRANCH   1  15
TORSDOF 22
ENDMDL
