MODEL 1
REMARK VINA RESULT:    -8.213      0.000      0.000
REMARK INTER + INTRA:          -9.838
REMARK INTER:                  -9.893
REMARK INTRA:                   0.055
REMARK UNBOUND:                 0.055
REMARK SMILES Oc1cc(O)c2cc(O)c(-c3ccc(O)c(O)c3)[o+]c2c1.[Cl-]
REMARK SMILES IDX 10 1 19 2 20 3 21 4 2 5 3 6 4 7 6 8 7 9 8 10 11 11 12 12
REMARK SMILES IDX 13 13 14 14 18 15 16 16 15 17 17 19 9 21 1 23 5 25
REMARK H PARENT 15 18 17 20 9 22 1 24 5 26
REMARK Flexibility Score: inf
ROOT
ATOM      1  C   UNL     1     -48.253  26.478 -16.573  1.00  0.00     0.402 A 
ATOM      2  O   UNL     1     -48.739  25.293 -16.210  1.00  0.00    -0.202 OA
ATOM      3  C   UNL     1     -49.923  25.138 -15.626  1.00  0.00     0.368 A 
ATOM      4  C   UNL     1     -50.345  23.852 -15.278  1.00  0.00     0.162 A 
ATOM      5  C   UNL     1     -51.582  23.659 -14.661  1.00  0.00     0.128 A 
ATOM      6  C   UNL     1     -52.403  24.758 -14.387  1.00  0.00     0.093 A 
ATOM      7  C   UNL     1     -52.002  26.057 -14.725  1.00  0.00     0.136 A 
ATOM      8  C   UNL     1     -50.746  26.257 -15.355  1.00  0.00     0.125 A 
ATOM      9  C   UNL     1     -50.268  27.520 -15.740  1.00  0.00     0.078 A 
ATOM     10  C   UNL     1     -49.022  27.638 -16.363  1.00  0.00     0.223 A 
ENDROOT
BRANCH   1  11
ATOM     11  C   UNL     1     -46.916  26.521 -17.207  1.00  0.00     0.087 A 
ATOM     12  C   UNL     1     -45.990  27.531 -16.893  1.00  0.00     0.022 A 
ATOM     13  C   UNL     1     -44.725  27.538 -17.488  1.00  0.00     0.051 A 
ATOM     14  C   UNL     1     -44.362  26.532 -18.392  1.00  0.00     0.157 A 
ATOM     15  C   UNL     1     -46.540  25.503 -18.099  1.00  0.00     0.068 A 
ATOM     16  C   UNL     1     -45.275  25.508 -18.697  1.00  0.00     0.158 A 
BRANCH  14  17
ATOM     17  O   UNL     1     -43.101  26.543 -18.985  1.00  0.00    -0.504 OA
ATOM     18  H   UNL     1     -42.655  27.408 -19.268  1.00  0.00     0.293 HD
ENDBRANCH  14  17
BRANCH  16  19
ATOM     19  O   UNL     1     -44.943  24.488 -19.587  1.00  0.00    -0.504 OA
ATOM     20  H   UNL     1     -45.645  23.988 -20.119  1.00  0.00     0.293 HD
ENDBRANCH  16  19
ENDBRANCH   1  11
BRANCH  10  21
ATOM     21  O   UNL     1     -48.569  28.885 -16.790  1.00  0.00    -0.500 OA
ATOM     22  H   UNL     1     -49.125  29.475 -17.397  1.00  0.00     0.294 HD
ENDBRANCH  10  21
BRANCH   5  23
ATOM     23  O   UNL     1     -51.986  22.369 -14.323  1.00  0.00    -0.507 OA
ATOM     24  H   UNL     1     -51.379  21.569 -14.467  1.00  0.00     0.293 HD
ENDBRANCH   5  23
BRANCH   7  25
ATOM     25  O   UNL     1     -52.876  27.102 -14.414  1.00  0.00    -0.507 OA
ATOM     26  H   UNL     1     -52.652  28.082 -14.511  1.00  0.00     0.293 HD
ENDBRANCH   7  25
TORSDOF 6
ENDMDL
MODEL 2
REMARK VINA RESULT:    -8.112      1.422      6.748
REMARK INTER + INTRA:          -9.716
REMARK INTER:                  -9.714
REMARK INTRA:                  -0.002
REMARK UNBOUND:                 0.055
REMARK SMILES Oc1cc(O)c2cc(O)c(-c3ccc(O)c(O)c3)[o+]c2c1.[Cl-]
REMARK SMILES IDX 10 1 19 2 20 3 21 4 2 5 3 6 4 7 6 8 7 9 8 10 11 11 12 12
REMARK SMILES IDX 13 13 14 14 18 15 16 16 15 17 17 19 9 21 1 23 5 25
REMARK H PARENT 15 18 17 20 9 22 1 24 5 26
REMARK Flexibility Score: inf
ROOT
ATOM      1  C   UNL     1     -48.415  26.397 -15.802  1.00  0.00     0.402 A 
ATOM      2  O   UNL     1     -47.761  25.907 -16.852  1.00  0.00    -0.202 OA
ATOM      3  C   UNL     1     -46.613  26.408 -17.294  1.00  0.00     0.368 A 
ATOM      4  C   UNL     1     -46.002  25.826 -18.409  1.00  0.00     0.162 A 
ATOM      5  C   UNL     1     -44.797  26.333 -18.897  1.00  0.00     0.128 A 
ATOM      6  C   UNL     1     -44.197  27.431 -18.269  1.00  0.00     0.093 A 
ATOM      7  C   UNL     1     -44.789  28.031 -17.151  1.00  0.00     0.136 A 
ATOM      8  C   UNL     1     -46.013  27.517 -16.650  1.00  0.00     0.125 A 
ATOM      9  C   UNL     1     -46.672  28.047 -15.528  1.00  0.00     0.078 A 
ATOM     10  C   UNL     1     -47.873  27.482 -15.089  1.00  0.00     0.223 A 
ENDROOT
BRANCH   1  11
ATOM     11  C   UNL     1     -49.693  25.757 -15.412  1.00  0.00     0.087 A 
ATOM     12  C   UNL     1     -50.824  26.522 -15.080  1.00  0.00     0.022 A 
ATOM     13  C   UNL     1     -52.025  25.895 -14.738  1.00  0.00     0.051 A 
ATOM     14  C   UNL     1     -52.118  24.499 -14.735  1.00  0.00     0.157 A 
ATOM     15  C   UNL     1     -49.797  24.356 -15.427  1.00  0.00     0.068 A 
ATOM     16  C   UNL     1     -50.998  23.725 -15.084  1.00  0.00     0.158 A 
BRANCH  14  17
ATOM     17  O   UNL     1     -53.318  23.876 -14.391  1.00  0.00    -0.504 OA
ATOM     18  H   UNL     1     -54.175  24.403 -14.275  1.00  0.00     0.293 HD
ENDBRANCH  14  17
BRANCH  16  19
ATOM     19  O   UNL     1     -51.060  22.333 -15.099  1.00  0.00    -0.504 OA
ATOM     20  H   UNL     1     -50.836  21.775 -14.283  1.00  0.00     0.293 HD
ENDBRANCH  16  19
ENDBRANCH   1  11
BRANCH  10  21
ATOM     21  O   UNL     1     -48.501  27.976 -13.947  1.00  0.00    -0.500 OA
ATOM     22  H   UNL     1     -49.507  27.936 -13.833  1.00  0.00     0.294 HD
ENDBRANCH  10  21
BRANCH   5  23
ATOM     23  O   UNL     1     -44.204  25.739 -20.009  1.00  0.00    -0.507 OA
ATOM     24  H   UNL     1     -44.577  24.890 -20.418  1.00  0.00     0.293 HD
ENDBRANCH   5  23
BRANCH   7  25
ATOM     25  O   UNL     1     -44.130  29.125 -16.583  1.00  0.00    -0.507 OA
ATOM     26  H   UNL     1     -43.126  29.228 -16.541  1.00  0.00     0.293 HD
ENDBRANCH   7  25
TORSDOF 6
ENDMDL
MODEL 3
REMARK VINA RESULT:    -8.098      2.107      6.920
REMARK INTER + INTRA:          -9.700
REMARK INTER:                  -9.449
REMARK INTRA:                  -0.251
REMARK UNBOUND:                 0.055
REMARK SMILES Oc1cc(O)c2cc(O)c(-c3ccc(O)c(O)c3)[o+]c2c1.[Cl-]
REMARK SMILES IDX 10 1 19 2 20 3 21 4 2 5 3 6 4 7 6 8 7 9 8 10 11 11 12 12
REMARK SMILES IDX 13 13 14 14 18 15 16 16 15 17 17 19 9 21 1 23 5 25
REMARK H PARENT 15 18 17 20 9 22 1 24 5 26
REMARK Flexibility Score: inf
ROOT
ATOM      1  C   UNL     1     -48.749  26.089 -15.501  1.00  0.00     0.402 A 
ATOM      2  O   UNL     1     -48.078  26.731 -14.548  1.00  0.00    -0.202 OA
ATOM      3  C   UNL     1     -46.873  27.261 -14.734  1.00  0.00     0.368 A 
ATOM      4  C   UNL     1     -46.247  27.914 -13.669  1.00  0.00     0.162 A 
ATOM      5  C   UNL     1     -44.981  28.477 -13.834  1.00  0.00     0.128 A 
ATOM      6  C   UNL     1     -44.334  28.387 -15.072  1.00  0.00     0.093 A 
ATOM      7  C   UNL     1     -44.941  27.737 -16.154  1.00  0.00     0.136 A 
ATOM      8  C   UNL     1     -46.230  27.165 -15.991  1.00  0.00     0.125 A 
ATOM      9  C   UNL     1     -46.919  26.506 -17.022  1.00  0.00     0.078 A 
ATOM     10  C   UNL     1     -48.189  25.974 -16.787  1.00  0.00     0.223 A 
ENDROOT
BRANCH   1  11
ATOM     11  C   UNL     1     -50.080  25.534 -15.167  1.00  0.00     0.087 A 
ATOM     12  C   UNL     1     -51.191  26.369 -14.959  1.00  0.00     0.022 A 
ATOM     13  C   UNL     1     -52.443  25.820 -14.667  1.00  0.00     0.051 A 
ATOM     14  C   UNL     1     -52.606  24.432 -14.592  1.00  0.00     0.157 A 
ATOM     15  C   UNL     1     -50.254  24.141 -15.110  1.00  0.00     0.068 A 
ATOM     16  C   UNL     1     -51.505  23.588 -14.817  1.00  0.00     0.158 A 
BRANCH  14  17
ATOM     17  O   UNL     1     -53.855  23.887 -14.298  1.00  0.00    -0.504 OA
ATOM     18  H   UNL     1     -54.555  24.410 -13.785  1.00  0.00     0.293 HD
ENDBRANCH  14  17
BRANCH  16  19
ATOM     19  O   UNL     1     -51.635  22.201 -14.757  1.00  0.00    -0.504 OA
ATOM     20  H   UNL     1     -51.218  21.653 -14.015  1.00  0.00     0.293 HD
ENDBRANCH  16  19
ENDBRANCH   1  11
BRANCH  10  21
ATOM     21  O   UNL     1     -48.894  25.363 -17.824  1.00  0.00    -0.500 OA
ATOM     22  H   UNL     1     -48.977  24.356 -17.891  1.00  0.00     0.294 HD
ENDBRANCH  10  21
BRANCH   5  23
ATOM     23  O   UNL     1     -44.373  29.125 -12.762  1.00  0.00    -0.507 OA
ATOM     24  H   UNL     1     -43.374  29.059 -12.600  1.00  0.00     0.293 HD
ENDBRANCH   5  23
BRANCH   7  25
ATOM     25  O   UNL     1     -44.228  27.685 -17.356  1.00  0.00    -0.507 OA
ATOM     26  H   UNL     1     -44.642  27.800 -18.270  1.00  0.00     0.293 HD
ENDBRANCH   7  25
TORSDOF 6
ENDMDL
MODEL 4
REMARK VINA RESULT:    -7.818      1.450      6.975
REMARK INTER + INTRA:          -9.363
REMARK INTER:                  -9.353
REMARK INTRA:                  -0.010
REMARK UNBOUND:                 0.055
REMARK SMILES Oc1cc(O)c2cc(O)c(-c3ccc(O)c(O)c3)[o+]c2c1.[Cl-]
REMARK SMILES IDX 10 1 19 2 20 3 21 4 2 5 3 6 4 7 6 8 7 9 8 10 11 11 12 12
REMARK SMILES IDX 13 13 14 14 18 15 16 16 15 17 17 19 9 21 1 23 5 25
REMARK H PARENT 15 18 17 20 9 22 1 24 5 26
REMARK Flexibility Score: inf
ROOT
ATOM      1  C   UNL     1     -48.057  26.327 -15.868  1.00  0.00     0.402 A 
ATOM      2  O   UNL     1     -47.428  25.934 -16.973  1.00  0.00    -0.202 OA
ATOM      3  C   UNL     1     -46.285  26.467 -17.391  1.00  0.00     0.368 A 
ATOM      4  C   UNL     1     -45.702  25.989 -18.568  1.00  0.00     0.162 A 
ATOM      5  C   UNL     1     -44.504  26.532 -19.032  1.00  0.00     0.128 A 
ATOM      6  C   UNL     1     -43.882  27.563 -18.318  1.00  0.00     0.093 A 
ATOM      7  C   UNL     1     -44.447  28.060 -17.136  1.00  0.00     0.136 A 
ATOM      8  C   UNL     1     -45.665  27.508 -16.659  1.00  0.00     0.125 A 
ATOM      9  C   UNL     1     -46.296  27.935 -15.479  1.00  0.00     0.078 A 
ATOM     10  C   UNL     1     -47.492  27.339 -15.070  1.00  0.00     0.223 A 
ENDROOT
BRANCH   1  11
ATOM     11  C   UNL     1     -49.331  25.661 -15.514  1.00  0.00     0.087 A 
ATOM     12  C   UNL     1     -49.435  24.261 -15.459  1.00  0.00     0.022 A 
ATOM     13  C   UNL     1     -50.642  23.655 -15.099  1.00  0.00     0.051 A 
ATOM     14  C   UNL     1     -51.758  24.438 -14.777  1.00  0.00     0.157 A 
ATOM     15  C   UNL     1     -50.447  26.442 -15.170  1.00  0.00     0.068 A 
ATOM     16  C   UNL     1     -51.658  25.839 -14.811  1.00  0.00     0.158 A 
BRANCH  14  17
ATOM     17  O   UNL     1     -52.961  23.831 -14.421  1.00  0.00    -0.504 OA
ATOM     18  H   UNL     1     -53.249  22.946 -14.823  1.00  0.00     0.293 HD
ENDBRANCH  14  17
BRANCH  16  19
ATOM     19  O   UNL     1     -52.747  26.647 -14.488  1.00  0.00    -0.504 OA
ATOM     20  H   UNL     1     -52.871  27.039 -13.563  1.00  0.00     0.293 HD
ENDBRANCH  16  19
ENDBRANCH   1  11
BRANCH  10  21
ATOM     21  O   UNL     1     -48.093  27.727 -13.873  1.00  0.00    -0.500 OA
ATOM     22  H   UNL     1     -47.720  28.483 -13.310  1.00  0.00     0.294 HD
ENDBRANCH  10  21
BRANCH   5  23
ATOM     23  O   UNL     1     -43.938  26.041 -20.206  1.00  0.00    -0.507 OA
ATOM     24  H   UNL     1     -43.647  26.661 -20.954  1.00  0.00     0.293 HD
ENDBRANCH   5  23
BRANCH   7  25
ATOM     25  O   UNL     1     -43.768  29.092 -16.483  1.00  0.00    -0.507 OA
ATOM     26  H   UNL     1     -44.209  29.926 -16.120  1.00  0.00     0.293 HD
ENDBRANCH   7  25
TORSDOF 6
ENDMDL
MODEL 5
REMARK VINA RESULT:    -7.388      1.174      2.710
REMARK INTER + INTRA:          -8.844
REMARK INTER:                  -9.083
REMARK INTRA:                   0.238
REMARK UNBOUND:                 0.055
REMARK SMILES Oc1cc(O)c2cc(O)c(-c3ccc(O)c(O)c3)[o+]c2c1.[Cl-]
REMARK SMILES IDX 10 1 19 2 20 3 21 4 2 5 3 6 4 7 6 8 7 9 8 10 11 11 12 12
REMARK SMILES IDX 13 13 14 14 18 15 16 16 15 17 17 19 9 21 1 23 5 25
REMARK H PARENT 15 18 17 20 9 22 1 24 5 26
REMARK Flexibility Score: inf
ROOT
ATOM      1  C   UNL     1     -48.479  25.896 -16.646  1.00  0.00     0.402 A 
ATOM      2  O   UNL     1     -49.283  26.941 -16.465  1.00  0.00    -0.202 OA
ATOM      3  C   UNL     1     -50.450  26.863 -15.835  1.00  0.00     0.368 A 
ATOM      4  C   UNL     1     -51.227  28.017 -15.697  1.00  0.00     0.162 A 
ATOM      5  C   UNL     1     -52.458  27.964 -15.042  1.00  0.00     0.128 A 
ATOM      6  C   UNL     1     -52.919  26.750 -14.521  1.00  0.00     0.093 A 
ATOM      7  C   UNL     1     -52.159  25.580 -14.646  1.00  0.00     0.136 A 
ATOM      8  C   UNL     1     -50.906  25.630 -15.309  1.00  0.00     0.125 A 
ATOM      9  C   UNL     1     -50.072  24.511 -15.470  1.00  0.00     0.078 A 
ATOM     10  C   UNL     1     -48.847  24.639 -16.130  1.00  0.00     0.223 A 
ENDROOT
BRANCH   1  11
ATOM     11  C   UNL     1     -47.208  26.109 -17.375  1.00  0.00     0.087 A 
ATOM     12  C   UNL     1     -46.503  27.320 -17.278  1.00  0.00     0.022 A 
ATOM     13  C   UNL     1     -45.293  27.490 -17.958  1.00  0.00     0.051 A 
ATOM     14  C   UNL     1     -44.765  26.449 -18.732  1.00  0.00     0.157 A 
ATOM     15  C   UNL     1     -46.664  25.061 -18.136  1.00  0.00     0.068 A 
ATOM     16  C   UNL     1     -45.453  25.228 -18.819  1.00  0.00     0.158 A 
BRANCH  14  17
ATOM     17  O   UNL     1     -43.559  26.622 -19.410  1.00  0.00    -0.504 OA
ATOM     18  H   UNL     1     -43.524  26.698 -20.420  1.00  0.00     0.293 HD
ENDBRANCH  14  17
BRANCH  16  19
ATOM     19  O   UNL     1     -44.951  24.169 -19.574  1.00  0.00    -0.504 OA
ATOM     20  H   UNL     1     -44.843  23.238 -19.191  1.00  0.00     0.293 HD
ENDBRANCH  16  19
ENDBRANCH   1  11
BRANCH  10  21
ATOM     21  O   UNL     1     -47.997  23.540 -16.247  1.00  0.00    -0.500 OA
ATOM     22  H   UNL     1     -48.291  22.608 -15.979  1.00  0.00     0.294 HD
ENDBRANCH  10  21
BRANCH   5  23
ATOM     23  O   UNL     1     -53.217  29.125 -14.915  1.00  0.00    -0.507 OA
ATOM     24  H   UNL     1     -54.106  29.126 -14.427  1.00  0.00     0.293 HD
ENDBRANCH   5  23
BRANCH   7  25
ATOM     25  O   UNL     1     -52.690  24.407 -14.103  1.00  0.00    -0.507 OA
ATOM     26  H   UNL     1     -53.661  24.134 -14.170  1.00  0.00     0.293 HD
ENDBRANCH   7  25
TORSDOF 6
ENDMDL
MODEL 6
REMARK VINA RESULT:    -7.335      0.923      1.625
REMARK INTER + INTRA:          -8.781
REMARK INTER:                  -8.639
REMARK INTRA:                  -0.142
REMARK UNBOUND:                 0.055
REMARK SMILES Oc1cc(O)c2cc(O)c(-c3ccc(O)c(O)c3)[o+]c2c1.[Cl-]
REMARK SMILES IDX 10 1 19 2 20 3 21 4 2 5 3 6 4 7 6 8 7 9 8 10 11 11 12 12
REMARK SMILES IDX 13 13 14 14 18 15 16 16 15 17 17 19 9 21 1 23 5 25
REMARK H PARENT 15 18 17 20 9 22 1 24 5 26
REMARK Flexibility Score: inf
ROOT
ATOM      1  C   UNL     1     -48.588  26.592 -16.255  1.00  0.00     0.402 A 
ATOM      2  O   UNL     1     -49.046  25.394 -15.901  1.00  0.00    -0.202 OA
ATOM      3  C   UNL     1     -50.238  25.202 -15.346  1.00  0.00     0.368 A 
ATOM      4  C   UNL     1     -50.629  23.905 -15.004  1.00  0.00     0.162 A 
ATOM      5  C   UNL     1     -51.874  23.675 -14.418  1.00  0.00     0.128 A 
ATOM      6  C   UNL     1     -52.737  24.748 -14.170  1.00  0.00     0.093 A 
ATOM      7  C   UNL     1     -52.368  26.058 -14.503  1.00  0.00     0.136 A 
ATOM      8  C   UNL     1     -51.103  26.296 -15.102  1.00  0.00     0.125 A 
ATOM      9  C   UNL     1     -50.656  27.572 -15.480  1.00  0.00     0.078 A 
ATOM     10  C   UNL     1     -49.399  27.728 -16.070  1.00  0.00     0.223 A 
ENDROOT
BRANCH   1  11
ATOM     11  C   UNL     1     -47.237  26.676 -16.855  1.00  0.00     0.087 A 
ATOM     12  C   UNL     1     -46.929  26.021 -18.060  1.00  0.00     0.022 A 
ATOM     13  C   UNL     1     -45.652  26.134 -18.618  1.00  0.00     0.051 A 
ATOM     14  C   UNL     1     -44.671  26.911 -17.990  1.00  0.00     0.157 A 
ATOM     15  C   UNL     1     -46.256  27.470 -16.239  1.00  0.00     0.068 A 
ATOM     16  C   UNL     1     -44.976  27.584 -16.795  1.00  0.00     0.158 A 
BRANCH  14  17
ATOM     17  O   UNL     1     -43.398  27.020 -18.548  1.00  0.00    -0.504 OA
ATOM     18  H   UNL     1     -42.571  27.106 -17.970  1.00  0.00     0.293 HD
ENDBRANCH  14  17
BRANCH  16  19
ATOM     19  O   UNL     1     -44.025  28.372 -16.148  1.00  0.00    -0.504 OA
ATOM     20  H   UNL     1     -43.807  29.313 -16.454  1.00  0.00     0.293 HD
ENDBRANCH  16  19
ENDBRANCH   1  11
BRANCH  10  21
ATOM     21  O   UNL     1     -48.974  28.987 -16.491  1.00  0.00    -0.500 OA
ATOM     22  H   UNL     1     -48.370  29.565 -15.918  1.00  0.00     0.294 HD
ENDBRANCH  10  21
BRANCH   5  23
ATOM     23  O   UNL     1     -52.245  22.374 -14.085  1.00  0.00    -0.507 OA
ATOM     24  H   UNL     1     -53.199  22.144 -13.830  1.00  0.00     0.293 HD
ENDBRANCH   5  23
BRANCH   7  25
ATOM     25  O   UNL     1     -53.283  27.076 -14.219  1.00  0.00    -0.507 OA
ATOM     26  H   UNL     1     -53.708  27.672 -14.915  1.00  0.00     0.293 HD
ENDBRANCH   7  25
TORSDOF 6
ENDMDL
MODEL 7
REMARK VINA RESULT:    -7.322      1.824      3.419
REMARK INTER + INTRA:          -8.765
REMARK INTER:                  -8.939
REMARK INTRA:                   0.174
REMARK UNBOUND:                 0.055
REMARK SMILES Oc1cc(O)c2cc(O)c(-c3ccc(O)c(O)c3)[o+]c2c1.[Cl-]
REMARK SMILES IDX 10 1 19 2 20 3 21 4 2 5 3 6 4 7 6 8 7 9 8 10 11 11 12 12
REMARK SMILES IDX 13 13 14 14 18 15 16 16 15 17 17 19 9 21 1 23 5 25
REMARK H PARENT 15 18 17 20 9 22 1 24 5 26
REMARK Flexibility Score: inf
ROOT
ATOM      1  C   UNL     1     -46.445  26.874 -17.576  1.00  0.00     0.402 A 
ATOM      2  O   UNL     1     -47.079  27.737 -16.785  1.00  0.00    -0.202 OA
ATOM      3  C   UNL     1     -48.201  27.444 -16.136  1.00  0.00     0.368 A 
ATOM      4  C   UNL     1     -48.795  28.419 -15.330  1.00  0.00     0.162 A 
ATOM      5  C   UNL     1     -49.974  28.140 -14.639  1.00  0.00     0.128 A 
ATOM      6  C   UNL     1     -50.567  26.877 -14.754  1.00  0.00     0.093 A 
ATOM      7  C   UNL     1     -49.992  25.883 -15.555  1.00  0.00     0.136 A 
ATOM      8  C   UNL     1     -48.790  26.163 -16.257  1.00  0.00     0.125 A 
ATOM      9  C   UNL     1     -48.137  25.224 -17.073  1.00  0.00     0.078 A 
ATOM     10  C   UNL     1     -46.952  25.570 -17.729  1.00  0.00     0.223 A 
ENDROOT
BRANCH   1  11
ATOM     11  C   UNL     1     -45.208  27.325 -18.254  1.00  0.00     0.087 A 
ATOM     12  C   UNL     1     -44.284  28.164 -17.609  1.00  0.00     0.022 A 
ATOM     13  C   UNL     1     -43.112  28.557 -18.261  1.00  0.00     0.051 A 
ATOM     14  C   UNL     1     -42.840  28.109 -19.559  1.00  0.00     0.157 A 
ATOM     15  C   UNL     1     -44.921  26.861 -19.548  1.00  0.00     0.068 A 
ATOM     16  C   UNL     1     -43.749  27.253 -20.205  1.00  0.00     0.158 A 
BRANCH  14  17
ATOM     17  O   UNL     1     -41.671  28.504 -20.208  1.00  0.00    -0.504 OA
ATOM     18  H   UNL     1     -40.845  27.918 -20.216  1.00  0.00     0.293 HD
ENDBRANCH  14  17
BRANCH  16  19
ATOM     19  O   UNL     1     -43.505  26.782 -21.494  1.00  0.00    -0.504 OA
ATOM     20  H   UNL     1     -43.892  25.908 -21.830  1.00  0.00     0.293 HD
ENDBRANCH  16  19
ENDBRANCH   1  11
BRANCH  10  21
ATOM     21  O   UNL     1     -46.277  24.624 -18.499  1.00  0.00    -0.500 OA
ATOM     22  H   UNL     1     -45.434  24.857 -19.011  1.00  0.00     0.294 HD
ENDBRANCH  10  21
BRANCH   5  23
ATOM     23  O   UNL     1     -50.550  29.125 -13.841  1.00  0.00    -0.507 OA
ATOM     24  H   UNL     1     -50.004  29.897 -13.474  1.00  0.00     0.293 HD
ENDBRANCH   5  23
BRANCH   7  25
ATOM     25  O   UNL     1     -50.646  24.650 -15.620  1.00  0.00    -0.507 OA
ATOM     26  H   UNL     1     -50.851  24.157 -16.478  1.00  0.00     0.293 HD
ENDBRANCH   7  25
TORSDOF 6
ENDMDL
MODEL 8
REMARK VINA RESULT:    -7.155      1.585      3.106
REMARK INTER + INTRA:          -8.564
REMARK INTER:                  -8.236
REMARK INTRA:                  -0.328
REMARK UNBOUND:                 0.055
REMARK SMILES Oc1cc(O)c2cc(O)c(-c3ccc(O)c(O)c3)[o+]c2c1.[Cl-]
REMARK SMILES IDX 10 1 19 2 20 3 21 4 2 5 3 6 4 7 6 8 7 9 8 10 11 11 12 12
REMARK SMILES IDX 13 13 14 14 18 15 16 16 15 17 17 19 9 21 1 23 5 25
REMARK H PARENT 15 18 17 20 9 22 1 24 5 26
REMARK Flexibility Score: inf
ROOT
ATOM      1  C   UNL     1     -48.689  25.999 -16.055  1.00  0.00     0.402 A 
ATOM      2  O   UNL     1     -49.590  26.876 -15.620  1.00  0.00    -0.202 OA
ATOM      3  C   UNL     1     -50.771  26.524 -15.122  1.00  0.00     0.368 A 
ATOM      4  C   UNL     1     -51.652  27.521 -14.694  1.00  0.00     0.162 A 
ATOM      5  C   UNL     1     -52.900  27.181 -14.170  1.00  0.00     0.128 A 
ATOM      6  C   UNL     1     -53.271  25.835 -14.072  1.00  0.00     0.093 A 
ATOM      7  C   UNL     1     -52.406  24.818 -14.494  1.00  0.00     0.136 A 
ATOM      8  C   UNL     1     -51.135  25.160 -15.026  1.00  0.00     0.125 A 
ATOM      9  C   UNL     1     -50.199  24.208 -15.461  1.00  0.00     0.078 A 
ATOM     10  C   UNL     1     -48.964  24.621 -15.969  1.00  0.00     0.223 A 
ENDROOT
BRANCH   1  11
ATOM     11  C   UNL     1     -47.413  26.517 -16.599  1.00  0.00     0.087 A 
ATOM     12  C   UNL     1     -47.177  26.573 -17.983  1.00  0.00     0.022 A 
ATOM     13  C   UNL     1     -45.973  27.088 -18.473  1.00  0.00     0.051 A 
ATOM     14  C   UNL     1     -44.995  27.564 -17.591  1.00  0.00     0.157 A 
ATOM     15  C   UNL     1     -46.438  27.014 -15.719  1.00  0.00     0.068 A 
ATOM     16  C   UNL     1     -45.231  27.529 -16.206  1.00  0.00     0.158 A 
BRANCH  14  17
ATOM     17  O   UNL     1     -43.795  28.074 -18.083  1.00  0.00    -0.504 OA
ATOM     18  H   UNL     1     -43.127  28.536 -17.478  1.00  0.00     0.293 HD
ENDBRANCH  14  17
BRANCH  16  19
ATOM     19  O   UNL     1     -44.282  28.002 -15.301  1.00  0.00    -0.504 OA
ATOM     20  H   UNL     1     -43.329  28.203 -15.577  1.00  0.00     0.293 HD
ENDBRANCH  16  19
ENDBRANCH   1  11
BRANCH  10  21
ATOM     21  O   UNL     1     -48.015  23.676 -16.355  1.00  0.00    -0.500 OA
ATOM     22  H   UNL     1     -47.864  23.439 -17.329  1.00  0.00     0.294 HD
ENDBRANCH  10  21
BRANCH   5  23
ATOM     23  O   UNL     1     -53.764  28.188 -13.748  1.00  0.00    -0.507 OA
ATOM     24  H   UNL     1     -54.769  28.053 -13.734  1.00  0.00     0.293 HD
ENDBRANCH   5  23
BRANCH   7  25
ATOM     25  O   UNL     1     -52.852  23.500 -14.367  1.00  0.00    -0.507 OA
ATOM     26  H   UNL     1     -53.791  23.192 -14.575  1.00  0.00     0.293 HD
ENDBRANCH   7  25
TORSDOF 6
ENDMDL
MODEL 9
REMARK VINA RESULT:    -6.962      2.707      3.499
REMARK INTER + INTRA:          -8.332
REMARK INTER:                  -8.250
REMARK INTRA:                  -0.081
REMARK UNBOUND:                 0.055
REMARK SMILES Oc1cc(O)c2cc(O)c(-c3ccc(O)c(O)c3)[o+]c2c1.[Cl-]
REMARK SMILES IDX 10 1 19 2 20 3 21 4 2 5 3 6 4 7 6 8 7 9 8 10 11 11 12 12
REMARK SMILES IDX 13 13 14 14 18 15 16 16 15 17 17 19 9 21 1 23 5 25
REMARK H PARENT 15 18 17 20 9 22 1 24 5 26
REMARK Flexibility Score: inf
ROOT
ATOM      1  C   UNL     1     -46.292  28.044 -16.079  1.00  0.00     0.402 A 
ATOM      2  O   UNL     1     -47.586  28.057 -16.390  1.00  0.00    -0.202 OA
ATOM      3  C   UNL     1     -48.547  28.295 -15.504  1.00  0.00     0.368 A 
ATOM      4  C   UNL     1     -49.879  28.283 -15.926  1.00  0.00     0.162 A 
ATOM      5  C   UNL     1     -50.909  28.526 -15.017  1.00  0.00     0.128 A 
ATOM      6  C   UNL     1     -50.608  28.783 -13.675  1.00  0.00     0.093 A 
ATOM      7  C   UNL     1     -49.281  28.800 -13.227  1.00  0.00     0.136 A 
ATOM      8  C   UNL     1     -48.231  28.555 -14.149  1.00  0.00     0.125 A 
ATOM      9  C   UNL     1     -46.872  28.565 -13.792  1.00  0.00     0.078 A 
ATOM     10  C   UNL     1     -45.892  28.321 -14.758  1.00  0.00     0.223 A 
ENDROOT
BRANCH   1  11
ATOM     11  C   UNL     1     -45.316  27.755 -17.155  1.00  0.00     0.087 A 
ATOM     12  C   UNL     1     -44.259  28.636 -17.440  1.00  0.00     0.022 A 
ATOM     13  C   UNL     1     -43.337  28.330 -18.445  1.00  0.00     0.051 A 
ATOM     14  C   UNL     1     -43.450  27.138 -19.171  1.00  0.00     0.157 A 
ATOM     15  C   UNL     1     -45.414  26.551 -17.872  1.00  0.00     0.068 A 
ATOM     16  C   UNL     1     -44.493  26.243 -18.880  1.00  0.00     0.158 A 
BRANCH  14  17
ATOM     17  O   UNL     1     -42.530  26.837 -20.174  1.00  0.00    -0.504 OA
ATOM     18  H   UNL     1     -41.556  27.105 -20.098  1.00  0.00     0.293 HD
ENDBRANCH  14  17
BRANCH  16  19
ATOM     19  O   UNL     1     -44.630  25.044 -19.577  1.00  0.00    -0.504 OA
ATOM     20  H   UNL     1     -44.910  24.184 -19.121  1.00  0.00     0.293 HD
ENDBRANCH  16  19
ENDBRANCH   1  11
BRANCH  10  21
ATOM     21  O   UNL     1     -44.542  28.379 -14.416  1.00  0.00    -0.500 OA
ATOM     22  H   UNL     1     -44.102  27.656 -13.858  1.00  0.00     0.294 HD
ENDBRANCH  10  21
BRANCH   5  23
ATOM     23  O   UNL     1     -52.230  28.511 -15.458  1.00  0.00    -0.507 OA
ATOM     24  H   UNL     1     -52.492  28.886 -16.363  1.00  0.00     0.293 HD
ENDBRANCH   5  23
BRANCH   7  25
ATOM     25  O   UNL     1     -49.063  29.060 -11.871  1.00  0.00    -0.507 OA
ATOM     26  H   UNL     1     -49.379  28.466 -11.118  1.00  0.00     0.293 HD
ENDBRANCH   7  25
TORSDOF 6
ENDMDL
