MODEL 1
REMARK VINA RESULT:    -5.713      0.000      0.000
REMARK INTER + INTRA:         -17.558
REMARK INTER:                 -14.396
REMARK INTRA:                  -3.162
REMARK UNBOUND:                -3.162
REMARK SMILES CCCCCCCCCCCCCCCCCCCCCCCCCCCC(=O)[O-]
REMARK SMILES IDX 15 1 16 2 17 3 18 4 19 5 20 6 21 7 22 8 23 9 24 10 25 11
REMARK SMILES IDX 26 12 27 13 28 14 29 15 30 16 14 17 13 18 12 19 11 20 10 21
REMARK SMILES IDX 9 22 8 23 7 24 6 25 5 26 4 27 3 28 2 29 1 30
REMARK H PARENT
REMARK Flexibility Score: inf
ROOT
ATOM      1  C   UNL     1      17.642 -43.145 -24.584  1.00  0.00     0.000 C 
ENDROOT
BRANCH   1   2
ATOM      2  C   UNL     1      19.010 -43.141 -25.284  1.00  0.00     0.000 C 
BRANCH   2   3
ATOM      3  C   UNL     1      19.304 -44.460 -26.013  1.00  0.00     0.000 C 
BRANCH   3   4
ATOM      4  C   UNL     1      18.011 -45.223 -26.322  1.00  0.00     0.000 C 
BRANCH   4   5
ATOM      5  C   UNL     1      17.767 -45.295 -27.837  1.00  0.00     0.000 C 
BRANCH   5   6
ATOM      6  C   UNL     1      17.741 -46.737 -28.367  1.00  0.00     0.000 C 
BRANCH   6   7
ATOM      7  C   UNL     1      17.578 -46.802 -29.897  1.00  0.00     0.000 C 
BRANCH   7   8
ATOM      8  C   UNL     1      18.918 -46.964 -30.631  1.00  0.00     0.000 C 
BRANCH   8   9
ATOM      9  C   UNL     1      19.016 -48.294 -31.396  1.00  0.00     0.000 C 
BRANCH   9  10
ATOM     10  C   UNL     1      19.822 -48.161 -32.699  1.00  0.00     0.000 C 
BRANCH  10  11
ATOM     11  C   UNL     1      20.340 -49.512 -33.214  1.00  0.00     0.000 C 
BRANCH  11  12
ATOM     12  C   UNL     1      20.029 -50.637 -32.221  1.00  0.00     0.006 C 
BRANCH  12  13
ATOM     13  C   UNL     1      21.032 -51.786 -32.358  1.00  0.00     0.053 C 
BRANCH  13  14
ATOM     14  C   UNL     1      20.516 -52.830 -33.297  1.00  0.00     0.041 C 
ATOM     15  O   UNL     1      21.258 -53.290 -34.205  1.00  0.00    -0.550 OA
ATOM     16  O   UNL     1      19.201 -53.269 -33.195  1.00  0.00    -0.550 OA
ENDBRANCH  13  14
ENDBRANCH  12  13
ENDBRANCH  11  12
ENDBRANCH  10  11
ENDBRANCH   9  10
ENDBRANCH   8   9
ENDBRANCH   7   8
ENDBRANCH   6   7
ENDBRANCH   5   6
ENDBRANCH   4   5
ENDBRANCH   3   4
ENDBRANCH   2   3
ENDBRANCH   1   2
BRANCH   1  17
ATOM     17  C   UNL     1      17.237 -41.752 -24.071  1.00  0.00     0.000 C 
BRANCH  17  18
ATOM     18  C   UNL     1      15.745 -41.663 -23.702  1.00  0.00     0.000 C 
BRANCH  18  19
ATOM     19  C   UNL     1      15.399 -42.101 -22.262  1.00  0.00     0.000 C 
BRANCH  19  20
ATOM     20  C   UNL     1      16.331 -41.554 -21.166  1.00  0.00     0.000 C 
BRANCH  20  21
ATOM     21  C   UNL     1      17.351 -42.594 -20.672  1.00  0.00     0.000 C 
BRANCH  21  22
ATOM     22  C   UNL     1      18.770 -42.015 -20.551  1.00  0.00    -0.000 C 
BRANCH  22  23
ATOM     23  C   UNL     1      19.773 -42.698 -21.499  1.00  0.00    -0.000 C 
BRANCH  23  24
ATOM     24  C   UNL     1      19.447 -44.182 -21.732  1.00  0.00    -0.000 C 
BRANCH  24  25
ATOM     25  C   UNL     1      20.684 -45.087 -21.631  1.00  0.00    -0.000 C 
BRANCH  25  26
ATOM     26  C   UNL     1      20.504 -46.352 -22.483  1.00  0.00    -0.000 C 
BRANCH  26  27
ATOM     27  C   UNL     1      19.077 -46.499 -23.034  1.00  0.00    -0.000 C 
BRANCH  27  28
ATOM     28  C   UNL     1      18.226 -47.474 -22.208  1.00  0.00    -0.000 C 
BRANCH  28  29
ATOM     29  C   UNL     1      16.884 -46.840 -21.824  1.00  0.00    -0.003 C 
ATOM     30  C   UNL     1      16.404 -45.869 -22.899  1.00  0.00     0.004 C 
ENDBRANCH  28  29
ENDBRANCH  27  28
ENDBRANCH  26  27
ENDBRANCH  25  26
ENDBRANCH  24  25
ENDBRANCH  23  24
ENDBRANCH  22  23
ENDBRANCH  21  22
ENDBRANCH  20  21
ENDBRANCH  19  20
ENDBRANCH  18  19
ENDBRANCH  17  18
ENDBRANCH   1  17
TORSDOF 26
ENDMDL
MODEL 2
REMARK VINA RESULT:    -5.669      1.311      2.883
REMARK INTER + INTRA:         -17.447
REMARK INTER:                 -14.230
REMARK INTRA:                  -3.216
REMARK UNBOUND:                -3.162
REMARK SMILES CCCCCCCCCCCCCCCCCCCCCCCCCCCC(=O)[O-]
REMARK SMILES IDX 15 1 16 2 17 3 18 4 19 5 20 6 21 7 22 8 23 9 24 10 25 11
REMARK SMILES IDX 26 12 27 13 28 14 29 15 30 16 14 17 13 18 12 19 11 20 10 21
REMARK SMILES IDX 9 22 8 23 7 24 6 25 5 26 4 27 3 28 2 29 1 30
REMARK H PARENT
REMARK Flexibility Score: inf
ROOT
ATOM      1  C   UNL     1      20.507 -42.075 -23.028  1.00  0.00     0.000 C 
ENDROOT
BRANCH   1   2
ATOM      2  C   UNL     1      19.642 -41.973 -24.295  1.00  0.00     0.000 C 
BRANCH   2   3
ATOM      3  C   UNL     1      20.173 -42.842 -25.444  1.00  0.00     0.000 C 
BRANCH   3   4
ATOM      4  C   UNL     1      19.606 -44.265 -25.369  1.00  0.00     0.000 C 
BRANCH   4   5
ATOM      5  C   UNL     1      18.216 -44.334 -26.021  1.00  0.00     0.000 C 
BRANCH   5   6
ATOM      6  C   UNL     1      18.001 -45.625 -26.826  1.00  0.00     0.000 C 
BRANCH   6   7
ATOM      7  C   UNL     1      17.381 -45.362 -28.211  1.00  0.00     0.000 C 
BRANCH   7   8
ATOM      8  C   UNL     1      18.078 -46.148 -29.332  1.00  0.00     0.000 C 
BRANCH   8   9
ATOM      9  C   UNL     1      17.294 -47.403 -29.751  1.00  0.00     0.000 C 
BRANCH   9  10
ATOM     10  C   UNL     1      18.118 -48.332 -30.658  1.00  0.00     0.000 C 
BRANCH  10  11
ATOM     11  C   UNL     1      19.128 -47.568 -31.526  1.00  0.00     0.000 C 
BRANCH  11  12
ATOM     12  C   UNL     1      19.900 -48.524 -32.443  1.00  0.00     0.006 C 
BRANCH  12  13
ATOM     13  C   UNL     1      19.577 -49.984 -32.114  1.00  0.00     0.053 C 
BRANCH  13  14
ATOM     14  C   UNL     1      20.565 -50.904 -32.760  1.00  0.00     0.041 C 
ATOM     15  O   UNL     1      20.957 -50.688 -33.937  1.00  0.00    -0.550 OA
ATOM     16  O   UNL     1      21.025 -52.023 -32.076  1.00  0.00    -0.550 OA
ENDBRANCH  13  14
ENDBRANCH  12  13
ENDBRANCH  11  12
ENDBRANCH  10  11
ENDBRANCH   9  10
ENDBRANCH   8   9
ENDBRANCH   7   8
ENDBRANCH   6   7
ENDBRANCH   5   6
ENDBRANCH   4   5
ENDBRANCH   3   4
ENDBRANCH   2   3
ENDBRANCH   1   2
BRANCH   1  17
ATOM     17  C   UNL     1      19.682 -42.411 -21.774  1.00  0.00     0.000 C 
BRANCH  17  18
ATOM     18  C   UNL     1      19.181 -41.158 -21.034  1.00  0.00     0.000 C 
BRANCH  18  19
ATOM     19  C   UNL     1      17.973 -41.389 -20.100  1.00  0.00     0.000 C 
BRANCH  19  20
ATOM     20  C   UNL     1      16.892 -42.340 -20.643  1.00  0.00     0.000 C 
BRANCH  20  21
ATOM     21  C   UNL     1      15.720 -41.598 -21.307  1.00  0.00     0.000 C 
BRANCH  21  22
ATOM     22  C   UNL     1      15.437 -42.103 -22.732  1.00  0.00    -0.000 C 
BRANCH  22  23
ATOM     23  C   UNL     1      16.417 -43.202 -23.179  1.00  0.00    -0.000 C 
BRANCH  23  24
ATOM     24  C   UNL     1      15.759 -44.590 -23.240  1.00  0.00    -0.000 C 
BRANCH  24  25
ATOM     25  C   UNL     1      16.760 -45.735 -23.030  1.00  0.00    -0.000 C 
BRANCH  25  26
ATOM     26  C   UNL     1      17.518 -45.560 -21.705  1.00  0.00    -0.000 C 
BRANCH  26  27
ATOM     27  C   UNL     1      19.008 -45.918 -21.823  1.00  0.00    -0.000 C 
BRANCH  27  28
ATOM     28  C   UNL     1      19.234 -47.286 -22.482  1.00  0.00    -0.000 C 
BRANCH  28  29
ATOM     29  C   UNL     1      19.201 -48.408 -21.438  1.00  0.00    -0.003 C 
ATOM     30  C   UNL     1      20.541 -48.534 -20.719  1.00  0.00     0.004 C 
ENDBRANCH  28  29
ENDBRANCH  27  28
ENDBRANCH  26  27
ENDBRANCH  25  26
ENDBRANCH  24  25
ENDBRANCH  23  24
ENDBRANCH  22  23
ENDBRANCH  21  22
ENDBRANCH  20  21
ENDBRANCH  19  20
ENDBRANCH  18  19
ENDBRANCH  17  18
ENDBRANCH   1  17
TORSDOF 26
ENDMDL
MODEL 3
REMARK VINA RESULT:    -5.663      1.471      2.631
REMARK INTER + INTRA:         -17.434
REMARK INTER:                 -14.693
REMARK INTRA:                  -2.741
REMARK UNBOUND:                -3.162
REMARK SMILES CCCCCCCCCCCCCCCCCCCCCCCCCCCC(=O)[O-]
REMARK SMILES IDX 15 1 16 2 17 3 18 4 19 5 20 6 21 7 22 8 23 9 24 10 25 11
REMARK SMILES IDX 26 12 27 13 28 14 29 15 30 16 14 17 13 18 12 19 11 20 10 21
REMARK SMILES IDX 9 22 8 23 7 24 6 25 5 26 4 27 3 28 2 29 1 30
REMARK H PARENT
REMARK Flexibility Score: inf
ROOT
ATOM      1  C   UNL     1      19.525 -43.782 -25.706  1.00  0.00     0.000 C 
ENDROOT
BRANCH   1   2
ATOM      2  C   UNL     1      18.310 -44.661 -25.371  1.00  0.00     0.000 C 
BRANCH   2   3
ATOM      3  C   UNL     1      18.027 -45.714 -26.453  1.00  0.00     0.000 C 
BRANCH   3   4
ATOM      4  C   UNL     1      17.443 -45.069 -27.715  1.00  0.00     0.000 C 
BRANCH   4   5
ATOM      5  C   UNL     1      17.929 -45.799 -28.977  1.00  0.00     0.000 C 
BRANCH   5   6
ATOM      6  C   UNL     1      17.667 -47.312 -28.925  1.00  0.00     0.000 C 
BRANCH   6   7
ATOM      7  C   UNL     1      17.781 -47.980 -30.308  1.00  0.00     0.000 C 
BRANCH   7   8
ATOM      8  C   UNL     1      18.472 -47.082 -31.346  1.00  0.00     0.000 C 
BRANCH   8   9
ATOM      9  C   UNL     1      19.551 -47.829 -32.149  1.00  0.00     0.000 C 
BRANCH   9  10
ATOM     10  C   UNL     1      19.680 -49.302 -31.727  1.00  0.00     0.000 C 
BRANCH  10  11
ATOM     11  C   UNL     1      20.029 -50.225 -32.903  1.00  0.00     0.000 C 
BRANCH  11  12
ATOM     12  C   UNL     1      20.694 -51.516 -32.411  1.00  0.00     0.006 C 
BRANCH  12  13
ATOM     13  C   UNL     1      21.209 -52.353 -33.586  1.00  0.00     0.053 C 
BRANCH  13  14
ATOM     14  C   UNL     1      20.624 -53.729 -33.553  1.00  0.00     0.041 C 
ATOM     15  O   UNL     1      21.370 -54.739 -33.655  1.00  0.00    -0.550 OA
ATOM     16  O   UNL     1      19.248 -53.898 -33.446  1.00  0.00    -0.550 OA
ENDBRANCH  13  14
ENDBRANCH  12  13
ENDBRANCH  11  12
ENDBRANCH  10  11
ENDBRANCH   9  10
ENDBRANCH   8   9
ENDBRANCH   7   8
ENDBRANCH   6   7
ENDBRANCH   5   6
ENDBRANCH   4   5
ENDBRANCH   3   4
ENDBRANCH   2   3
ENDBRANCH   1   2
BRANCH   1  17
ATOM     17  C   UNL     1      20.825 -44.305 -25.070  1.00  0.00     0.000 C 
BRANCH  17  18
ATOM     18  C   UNL     1      21.559 -43.234 -24.243  1.00  0.00     0.000 C 
BRANCH  18  19
ATOM     19  C   UNL     1      20.657 -42.122 -23.664  1.00  0.00     0.000 C 
BRANCH  19  20
ATOM     20  C   UNL     1      20.796 -41.883 -22.150  1.00  0.00     0.000 C 
BRANCH  20  21
ATOM     21  C   UNL     1      19.470 -42.065 -21.390  1.00  0.00     0.000 C 
BRANCH  21  22
ATOM     22  C   UNL     1      18.441 -42.881 -22.192  1.00  0.00    -0.000 C 
BRANCH  22  23
ATOM     23  C   UNL     1      18.268 -44.312 -21.654  1.00  0.00    -0.000 C 
BRANCH  23  24
ATOM     24  C   UNL     1      19.545 -45.157 -21.803  1.00  0.00    -0.000 C 
BRANCH  24  25
ATOM     25  C   UNL     1      19.255 -46.660 -21.921  1.00  0.00    -0.000 C 
BRANCH  25  26
ATOM     26  C   UNL     1      17.888 -46.902 -22.578  1.00  0.00    -0.000 C 
BRANCH  26  27
ATOM     27  C   UNL     1      17.006 -47.870 -21.773  1.00  0.00    -0.000 C 
BRANCH  27  28
ATOM     28  C   UNL     1      15.509 -47.571 -21.931  1.00  0.00    -0.000 C 
BRANCH  28  29
ATOM     29  C   UNL     1      14.666 -48.540 -21.093  1.00  0.00    -0.003 C 
ATOM     30  C   UNL     1      15.497 -49.730 -20.622  1.00  0.00     0.004 C 
ENDBRANCH  28  29
ENDBRANCH  27  28
ENDBRANCH  26  27
ENDBRANCH  25  26
ENDBRANCH  24  25
ENDBRANCH  23  24
ENDBRANCH  22  23
ENDBRANCH  21  22
ENDBRANCH  20  21
ENDBRANCH  19  20
ENDBRANCH  18  19
ENDBRANCH  17  18
ENDBRANCH   1  17
TORSDOF 26
ENDMDL
MODEL 4
REMARK VINA RESULT:    -5.617      3.591     10.549
REMARK INTER + INTRA:         -17.316
REMARK INTER:                 -14.671
REMARK INTRA:                  -2.645
REMARK UNBOUND:                -3.162
REMARK SMILES CCCCCCCCCCCCCCCCCCCCCCCCCCCC(=O)[O-]
REMARK SMILES IDX 15 1 16 2 17 3 18 4 19 5 20 6 21 7 22 8 23 9 24 10 25 11
REMARK SMILES IDX 26 12 27 13 28 14 29 15 30 16 14 17 13 18 12 19 11 20 10 21
REMARK SMILES IDX 9 22 8 23 7 24 6 25 5 26 4 27 3 28 2 29 1 30
REMARK H PARENT
REMARK Flexibility Score: inf
ROOT
ATOM      1  C   UNL     1      19.028 -44.863 -26.097  1.00  0.00     0.000 C 
ENDROOT
BRANCH   1   2
ATOM      2  C   UNL     1      18.441 -43.700 -25.282  1.00  0.00     0.000 C 
BRANCH   2   3
ATOM      3  C   UNL     1      19.455 -42.570 -25.051  1.00  0.00     0.000 C 
BRANCH   3   4
ATOM      4  C   UNL     1      18.751 -41.266 -24.660  1.00  0.00     0.000 C 
BRANCH   4   5
ATOM      5  C   UNL     1      17.346 -41.549 -24.106  1.00  0.00     0.000 C 
BRANCH   5   6
ATOM      6  C   UNL     1      17.223 -41.231 -22.607  1.00  0.00     0.000 C 
BRANCH   6   7
ATOM      7  C   UNL     1      16.430 -42.304 -21.838  1.00  0.00     0.000 C 
BRANCH   7   8
ATOM      8  C   UNL     1      17.339 -43.285 -21.081  1.00  0.00     0.000 C 
BRANCH   8   9
ATOM      9  C   UNL     1      18.821 -42.876 -21.128  1.00  0.00     0.000 C 
BRANCH   9  10
ATOM     10  C   UNL     1      19.701 -43.940 -21.803  1.00  0.00     0.000 C 
BRANCH  10  11
ATOM     11  C   UNL     1      19.164 -45.364 -21.606  1.00  0.00     0.000 C 
BRANCH  11  12
ATOM     12  C   UNL     1      19.515 -46.256 -22.803  1.00  0.00     0.006 C 
BRANCH  12  13
ATOM     13  C   UNL     1      18.344 -47.173 -23.169  1.00  0.00     0.053 C 
BRANCH  13  14
ATOM     14  C   UNL     1      17.047 -46.583 -22.713  1.00  0.00     0.041 C 
ATOM     15  O   UNL     1      16.529 -45.624 -23.344  1.00  0.00    -0.550 OA
ATOM     16  O   UNL     1      16.427 -47.067 -21.567  1.00  0.00    -0.550 OA
ENDBRANCH  13  14
ENDBRANCH  12  13
ENDBRANCH  11  12
ENDBRANCH  10  11
ENDBRANCH   9  10
ENDBRANCH   8   9
ENDBRANCH   7   8
ENDBRANCH   6   7
ENDBRANCH   5   6
ENDBRANCH   4   5
ENDBRANCH   3   4
ENDBRANCH   2   3
ENDBRANCH   1   2
BRANCH   1  17
ATOM     17  C   UNL     1      17.942 -45.727 -26.761  1.00  0.00     0.000 C 
BRANCH  17  18
ATOM     18  C   UNL     1      17.297 -45.043 -27.980  1.00  0.00     0.000 C 
BRANCH  18  19
ATOM     19  C   UNL     1      17.711 -45.621 -29.351  1.00  0.00     0.000 C 
BRANCH  19  20
ATOM     20  C   UNL     1      16.954 -46.888 -29.787  1.00  0.00     0.000 C 
BRANCH  20  21
ATOM     21  C   UNL     1      17.892 -48.028 -30.219  1.00  0.00     0.000 C 
BRANCH  21  22
ATOM     22  C   UNL     1      19.072 -47.527 -31.070  1.00  0.00    -0.000 C 
BRANCH  22  23
ATOM     23  C   UNL     1      19.394 -48.464 -32.247  1.00  0.00    -0.000 C 
BRANCH  23  24
ATOM     24  C   UNL     1      20.303 -49.635 -31.838  1.00  0.00    -0.000 C 
BRANCH  24  25
ATOM     25  C   UNL     1      19.951 -50.944 -32.559  1.00  0.00    -0.000 C 
BRANCH  25  26
ATOM     26  C   UNL     1      21.167 -51.881 -32.614  1.00  0.00    -0.000 C 
BRANCH  26  27
ATOM     27  C   UNL     1      21.246 -52.672 -33.929  1.00  0.00    -0.000 C 
BRANCH  27  28
ATOM     28  C   UNL     1      21.090 -54.185 -33.716  1.00  0.00    -0.000 C 
BRANCH  28  29
ATOM     29  C   UNL     1      19.865 -54.720 -34.466  1.00  0.00    -0.003 C 
ATOM     30  C   UNL     1      18.600 -54.590 -33.622  1.00  0.00     0.004 C 
ENDBRANCH  28  29
ENDBRANCH  27  28
ENDBRANCH  26  27
ENDBRANCH  25  26
ENDBRANCH  24  25
ENDBRANCH  23  24
ENDBRANCH  22  23
ENDBRANCH  21  22
ENDBRANCH  20  21
ENDBRANCH  19  20
ENDBRANCH  18  19
ENDBRANCH  17  18
ENDBRANCH   1  17
TORSDOF 26
ENDMDL
MODEL 5
REMARK VINA RESULT:    -5.554      1.067      2.605
REMARK INTER + INTRA:         -17.158
REMARK INTER:                 -13.877
REMARK INTRA:                  -3.281
REMARK UNBOUND:                -3.162
REMARK SMILES CCCCCCCCCCCCCCCCCCCCCCCCCCCC(=O)[O-]
REMARK SMILES IDX 15 1 16 2 17 3 18 4 19 5 20 6 21 7 22 8 23 9 24 10 25 11
REMARK SMILES IDX 26 12 27 13 28 14 29 15 30 16 14 17 13 18 12 19 11 20 10 21
REMARK SMILES IDX 9 22 8 23 7 24 6 25 5 26 4 27 3 28 2 29 1 30
REMARK H PARENT
REMARK Flexibility Score: inf
ROOT
ATOM      1  C   UNL     1      20.148 -42.991 -25.456  1.00  0.00     0.000 C 
ENDROOT
BRANCH   1   2
ATOM      2  C   UNL     1      18.848 -43.810 -25.449  1.00  0.00     0.000 C 
BRANCH   2   3
ATOM      3  C   UNL     1      18.932 -45.058 -26.340  1.00  0.00     0.000 C 
BRANCH   3   4
ATOM      4  C   UNL     1      17.630 -45.270 -27.120  1.00  0.00     0.000 C 
BRANCH   4   5
ATOM      5  C   UNL     1      17.923 -45.678 -28.572  1.00  0.00     0.000 C 
BRANCH   5   6
ATOM      6  C   UNL     1      17.679 -47.173 -28.830  1.00  0.00     0.000 C 
BRANCH   6   7
ATOM      7  C   UNL     1      17.739 -47.533 -30.326  1.00  0.00     0.000 C 
BRANCH   7   8
ATOM      8  C   UNL     1      19.099 -47.208 -30.962  1.00  0.00     0.000 C 
BRANCH   8   9
ATOM      9  C   UNL     1      19.449 -48.151 -32.126  1.00  0.00     0.000 C 
BRANCH   9  10
ATOM     10  C   UNL     1      20.192 -49.411 -31.655  1.00  0.00     0.000 C 
BRANCH  10  11
ATOM     11  C   UNL     1      19.871 -50.643 -32.513  1.00  0.00     0.000 C 
BRANCH  11  12
ATOM     12  C   UNL     1      20.929 -51.737 -32.326  1.00  0.00     0.006 C 
BRANCH  12  13
ATOM     13  C   UNL     1      21.241 -52.435 -33.653  1.00  0.00     0.053 C 
BRANCH  13  14
ATOM     14  C   UNL     1      20.645 -53.807 -33.682  1.00  0.00     0.041 C 
ATOM     15  O   UNL     1      21.295 -54.771 -34.167  1.00  0.00    -0.550 OA
ATOM     16  O   UNL     1      19.356 -54.016 -33.207  1.00  0.00    -0.550 OA
ENDBRANCH  13  14
ENDBRANCH  12  13
ENDBRANCH  11  12
ENDBRANCH  10  11
ENDBRANCH   9  10
ENDBRANCH   8   9
ENDBRANCH   7   8
ENDBRANCH   6   7
ENDBRANCH   5   6
ENDBRANCH   4   5
ENDBRANCH   3   4
ENDBRANCH   2   3
ENDBRANCH   1   2
BRANCH   1  17
ATOM     17  C   UNL     1      20.492 -42.414 -24.072  1.00  0.00     0.000 C 
BRANCH  17  18
ATOM     18  C   UNL     1      19.592 -42.970 -22.953  1.00  0.00     0.000 C 
BRANCH  18  19
ATOM     19  C   UNL     1      19.257 -41.969 -21.826  1.00  0.00     0.000 C 
BRANCH  19  20
ATOM     20  C   UNL     1      17.781 -41.541 -21.742  1.00  0.00     0.000 C 
BRANCH  20  21
ATOM     21  C   UNL     1      17.204 -41.111 -23.102  1.00  0.00     0.000 C 
BRANCH  21  22
ATOM     22  C   UNL     1      16.142 -42.092 -23.627  1.00  0.00    -0.000 C 
BRANCH  22  23
ATOM     23  C   UNL     1      15.882 -43.260 -22.659  1.00  0.00    -0.000 C 
BRANCH  23  24
ATOM     24  C   UNL     1      16.120 -44.631 -23.311  1.00  0.00    -0.000 C 
BRANCH  24  25
ATOM     25  C   UNL     1      16.747 -45.649 -22.347  1.00  0.00    -0.000 C 
BRANCH  25  26
ATOM     26  C   UNL     1      17.845 -46.461 -23.051  1.00  0.00    -0.000 C 
BRANCH  26  27
ATOM     27  C   UNL     1      18.804 -47.142 -22.063  1.00  0.00    -0.000 C 
BRANCH  27  28
ATOM     28  C   UNL     1      19.931 -46.208 -21.598  1.00  0.00    -0.000 C 
BRANCH  28  29
ATOM     29  C   UNL     1      21.291 -46.694 -22.110  1.00  0.00    -0.003 C 
ATOM     30  C   UNL     1      21.742 -45.892 -23.328  1.00  0.00     0.004 C 
ENDBRANCH  28  29
ENDBRANCH  27  28
ENDBRANCH  26  27
ENDBRANCH  25  26
ENDBRANCH  24  25
ENDBRANCH  23  24
ENDBRANCH  22  23
ENDBRANCH  21  22
ENDBRANCH  20  21
ENDBRANCH  19  20
ENDBRANCH  18  19
ENDBRANCH  17  18
ENDBRANCH   1  17
TORSDOF 26
ENDMDL
MODEL 6
REMARK VINA RESULT:    -5.538      3.784     10.183
REMARK INTER + INTRA:         -17.118
REMARK INTER:                 -14.099
REMARK INTRA:                  -3.019
REMARK UNBOUND:                -3.162
REMARK SMILES CCCCCCCCCCCCCCCCCCCCCCCCCCCC(=O)[O-]
REMARK SMILES IDX 15 1 16 2 17 3 18 4 19 5 20 6 21 7 22 8 23 9 24 10 25 11
REMARK SMILES IDX 26 12 27 13 28 14 29 15 30 16 14 17 13 18 12 19 11 20 10 21
REMARK SMILES IDX 9 22 8 23 7 24 6 25 5 26 4 27 3 28 2 29 1 30
REMARK H PARENT
REMARK Flexibility Score: inf
ROOT
ATOM      1  C   UNL     1      18.951 -43.736 -25.652  1.00  0.00     0.000 C 
ENDROOT
BRANCH   1   2
ATOM      2  C   UNL     1      20.352 -43.393 -25.121  1.00  0.00     0.000 C 
BRANCH   2   3
ATOM      3  C   UNL     1      20.365 -42.112 -24.275  1.00  0.00     0.000 C 
BRANCH   3   4
ATOM      4  C   UNL     1      20.864 -42.393 -22.853  1.00  0.00     0.000 C 
BRANCH   4   5
ATOM      5  C   UNL     1      19.702 -42.356 -21.849  1.00  0.00     0.000 C 
BRANCH   5   6
ATOM      6  C   UNL     1      18.369 -41.952 -22.498  1.00  0.00     0.000 C 
BRANCH   6   7
ATOM      7  C   UNL     1      17.173 -42.743 -21.935  1.00  0.00     0.000 C 
BRANCH   7   8
ATOM      8  C   UNL     1      16.162 -43.145 -23.020  1.00  0.00     0.000 C 
BRANCH   8   9
ATOM      9  C   UNL     1      16.094 -44.666 -23.231  1.00  0.00     0.000 C 
BRANCH   9  10
ATOM     10  C   UNL     1      17.002 -45.434 -22.257  1.00  0.00     0.000 C 
BRANCH  10  11
ATOM     11  C   UNL     1      17.121 -46.924 -22.608  1.00  0.00     0.000 C 
BRANCH  11  12
ATOM     12  C   UNL     1      18.578 -47.396 -22.520  1.00  0.00     0.006 C 
BRANCH  12  13
ATOM     13  C   UNL     1      19.538 -46.206 -22.438  1.00  0.00     0.053 C 
BRANCH  13  14
ATOM     14  C   UNL     1      20.703 -46.526 -21.555  1.00  0.00     0.041 C 
ATOM     15  O   UNL     1      20.900 -47.708 -21.167  1.00  0.00    -0.550 OA
ATOM     16  O   UNL     1      21.551 -45.511 -21.128  1.00  0.00    -0.550 OA
ENDBRANCH  13  14
ENDBRANCH  12  13
ENDBRANCH  11  12
ENDBRANCH  10  11
ENDBRANCH   9  10
ENDBRANCH   8   9
ENDBRANCH   7   8
ENDBRANCH   6   7
ENDBRANCH   5   6
ENDBRANCH   4   5
ENDBRANCH   3   4
ENDBRANCH   2   3
ENDBRANCH   1   2
BRANCH   1  17
ATOM     17  C   UNL     1      18.726 -45.252 -25.792  1.00  0.00     0.000 C 
BRANCH  17  18
ATOM     18  C   UNL     1      17.625 -45.601 -26.809  1.00  0.00     0.000 C 
BRANCH  18  19
ATOM     19  C   UNL     1      18.120 -45.845 -28.252  1.00  0.00     0.000 C 
BRANCH  19  20
ATOM     20  C   UNL     1      17.132 -45.445 -29.363  1.00  0.00     0.000 C 
BRANCH  20  21
ATOM     21  C   UNL     1      17.748 -45.530 -30.770  1.00  0.00     0.000 C 
BRANCH  21  22
ATOM     22  C   UNL     1      19.097 -46.270 -30.778  1.00  0.00    -0.000 C 
BRANCH  22  23
ATOM     23  C   UNL     1      19.224 -47.259 -31.951  1.00  0.00    -0.000 C 
BRANCH  23  24
ATOM     24  C   UNL     1      19.427 -48.709 -31.480  1.00  0.00    -0.000 C 
BRANCH  24  25
ATOM     25  C   UNL     1      20.225 -49.555 -32.482  1.00  0.00    -0.000 C 
BRANCH  25  26
ATOM     26  C   UNL     1      19.703 -51.000 -32.514  1.00  0.00    -0.000 C 
BRANCH  26  27
ATOM     27  C   UNL     1      20.834 -52.039 -32.500  1.00  0.00    -0.000 C 
BRANCH  27  28
ATOM     28  C   UNL     1      20.994 -52.754 -33.849  1.00  0.00    -0.000 C 
BRANCH  28  29
ATOM     29  C   UNL     1      20.711 -54.254 -33.712  1.00  0.00    -0.003 C 
ATOM     30  C   UNL     1      19.211 -54.531 -33.664  1.00  0.00     0.004 C 
ENDBRANCH  28  29
ENDBRANCH  27  28
ENDBRANCH  26  27
ENDBRANCH  25  26
ENDBRANCH  24  25
ENDBRANCH  23  24
ENDBRANCH  22  23
ENDBRANCH  21  22
ENDBRANCH  20  21
ENDBRANCH  19  20
ENDBRANCH  18  19
ENDBRANCH  17  18
ENDBRANCH   1  17
TORSDOF 26
ENDMDL
MODEL 7
REMARK VINA RESULT:    -5.493      3.582     10.682
REMARK INTER + INTRA:         -17.003
REMARK INTER:                 -14.376
REMARK INTRA:                  -2.628
REMARK UNBOUND:                -3.162
REMARK SMILES CCCCCCCCCCCCCCCCCCCCCCCCCCCC(=O)[O-]
REMARK SMILES IDX 15 1 16 2 17 3 18 4 19 5 20 6 21 7 22 8 23 9 24 10 25 11
REMARK SMILES IDX 26 12 27 13 28 14 29 15 30 16 14 17 13 18 12 19 11 20 10 21
REMARK SMILES IDX 9 22 8 23 7 24 6 25 5 26 4 27 3 28 2 29 1 30
REMARK H PARENT
REMARK Flexibility Score: inf
ROOT
ATOM      1  C   UNL     1      18.308 -44.411 -26.112  1.00  0.00     0.000 C 
ENDROOT
BRANCH   1   2
ATOM      2  C   UNL     1      19.651 -44.518 -25.372  1.00  0.00     0.000 C 
BRANCH   2   3
ATOM      3  C   UNL     1      20.434 -43.198 -25.376  1.00  0.00     0.000 C 
BRANCH   3   4
ATOM      4  C   UNL     1      21.133 -42.964 -24.032  1.00  0.00     0.000 C 
BRANCH   4   5
ATOM      5  C   UNL     1      20.184 -43.267 -22.862  1.00  0.00     0.000 C 
BRANCH   5   6
ATOM      6  C   UNL     1      19.769 -42.005 -22.091  1.00  0.00     0.000 C 
BRANCH   6   7
ATOM      7  C   UNL     1      18.246 -41.778 -22.103  1.00  0.00     0.000 C 
BRANCH   7   8
ATOM      8  C   UNL     1      17.682 -41.604 -23.521  1.00  0.00     0.000 C 
BRANCH   8   9
ATOM      9  C   UNL     1      16.183 -41.937 -23.608  1.00  0.00     0.000 C 
BRANCH   9  10
ATOM     10  C   UNL     1      15.815 -43.194 -22.803  1.00  0.00     0.000 C 
BRANCH  10  11
ATOM     11  C   UNL     1      16.386 -44.479 -23.419  1.00  0.00     0.000 C 
BRANCH  11  12
ATOM     12  C   UNL     1      17.089 -45.334 -22.358  1.00  0.00     0.006 C 
BRANCH  12  13
ATOM     13  C   UNL     1      17.445 -46.717 -22.912  1.00  0.00     0.053 C 
BRANCH  13  14
ATOM     14  C   UNL     1      18.504 -47.365 -22.077  1.00  0.00     0.041 C 
ATOM     15  O   UNL     1      19.527 -46.716 -21.734  1.00  0.00    -0.550 OA
ATOM     16  O   UNL     1      18.380 -48.700 -21.709  1.00  0.00    -0.550 OA
ENDBRANCH  13  14
ENDBRANCH  12  13
ENDBRANCH  11  12
ENDBRANCH  10  11
ENDBRANCH   9  10
ENDBRANCH   8   9
ENDBRANCH   7   8
ENDBRANCH   6   7
ENDBRANCH   5   6
ENDBRANCH   4   5
ENDBRANCH   3   4
ENDBRANCH   2   3
ENDBRANCH   1   2
BRANCH   1  17
ATOM     17  C   UNL     1      17.970 -45.682 -26.911  1.00  0.00     0.000 C 
BRANCH  17  18
ATOM     18  C   UNL     1      17.373 -45.376 -28.296  1.00  0.00     0.000 C 
BRANCH  18  19
ATOM     19  C   UNL     1      17.427 -46.544 -29.305  1.00  0.00     0.000 C 
BRANCH  19  20
ATOM     20  C   UNL     1      17.975 -46.186 -30.698  1.00  0.00     0.000 C 
BRANCH  20  21
ATOM     21  C   UNL     1      19.222 -47.003 -31.078  1.00  0.00     0.000 C 
BRANCH  21  22
ATOM     22  C   UNL     1      18.921 -48.506 -31.213  1.00  0.00    -0.000 C 
BRANCH  22  23
ATOM     23  C   UNL     1      19.674 -49.159 -32.386  1.00  0.00    -0.000 C 
BRANCH  23  24
ATOM     24  C   UNL     1      20.549 -50.342 -31.939  1.00  0.00    -0.000 C 
BRANCH  24  25
ATOM     25  C   UNL     1      20.352 -51.592 -32.809  1.00  0.00    -0.000 C 
BRANCH  25  26
ATOM     26  C   UNL     1      21.397 -51.644 -33.933  1.00  0.00    -0.000 C 
BRANCH  26  27
ATOM     27  C   UNL     1      21.627 -53.068 -34.463  1.00  0.00    -0.000 C 
BRANCH  27  28
ATOM     28  C   UNL     1      20.937 -54.135 -33.602  1.00  0.00    -0.000 C 
BRANCH  28  29
ATOM     29  C   UNL     1      19.875 -54.889 -34.410  1.00  0.00    -0.003 C 
ATOM     30  C   UNL     1      18.489 -54.718 -33.797  1.00  0.00     0.004 C 
ENDBRANCH  28  29
ENDBRANCH  27  28
ENDBRANCH  26  27
ENDBRANCH  25  26
ENDBRANCH  24  25
ENDBRANCH  23  24
ENDBRANCH  22  23
ENDBRANCH  21  22
ENDBRANCH  20  21
ENDBRANCH  19  20
ENDBRANCH  18  19
ENDBRANCH  17  18
ENDBRANCH   1  17
TORSDOF 26
ENDMDL
MODEL 8
REMARK VINA RESULT:    -5.461      1.232      2.859
REMARK INTER + INTRA:         -16.924
REMARK INTER:                 -14.100
REMARK INTRA:                  -2.824
REMARK UNBOUND:                -3.162
REMARK SMILES CCCCCCCCCCCCCCCCCCCCCCCCCCCC(=O)[O-]
REMARK SMILES IDX 15 1 16 2 17 3 18 4 19 5 20 6 21 7 22 8 23 9 24 10 25 11
REMARK SMILES IDX 26 12 27 13 28 14 29 15 30 16 14 17 13 18 12 19 11 20 10 21
REMARK SMILES IDX 9 22 8 23 7 24 6 25 5 26 4 27 3 28 2 29 1 30
REMARK H PARENT
REMARK Flexibility Score: inf
ROOT
ATOM      1  C   UNL     1      19.746 -44.470 -25.890  1.00  0.00     0.000 C 
ENDROOT
BRANCH   1   2
ATOM      2  C   UNL     1      18.623 -45.515 -25.792  1.00  0.00     0.000 C 
BRANCH   2   3
ATOM      3  C   UNL     1      17.566 -45.350 -26.894  1.00  0.00     0.000 C 
BRANCH   3   4
ATOM      4  C   UNL     1      18.006 -46.039 -28.191  1.00  0.00     0.000 C 
BRANCH   4   5
ATOM      5  C   UNL     1      17.329 -45.393 -29.410  1.00  0.00     0.000 C 
BRANCH   5   6
ATOM      6  C   UNL     1      17.477 -46.234 -30.687  1.00  0.00     0.000 C 
BRANCH   6   7
ATOM      7  C   UNL     1      18.068 -47.629 -30.412  1.00  0.00     0.000 C 
BRANCH   7   8
ATOM      8  C   UNL     1      19.173 -48.013 -31.408  1.00  0.00     0.000 C 
BRANCH   8   9
ATOM      9  C   UNL     1      19.158 -49.510 -31.761  1.00  0.00     0.000 C 
BRANCH   9  10
ATOM     10  C   UNL     1      20.219 -49.874 -32.813  1.00  0.00     0.000 C 
BRANCH  10  11
ATOM     11  C   UNL     1      20.854 -51.249 -32.561  1.00  0.00     0.000 C 
BRANCH  11  12
ATOM     12  C   UNL     1      19.874 -52.379 -32.902  1.00  0.00     0.006 C 
BRANCH  12  13
ATOM     13  C   UNL     1      20.622 -53.665 -33.267  1.00  0.00     0.053 C 
BRANCH  13  14
ATOM     14  C   UNL     1      19.764 -54.555 -34.109  1.00  0.00     0.041 C 
ATOM     15  O   UNL     1      20.245 -55.123 -35.125  1.00  0.00    -0.550 OA
ATOM     16  O   UNL     1      18.422 -54.728 -33.794  1.00  0.00    -0.550 OA
ENDBRANCH  13  14
ENDBRANCH  12  13
ENDBRANCH  11  12
ENDBRANCH  10  11
ENDBRANCH   9  10
ENDBRANCH   8   9
ENDBRANCH   7   8
ENDBRANCH   6   7
ENDBRANCH   5   6
ENDBRANCH   4   5
ENDBRANCH   3   4
ENDBRANCH   2   3
ENDBRANCH   1   2
BRANCH   1  17
ATOM     17  C   UNL     1      20.493 -44.279 -24.559  1.00  0.00     0.000 C 
BRANCH  17  18
ATOM     18  C   UNL     1      20.516 -42.812 -24.092  1.00  0.00     0.000 C 
BRANCH  18  19
ATOM     19  C   UNL     1      19.695 -41.836 -24.962  1.00  0.00     0.000 C 
BRANCH  19  20
ATOM     20  C   UNL     1      18.429 -41.266 -24.298  1.00  0.00     0.000 C 
BRANCH  20  21
ATOM     21  C   UNL     1      17.256 -42.261 -24.292  1.00  0.00     0.000 C 
BRANCH  21  22
ATOM     22  C   UNL     1      16.023 -41.711 -23.554  1.00  0.00    -0.000 C 
BRANCH  22  23
ATOM     23  C   UNL     1      16.291 -41.453 -22.060  1.00  0.00    -0.000 C 
BRANCH  23  24
ATOM     24  C   UNL     1      16.441 -42.754 -21.255  1.00  0.00    -0.000 C 
BRANCH  24  25
ATOM     25  C   UNL     1      17.908 -43.131 -20.997  1.00  0.00    -0.000 C 
BRANCH  25  26
ATOM     26  C   UNL     1      18.229 -44.509 -21.595  1.00  0.00    -0.000 C 
BRANCH  26  27
ATOM     27  C   UNL     1      17.098 -45.048 -22.484  1.00  0.00    -0.000 C 
BRANCH  27  28
ATOM     28  C   UNL     1      17.097 -46.581 -22.571  1.00  0.00    -0.000 C 
BRANCH  28  29
ATOM     29  C   UNL     1      18.505 -47.143 -22.345  1.00  0.00    -0.003 C 
ATOM     30  C   UNL     1      18.451 -48.510 -21.669  1.00  0.00     0.004 C 
ENDBRANCH  28  29
ENDBRANCH  27  28
ENDBRANCH  26  27
ENDBRANCH  25  26
ENDBRANCH  24  25
ENDBRANCH  23  24
ENDBRANCH  22  23
ENDBRANCH  21  22
ENDBRANCH  20  21
ENDBRANCH  19  20
ENDBRANCH  18  19
ENDBRANCH  17  18
ENDBRANCH   1  17
TORSDOF 26
ENDMDL
MODEL 9
REMARK VINA RESULT:    -5.430      1.334      2.918
REMARK INTER + INTRA:         -16.846
REMARK INTER:                 -14.171
REMARK INTRA:                  -2.675
REMARK UNBOUND:                -3.162
REMARK SMILES CCCCCCCCCCCCCCCCCCCCCCCCCCCC(=O)[O-]
REMARK SMILES IDX 15 1 16 2 17 3 18 4 19 5 20 6 21 7 22 8 23 9 24 10 25 11
REMARK SMILES IDX 26 12 27 13 28 14 29 15 30 16 14 17 13 18 12 19 11 20 10 21
REMARK SMILES IDX 9 22 8 23 7 24 6 25 5 26 4 27 3 28 2 29 1 30
REMARK H PARENT
REMARK Flexibility Score: inf
ROOT
ATOM      1  C   UNL     1      18.002 -45.800 -26.893  1.00  0.00     0.000 C 
ENDROOT
BRANCH   1   2
ATOM      2  C   UNL     1      17.293 -45.004 -28.000  1.00  0.00     0.000 C 
BRANCH   2   3
ATOM      3  C   UNL     1      17.339 -45.716 -29.360  1.00  0.00     0.000 C 
BRANCH   3   4
ATOM      4  C   UNL     1      17.700 -47.197 -29.199  1.00  0.00     0.000 C 
BRANCH   4   5
ATOM      5  C   UNL     1      18.423 -47.722 -30.449  1.00  0.00     0.000 C 
BRANCH   5   6
ATOM      6  C   UNL     1      19.101 -46.604 -31.257  1.00  0.00     0.000 C 
BRANCH   6   7
ATOM      7  C   UNL     1      18.696 -46.620 -32.743  1.00  0.00     0.000 C 
BRANCH   7   8
ATOM      8  C   UNL     1      19.883 -46.895 -33.679  1.00  0.00     0.000 C 
BRANCH   8   9
ATOM      9  C   UNL     1      19.885 -48.333 -34.225  1.00  0.00     0.000 C 
BRANCH   9  10
ATOM     10  C   UNL     1      20.763 -49.276 -33.387  1.00  0.00     0.000 C 
BRANCH  10  11
ATOM     11  C   UNL     1      19.938 -50.267 -32.553  1.00  0.00     0.000 C 
BRANCH  11  12
ATOM     12  C   UNL     1      20.732 -51.549 -32.276  1.00  0.00     0.006 C 
BRANCH  12  13
ATOM     13  C   UNL     1      21.107 -52.257 -33.581  1.00  0.00     0.053 C 
BRANCH  13  14
ATOM     14  C   UNL     1      20.556 -53.648 -33.606  1.00  0.00     0.041 C 
ATOM     15  O   UNL     1      19.374 -53.869 -33.233  1.00  0.00    -0.550 OA
ATOM     16  O   UNL     1      21.362 -54.708 -34.005  1.00  0.00    -0.550 OA
ENDBRANCH  13  14
ENDBRANCH  12  13
ENDBRANCH  11  12
ENDBRANCH  10  11
ENDBRANCH   9  10
ENDBRANCH   8   9
ENDBRANCH   7   8
ENDBRANCH   6   7
ENDBRANCH   5   6
ENDBRANCH   4   5
ENDBRANCH   3   4
ENDBRANCH   2   3
ENDBRANCH   1   2
BRANCH   1  17
ATOM     17  C   UNL     1      18.097 -45.019 -25.571  1.00  0.00     0.000 C 
BRANCH  17  18
ATOM     18  C   UNL     1      19.272 -44.024 -25.548  1.00  0.00     0.000 C 
BRANCH  18  19
ATOM     19  C   UNL     1      18.933 -42.625 -24.988  1.00  0.00     0.000 C 
BRANCH  19  20
ATOM     20  C   UNL     1      17.835 -42.595 -23.910  1.00  0.00     0.000 C 
BRANCH  20  21
ATOM     21  C   UNL     1      18.402 -42.545 -22.480  1.00  0.00     0.000 C 
BRANCH  21  22
ATOM     22  C   UNL     1      18.485 -43.937 -21.831  1.00  0.00    -0.000 C 
BRANCH  22  23
ATOM     23  C   UNL     1      19.935 -44.413 -21.631  1.00  0.00    -0.000 C 
BRANCH  23  24
ATOM     24  C   UNL     1      20.247 -45.698 -22.415  1.00  0.00    -0.000 C 
BRANCH  24  25
ATOM     25  C   UNL     1      19.003 -46.565 -22.660  1.00  0.00    -0.000 C 
BRANCH  25  26
ATOM     26  C   UNL     1      18.924 -47.708 -21.637  1.00  0.00    -0.000 C 
BRANCH  26  27
ATOM     27  C   UNL     1      17.588 -48.466 -21.698  1.00  0.00    -0.000 C 
BRANCH  27  28
ATOM     28  C   UNL     1      16.393 -47.533 -21.936  1.00  0.00    -0.000 C 
BRANCH  28  29
ATOM     29  C   UNL     1      15.104 -48.136 -21.365  1.00  0.00    -0.003 C 
ATOM     30  C   UNL     1      15.356 -49.523 -20.781  1.00  0.00     0.004 C 
ENDBRANCH  28  29
ENDBRANCH  27  28
ENDBRANCH  26  27
ENDBRANCH  25  26
ENDBRANCH  24  25
ENDBRANCH  23  24
ENDBRANCH  22  23
ENDBRANCH  21  22
ENDBRANCH  20  21
ENDBRANCH  19  20
ENDBRANCH  18  19
ENDBRANCH  17  18
ENDBRANCH   1  17
TORSDOF 26
ENDMDL
