MODEL 1
REMARK VINA RESULT:    -5.164      0.000      0.000
REMARK INTER + INTRA:         -11.629
REMARK INTER:                  -9.391
REMARK INTRA:                  -2.238
REMARK UNBOUND:                -2.238
REMARK SMILES CCCCCCCCCCCCCCCC(=O)[O-]
REMARK SMILES IDX 9 1 10 2 11 3 12 4 13 5 14 6 15 7 16 8 17 9 18 10 8 11 7 12
REMARK SMILES IDX 6 13 5 14 4 15 3 16 2 17 1 18
REMARK H PARENT
REMARK Flexibility Score: inf
ROOT
ATOM      1  C   UNL     1      17.438  24.279   7.104  1.00  0.00     0.000 C 
ENDROOT
BRANCH   1   2
ATOM      2  C   UNL     1      16.875  22.852   6.962  1.00  0.00     0.000 C 
BRANCH   2   3
ATOM      3  C   UNL     1      17.844  21.907   6.231  1.00  0.00     0.000 C 
BRANCH   3   4
ATOM      4  C   UNL     1      19.155  22.603   5.828  1.00  0.00     0.000 C 
BRANCH   4   5
ATOM      5  C   UNL     1      20.119  21.661   5.088  1.00  0.00     0.000 C 
BRANCH   5   6
ATOM      6  C   UNL     1      21.417  21.402   5.874  1.00  0.00     0.006 C 
BRANCH   6   7
ATOM      7  C   UNL     1      22.298  20.339   5.203  1.00  0.00     0.053 C 
BRANCH   7   8
ATOM      8  C   UNL     1      22.644  19.228   6.147  1.00  0.00     0.041 C 
ATOM      9  O   UNL     1      23.504  19.409   7.049  1.00  0.00    -0.550 OA
ATOM     10  O   UNL     1      21.988  18.007   6.055  1.00  0.00    -0.550 OA
ENDBRANCH   7   8
ENDBRANCH   6   7
ENDBRANCH   5   6
ENDBRANCH   4   5
ENDBRANCH   3   4
ENDBRANCH   2   3
ENDBRANCH   1   2
BRANCH   1  11
ATOM     11  C   UNL     1      17.283  24.836   8.529  1.00  0.00     0.000 C 
BRANCH  11  12
ATOM     12  C   UNL     1      18.586  25.447   9.070  1.00  0.00    -0.000 C 
BRANCH  12  13
ATOM     13  C   UNL     1      19.832  24.615   8.711  1.00  0.00    -0.000 C 
BRANCH  13  14
ATOM     14  C   UNL     1      20.229  23.552   9.752  1.00  0.00    -0.000 C 
BRANCH  14  15
ATOM     15  C   UNL     1      19.873  22.101   9.373  1.00  0.00    -0.000 C 
BRANCH  15  16
ATOM     16  C   UNL     1      18.583  21.582  10.044  1.00  0.00    -0.000 C 
BRANCH  16  17
ATOM     17  C   UNL     1      18.440  22.063  11.495  1.00  0.00    -0.003 C 
ATOM     18  C   UNL     1      17.125  22.810  11.701  1.00  0.00     0.004 C 
ENDBRANCH  16  17
ENDBRANCH  15  16
ENDBRANCH  14  15
ENDBRANCH  13  14
ENDBRANCH  12  13
ENDBRANCH  11  12
ENDBRANCH   1  11
TORSDOF 14
ENDMDL
MODEL 2
REMARK VINA RESULT:    -5.104      3.310      5.255
REMARK INTER + INTRA:         -11.520
REMARK INTER:                  -9.164
REMARK INTRA:                  -2.356
REMARK UNBOUND:                -2.238
REMARK SMILES CCCCCCCCCCCCCCCC(=O)[O-]
REMARK SMILES IDX 9 1 10 2 11 3 12 4 13 5 14 6 15 7 16 8 17 9 18 10 8 11 7 12
REMARK SMILES IDX 6 13 5 14 4 15 3 16 2 17 1 18
REMARK H PARENT
REMARK Flexibility Score: inf
ROOT
ATOM      1  C   UNL     1      21.052  21.954   5.528  1.00  0.00     0.000 C 
ENDROOT
BRANCH   1   2
ATOM      2  C   UNL     1      19.751  21.580   4.794  1.00  0.00     0.000 C 
BRANCH   2   3
ATOM      3  C   UNL     1      18.516  21.661   5.706  1.00  0.00     0.000 C 
BRANCH   3   4
ATOM      4  C   UNL     1      18.217  23.098   6.168  1.00  0.00     0.000 C 
BRANCH   4   5
ATOM      5  C   UNL     1      16.959  23.185   7.048  1.00  0.00     0.000 C 
BRANCH   5   6
ATOM      6  C   UNL     1      16.912  24.471   7.892  1.00  0.00     0.006 C 
BRANCH   6   7
ATOM      7  C   UNL     1      18.308  25.062   8.128  1.00  0.00     0.053 C 
BRANCH   7   8
ATOM      8  C   UNL     1      18.239  26.399   8.799  1.00  0.00     0.041 C 
ATOM      9  O   UNL     1      17.124  26.897   9.105  1.00  0.00    -0.550 OA
ATOM     10  O   UNL     1      19.408  27.078   9.121  1.00  0.00    -0.550 OA
ENDBRANCH   7   8
ENDBRANCH   6   7
ENDBRANCH   5   6
ENDBRANCH   4   5
ENDBRANCH   3   4
ENDBRANCH   2   3
ENDBRANCH   1   2
BRANCH   1  11
ATOM     11  C   UNL     1      21.696  20.751   6.237  1.00  0.00     0.000 C 
BRANCH  11  12
ATOM     12  C   UNL     1      21.832  20.963   7.754  1.00  0.00    -0.000 C 
BRANCH  12  13
ATOM     13  C   UNL     1      21.331  22.345   8.213  1.00  0.00    -0.000 C 
BRANCH  13  14
ATOM     14  C   UNL     1      20.190  22.316   9.247  1.00  0.00    -0.000 C 
BRANCH  14  15
ATOM     15  C   UNL     1      19.234  21.113   9.133  1.00  0.00    -0.000 C 
BRANCH  15  16
ATOM     16  C   UNL     1      18.029  21.181  10.096  1.00  0.00    -0.000 C 
BRANCH  16  17
ATOM     17  C   UNL     1      18.300  22.078  11.313  1.00  0.00    -0.003 C 
ATOM     18  C   UNL     1      17.305  23.234  11.378  1.00  0.00     0.004 C 
ENDBRANCH  16  17
ENDBRANCH  15  16
ENDBRANCH  14  15
ENDBRANCH  13  14
ENDBRANCH  12  13
ENDBRANCH  11  12
ENDBRANCH   1  11
TORSDOF 14
ENDMDL
MODEL 3
REMARK VINA RESULT:    -5.035      1.071      2.177
REMARK INTER + INTRA:         -11.393
REMARK INTER:                  -8.838
REMARK INTRA:                  -2.555
REMARK UNBOUND:                -2.238
REMARK SMILES CCCCCCCCCCCCCCCC(=O)[O-]
REMARK SMILES IDX 9 1 10 2 11 3 12 4 13 5 14 6 15 7 16 8 17 9 18 10 8 11 7 12
REMARK SMILES IDX 6 13 5 14 4 15 3 16 2 17 1 18
REMARK H PARENT
REMARK Flexibility Score: inf
ROOT
ATOM      1  C   UNL     1      17.260  24.560   7.628  1.00  0.00     0.000 C 
ENDROOT
BRANCH   1   2
ATOM      2  C   UNL     1      17.906  23.736   6.499  1.00  0.00     0.000 C 
BRANCH   2   3
ATOM      3  C   UNL     1      17.391  22.287   6.458  1.00  0.00     0.000 C 
BRANCH   3   4
ATOM      4  C   UNL     1      18.359  21.337   5.732  1.00  0.00     0.000 C 
BRANCH   4   5
ATOM      5  C   UNL     1      19.522  22.083   5.058  1.00  0.00     0.000 C 
BRANCH   5   6
ATOM      6  C   UNL     1      20.544  21.132   4.412  1.00  0.00     0.006 C 
BRANCH   6   7
ATOM      7  C   UNL     1      21.871  21.097   5.182  1.00  0.00     0.053 C 
BRANCH   7   8
ATOM      8  C   UNL     1      22.159  19.732   5.731  1.00  0.00     0.041 C 
ATOM      9  O   UNL     1      21.221  18.911   5.907  1.00  0.00    -0.550 OA
ATOM     10  O   UNL     1      23.467  19.356   6.010  1.00  0.00    -0.550 OA
ENDBRANCH   7   8
ENDBRANCH   6   7
ENDBRANCH   5   6
ENDBRANCH   4   5
ENDBRANCH   3   4
ENDBRANCH   2   3
ENDBRANCH   1   2
BRANCH   1  11
ATOM     11  C   UNL     1      18.281  25.422   8.389  1.00  0.00     0.000 C 
BRANCH  11  12
ATOM     12  C   UNL     1      18.380  25.047   9.877  1.00  0.00    -0.000 C 
BRANCH  12  13
ATOM     13  C   UNL     1      17.345  23.988  10.297  1.00  0.00    -0.000 C 
BRANCH  13  14
ATOM     14  C   UNL     1      17.928  22.747  10.999  1.00  0.00    -0.000 C 
BRANCH  14  15
ATOM     15  C   UNL     1      19.381  22.404  10.619  1.00  0.00    -0.000 C 
BRANCH  15  16
ATOM     16  C   UNL     1      19.507  21.591   9.311  1.00  0.00    -0.000 C 
BRANCH  16  17
ATOM     17  C   UNL     1      20.897  21.721   8.671  1.00  0.00    -0.003 C 
ATOM     18  C   UNL     1      21.194  23.168   8.288  1.00  0.00     0.004 C 
ENDBRANCH  16  17
ENDBRANCH  15  16
ENDBRANCH  14  15
ENDBRANCH  13  14
ENDBRANCH  12  13
ENDBRANCH  11  12
ENDBRANCH   1  11
TORSDOF 14
ENDMDL
MODEL 4
REMARK VINA RESULT:    -4.956      2.042      4.202
REMARK INTER + INTRA:         -11.250
REMARK INTER:                  -9.066
REMARK INTRA:                  -2.184
REMARK UNBOUND:                -2.238
REMARK SMILES CCCCCCCCCCCCCCCC(=O)[O-]
REMARK SMILES IDX 9 1 10 2 11 3 12 4 13 5 14 6 15 7 16 8 17 9 18 10 8 11 7 12
REMARK SMILES IDX 6 13 5 14 4 15 3 16 2 17 1 18
REMARK H PARENT
REMARK Flexibility Score: inf
ROOT
ATOM      1  C   UNL     1      19.144  21.990  10.869  1.00  0.00     0.000 C 
ENDROOT
BRANCH   1   2
ATOM      2  C   UNL     1      20.165  23.143  10.876  1.00  0.00     0.000 C 
BRANCH   2   3
ATOM      3  C   UNL     1      21.241  22.983   9.789  1.00  0.00     0.000 C 
BRANCH   3   4
ATOM      4  C   UNL     1      20.791  22.058   8.645  1.00  0.00     0.000 C 
BRANCH   4   5
ATOM      5  C   UNL     1      20.775  22.769   7.282  1.00  0.00     0.000 C 
BRANCH   5   6
ATOM      6  C   UNL     1      20.803  21.788   6.098  1.00  0.00     0.006 C 
BRANCH   6   7
ATOM      7  C   UNL     1      19.586  21.955   5.177  1.00  0.00     0.053 C 
BRANCH   7   8
ATOM      8  C   UNL     1      18.674  20.768   5.241  1.00  0.00     0.041 C 
ATOM      9  O   UNL     1      18.195  20.280   4.183  1.00  0.00    -0.550 OA
ATOM     10  O   UNL     1      18.385  20.176   6.465  1.00  0.00    -0.550 OA
ENDBRANCH   7   8
ENDBRANCH   6   7
ENDBRANCH   5   6
ENDBRANCH   4   5
ENDBRANCH   3   4
ENDBRANCH   2   3
ENDBRANCH   1   2
BRANCH   1  11
ATOM     11  C   UNL     1      17.766  22.420  11.400  1.00  0.00     0.000 C 
BRANCH  11  12
ATOM     12  C   UNL     1      16.916  23.127  10.331  1.00  0.00    -0.000 C 
BRANCH  12  13
ATOM     13  C   UNL     1      17.014  22.457   8.948  1.00  0.00    -0.000 C 
BRANCH  13  14
ATOM     14  C   UNL     1      17.065  23.428   7.754  1.00  0.00    -0.000 C 
BRANCH  14  15
ATOM     15  C   UNL     1      17.258  24.911   8.125  1.00  0.00    -0.000 C 
BRANCH  15  16
ATOM     16  C   UNL     1      18.736  25.320   8.309  1.00  0.00    -0.000 C 
BRANCH  16  17
ATOM     17  C   UNL     1      18.888  26.661   9.041  1.00  0.00    -0.003 C 
ATOM     18  C   UNL     1      17.646  27.529   8.862  1.00  0.00     0.004 C 
ENDBRANCH  16  17
ENDBRANCH  15  16
ENDBRANCH  14  15
ENDBRANCH  13  14
ENDBRANCH  12  13
ENDBRANCH  11  12
ENDBRANCH   1  11
TORSDOF 14
ENDMDL
MODEL 5
REMARK VINA RESULT:    -4.911      1.255      3.554
REMARK INTER + INTRA:         -11.168
REMARK INTER:                  -8.749
REMARK INTRA:                  -2.418
REMARK UNBOUND:                -2.238
REMARK SMILES CCCCCCCCCCCCCCCC(=O)[O-]
REMARK SMILES IDX 9 1 10 2 11 3 12 4 13 5 14 6 15 7 16 8 17 9 18 10 8 11 7 12
REMARK SMILES IDX 6 13 5 14 4 15 3 16 2 17 1 18
REMARK H PARENT
REMARK Flexibility Score: inf
ROOT
ATOM      1  C   UNL     1      19.408  22.098  10.397  1.00  0.00     0.000 C 
ENDROOT
BRANCH   1   2
ATOM      2  C   UNL     1      20.531  23.126  10.627  1.00  0.00     0.000 C 
BRANCH   2   3
ATOM      3  C   UNL     1      21.577  23.118   9.500  1.00  0.00     0.000 C 
BRANCH   3   4
ATOM      4  C   UNL     1      21.345  21.983   8.488  1.00  0.00     0.000 C 
BRANCH   4   5
ATOM      5  C   UNL     1      21.752  22.376   7.058  1.00  0.00     0.000 C 
BRANCH   5   6
ATOM      6  C   UNL     1      21.213  21.401   5.997  1.00  0.00     0.006 C 
BRANCH   6   7
ATOM      7  C   UNL     1      21.269  19.942   6.469  1.00  0.00     0.053 C 
BRANCH   7   8
ATOM      8  C   UNL     1      22.431  19.209   5.869  1.00  0.00     0.041 C 
ATOM      9  O   UNL     1      23.024  19.678   4.863  1.00  0.00    -0.550 OA
ATOM     10  O   UNL     1      22.881  18.027   6.446  1.00  0.00    -0.550 OA
ENDBRANCH   7   8
ENDBRANCH   6   7
ENDBRANCH   5   6
ENDBRANCH   4   5
ENDBRANCH   3   4
ENDBRANCH   2   3
ENDBRANCH   1   2
BRANCH   1  11
ATOM     11  C   UNL     1      18.240  22.268  11.383  1.00  0.00     0.000 C 
BRANCH  11  12
ATOM     12  C   UNL     1      17.009  22.922  10.733  1.00  0.00    -0.000 C 
BRANCH  12  13
ATOM     13  C   UNL     1      16.968  24.448  10.928  1.00  0.00    -0.000 C 
BRANCH  13  14
ATOM     14  C   UNL     1      17.547  25.272   9.762  1.00  0.00    -0.000 C 
BRANCH  14  15
ATOM     15  C   UNL     1      17.230  24.727   8.356  1.00  0.00    -0.000 C 
BRANCH  15  16
ATOM     16  C   UNL     1      18.476  24.250   7.579  1.00  0.00    -0.000 C 
BRANCH  16  17
ATOM     17  C   UNL     1      18.136  23.194   6.516  1.00  0.00    -0.003 C 
ATOM     18  C   UNL     1      17.618  21.911   7.161  1.00  0.00     0.004 C 
ENDBRANCH  16  17
ENDBRANCH  15  16
ENDBRANCH  14  15
ENDBRANCH  13  14
ENDBRANCH  12  13
ENDBRANCH  11  12
ENDBRANCH   1  11
TORSDOF 14
ENDMDL
MODEL 6
REMARK VINA RESULT:    -4.882      1.361      3.096
REMARK INTER + INTRA:         -11.115
REMARK INTER:                  -9.050
REMARK INTRA:                  -2.065
REMARK UNBOUND:                -2.238
REMARK SMILES CCCCCCCCCCCCCCCC(=O)[O-]
REMARK SMILES IDX 9 1 10 2 11 3 12 4 13 5 14 6 15 7 16 8 17 9 18 10 8 11 7 12
REMARK SMILES IDX 6 13 5 14 4 15 3 16 2 17 1 18
REMARK H PARENT
REMARK Flexibility Score: inf
ROOT
ATOM      1  C   UNL     1      20.551  22.201   8.403  1.00  0.00     0.000 C 
ENDROOT
BRANCH   1   2
ATOM      2  C   UNL     1      20.915  22.490   6.935  1.00  0.00     0.000 C 
BRANCH   2   3
ATOM      3  C   UNL     1      19.739  22.241   5.976  1.00  0.00     0.000 C 
BRANCH   3   4
ATOM      4  C   UNL     1      20.181  21.573   4.662  1.00  0.00     0.000 C 
BRANCH   4   5
ATOM      5  C   UNL     1      21.664  21.166   4.677  1.00  0.00     0.000 C 
BRANCH   5   6
ATOM      6  C   UNL     1      21.862  19.641   4.650  1.00  0.00     0.006 C 
BRANCH   6   7
ATOM      7  C   UNL     1      21.952  19.043   6.060  1.00  0.00     0.053 C 
BRANCH   7   8
ATOM      8  C   UNL     1      23.289  19.299   6.688  1.00  0.00     0.041 C 
ATOM      9  O   UNL     1      24.337  18.858   6.147  1.00  0.00    -0.550 OA
ATOM     10  O   UNL     1      23.379  20.058   7.848  1.00  0.00    -0.550 OA
ENDBRANCH   7   8
ENDBRANCH   6   7
ENDBRANCH   5   6
ENDBRANCH   4   5
ENDBRANCH   3   4
ENDBRANCH   2   3
ENDBRANCH   1   2
BRANCH   1  11
ATOM     11  C   UNL     1      21.318  23.098   9.390  1.00  0.00     0.000 C 
BRANCH  11  12
ATOM     12  C   UNL     1      20.488  23.449  10.636  1.00  0.00    -0.000 C 
BRANCH  12  13
ATOM     13  C   UNL     1      19.458  22.362  10.996  1.00  0.00    -0.000 C 
BRANCH  13  14
ATOM     14  C   UNL     1      17.990  22.829  11.000  1.00  0.00    -0.000 C 
BRANCH  14  15
ATOM     15  C   UNL     1      17.735  24.191  10.327  1.00  0.00    -0.000 C 
BRANCH  15  16
ATOM     16  C   UNL     1      17.327  24.085   8.842  1.00  0.00    -0.000 C 
BRANCH  16  17
ATOM     17  C   UNL     1      17.998  25.157   7.970  1.00  0.00    -0.003 C 
ATOM     18  C   UNL     1      18.815  26.126   8.821  1.00  0.00     0.004 C 
ENDBRANCH  16  17
ENDBRANCH  15  16
ENDBRANCH  14  15
ENDBRANCH  13  14
ENDBRANCH  12  13
ENDBRANCH  11  12
ENDBRANCH   1  11
TORSDOF 14
ENDMDL
MODEL 7
REMARK VINA RESULT:    -4.870      2.041      4.102
REMARK INTER + INTRA:         -11.093
REMARK INTER:                  -8.800
REMARK INTRA:                  -2.293
REMARK UNBOUND:                -2.238
REMARK SMILES CCCCCCCCCCCCCCCC(=O)[O-]
REMARK SMILES IDX 9 1 10 2 11 3 12 4 13 5 14 6 15 7 16 8 17 9 18 10 8 11 7 12
REMARK SMILES IDX 6 13 5 14 4 15 3 16 2 17 1 18
REMARK H PARENT
REMARK Flexibility Score: inf
ROOT
ATOM      1  C   UNL     1      21.357  21.639   8.420  1.00  0.00     0.000 C 
ENDROOT
BRANCH   1   2
ATOM      2  C   UNL     1      21.676  21.982   6.954  1.00  0.00     0.000 C 
BRANCH   2   3
ATOM      3  C   UNL     1      20.420  22.003   6.066  1.00  0.00     0.000 C 
BRANCH   3   4
ATOM      4  C   UNL     1      19.433  23.113   6.468  1.00  0.00     0.000 C 
BRANCH   4   5
ATOM      5  C   UNL     1      17.978  22.618   6.519  1.00  0.00     0.000 C 
BRANCH   5   6
ATOM      6  C   UNL     1      17.799  21.231   5.876  1.00  0.00     0.006 C 
BRANCH   6   7
ATOM      7  C   UNL     1      16.980  20.283   6.761  1.00  0.00     0.053 C 
BRANCH   7   8
ATOM      8  C   UNL     1      17.843  19.568   7.756  1.00  0.00     0.041 C 
ATOM      9  O   UNL     1      17.532  19.564   8.976  1.00  0.00    -0.550 OA
ATOM     10  O   UNL     1      18.968  18.873   7.329  1.00  0.00    -0.550 OA
ENDBRANCH   7   8
ENDBRANCH   6   7
ENDBRANCH   5   6
ENDBRANCH   4   5
ENDBRANCH   3   4
ENDBRANCH   2   3
ENDBRANCH   1   2
BRANCH   1  11
ATOM     11  C   UNL     1      21.723  22.778   9.387  1.00  0.00     0.000 C 
BRANCH  11  12
ATOM     12  C   UNL     1      20.496  23.349  10.119  1.00  0.00    -0.000 C 
BRANCH  12  13
ATOM     13  C   UNL     1      19.378  22.309  10.314  1.00  0.00    -0.000 C 
BRANCH  13  14
ATOM     14  C   UNL     1      18.057  22.867  10.875  1.00  0.00    -0.000 C 
BRANCH  14  15
ATOM     15  C   UNL     1      17.150  23.564   9.841  1.00  0.00    -0.000 C 
BRANCH  15  16
ATOM     16  C   UNL     1      17.215  25.106   9.896  1.00  0.00    -0.000 C 
BRANCH  16  17
ATOM     17  C   UNL     1      17.890  25.710   8.656  1.00  0.00    -0.003 C 
ATOM     18  C   UNL     1      19.014  26.665   9.051  1.00  0.00     0.004 C 
ENDBRANCH  16  17
ENDBRANCH  15  16
ENDBRANCH  14  15
ENDBRANCH  13  14
ENDBRANCH  12  13
ENDBRANCH  11  12
ENDBRANCH   1  11
TORSDOF 14
ENDMDL
MODEL 8
REMARK VINA RESULT:    -4.868      3.432      6.005
REMARK INTER + INTRA:         -11.091
REMARK INTER:                  -8.820
REMARK INTRA:                  -2.271
REMARK UNBOUND:                -2.238
REMARK SMILES CCCCCCCCCCCCCCCC(=O)[O-]
REMARK SMILES IDX 9 1 10 2 11 3 12 4 13 5 14 6 15 7 16 8 17 9 18 10 8 11 7 12
REMARK SMILES IDX 6 13 5 14 4 15 3 16 2 17 1 18
REMARK H PARENT
REMARK Flexibility Score: inf
ROOT
ATOM      1  C   UNL     1      21.000  23.136  10.133  1.00  0.00     0.000 C 
ENDROOT
BRANCH   1   2
ATOM      2  C   UNL     1      19.592  22.843  10.684  1.00  0.00     0.000 C 
BRANCH   2   3
ATOM      3  C   UNL     1      18.762  21.958   9.739  1.00  0.00     0.000 C 
BRANCH   3   4
ATOM      4  C   UNL     1      17.398  22.582   9.393  1.00  0.00     0.000 C 
BRANCH   4   5
ATOM      5  C   UNL     1      17.281  22.955   7.906  1.00  0.00     0.000 C 
BRANCH   5   6
ATOM      6  C   UNL     1      17.459  24.463   7.655  1.00  0.00     0.006 C 
BRANCH   6   7
ATOM      7  C   UNL     1      17.237  25.292   8.927  1.00  0.00     0.053 C 
BRANCH   7   8
ATOM      8  C   UNL     1      18.112  26.508   8.957  1.00  0.00     0.041 C 
ATOM      9  O   UNL     1      17.612  27.651   8.789  1.00  0.00    -0.550 OA
ATOM     10  O   UNL     1      19.473  26.381   9.207  1.00  0.00    -0.550 OA
ENDBRANCH   7   8
ENDBRANCH   6   7
ENDBRANCH   5   6
ENDBRANCH   4   5
ENDBRANCH   3   4
ENDBRANCH   2   3
ENDBRANCH   1   2
BRANCH   1  11
ATOM     11  C   UNL     1      21.030  23.208   8.597  1.00  0.00     0.000 C 
BRANCH  11  12
ATOM     12  C   UNL     1      21.876  22.088   7.970  1.00  0.00    -0.000 C 
BRANCH  12  13
ATOM     13  C   UNL     1      21.578  21.878   6.473  1.00  0.00    -0.000 C 
BRANCH  13  14
ATOM     14  C   UNL     1      20.208  22.401   6.001  1.00  0.00    -0.000 C 
BRANCH  14  15
ATOM     15  C   UNL     1      19.599  21.649   4.802  1.00  0.00    -0.000 C 
BRANCH  15  16
ATOM     16  C   UNL     1      18.411  20.737   5.178  1.00  0.00    -0.000 C 
BRANCH  16  17
ATOM     17  C   UNL     1      18.865  19.370   5.712  1.00  0.00    -0.003 C 
ATOM     18  C   UNL     1      18.705  19.291   7.228  1.00  0.00     0.004 C 
ENDBRANCH  16  17
ENDBRANCH  15  16
ENDBRANCH  14  15
ENDBRANCH  13  14
ENDBRANCH  12  13
ENDBRANCH  11  12
ENDBRANCH   1  11
TORSDOF 14
ENDMDL
MODEL 9
REMARK VINA RESULT:    -4.830      1.790      3.650
REMARK INTER + INTRA:         -11.021
REMARK INTER:                  -9.162
REMARK INTRA:                  -1.859
REMARK UNBOUND:                -2.238
REMARK SMILES CCCCCCCCCCCCCCCC(=O)[O-]
REMARK SMILES IDX 9 1 10 2 11 3 12 4 13 5 14 6 15 7 16 8 17 9 18 10 8 11 7 12
REMARK SMILES IDX 6 13 5 14 4 15 3 16 2 17 1 18
REMARK H PARENT
REMARK Flexibility Score: inf
ROOT
ATOM      1  C   UNL     1      20.924  23.244   9.667  1.00  0.00     0.000 C 
ENDROOT
BRANCH   1   2
ATOM      2  C   UNL     1      21.501  22.153   8.746  1.00  0.00     0.000 C 
BRANCH   2   3
ATOM      3  C   UNL     1      21.163  22.392   7.265  1.00  0.00     0.000 C 
BRANCH   3   4
ATOM      4  C   UNL     1      19.815  23.112   7.077  1.00  0.00     0.000 C 
BRANCH   4   5
ATOM      5  C   UNL     1      19.131  22.744   5.751  1.00  0.00     0.000 C 
BRANCH   5   6
ATOM      6  C   UNL     1      19.421  21.297   5.313  1.00  0.00     0.006 C 
BRANCH   6   7
ATOM      7  C   UNL     1      20.087  21.232   3.932  1.00  0.00     0.053 C 
BRANCH   7   8
ATOM      8  C   UNL     1      21.416  20.543   3.988  1.00  0.00     0.041 C 
ATOM      9  O   UNL     1      22.477  21.217   4.049  1.00  0.00    -0.550 OA
ATOM     10  O   UNL     1      21.479  19.155   4.013  1.00  0.00    -0.550 OA
ENDBRANCH   7   8
ENDBRANCH   6   7
ENDBRANCH   5   6
ENDBRANCH   4   5
ENDBRANCH   3   4
ENDBRANCH   2   3
ENDBRANCH   1   2
BRANCH   1  11
ATOM     11  C   UNL     1      20.000  22.670  10.755  1.00  0.00     0.000 C 
BRANCH  11  12
ATOM     12  C   UNL     1      18.949  21.702  10.187  1.00  0.00    -0.000 C 
BRANCH  12  13
ATOM     13  C   UNL     1      17.531  22.303  10.165  1.00  0.00    -0.000 C 
BRANCH  13  14
ATOM     14  C   UNL     1      17.285  23.432  11.183  1.00  0.00    -0.000 C 
BRANCH  14  15
ATOM     15  C   UNL     1      16.876  24.786  10.571  1.00  0.00    -0.000 C 
BRANCH  15  16
ATOM     16  C   UNL     1      17.257  24.937   9.083  1.00  0.00    -0.000 C 
BRANCH  16  17
ATOM     17  C   UNL     1      17.711  26.363   8.734  1.00  0.00    -0.003 C 
ATOM     18  C   UNL     1      19.164  26.593   9.144  1.00  0.00     0.004 C 
ENDBRANCH  16  17
ENDBRANCH  15  16
ENDBRANCH  14  15
ENDBRANCH  13  14
ENDBRANCH  12  13
ENDBRANCH  11  12
ENDBRANCH   1  11
TORSDOF 14
ENDMDL
