MODEL 1
REMARK VINA RESULT:    -5.982      0.000      0.000
REMARK INTER + INTRA:          -7.293
REMARK INTER:                  -7.031
REMARK INTRA:                  -0.262
REMARK UNBOUND:                -0.262
REMARK SMILES O=c1cc(-c2ccc(O)c(O)c2)oc2cc(O)cc(O)c12
REMARK SMILES IDX 4 1 3 2 2 3 1 4 21 5 19 6 18 7 16 8 15 9 14 10 13 11 5 12
REMARK SMILES IDX 6 13 7 14 8 15 12 16 10 17 9 18 11 20 20 22 17 24
REMARK H PARENT 9 19 11 21 20 23 17 25
REMARK Flexibility Score: inf
ROOT
ATOM      1  C   UNL     1       3.935  -3.533  -8.560  1.00  0.00     0.138 A 
ATOM      2  C   UNL     1       5.070  -4.136  -8.002  1.00  0.00     0.100 A 
ATOM      3  C   UNL     1       5.539  -5.342  -8.526  1.00  0.00     0.197 A 
ATOM      4  O   UNL     1       6.522  -5.892  -7.964  1.00  0.00    -0.289 OA
ATOM      5  C   UNL     1       4.885  -5.928  -9.635  1.00  0.00     0.107 A 
ATOM      6  C   UNL     1       5.298  -7.134 -10.277  1.00  0.00     0.134 A 
ATOM      7  C   UNL     1       4.504  -7.681 -11.294  1.00  0.00     0.093 A 
ATOM      8  C   UNL     1       3.347  -7.036 -11.731  1.00  0.00     0.123 A 
ATOM      9  C   UNL     1       2.964  -5.829 -11.147  1.00  0.00     0.094 A 
ATOM     10  C   UNL     1       3.715  -5.276 -10.107  1.00  0.00     0.146 A 
ATOM     11  O   UNL     1       3.308  -4.132  -9.566  1.00  0.00    -0.456 OA
ENDROOT
BRANCH   1  12
ATOM     12  C   UNL     1       3.395  -2.250  -8.043  1.00  0.00     0.021 A 
ATOM     13  C   UNL     1       2.310  -2.214  -7.145  1.00  0.00     0.016 A 
ATOM     14  C   UNL     1       1.829  -0.992  -6.666  1.00  0.00     0.051 A 
ATOM     15  C   UNL     1       2.424   0.209  -7.068  1.00  0.00     0.157 A 
ATOM     16  C   UNL     1       3.995  -1.038  -8.430  1.00  0.00     0.062 A 
ATOM     17  C   UNL     1       3.510   0.186  -7.950  1.00  0.00     0.158 A 
BRANCH  15  18
ATOM     18  O   UNL     1       1.944   1.429  -6.593  1.00  0.00    -0.504 OA
ATOM     19  H   UNL     1       0.994   1.731  -6.774  1.00  0.00     0.293 HD
ENDBRANCH  15  18
BRANCH  17  20
ATOM     20  O   UNL     1       4.103   1.384  -8.345  1.00  0.00    -0.504 OA
ATOM     21  H   UNL     1       3.837   1.849  -9.205  1.00  0.00     0.293 HD
ENDBRANCH  17  20
ENDBRANCH   1  12
BRANCH   6  22
ATOM     22  O   UNL     1       6.481  -7.815  -9.976  1.00  0.00    -0.507 OA
ATOM     23  H   UNL     1       6.566  -8.818  -9.905  1.00  0.00     0.293 HD
ENDBRANCH   6  22
BRANCH   8  24
ATOM     24  O   UNL     1       2.591  -7.602 -12.755  1.00  0.00    -0.508 OA
ATOM     25  H   UNL     1       1.810  -7.109 -13.171  1.00  0.00     0.293 HD
ENDBRANCH   8  24
TORSDOF 5
ENDMDL
MODEL 2
REMARK VINA RESULT:    -5.952      4.105      7.126
REMARK INTER + INTRA:          -7.258
REMARK INTER:                  -6.949
REMARK INTRA:                  -0.309
REMARK UNBOUND:                -0.262
REMARK SMILES O=c1cc(-c2ccc(O)c(O)c2)oc2cc(O)cc(O)c12
REMARK SMILES IDX 4 1 3 2 2 3 1 4 21 5 19 6 18 7 16 8 15 9 14 10 13 11 5 12
REMARK SMILES IDX 6 13 7 14 8 15 12 16 10 17 9 18 11 20 20 22 17 24
REMARK H PARENT 9 19 11 21 20 23 17 25
REMARK Flexibility Score: inf
ROOT
ATOM      1  C   UNL     1       2.162  -7.716  -9.177  1.00  0.00     0.138 A 
ATOM      2  C   UNL     1       1.467  -8.845  -9.632  1.00  0.00     0.100 A 
ATOM      3  C   UNL     1       0.098  -8.959  -9.385  1.00  0.00     0.197 A 
ATOM      4  O   UNL     1      -0.486 -10.012  -9.750  1.00  0.00    -0.289 OA
ATOM      5  C   UNL     1      -0.583  -7.921  -8.707  1.00  0.00     0.107 A 
ATOM      6  C   UNL     1      -1.984  -7.910  -8.435  1.00  0.00     0.134 A 
ATOM      7  C   UNL     1      -2.527  -6.882  -7.653  1.00  0.00     0.093 A 
ATOM      8  C   UNL     1      -1.734  -5.836  -7.185  1.00  0.00     0.123 A 
ATOM      9  C   UNL     1      -0.372  -5.808  -7.490  1.00  0.00     0.094 A 
ATOM     10  C   UNL     1       0.206  -6.836  -8.238  1.00  0.00     0.146 A 
ATOM     11  O   UNL     1       1.509  -6.781  -8.494  1.00  0.00    -0.456 OA
ENDROOT
BRANCH   1  12
ATOM     12  C   UNL     1       3.618  -7.543  -9.412  1.00  0.00     0.021 A 
ATOM     13  C   UNL     1       4.468  -8.646  -9.626  1.00  0.00     0.016 A 
ATOM     14  C   UNL     1       5.833  -8.453  -9.856  1.00  0.00     0.051 A 
ATOM     15  C   UNL     1       6.370  -7.161  -9.884  1.00  0.00     0.157 A 
ATOM     16  C   UNL     1       4.164  -6.248  -9.456  1.00  0.00     0.062 A 
ATOM     17  C   UNL     1       5.534  -6.056  -9.686  1.00  0.00     0.158 A 
BRANCH  15  18
ATOM     18  O   UNL     1       7.731  -6.965 -10.112  1.00  0.00    -0.504 OA
ATOM     19  H   UNL     1       8.323  -7.712 -10.457  1.00  0.00     0.293 HD
ENDBRANCH  15  18
BRANCH  17  20
ATOM     20  O   UNL     1       6.070  -4.769  -9.719  1.00  0.00    -0.504 OA
ATOM     21  H   UNL     1       6.726  -4.487 -10.437  1.00  0.00     0.293 HD
ENDBRANCH  17  20
ENDBRANCH   1  12
BRANCH   6  22
ATOM     22  O   UNL     1      -2.883  -8.861  -8.926  1.00  0.00    -0.507 OA
ATOM     23  H   UNL     1      -2.687  -9.847  -9.015  1.00  0.00     0.293 HD
ENDBRANCH   6  22
BRANCH   8  24
ATOM     24  O   UNL     1      -2.312  -4.823  -6.423  1.00  0.00    -0.508 OA
ATOM     25  H   UNL     1      -3.316  -4.695  -6.387  1.00  0.00     0.293 HD
ENDBRANCH   8  24
TORSDOF 5
ENDMDL
MODEL 3
REMARK VINA RESULT:    -5.917      2.616      4.228
REMARK INTER + INTRA:          -7.217
REMARK INTER:                  -6.945
REMARK INTRA:                  -0.273
REMARK UNBOUND:                -0.262
REMARK SMILES O=c1cc(-c2ccc(O)c(O)c2)oc2cc(O)cc(O)c12
REMARK SMILES IDX 4 1 3 2 2 3 1 4 21 5 19 6 18 7 16 8 15 9 14 10 13 11 5 12
REMARK SMILES IDX 6 13 7 14 8 15 12 16 10 17 9 18 11 20 20 22 17 24
REMARK H PARENT 9 19 11 21 20 23 17 25
REMARK Flexibility Score: inf
ROOT
ATOM      1  C   UNL     1       3.803   0.249  -7.947  1.00  0.00     0.138 A 
ATOM      2  C   UNL     1       4.592   0.388  -9.097  1.00  0.00     0.100 A 
ATOM      3  C   UNL     1       4.950  -0.745  -9.830  1.00  0.00     0.197 A 
ATOM      4  O   UNL     1       5.711  -0.596 -10.821  1.00  0.00    -0.289 OA
ATOM      5  C   UNL     1       4.488  -2.019  -9.424  1.00  0.00     0.107 A 
ATOM      6  C   UNL     1       4.756  -3.239 -10.116  1.00  0.00     0.134 A 
ATOM      7  C   UNL     1       4.343  -4.455  -9.556  1.00  0.00     0.093 A 
ATOM      8  C   UNL     1       3.621  -4.492  -8.364  1.00  0.00     0.123 A 
ATOM      9  C   UNL     1       3.307  -3.301  -7.707  1.00  0.00     0.094 A 
ATOM     10  C   UNL     1       3.734  -2.075  -8.221  1.00  0.00     0.146 A 
ATOM     11  O   UNL     1       3.428  -0.965  -7.558  1.00  0.00    -0.456 OA
ENDROOT
BRANCH   1  12
ATOM     12  C   UNL     1       3.392   1.420  -7.132  1.00  0.00     0.021 A 
ATOM     13  C   UNL     1       2.061   1.590  -6.701  1.00  0.00     0.016 A 
ATOM     14  C   UNL     1       1.705   2.697  -5.925  1.00  0.00     0.051 A 
ATOM     15  C   UNL     1       2.668   3.644  -5.560  1.00  0.00     0.157 A 
ATOM     16  C   UNL     1       4.355   2.370  -6.749  1.00  0.00     0.062 A 
ATOM     17  C   UNL     1       3.996   3.480  -5.971  1.00  0.00     0.158 A 
BRANCH  15  18
ATOM     18  O   UNL     1       2.315   4.750  -4.788  1.00  0.00    -0.504 OA
ATOM     19  H   UNL     1       1.806   5.532  -5.184  1.00  0.00     0.293 HD
ENDBRANCH  15  18
BRANCH  17  20
ATOM     20  O   UNL     1       4.954   4.423  -5.603  1.00  0.00    -0.504 OA
ATOM     21  H   UNL     1       5.912   4.157  -5.408  1.00  0.00     0.293 HD
ENDBRANCH  17  20
ENDBRANCH   1  12
BRANCH   6  22
ATOM     22  O   UNL     1       5.396  -3.309 -11.357  1.00  0.00    -0.507 OA
ATOM     23  H   UNL     1       5.095  -2.823 -12.189  1.00  0.00     0.293 HD
ENDBRANCH   6  22
BRANCH   8  24
ATOM     24  O   UNL     1       3.214  -5.719  -7.846  1.00  0.00    -0.508 OA
ATOM     25  H   UNL     1       3.162  -5.881  -6.847  1.00  0.00     0.293 HD
ENDBRANCH   8  24
TORSDOF 5
ENDMDL
MODEL 4
REMARK VINA RESULT:    -5.843      2.489      7.970
REMARK INTER + INTRA:          -7.130
REMARK INTER:                  -6.857
REMARK INTRA:                  -0.273
REMARK UNBOUND:                -0.262
REMARK SMILES O=c1cc(-c2ccc(O)c(O)c2)oc2cc(O)cc(O)c12
REMARK SMILES IDX 4 1 3 2 2 3 1 4 21 5 19 6 18 7 16 8 15 9 14 10 13 11 5 12
REMARK SMILES IDX 6 13 7 14 8 15 12 16 10 17 9 18 11 20 20 22 17 24
REMARK H PARENT 9 19 11 21 20 23 17 25
REMARK Flexibility Score: inf
ROOT
ATOM      1  C   UNL     1       2.994  -1.190  -7.668  1.00  0.00     0.138 A 
ATOM      2  C   UNL     1       1.679  -1.434  -7.250  1.00  0.00     0.100 A 
ATOM      3  C   UNL     1       0.891  -0.375  -6.796  1.00  0.00     0.197 A 
ATOM      4  O   UNL     1      -0.264  -0.635  -6.368  1.00  0.00    -0.289 OA
ATOM      5  C   UNL     1       1.414   0.940  -6.793  1.00  0.00     0.107 A 
ATOM      6  C   UNL     1       0.689   2.101  -6.391  1.00  0.00     0.134 A 
ATOM      7  C   UNL     1       1.348   3.336  -6.319  1.00  0.00     0.093 A 
ATOM      8  C   UNL     1       2.686   3.461  -6.691  1.00  0.00     0.123 A 
ATOM      9  C   UNL     1       3.389   2.342  -7.137  1.00  0.00     0.094 A 
ATOM     10  C   UNL     1       2.771   1.091  -7.186  1.00  0.00     0.146 A 
ATOM     11  O   UNL     1       3.479   0.046  -7.603  1.00  0.00    -0.456 OA
ENDROOT
BRANCH   1  12
ATOM     12  C   UNL     1       3.876  -2.278  -8.160  1.00  0.00     0.021 A 
ATOM     13  C   UNL     1       4.267  -3.345  -7.328  1.00  0.00     0.016 A 
ATOM     14  C   UNL     1       5.090  -4.362  -7.821  1.00  0.00     0.051 A 
ATOM     15  C   UNL     1       5.528  -4.336  -9.150  1.00  0.00     0.157 A 
ATOM     16  C   UNL     1       4.310  -2.268  -9.497  1.00  0.00     0.062 A 
ATOM     17  C   UNL     1       5.136  -3.288  -9.990  1.00  0.00     0.158 A 
BRANCH  15  18
ATOM     18  O   UNL     1       6.349  -5.348  -9.643  1.00  0.00    -0.504 OA
ATOM     19  H   UNL     1       7.222  -5.139 -10.114  1.00  0.00     0.293 HD
ENDBRANCH  15  18
BRANCH  17  20
ATOM     20  O   UNL     1       5.570  -3.266 -11.315  1.00  0.00    -0.504 OA
ATOM     21  H   UNL     1       4.918  -3.333 -12.087  1.00  0.00     0.293 HD
ENDBRANCH  17  20
ENDBRANCH   1  12
BRANCH   6  22
ATOM     22  O   UNL     1      -0.674   2.104  -6.079  1.00  0.00    -0.507 OA
ATOM     23  H   UNL     1      -1.124   2.768  -5.467  1.00  0.00     0.293 HD
ENDBRANCH   6  22
BRANCH   8  24
ATOM     24  O   UNL     1       3.304   4.708  -6.621  1.00  0.00    -0.508 OA
ATOM     25  H   UNL     1       2.904   5.468  -6.084  1.00  0.00     0.293 HD
ENDBRANCH   8  24
TORSDOF 5
ENDMDL
MODEL 5
REMARK VINA RESULT:    -5.841      2.482      7.645
REMARK INTER + INTRA:          -7.127
REMARK INTER:                  -6.863
REMARK INTRA:                  -0.264
REMARK UNBOUND:                -0.262
REMARK SMILES O=c1cc(-c2ccc(O)c(O)c2)oc2cc(O)cc(O)c12
REMARK SMILES IDX 4 1 3 2 2 3 1 4 21 5 19 6 18 7 16 8 15 9 14 10 13 11 5 12
REMARK SMILES IDX 6 13 7 14 8 15 12 16 10 17 9 18 11 20 20 22 17 24
REMARK H PARENT 9 19 11 21 20 23 17 25
REMARK Flexibility Score: inf
ROOT
ATOM      1  C   UNL     1       3.333  -0.837  -7.886  1.00  0.00     0.138 A 
ATOM      2  C   UNL     1       3.924   0.432  -7.822  1.00  0.00     0.100 A 
ATOM      3  C   UNL     1       3.174   1.521  -7.373  1.00  0.00     0.197 A 
ATOM      4  O   UNL     1       3.712   2.659  -7.386  1.00  0.00    -0.289 OA
ATOM      5  C   UNL     1       1.836   1.329  -6.956  1.00  0.00     0.107 A 
ATOM      6  C   UNL     1       0.990   2.357  -6.443  1.00  0.00     0.134 A 
ATOM      7  C   UNL     1      -0.355   2.072  -6.171  1.00  0.00     0.093 A 
ATOM      8  C   UNL     1      -0.867   0.786  -6.337  1.00  0.00     0.123 A 
ATOM      9  C   UNL     1      -0.035  -0.239  -6.787  1.00  0.00     0.094 A 
ATOM     10  C   UNL     1       1.302   0.020  -7.100  1.00  0.00     0.146 A 
ATOM     11  O   UNL     1       2.058  -0.979  -7.540  1.00  0.00    -0.456 OA
ENDROOT
BRANCH   1  12
ATOM     12  C   UNL     1       4.085  -2.029  -8.354  1.00  0.00     0.021 A 
ATOM     13  C   UNL     1       4.261  -3.161  -7.534  1.00  0.00     0.016 A 
ATOM     14  C   UNL     1       4.963  -4.273  -8.005  1.00  0.00     0.051 A 
ATOM     15  C   UNL     1       5.493  -4.279  -9.301  1.00  0.00     0.157 A 
ATOM     16  C   UNL     1       4.609  -2.049  -9.659  1.00  0.00     0.062 A 
ATOM     17  C   UNL     1       5.314  -3.166 -10.130  1.00  0.00     0.158 A 
BRANCH  15  18
ATOM     18  O   UNL     1       6.196  -5.386  -9.772  1.00  0.00    -0.504 OA
ATOM     19  H   UNL     1       7.198  -5.471  -9.647  1.00  0.00     0.293 HD
ENDBRANCH  15  18
BRANCH  17  20
ATOM     20  O   UNL     1       5.840  -3.175 -11.421  1.00  0.00    -0.504 OA
ATOM     21  H   UNL     1       6.510  -3.876 -11.716  1.00  0.00     0.293 HD
ENDBRANCH  17  20
ENDBRANCH   1  12
BRANCH   6  22
ATOM     22  O   UNL     1       1.421   3.656  -6.159  1.00  0.00    -0.507 OA
ATOM     23  H   UNL     1       2.204   3.886  -5.566  1.00  0.00     0.293 HD
ENDBRANCH   6  22
BRANCH   8  24
ATOM     24  O   UNL     1      -2.206   0.536  -6.042  1.00  0.00    -0.508 OA
ATOM     25  H   UNL     1      -2.802   0.023  -6.680  1.00  0.00     0.293 HD
ENDBRANCH   8  24
TORSDOF 5
ENDMDL
MODEL 6
REMARK VINA RESULT:    -5.755      2.571      7.290
REMARK INTER + INTRA:          -7.026
REMARK INTER:                  -6.764
REMARK INTRA:                  -0.262
REMARK UNBOUND:                -0.262
REMARK SMILES O=c1cc(-c2ccc(O)c(O)c2)oc2cc(O)cc(O)c12
REMARK SMILES IDX 4 1 3 2 2 3 1 4 21 5 19 6 18 7 16 8 15 9 14 10 13 11 5 12
REMARK SMILES IDX 6 13 7 14 8 15 12 16 10 17 9 18 11 20 20 22 17 24
REMARK H PARENT 9 19 11 21 20 23 17 25
REMARK Flexibility Score: inf
ROOT
ATOM      1  C   UNL     1       2.387  -1.873  -7.629  1.00  0.00     0.138 A 
ATOM      2  C   UNL     1       2.574  -0.490  -7.505  1.00  0.00     0.100 A 
ATOM      3  C   UNL     1       1.518   0.314  -7.072  1.00  0.00     0.197 A 
ATOM      4  O   UNL     1       1.697   1.558  -7.030  1.00  0.00    -0.289 OA
ATOM      5  C   UNL     1       0.279  -0.278  -6.732  1.00  0.00     0.107 A 
ATOM      6  C   UNL     1      -0.855   0.437  -6.241  1.00  0.00     0.134 A 
ATOM      7  C   UNL     1      -2.067  -0.239  -6.049  1.00  0.00     0.093 A 
ATOM      8  C   UNL     1      -2.170  -1.612  -6.271  1.00  0.00     0.123 A 
ATOM      9  C   UNL     1      -1.053  -2.330  -6.699  1.00  0.00     0.094 A 
ATOM     10  C   UNL     1       0.160  -1.679  -6.934  1.00  0.00     0.146 A 
ATOM     11  O   UNL     1       1.196  -2.396  -7.356  1.00  0.00    -0.456 OA
ENDROOT
BRANCH   1  12
ATOM     12  C   UNL     1       3.476  -2.775  -8.084  1.00  0.00     0.021 A 
ATOM     13  C   UNL     1       4.258  -3.508  -7.170  1.00  0.00     0.016 A 
ATOM     14  C   UNL     1       5.270  -4.357  -7.627  1.00  0.00     0.051 A 
ATOM     15  C   UNL     1       5.513  -4.494  -8.999  1.00  0.00     0.157 A 
ATOM     16  C   UNL     1       3.718  -2.929  -9.461  1.00  0.00     0.062 A 
ATOM     17  C   UNL     1       4.734  -3.781  -9.917  1.00  0.00     0.158 A 
BRANCH  15  18
ATOM     18  O   UNL     1       6.522  -5.339  -9.457  1.00  0.00    -0.504 OA
ATOM     19  H   UNL     1       6.469  -5.784 -10.366  1.00  0.00     0.293 HD
ENDBRANCH  15  18
BRANCH  17  20
ATOM     20  O   UNL     1       4.975  -3.922 -11.283  1.00  0.00    -0.504 OA
ATOM     21  H   UNL     1       4.305  -4.369 -11.896  1.00  0.00     0.293 HD
ENDBRANCH  17  20
ENDBRANCH   1  12
BRANCH   6  22
ATOM     22  O   UNL     1      -0.838   1.794  -5.905  1.00  0.00    -0.507 OA
ATOM     23  H   UNL     1      -1.231   2.532  -6.470  1.00  0.00     0.293 HD
ENDBRANCH   6  22
BRANCH   8  24
ATOM     24  O   UNL     1      -3.387  -2.253  -6.054  1.00  0.00    -0.508 OA
ATOM     25  H   UNL     1      -4.144  -1.799  -5.557  1.00  0.00     0.293 HD
ENDBRANCH   8  24
TORSDOF 5
ENDMDL
MODEL 7
REMARK VINA RESULT:    -5.740      2.860      4.562
REMARK INTER + INTRA:          -7.009
REMARK INTER:                  -6.743
REMARK INTRA:                  -0.266
REMARK UNBOUND:                -0.262
REMARK SMILES O=c1cc(-c2ccc(O)c(O)c2)oc2cc(O)cc(O)c12
REMARK SMILES IDX 4 1 3 2 2 3 1 4 21 5 19 6 18 7 16 8 15 9 14 10 13 11 5 12
REMARK SMILES IDX 6 13 7 14 8 15 12 16 10 17 9 18 11 20 20 22 17 24
REMARK H PARENT 9 19 11 21 20 23 17 25
REMARK Flexibility Score: inf
ROOT
ATOM      1  C   UNL     1       2.194  -0.210  -7.117  1.00  0.00     0.138 A 
ATOM      2  C   UNL     1       2.043  -1.414  -6.414  1.00  0.00     0.100 A 
ATOM      3  C   UNL     1       2.765  -2.540  -6.811  1.00  0.00     0.197 A 
ATOM      4  O   UNL     1       2.561  -3.622  -6.200  1.00  0.00    -0.289 OA
ATOM      5  C   UNL     1       3.667  -2.450  -7.897  1.00  0.00     0.107 A 
ATOM      6  C   UNL     1       4.486  -3.521  -8.364  1.00  0.00     0.134 A 
ATOM      7  C   UNL     1       5.255  -3.348  -9.522  1.00  0.00     0.093 A 
ATOM      8  C   UNL     1       5.282  -2.127 -10.193  1.00  0.00     0.123 A 
ATOM      9  C   UNL     1       4.527  -1.056  -9.714  1.00  0.00     0.094 A 
ATOM     10  C   UNL     1       3.722  -1.207  -8.583  1.00  0.00     0.146 A 
ATOM     11  O   UNL     1       3.006  -0.168  -8.167  1.00  0.00    -0.456 OA
ENDROOT
BRANCH   1  12
ATOM     12  C   UNL     1       1.451   1.018  -6.737  1.00  0.00     0.021 A 
ATOM     13  C   UNL     1       0.096   1.198  -7.081  1.00  0.00     0.016 A 
ATOM     14  C   UNL     1      -0.581   2.360  -6.701  1.00  0.00     0.051 A 
ATOM     15  C   UNL     1       0.076   3.355  -5.969  1.00  0.00     0.157 A 
ATOM     16  C   UNL     1       2.099   2.017  -5.990  1.00  0.00     0.062 A 
ATOM     17  C   UNL     1       1.418   3.183  -5.611  1.00  0.00     0.158 A 
BRANCH  15  18
ATOM     18  O   UNL     1      -0.597   4.516  -5.591  1.00  0.00    -0.504 OA
ATOM     19  H   UNL     1      -0.178   5.432  -5.703  1.00  0.00     0.293 HD
ENDBRANCH  15  18
BRANCH  17  20
ATOM     20  O   UNL     1       2.070   4.174  -4.878  1.00  0.00    -0.504 OA
ATOM     21  H   UNL     1       2.956   4.560  -5.180  1.00  0.00     0.293 HD
ENDBRANCH  17  20
ENDBRANCH   1  12
BRANCH   6  22
ATOM     22  O   UNL     1       4.599  -4.757  -7.719  1.00  0.00    -0.507 OA
ATOM     23  H   UNL     1       5.446  -5.112  -7.299  1.00  0.00     0.293 HD
ENDBRANCH   6  22
BRANCH   8  24
ATOM     24  O   UNL     1       6.071  -1.987 -11.333  1.00  0.00    -0.508 OA
ATOM     25  H   UNL     1       6.410  -1.080 -11.634  1.00  0.00     0.293 HD
ENDBRANCH   8  24
TORSDOF 5
ENDMDL
MODEL 8
REMARK VINA RESULT:    -5.734      4.380      7.089
REMARK INTER + INTRA:          -7.002
REMARK INTER:                  -6.739
REMARK INTRA:                  -0.262
REMARK UNBOUND:                -0.262
REMARK SMILES O=c1cc(-c2ccc(O)c(O)c2)oc2cc(O)cc(O)c12
REMARK SMILES IDX 4 1 3 2 2 3 1 4 21 5 19 6 18 7 16 8 15 9 14 10 13 11 5 12
REMARK SMILES IDX 6 13 7 14 8 15 12 16 10 17 9 18 11 20 20 22 17 24
REMARK H PARENT 9 19 11 21 20 23 17 25
REMARK Flexibility Score: inf
ROOT
ATOM      1  C   UNL     1       2.652  -7.773  -9.865  1.00  0.00     0.138 A 
ATOM      2  C   UNL     1       1.874  -7.269 -10.916  1.00  0.00     0.100 A 
ATOM      3  C   UNL     1       0.488  -7.437 -10.891  1.00  0.00     0.197 A 
ATOM      4  O   UNL     1      -0.178  -7.030 -11.878  1.00  0.00    -0.289 OA
ATOM      5  C   UNL     1      -0.121  -8.084  -9.791  1.00  0.00     0.107 A 
ATOM      6  C   UNL     1      -1.527  -8.276  -9.638  1.00  0.00     0.134 A 
ATOM      7  C   UNL     1      -2.008  -9.035  -8.563  1.00  0.00     0.093 A 
ATOM      8  C   UNL     1      -1.140  -9.556  -7.604  1.00  0.00     0.123 A 
ATOM      9  C   UNL     1       0.232  -9.329  -7.714  1.00  0.00     0.094 A 
ATOM     10  C   UNL     1       0.745  -8.607  -8.794  1.00  0.00     0.146 A 
ATOM     11  O   UNL     1       2.059  -8.425  -8.871  1.00  0.00    -0.456 OA
ENDROOT
BRANCH   1  12
ATOM     12  C   UNL     1       4.129  -7.622  -9.841  1.00  0.00     0.021 A 
ATOM     13  C   UNL     1       4.983  -8.629 -10.332  1.00  0.00     0.016 A 
ATOM     14  C   UNL     1       6.370  -8.456 -10.306  1.00  0.00     0.051 A 
ATOM     15  C   UNL     1       6.926  -7.275  -9.800  1.00  0.00     0.157 A 
ATOM     16  C   UNL     1       4.697  -6.434  -9.347  1.00  0.00     0.062 A 
ATOM     17  C   UNL     1       6.088  -6.262  -9.321  1.00  0.00     0.158 A 
BRANCH  15  18
ATOM     18  O   UNL     1       8.308  -7.101  -9.771  1.00  0.00    -0.504 OA
ATOM     19  H   UNL     1       8.737  -6.357  -9.233  1.00  0.00     0.293 HD
ENDBRANCH  15  18
BRANCH  17  20
ATOM     20  O   UNL     1       6.644  -5.085  -8.821  1.00  0.00    -0.504 OA
ATOM     21  H   UNL     1       7.151  -5.070  -7.944  1.00  0.00     0.293 HD
ENDBRANCH  17  20
ENDBRANCH   1  12
BRANCH   6  22
ATOM     22  O   UNL     1      -2.489  -7.726 -10.491  1.00  0.00    -0.507 OA
ATOM     23  H   UNL     1      -3.020  -6.890 -10.299  1.00  0.00     0.293 HD
ENDBRANCH   6  22
BRANCH   8  24
ATOM     24  O   UNL     1      -1.655 -10.293  -6.539  1.00  0.00    -0.508 OA
ATOM     25  H   UNL     1      -1.850  -9.862  -5.643  1.00  0.00     0.293 HD
ENDBRANCH   8  24
TORSDOF 5
ENDMDL
MODEL 9
REMARK VINA RESULT:    -5.603      3.233      5.896
REMARK INTER + INTRA:          -6.848
REMARK INTER:                  -6.583
REMARK INTRA:                  -0.265
REMARK UNBOUND:                -0.262
REMARK SMILES O=c1cc(-c2ccc(O)c(O)c2)oc2cc(O)cc(O)c12
REMARK SMILES IDX 4 1 3 2 2 3 1 4 21 5 19 6 18 7 16 8 15 9 14 10 13 11 5 12
REMARK SMILES IDX 6 13 7 14 8 15 12 16 10 17 9 18 11 20 20 22 17 24
REMARK H PARENT 9 19 11 21 20 23 17 25
REMARK Flexibility Score: inf
ROOT
ATOM      1  C   UNL     1       2.110  -5.687 -11.383  1.00  0.00     0.138 A 
ATOM      2  C   UNL     1       2.529  -4.634 -10.558  1.00  0.00     0.100 A 
ATOM      3  C   UNL     1       3.740  -4.734  -9.872  1.00  0.00     0.197 A 
ATOM      4  O   UNL     1       4.059  -3.801  -9.090  1.00  0.00    -0.289 OA
ATOM      5  C   UNL     1       4.550  -5.882 -10.040  1.00  0.00     0.107 A 
ATOM      6  C   UNL     1       5.822  -6.076  -9.423  1.00  0.00     0.134 A 
ATOM      7  C   UNL     1       6.481  -7.304  -9.569  1.00  0.00     0.093 A 
ATOM      8  C   UNL     1       5.944  -8.320 -10.358  1.00  0.00     0.123 A 
ATOM      9  C   UNL     1       4.726  -8.122 -11.010  1.00  0.00     0.094 A 
ATOM     10  C   UNL     1       4.028  -6.922 -10.855  1.00  0.00     0.146 A 
ATOM     11  O   UNL     1       2.864  -6.777 -11.480  1.00  0.00    -0.456 OA
ENDROOT
BRANCH   1  12
ATOM     12  C   UNL     1       0.832  -5.633 -12.136  1.00  0.00     0.021 A 
ATOM     13  C   UNL     1      -0.398  -5.954 -11.529  1.00  0.00     0.016 A 
ATOM     14  C   UNL     1      -1.588  -5.885 -12.259  1.00  0.00     0.051 A 
ATOM     15  C   UNL     1      -1.571  -5.487 -13.601  1.00  0.00     0.157 A 
ATOM     16  C   UNL     1       0.836  -5.222 -13.481  1.00  0.00     0.062 A 
ATOM     17  C   UNL     1      -0.358  -5.153 -14.213  1.00  0.00     0.158 A 
BRANCH  15  18
ATOM     18  O   UNL     1      -2.756  -5.418 -14.332  1.00  0.00    -0.504 OA
ATOM     19  H   UNL     1      -3.356  -4.603 -14.294  1.00  0.00     0.293 HD
ENDBRANCH  15  18
BRANCH  17  20
ATOM     20  O   UNL     1      -0.345  -4.753 -15.548  1.00  0.00    -0.504 OA
ATOM     21  H   UNL     1       0.354  -4.111 -15.903  1.00  0.00     0.293 HD
ENDBRANCH  17  20
ENDBRANCH   1  12
BRANCH   6  22
ATOM     22  O   UNL     1       6.490  -5.095  -8.683  1.00  0.00    -0.507 OA
ATOM     23  H   UNL     1       7.477  -4.896  -8.748  1.00  0.00     0.293 HD
ENDBRANCH   6  22
BRANCH   8  24
ATOM     24  O   UNL     1       6.635  -9.522 -10.494  1.00  0.00    -0.508 OA
ATOM     25  H   UNL     1       7.091  -9.963  -9.704  1.00  0.00     0.293 HD
ENDBRANCH   8  24
TORSDOF 5
ENDMDL
