MODEL 1
REMARK VINA RESULT:    -7.314      0.000      0.000
REMARK INTER + INTRA:         -11.820
REMARK INTER:                 -10.735
REMARK INTRA:                  -1.085
REMARK UNBOUND:                -1.085
REMARK SMILES O=c1c(O[C@H]2O[C@H](CO)[C@@H](O)[C@@H](O)[C@H]2O)c(-c2ccc(O)c(O)c2)oc2cc(O)cc(O)c12
REMARK SMILES IDX 4 1 3 2 16 3 25 4 2 5 26 6 1 7 33 8 27 9 31 10 28 11 30 12
REMARK SMILES IDX 17 13 18 14 19 15 20 16 24 17 22 18 21 19 23 21 32 23 29 25
REMARK SMILES IDX 5 27 14 28 6 29 12 30 7 31 10 32 15 33 13 35 8 37 9 38 11 40
REMARK H PARENT 21 20 23 22 32 24 29 26 15 34 13 36 9 39 11 41
REMARK Flexibility Score: inf
ROOT
ATOM      1  O   UNL     1       7.953  86.613  79.901  1.00  0.00    -0.454 OA
ENDROOT
BRANCH   1   2
ATOM      2  C   UNL     1       8.967  87.455  79.432  1.00  0.00     0.214 A 
ATOM      3  C   UNL     1      10.305  87.161  79.744  1.00  0.00     0.180 A 
ATOM      4  O   UNL     1      11.293  87.742  79.063  1.00  0.00    -0.452 OA
ATOM      5  C   UNL     1       8.704  88.497  78.534  1.00  0.00     0.239 A 
ATOM      6  C   UNL     1      11.093  88.693  78.164  1.00  0.00     0.146 A 
ATOM      7  O   UNL     1       7.493  88.757  78.191  1.00  0.00    -0.285 OA
ATOM      8  C   UNL     1       9.780  89.190  77.942  1.00  0.00     0.111 A 
ATOM      9  C   UNL     1      12.183  89.223  77.468  1.00  0.00     0.094 A 
ATOM     10  C   UNL     1       9.606  90.353  77.146  1.00  0.00     0.134 A 
ATOM     11  C   UNL     1      11.987  90.325  76.615  1.00  0.00     0.123 A 
ATOM     12  C   UNL     1      10.717  90.913  76.498  1.00  0.00     0.093 A 
BRANCH   3  13
ATOM     13  C   UNL     1      10.646  86.259  80.862  1.00  0.00     0.025 A 
ATOM     14  C   UNL     1      11.657  85.303  80.669  1.00  0.00     0.016 A 
ATOM     15  C   UNL     1      11.916  84.336  81.655  1.00  0.00     0.051 A 
ATOM     16  C   UNL     1      11.117  84.275  82.812  1.00  0.00     0.157 A 
ATOM     17  C   UNL     1       9.846  86.203  82.007  1.00  0.00     0.062 A 
ATOM     18  C   UNL     1      10.080  85.209  82.989  1.00  0.00     0.158 A 
BRANCH  16  19
ATOM     19  O   UNL     1      11.316  83.277  83.771  1.00  0.00    -0.504 OA
ATOM     20  H   UNL     1      10.663  83.131  84.526  1.00  0.00     0.293 HD
ENDBRANCH  16  19
BRANCH  18  21
ATOM     21  O   UNL     1       9.270  85.111  84.123  1.00  0.00    -0.504 OA
ATOM     22  H   UNL     1       8.443  85.697  84.236  1.00  0.00     0.293 HD
ENDBRANCH  18  21
ENDBRANCH   3  13
BRANCH  10  23
ATOM     23  O   UNL     1       8.355  90.975  77.006  1.00  0.00    -0.507 OA
ATOM     24  H   UNL     1       7.964  91.511  77.790  1.00  0.00     0.293 HD
ENDBRANCH  10  23
BRANCH  11  25
ATOM     25  O   UNL     1      13.044  90.821  75.852  1.00  0.00    -0.508 OA
ATOM     26  H   UNL     1      13.439  90.288  75.084  1.00  0.00     0.293 HD
ENDBRANCH  11  25
ENDBRANCH   1   2
BRANCH   1  27
ATOM     27  C   UNL     1       7.397  85.483  79.221  1.00  0.00     0.339 C 
ATOM     28  C   UNL     1       5.869  85.593  79.354  1.00  0.00     0.214 C 
ATOM     29  O   UNL     1       7.805  84.281  79.818  1.00  0.00    -0.332 OA
ATOM     30  C   UNL     1       5.169  84.331  78.781  1.00  0.00     0.180 C 
ATOM     31  C   UNL     1       7.415  83.129  79.055  1.00  0.00     0.179 C 
ATOM     32  C   UNL     1       6.176  83.350  78.126  1.00  0.00     0.177 C 
BRANCH  28  33
ATOM     33  O   UNL     1       5.562  85.753  80.715  1.00  0.00    -0.384 OA
ATOM     34  H   UNL     1       6.255  85.254  81.225  1.00  0.00     0.211 HD
ENDBRANCH  28  33
BRANCH  30  35
ATOM     35  O   UNL     1       4.352  83.712  79.765  1.00  0.00    -0.387 OA
ATOM     36  H   UNL     1       4.419  84.226  80.615  1.00  0.00     0.211 HD
ENDBRANCH  30  35
BRANCH  31  37
ATOM     37  C   UNL     1       8.616  82.596  78.261  1.00  0.00     0.191 C 
BRANCH  37  38
ATOM     38  O   UNL     1       8.342  81.297  77.792  1.00  0.00    -0.394 OA
ATOM     39  H   UNL     1       8.355  80.715  78.591  1.00  0.00     0.210 HD
ENDBRANCH  37  38
ENDBRANCH  31  37
BRANCH  32  40
ATOM     40  O   UNL     1       5.552  82.123  77.829  1.00  0.00    -0.387 OA
ATOM     41  H   UNL     1       6.279  81.451  77.677  1.00  0.00     0.211 HD
ENDBRANCH  32  40
ENDBRANCH   1  27
TORSDOF 12
ENDMDL
MODEL 2
REMARK VINA RESULT:    -6.831      2.755      5.272
REMARK INTER + INTRA:         -11.111
REMARK INTER:                 -10.002
REMARK INTRA:                  -1.108
REMARK UNBOUND:                -1.085
REMARK SMILES O=c1c(O[C@H]2O[C@H](CO)[C@@H](O)[C@@H](O)[C@H]2O)c(-c2ccc(O)c(O)c2)oc2cc(O)cc(O)c12
REMARK SMILES IDX 4 1 3 2 16 3 25 4 2 5 26 6 1 7 33 8 27 9 31 10 28 11 30 12
REMARK SMILES IDX 17 13 18 14 19 15 20 16 24 17 22 18 21 19 23 21 32 23 29 25
REMARK SMILES IDX 5 27 14 28 6 29 12 30 7 31 10 32 15 33 13 35 8 37 9 38 11 40
REMARK H PARENT 21 20 23 22 32 24 29 26 15 34 13 36 9 39 11 41
REMARK Flexibility Score: inf
ROOT
ATOM      1  O   UNL     1       8.301  85.481  77.941  1.00  0.00    -0.454 OA
ENDROOT
BRANCH   1   2
ATOM      2  C   UNL     1       9.170  86.526  78.272  1.00  0.00     0.214 A 
ATOM      3  C   UNL     1       8.664  87.831  78.392  1.00  0.00     0.180 A 
ATOM      4  O   UNL     1       9.381  88.772  79.006  1.00  0.00    -0.452 OA
ATOM      5  C   UNL     1      10.502  86.291  78.636  1.00  0.00     0.239 A 
ATOM      6  C   UNL     1      10.625  88.582  79.418  1.00  0.00     0.146 A 
ATOM      7  O   UNL     1      10.979  85.098  78.585  1.00  0.00    -0.285 OA
ATOM      8  C   UNL     1      11.279  87.350  79.147  1.00  0.00     0.111 A 
ATOM      9  C   UNL     1      11.293  89.612  80.087  1.00  0.00     0.094 A 
ATOM     10  C   UNL     1      12.672  87.238  79.394  1.00  0.00     0.134 A 
ATOM     11  C   UNL     1      12.656  89.459  80.403  1.00  0.00     0.123 A 
ATOM     12  C   UNL     1      13.347  88.301  80.012  1.00  0.00     0.093 A 
BRANCH   3  13
ATOM     13  C   UNL     1       7.366  88.202  77.795  1.00  0.00     0.025 A 
ATOM     14  C   UNL     1       7.335  88.603  76.449  1.00  0.00     0.016 A 
ATOM     15  C   UNL     1       6.148  89.096  75.882  1.00  0.00     0.051 A 
ATOM     16  C   UNL     1       4.999  89.257  76.678  1.00  0.00     0.157 A 
ATOM     17  C   UNL     1       6.229  88.361  78.593  1.00  0.00     0.062 A 
ATOM     18  C   UNL     1       5.039  88.890  78.035  1.00  0.00     0.158 A 
BRANCH  16  19
ATOM     19  O   UNL     1       3.829  89.810  76.148  1.00  0.00    -0.504 OA
ATOM     20  H   UNL     1       3.071  89.230  75.821  1.00  0.00     0.293 HD
ENDBRANCH  16  19
BRANCH  18  21
ATOM     21  O   UNL     1       3.902  89.093  78.823  1.00  0.00    -0.504 OA
ATOM     22  H   UNL     1       3.718  88.519  79.645  1.00  0.00     0.293 HD
ENDBRANCH  18  21
ENDBRANCH   3  13
BRANCH  10  23
ATOM     23  O   UNL     1      13.403  86.100  79.015  1.00  0.00    -0.507 OA
ATOM     24  H   UNL     1      12.938  85.185  78.986  1.00  0.00     0.293 HD
ENDBRANCH  10  23
BRANCH  11  25
ATOM     25  O   UNL     1      13.323  90.440  81.137  1.00  0.00    -0.508 OA
ATOM     26  H   UNL     1      14.056  90.201  81.797  1.00  0.00     0.293 HD
ENDBRANCH  11  25
ENDBRANCH   1   2
BRANCH   1  27
ATOM     27  C   UNL     1       7.259  84.943  78.762  1.00  0.00     0.339 C 
ATOM     28  C   UNL     1       7.907  84.548  80.099  1.00  0.00     0.214 C 
ATOM     29  O   UNL     1       6.704  83.791  78.185  1.00  0.00    -0.332 OA
ATOM     30  C   UNL     1       6.892  83.808  81.012  1.00  0.00     0.180 C 
ATOM     31  C   UNL     1       5.539  83.332  78.888  1.00  0.00     0.179 C 
ATOM     32  C   UNL     1       5.471  83.763  80.390  1.00  0.00     0.177 C 
BRANCH  28  33
ATOM     33  O   UNL     1       9.010  83.725  79.820  1.00  0.00    -0.384 OA
ATOM     34  H   UNL     1       9.765  84.062  80.372  1.00  0.00     0.211 HD
ENDBRANCH  28  33
BRANCH  30  35
ATOM     35  O   UNL     1       7.378  82.524  81.376  1.00  0.00    -0.387 OA
ATOM     36  H   UNL     1       8.355  82.481  81.192  1.00  0.00     0.211 HD
ENDBRANCH  30  35
BRANCH  31  37
ATOM     37  C   UNL     1       4.271  83.752  78.132  1.00  0.00     0.191 C 
BRANCH  37  38
ATOM     38  O   UNL     1       3.229  82.845  78.402  1.00  0.00    -0.394 OA
ATOM     39  H   UNL     1       2.393  83.368  78.327  1.00  0.00     0.210 HD
ENDBRANCH  37  38
ENDBRANCH  31  37
BRANCH  32  40
ATOM     40  O   UNL     1       4.638  82.894  81.120  1.00  0.00    -0.387 OA
ATOM     41  H   UNL     1       5.087  82.725  82.000  1.00  0.00     0.211 HD
ENDBRANCH  32  40
ENDBRANCH   1  27
TORSDOF 12
ENDMDL
MODEL 3
REMARK VINA RESULT:    -6.794      1.836      6.217
REMARK INTER + INTRA:         -11.056
REMARK INTER:                  -9.687
REMARK INTRA:                  -1.368
REMARK UNBOUND:                -1.085
REMARK SMILES O=c1c(O[C@H]2O[C@H](CO)[C@@H](O)[C@@H](O)[C@H]2O)c(-c2ccc(O)c(O)c2)oc2cc(O)cc(O)c12
REMARK SMILES IDX 4 1 3 2 16 3 25 4 2 5 26 6 1 7 33 8 27 9 31 10 28 11 30 12
REMARK SMILES IDX 17 13 18 14 19 15 20 16 24 17 22 18 21 19 23 21 32 23 29 25
REMARK SMILES IDX 5 27 14 28 6 29 12 30 7 31 10 32 15 33 13 35 8 37 9 38 11 40
REMARK H PARENT 21 20 23 22 32 24 29 26 15 34 13 36 9 39 11 41
REMARK Flexibility Score: inf
ROOT
ATOM      1  O   UNL     1       7.417  86.777  80.164  1.00  0.00    -0.454 OA
ENDROOT
BRANCH   1   2
ATOM      2  C   UNL     1       8.328  86.100  80.981  1.00  0.00     0.214 A 
ATOM      3  C   UNL     1       8.513  84.718  80.809  1.00  0.00     0.180 A 
ATOM      4  O   UNL     1       9.579  84.116  81.336  1.00  0.00    -0.452 OA
ATOM      5  C   UNL     1       9.175  86.782  81.864  1.00  0.00     0.239 A 
ATOM      6  C   UNL     1      10.440  84.731  82.132  1.00  0.00     0.146 A 
ATOM      7  O   UNL     1       9.063  88.055  82.005  1.00  0.00    -0.285 OA
ATOM      8  C   UNL     1      10.206  86.078  82.519  1.00  0.00     0.111 A 
ATOM      9  C   UNL     1      11.553  84.034  82.612  1.00  0.00     0.094 A 
ATOM     10  C   UNL     1      11.006  86.653  83.541  1.00  0.00     0.134 A 
ATOM     11  C   UNL     1      12.390  84.644  83.564  1.00  0.00     0.123 A 
ATOM     12  C   UNL     1      12.086  85.922  84.059  1.00  0.00     0.093 A 
BRANCH   3  13
ATOM     13  C   UNL     1       7.510  83.899  80.100  1.00  0.00     0.025 A 
ATOM     14  C   UNL     1       7.867  83.309  78.876  1.00  0.00     0.016 A 
ATOM     15  C   UNL     1       6.904  82.639  78.103  1.00  0.00     0.051 A 
ATOM     16  C   UNL     1       5.559  82.616  78.516  1.00  0.00     0.157 A 
ATOM     17  C   UNL     1       6.175  83.881  80.516  1.00  0.00     0.062 A 
ATOM     18  C   UNL     1       5.193  83.238  79.724  1.00  0.00     0.158 A 
BRANCH  16  19
ATOM     19  O   UNL     1       4.575  82.013  77.726  1.00  0.00    -0.504 OA
ATOM     20  H   UNL     1       4.608  82.054  76.718  1.00  0.00     0.293 HD
ENDBRANCH  16  19
BRANCH  18  21
ATOM     21  O   UNL     1       3.847  83.240  80.101  1.00  0.00    -0.504 OA
ATOM     22  H   UNL     1       3.535  83.719  80.945  1.00  0.00     0.293 HD
ENDBRANCH  18  21
ENDBRANCH   3  13
BRANCH  10  23
ATOM     23  O   UNL     1      10.735  87.926  84.068  1.00  0.00    -0.507 OA
ATOM     24  H   UNL     1       9.772  88.282  84.063  1.00  0.00     0.293 HD
ENDBRANCH  10  23
BRANCH  11  25
ATOM     25  O   UNL     1      13.548  83.998  83.999  1.00  0.00    -0.508 OA
ATOM     26  H   UNL     1      13.627  83.630  84.941  1.00  0.00     0.293 HD
ENDBRANCH  11  25
ENDBRANCH   1   2
BRANCH   1  27
ATOM     27  C   UNL     1       7.730  87.690  79.106  1.00  0.00     0.339 C 
ATOM     28  C   UNL     1       6.602  87.571  78.069  1.00  0.00     0.214 C 
ATOM     29  O   UNL     1       8.939  87.347  78.483  1.00  0.00    -0.332 OA
ATOM     30  C   UNL     1       6.921  88.409  76.801  1.00  0.00     0.180 C 
ATOM     31  C   UNL     1       9.373  88.342  77.543  1.00  0.00     0.179 C 
ATOM     32  C   UNL     1       8.227  89.232  76.958  1.00  0.00     0.177 C 
BRANCH  28  33
ATOM     33  O   UNL     1       6.457  86.214  77.739  1.00  0.00    -0.384 OA
ATOM     34  H   UNL     1       5.703  85.865  78.285  1.00  0.00     0.211 HD
ENDBRANCH  28  33
BRANCH  30  35
ATOM     35  O   UNL     1       6.916  87.594  75.638  1.00  0.00    -0.387 OA
ATOM     36  H   UNL     1       7.476  88.022  74.936  1.00  0.00     0.211 HD
ENDBRANCH  30  35
BRANCH  31  37
ATOM     37  C   UNL     1      10.482  89.202  78.165  1.00  0.00     0.191 C 
BRANCH  37  38
ATOM     38  O   UNL     1      11.319  89.711  77.154  1.00  0.00    -0.394 OA
ATOM     39  H   UNL     1      11.744  88.921  76.737  1.00  0.00     0.210 HD
ENDBRANCH  37  38
ENDBRANCH  31  37
BRANCH  32  40
ATOM     40  O   UNL     1       8.612  89.791  75.724  1.00  0.00    -0.387 OA
ATOM     41  H   UNL     1       7.835  90.327  75.388  1.00  0.00     0.211 HD
ENDBRANCH  32  40
ENDBRANCH   1  27
TORSDOF 12
ENDMDL
MODEL 4
REMARK VINA RESULT:    -6.761      2.144      4.940
REMARK INTER + INTRA:         -11.008
REMARK INTER:                  -9.602
REMARK INTRA:                  -1.406
REMARK UNBOUND:                -1.085
REMARK SMILES O=c1c(O[C@H]2O[C@H](CO)[C@@H](O)[C@@H](O)[C@H]2O)c(-c2ccc(O)c(O)c2)oc2cc(O)cc(O)c12
REMARK SMILES IDX 4 1 3 2 16 3 25 4 2 5 26 6 1 7 33 8 27 9 31 10 28 11 30 12
REMARK SMILES IDX 17 13 18 14 19 15 20 16 24 17 22 18 21 19 23 21 32 23 29 25
REMARK SMILES IDX 5 27 14 28 6 29 12 30 7 31 10 32 15 33 13 35 8 37 9 38 11 40
REMARK H PARENT 21 20 23 22 32 24 29 26 15 34 13 36 9 39 11 41
REMARK Flexibility Score: inf
ROOT
ATOM      1  O   UNL     1       7.711  86.486  79.929  1.00  0.00    -0.454 OA
ENDROOT
BRANCH   1   2
ATOM      2  C   UNL     1       8.877  87.205  79.647  1.00  0.00     0.214 A 
ATOM      3  C   UNL     1       8.788  88.407  78.925  1.00  0.00     0.180 A 
ATOM      4  O   UNL     1       9.812  89.259  78.918  1.00  0.00    -0.452 OA
ATOM      5  C   UNL     1      10.116  86.844  80.192  1.00  0.00     0.239 A 
ATOM      6  C   UNL     1      10.986  88.988  79.467  1.00  0.00     0.146 A 
ATOM      7  O   UNL     1      10.218  85.775  80.899  1.00  0.00    -0.285 OA
ATOM      8  C   UNL     1      11.220  87.707  80.037  1.00  0.00     0.111 A 
ATOM      9  C   UNL     1      11.996  89.955  79.447  1.00  0.00     0.094 A 
ATOM     10  C   UNL     1      12.539  87.351  80.420  1.00  0.00     0.134 A 
ATOM     11  C   UNL     1      13.282  89.618  79.907  1.00  0.00     0.123 A 
ATOM     12  C   UNL     1      13.559  88.312  80.340  1.00  0.00     0.093 A 
BRANCH   3  13
ATOM     13  C   UNL     1       7.593  88.722  78.116  1.00  0.00     0.025 A 
ATOM     14  C   UNL     1       7.557  88.297  76.778  1.00  0.00     0.016 A 
ATOM     15  C   UNL     1       6.504  88.694  75.936  1.00  0.00     0.051 A 
ATOM     16  C   UNL     1       5.517  89.578  76.409  1.00  0.00     0.157 A 
ATOM     17  C   UNL     1       6.617  89.601  78.593  1.00  0.00     0.062 A 
ATOM     18  C   UNL     1       5.573  90.033  77.738  1.00  0.00     0.158 A 
BRANCH  16  19
ATOM     19  O   UNL     1       4.501  90.038  75.565  1.00  0.00    -0.504 OA
ATOM     20  H   UNL     1       4.691  90.678  74.809  1.00  0.00     0.293 HD
ENDBRANCH  16  19
BRANCH  18  21
ATOM     21  O   UNL     1       4.607  90.941  78.182  1.00  0.00    -0.504 OA
ATOM     22  H   UNL     1       4.431  91.083  79.176  1.00  0.00     0.293 HD
ENDBRANCH  18  21
ENDBRANCH   3  13
BRANCH  10  23
ATOM     23  O   UNL     1      12.861  86.056  80.855  1.00  0.00    -0.507 OA
ATOM     24  H   UNL     1      13.392  85.430  80.237  1.00  0.00     0.293 HD
ENDBRANCH  10  23
BRANCH  11  25
ATOM     25  O   UNL     1      14.283  90.587  79.969  1.00  0.00    -0.508 OA
ATOM     26  H   UNL     1      14.070  91.555  80.186  1.00  0.00     0.293 HD
ENDBRANCH  11  25
ENDBRANCH   1   2
BRANCH   1  27
ATOM     27  C   UNL     1       7.216  85.346  79.218  1.00  0.00     0.339 C 
ATOM     28  C   UNL     1       5.682  85.426  79.263  1.00  0.00     0.214 C 
ATOM     29  O   UNL     1       7.612  84.151  79.838  1.00  0.00    -0.332 OA
ATOM     30  C   UNL     1       5.040  84.151  78.651  1.00  0.00     0.180 C 
ATOM     31  C   UNL     1       7.289  82.993  79.054  1.00  0.00     0.179 C 
ATOM     32  C   UNL     1       6.102  83.190  78.055  1.00  0.00     0.177 C 
BRANCH  28  33
ATOM     33  O   UNL     1       5.294  85.579  80.604  1.00  0.00    -0.384 OA
ATOM     34  H   UNL     1       4.309  85.712  80.604  1.00  0.00     0.211 HD
ENDBRANCH  28  33
BRANCH  30  35
ATOM     35  O   UNL     1       4.180  83.516  79.588  1.00  0.00    -0.387 OA
ATOM     36  H   UNL     1       3.393  83.143  79.107  1.00  0.00     0.211 HD
ENDBRANCH  30  35
BRANCH  31  37
ATOM     37  C   UNL     1       8.543  82.482  78.331  1.00  0.00     0.191 C 
BRANCH  37  38
ATOM     38  O   UNL     1       8.278  81.238  77.730  1.00  0.00    -0.394 OA
ATOM     39  H   UNL     1       7.420  80.932  78.115  1.00  0.00     0.210 HD
ENDBRANCH  37  38
ENDBRANCH  31  37
BRANCH  32  40
ATOM     40  O   UNL     1       5.518  81.952  77.724  1.00  0.00    -0.387 OA
ATOM     41  H   UNL     1       5.859  81.279  78.385  1.00  0.00     0.211 HD
ENDBRANCH  32  40
ENDBRANCH   1  27
TORSDOF 12
ENDMDL
MODEL 5
REMARK VINA RESULT:    -6.717      1.846      7.129
REMARK INTER + INTRA:         -10.943
REMARK INTER:                  -9.739
REMARK INTRA:                  -1.204
REMARK UNBOUND:                -1.085
REMARK SMILES O=c1c(O[C@H]2O[C@H](CO)[C@@H](O)[C@@H](O)[C@H]2O)c(-c2ccc(O)c(O)c2)oc2cc(O)cc(O)c12
REMARK SMILES IDX 4 1 3 2 16 3 25 4 2 5 26 6 1 7 33 8 27 9 31 10 28 11 30 12
REMARK SMILES IDX 17 13 18 14 19 15 20 16 24 17 22 18 21 19 23 21 32 23 29 25
REMARK SMILES IDX 5 27 14 28 6 29 12 30 7 31 10 32 15 33 13 35 8 37 9 38 11 40
REMARK H PARENT 21 20 23 22 32 24 29 26 15 34 13 36 9 39 11 41
REMARK Flexibility Score: inf
ROOT
ATOM      1  O   UNL     1       8.390  86.307  81.726  1.00  0.00    -0.454 OA
ENDROOT
BRANCH   1   2
ATOM      2  C   UNL     1       7.582  85.767  80.721  1.00  0.00     0.214 A 
ATOM      3  C   UNL     1       7.959  85.922  79.376  1.00  0.00     0.180 A 
ATOM      4  O   UNL     1       7.400  85.164  78.434  1.00  0.00    -0.452 OA
ATOM      5  C   UNL     1       6.487  84.944  81.016  1.00  0.00     0.239 A 
ATOM      6  C   UNL     1       6.400  84.330  78.672  1.00  0.00     0.146 A 
ATOM      7  O   UNL     1       6.149  84.742  82.240  1.00  0.00    -0.285 OA
ATOM      8  C   UNL     1       5.825  84.269  79.970  1.00  0.00     0.111 A 
ATOM      9  C   UNL     1       5.896  83.543  77.631  1.00  0.00     0.094 A 
ATOM     10  C   UNL     1       4.620  83.543  80.160  1.00  0.00     0.134 A 
ATOM     11  C   UNL     1       4.748  82.761  77.853  1.00  0.00     0.123 A 
ATOM     12  C   UNL     1       4.090  82.804  79.092  1.00  0.00     0.093 A 
BRANCH   3  13
ATOM     13  C   UNL     1       8.929  86.960  78.973  1.00  0.00     0.025 A 
ATOM     14  C   UNL     1       8.464  88.269  78.766  1.00  0.00     0.016 A 
ATOM     15  C   UNL     1       9.323  89.254  78.249  1.00  0.00     0.051 A 
ATOM     16  C   UNL     1      10.636  88.917  77.869  1.00  0.00     0.157 A 
ATOM     17  C   UNL     1      10.230  86.617  78.596  1.00  0.00     0.062 A 
ATOM     18  C   UNL     1      11.090  87.597  78.041  1.00  0.00     0.158 A 
BRANCH  16  19
ATOM     19  O   UNL     1      11.482  89.867  77.289  1.00  0.00    -0.504 OA
ATOM     20  H   UNL     1      11.523  89.999  76.290  1.00  0.00     0.293 HD
ENDBRANCH  16  19
BRANCH  18  21
ATOM     21  O   UNL     1      12.382  87.268  77.622  1.00  0.00    -0.504 OA
ATOM     22  H   UNL     1      13.204  87.614  78.118  1.00  0.00     0.293 HD
ENDBRANCH  18  21
ENDBRANCH   3  13
BRANCH  10  23
ATOM     23  O   UNL     1       3.927  83.562  81.381  1.00  0.00    -0.507 OA
ATOM     24  H   UNL     1       3.890  82.712  81.956  1.00  0.00     0.293 HD
ENDBRANCH  10  23
BRANCH  11  25
ATOM     25  O   UNL     1       4.273  81.910  76.854  1.00  0.00    -0.508 OA
ATOM     26  H   UNL     1       3.281  81.738  76.733  1.00  0.00     0.293 HD
ENDBRANCH  11  25
ENDBRANCH   1   2
BRANCH   1  27
ATOM     27  C   UNL     1       9.725  85.909  82.057  1.00  0.00     0.339 C 
ATOM     28  C   UNL     1       9.682  84.399  82.337  1.00  0.00     0.214 C 
ATOM     29  O   UNL     1      10.175  86.560  83.216  1.00  0.00    -0.332 OA
ATOM     30  C   UNL     1      11.054  83.890  82.857  1.00  0.00     0.180 C 
ATOM     31  C   UNL     1      11.568  86.324  83.471  1.00  0.00     0.179 C 
ATOM     32  C   UNL     1      12.133  85.005  82.848  1.00  0.00     0.177 C 
BRANCH  28  33
ATOM     33  O   UNL     1       8.676  84.162  83.288  1.00  0.00    -0.384 OA
ATOM     34  H   UNL     1       8.679  83.185  83.471  1.00  0.00     0.211 HD
ENDBRANCH  28  33
BRANCH  30  35
ATOM     35  O   UNL     1      10.916  83.262  84.124  1.00  0.00    -0.387 OA
ATOM     36  H   UNL     1      10.027  83.491  84.506  1.00  0.00     0.211 HD
ENDBRANCH  30  35
BRANCH  31  37
ATOM     37  C   UNL     1      12.394  87.542  83.036  1.00  0.00     0.191 C 
BRANCH  37  38
ATOM     38  O   UNL     1      13.711  87.427  83.518  1.00  0.00    -0.394 OA
ATOM     39  H   UNL     1      13.885  88.259  84.024  1.00  0.00     0.210 HD
ENDBRANCH  37  38
ENDBRANCH  31  37
BRANCH  32  40
ATOM     40  O   UNL     1      13.287  84.584  83.537  1.00  0.00    -0.387 OA
ATOM     41  H   UNL     1      13.896  84.163  82.861  1.00  0.00     0.211 HD
ENDBRANCH  32  40
ENDBRANCH   1  27
TORSDOF 12
ENDMDL
MODEL 6
REMARK VINA RESULT:    -6.622      2.511      5.436
REMARK INTER + INTRA:         -10.804
REMARK INTER:                  -9.538
REMARK INTRA:                  -1.266
REMARK UNBOUND:                -1.085
REMARK SMILES O=c1c(O[C@H]2O[C@H](CO)[C@@H](O)[C@@H](O)[C@H]2O)c(-c2ccc(O)c(O)c2)oc2cc(O)cc(O)c12
REMARK SMILES IDX 4 1 3 2 16 3 25 4 2 5 26 6 1 7 33 8 27 9 31 10 28 11 30 12
REMARK SMILES IDX 17 13 18 14 19 15 20 16 24 17 22 18 21 19 23 21 32 23 29 25
REMARK SMILES IDX 5 27 14 28 6 29 12 30 7 31 10 32 15 33 13 35 8 37 9 38 11 40
REMARK H PARENT 21 20 23 22 32 24 29 26 15 34 13 36 9 39 11 41
REMARK Flexibility Score: inf
ROOT
ATOM      1  O   UNL     1       7.446  85.284  78.661  1.00  0.00    -0.454 OA
ENDROOT
BRANCH   1   2
ATOM      2  C   UNL     1       8.584  86.096  78.617  1.00  0.00     0.214 A 
ATOM      3  C   UNL     1       8.442  87.468  78.349  1.00  0.00     0.180 A 
ATOM      4  O   UNL     1       9.443  88.307  78.612  1.00  0.00    -0.452 OA
ATOM      5  C   UNL     1       9.848  85.614  78.982  1.00  0.00     0.239 A 
ATOM      6  C   UNL     1      10.640  87.906  79.012  1.00  0.00     0.146 A 
ATOM      7  O   UNL     1       9.998  84.373  79.282  1.00  0.00    -0.285 OA
ATOM      8  C   UNL     1      10.924  86.516  79.109  1.00  0.00     0.111 A 
ATOM      9  C   UNL     1      11.624  88.856  79.302  1.00  0.00     0.094 A 
ATOM     10  C   UNL     1      12.263  86.097  79.321  1.00  0.00     0.134 A 
ATOM     11  C   UNL     1      12.932  88.427  79.595  1.00  0.00     0.123 A 
ATOM     12  C   UNL     1      13.255  87.062  79.552  1.00  0.00     0.093 A 
BRANCH   3  13
ATOM     13  C   UNL     1       7.216  87.997  77.720  1.00  0.00     0.025 A 
ATOM     14  C   UNL     1       7.286  88.459  76.395  1.00  0.00     0.016 A 
ATOM     15  C   UNL     1       6.181  89.097  75.806  1.00  0.00     0.051 A 
ATOM     16  C   UNL     1       5.020  89.340  76.563  1.00  0.00     0.157 A 
ATOM     17  C   UNL     1       6.067  88.237  78.479  1.00  0.00     0.062 A 
ATOM     18  C   UNL     1       4.962  88.911  77.902  1.00  0.00     0.158 A 
BRANCH  16  19
ATOM     19  O   UNL     1       3.937  90.034  76.015  1.00  0.00    -0.504 OA
ATOM     20  H   UNL     1       3.817  90.124  75.018  1.00  0.00     0.293 HD
ENDBRANCH  16  19
BRANCH  18  21
ATOM     21  O   UNL     1       3.818  89.194  78.653  1.00  0.00    -0.504 OA
ATOM     22  H   UNL     1       3.067  88.512  78.751  1.00  0.00     0.293 HD
ENDBRANCH  18  21
ENDBRANCH   3  13
BRANCH  10  23
ATOM     23  O   UNL     1      12.631  84.743  79.283  1.00  0.00    -0.507 OA
ATOM     24  H   UNL     1      12.603  84.234  78.391  1.00  0.00     0.293 HD
ENDBRANCH  10  23
BRANCH  11  25
ATOM     25  O   UNL     1      13.909  89.352  79.962  1.00  0.00    -0.508 OA
ATOM     26  H   UNL     1      13.914  89.780  80.882  1.00  0.00     0.293 HD
ENDBRANCH  11  25
ENDBRANCH   1   2
BRANCH   1  27
ATOM     27  C   UNL     1       6.889  84.653  79.819  1.00  0.00     0.339 C 
ATOM     28  C   UNL     1       5.809  83.681  79.319  1.00  0.00     0.214 C 
ATOM     29  O   UNL     1       6.278  85.593  80.663  1.00  0.00    -0.332 OA
ATOM     30  C   UNL     1       5.032  83.053  80.508  1.00  0.00     0.180 C 
ATOM     31  C   UNL     1       5.872  85.021  81.917  1.00  0.00     0.179 C 
ATOM     32  C   UNL     1       5.619  83.478  81.879  1.00  0.00     0.177 C 
BRANCH  28  33
ATOM     33  O   UNL     1       4.937  84.394  78.481  1.00  0.00    -0.384 OA
ATOM     34  H   UNL     1       5.480  85.099  78.036  1.00  0.00     0.211 HD
ENDBRANCH  28  33
BRANCH  30  35
ATOM     35  O   UNL     1       3.639  83.310  80.396  1.00  0.00    -0.387 OA
ATOM     36  H   UNL     1       3.150  82.444  80.351  1.00  0.00     0.211 HD
ENDBRANCH  30  35
BRANCH  31  37
ATOM     37  C   UNL     1       6.880  85.392  83.013  1.00  0.00     0.191 C 
BRANCH  37  38
ATOM     38  O   UNL     1       7.421  84.224  83.582  1.00  0.00    -0.394 OA
ATOM     39  H   UNL     1       7.177  84.255  84.540  1.00  0.00     0.210 HD
ENDBRANCH  37  38
ENDBRANCH  31  37
BRANCH  32  40
ATOM     40  O   UNL     1       4.761  83.089  82.927  1.00  0.00    -0.387 OA
ATOM     41  H   UNL     1       3.996  82.593  82.512  1.00  0.00     0.211 HD
ENDBRANCH  32  40
ENDBRANCH   1  27
TORSDOF 12
ENDMDL
MODEL 7
REMARK VINA RESULT:    -6.601      2.494      7.953
REMARK INTER + INTRA:         -10.773
REMARK INTER:                  -8.775
REMARK INTRA:                  -1.998
REMARK UNBOUND:                -1.085
REMARK SMILES O=c1c(O[C@H]2O[C@H](CO)[C@@H](O)[C@@H](O)[C@H]2O)c(-c2ccc(O)c(O)c2)oc2cc(O)cc(O)c12
REMARK SMILES IDX 4 1 3 2 16 3 25 4 2 5 26 6 1 7 33 8 27 9 31 10 28 11 30 12
REMARK SMILES IDX 17 13 18 14 19 15 20 16 24 17 22 18 21 19 23 21 32 23 29 25
REMARK SMILES IDX 5 27 14 28 6 29 12 30 7 31 10 32 15 33 13 35 8 37 9 38 11 40
REMARK H PARENT 21 20 23 22 32 24 29 26 15 34 13 36 9 39 11 41
REMARK Flexibility Score: inf
ROOT
ATOM      1  O   UNL     1       9.668  85.861  78.737  1.00  0.00    -0.454 OA
ENDROOT
BRANCH   1   2
ATOM      2  C   UNL     1       8.662  85.583  79.668  1.00  0.00     0.214 A 
ATOM      3  C   UNL     1       7.351  86.021  79.417  1.00  0.00     0.180 A 
ATOM      4  O   UNL     1       6.332  85.507  80.105  1.00  0.00    -0.452 OA
ATOM      5  C   UNL     1       8.887  84.749  80.771  1.00  0.00     0.239 A 
ATOM      6  C   UNL     1       6.489  84.673  81.121  1.00  0.00     0.146 A 
ATOM      7  O   UNL     1      10.067  84.292  80.998  1.00  0.00    -0.285 OA
ATOM      8  C   UNL     1       7.798  84.344  81.568  1.00  0.00     0.111 A 
ATOM      9  C   UNL     1       5.363  84.153  81.767  1.00  0.00     0.094 A 
ATOM     10  C   UNL     1       7.953  83.632  82.787  1.00  0.00     0.134 A 
ATOM     11  C   UNL     1       5.532  83.377  82.928  1.00  0.00     0.123 A 
ATOM     12  C   UNL     1       6.814  83.165  83.458  1.00  0.00     0.093 A 
BRANCH   3  13
ATOM     13  C   UNL     1       7.081  87.091  78.437  1.00  0.00     0.025 A 
ATOM     14  C   UNL     1       7.028  86.757  77.073  1.00  0.00     0.016 A 
ATOM     15  C   UNL     1       6.913  87.764  76.100  1.00  0.00     0.051 A 
ATOM     16  C   UNL     1       6.920  89.118  76.480  1.00  0.00     0.157 A 
ATOM     17  C   UNL     1       7.090  88.435  78.822  1.00  0.00     0.062 A 
ATOM     18  C   UNL     1       7.010  89.455  77.843  1.00  0.00     0.158 A 
BRANCH  16  19
ATOM     19  O   UNL     1       6.876  90.134  75.521  1.00  0.00    -0.504 OA
ATOM     20  H   UNL     1       6.029  90.651  75.336  1.00  0.00     0.293 HD
ENDBRANCH  16  19
BRANCH  18  21
ATOM     21  O   UNL     1       7.055  90.805  78.203  1.00  0.00    -0.504 OA
ATOM     22  H   UNL     1       6.272  91.430  78.014  1.00  0.00     0.293 HD
ENDBRANCH  18  21
ENDBRANCH   3  13
BRANCH  10  23
ATOM     23  O   UNL     1       9.217  83.401  83.354  1.00  0.00    -0.507 OA
ATOM     24  H   UNL     1       9.530  82.437  83.519  1.00  0.00     0.293 HD
ENDBRANCH  10  23
BRANCH  11  25
ATOM     25  O   UNL     1       4.429  82.784  83.544  1.00  0.00    -0.508 OA
ATOM     26  H   UNL     1       3.480  83.023  83.274  1.00  0.00     0.293 HD
ENDBRANCH  11  25
ENDBRANCH   1   2
BRANCH   1  27
ATOM     27  C   UNL     1      10.513  87.016  78.711  1.00  0.00     0.339 C 
ATOM     28  C   UNL     1      11.936  86.518  78.411  1.00  0.00     0.214 C 
ATOM     29  O   UNL     1      10.527  87.662  79.956  1.00  0.00    -0.332 OA
ATOM     30  C   UNL     1      12.965  87.677  78.513  1.00  0.00     0.180 C 
ATOM     31  C   UNL     1      11.216  88.921  79.914  1.00  0.00     0.179 C 
ATOM     32  C   UNL     1      12.280  89.044  78.774  1.00  0.00     0.177 C 
BRANCH  28  33
ATOM     33  O   UNL     1      12.244  85.504  79.332  1.00  0.00    -0.384 OA
ATOM     34  H   UNL     1      13.164  85.192  79.118  1.00  0.00     0.211 HD
ENDBRANCH  28  33
BRANCH  30  35
ATOM     35  O   UNL     1      13.979  87.375  79.461  1.00  0.00    -0.387 OA
ATOM     36  H   UNL     1      13.975  86.396  79.641  1.00  0.00     0.211 HD
ENDBRANCH  30  35
BRANCH  31  37
ATOM     37  C   UNL     1      10.203  90.072  79.856  1.00  0.00     0.191 C 
BRANCH  37  38
ATOM     38  O   UNL     1      10.201  90.644  78.570  1.00  0.00    -0.394 OA
ATOM     39  H   UNL     1       9.381  91.195  78.524  1.00  0.00     0.210 HD
ENDBRANCH  37  38
ENDBRANCH  31  37
BRANCH  32  40
ATOM     40  O   UNL     1      13.239  90.026  79.092  1.00  0.00    -0.387 OA
ATOM     41  H   UNL     1      14.066  89.810  78.569  1.00  0.00     0.211 HD
ENDBRANCH  32  40
ENDBRANCH   1  27
TORSDOF 12
ENDMDL
MODEL 8
REMARK VINA RESULT:    -6.341      2.218      7.286
REMARK INTER + INTRA:         -10.392
REMARK INTER:                  -9.073
REMARK INTRA:                  -1.319
REMARK UNBOUND:                -1.085
REMARK SMILES O=c1c(O[C@H]2O[C@H](CO)[C@@H](O)[C@@H](O)[C@H]2O)c(-c2ccc(O)c(O)c2)oc2cc(O)cc(O)c12
REMARK SMILES IDX 4 1 3 2 16 3 25 4 2 5 26 6 1 7 33 8 27 9 31 10 28 11 30 12
REMARK SMILES IDX 17 13 18 14 19 15 20 16 24 17 22 18 21 19 23 21 32 23 29 25
REMARK SMILES IDX 5 27 14 28 6 29 12 30 7 31 10 32 15 33 13 35 8 37 9 38 11 40
REMARK H PARENT 21 20 23 22 32 24 29 26 15 34 13 36 9 39 11 41
REMARK Flexibility Score: inf
ROOT
ATOM      1  O   UNL     1       9.188  84.866  81.299  1.00  0.00    -0.454 OA
ENDROOT
BRANCH   1   2
ATOM      2  C   UNL     1       8.146  84.650  80.391  1.00  0.00     0.214 A 
ATOM      3  C   UNL     1       8.369  84.870  79.021  1.00  0.00     0.180 A 
ATOM      4  O   UNL     1       7.520  84.378  78.119  1.00  0.00    -0.452 OA
ATOM      5  C   UNL     1       6.930  84.077  80.786  1.00  0.00     0.239 A 
ATOM      6  C   UNL     1       6.385  83.779  78.442  1.00  0.00     0.146 A 
ATOM      7  O   UNL     1       6.716  83.819  82.027  1.00  0.00    -0.285 OA
ATOM      8  C   UNL     1       5.989  83.702  79.805  1.00  0.00     0.111 A 
ATOM      9  C   UNL     1       5.569  83.259  77.433  1.00  0.00     0.094 A 
ATOM     10  C   UNL     1       4.677  83.261  80.121  1.00  0.00     0.134 A 
ATOM     11  C   UNL     1       4.302  82.746  77.766  1.00  0.00     0.123 A 
ATOM     12  C   UNL     1       3.844  82.796  79.092  1.00  0.00     0.093 A 
BRANCH   3  13
ATOM     13  C   UNL     1       9.504  85.692  78.558  1.00  0.00     0.025 A 
ATOM     14  C   UNL     1      10.791  85.130  78.572  1.00  0.00     0.016 A 
ATOM     15  C   UNL     1      11.914  85.921  78.272  1.00  0.00     0.051 A 
ATOM     16  C   UNL     1      11.763  87.297  78.024  1.00  0.00     0.157 A 
ATOM     17  C   UNL     1       9.346  87.060  78.315  1.00  0.00     0.062 A 
ATOM     18  C   UNL     1      10.477  87.869  78.047  1.00  0.00     0.158 A 
BRANCH  16  19
ATOM     19  O   UNL     1      12.875  88.112  77.792  1.00  0.00    -0.504 OA
ATOM     20  H   UNL     1      12.780  89.041  77.409  1.00  0.00     0.293 HD
ENDBRANCH  16  19
BRANCH  18  21
ATOM     21  O   UNL     1      10.347  89.245  77.838  1.00  0.00    -0.504 OA
ATOM     22  H   UNL     1       9.993  89.615  76.957  1.00  0.00     0.293 HD
ENDBRANCH  18  21
ENDBRANCH   3  13
BRANCH  10  23
ATOM     23  O   UNL     1       4.178  83.299  81.432  1.00  0.00    -0.507 OA
ATOM     24  H   UNL     1       3.347  82.745  81.675  1.00  0.00     0.293 HD
ENDBRANCH  10  23
BRANCH  11  25
ATOM     25  O   UNL     1       3.504  82.152  76.788  1.00  0.00    -0.508 OA
ATOM     26  H   UNL     1       2.792  82.679  76.293  1.00  0.00     0.293 HD
ENDBRANCH  11  25
ENDBRANCH   1   2
BRANCH   1  27
ATOM     27  C   UNL     1       9.528  86.103  81.932  1.00  0.00     0.339 C 
ATOM     28  C   UNL     1      11.059  86.226  81.873  1.00  0.00     0.214 C 
ATOM     29  O   UNL     1       9.139  86.107  83.280  1.00  0.00    -0.332 OA
ATOM     30  C   UNL     1      11.550  87.465  82.671  1.00  0.00     0.180 C 
ATOM     31  C   UNL     1       9.299  87.395  83.895  1.00  0.00     0.179 C 
ATOM     32  C   UNL     1      10.371  88.312  83.218  1.00  0.00     0.177 C 
BRANCH  28  33
ATOM     33  O   UNL     1      11.610  85.048  82.402  1.00  0.00    -0.384 OA
ATOM     34  H   UNL     1      10.972  84.717  83.089  1.00  0.00     0.211 HD
ENDBRANCH  28  33
BRANCH  30  35
ATOM     35  O   UNL     1      12.475  87.085  83.680  1.00  0.00    -0.387 OA
ATOM     36  H   UNL     1      13.385  87.393  83.420  1.00  0.00     0.211 HD
ENDBRANCH  30  35
BRANCH  31  37
ATOM     37  C   UNL     1       7.942  88.104  83.989  1.00  0.00     0.191 C 
BRANCH  37  38
ATOM     38  O   UNL     1       7.962  89.284  83.223  1.00  0.00    -0.394 OA
ATOM     39  H   UNL     1       8.847  89.301  82.780  1.00  0.00     0.210 HD
ENDBRANCH  37  38
ENDBRANCH  31  37
BRANCH  32  40
ATOM     40  O   UNL     1      10.838  89.284  84.125  1.00  0.00    -0.387 OA
ATOM     41  H   UNL     1      10.759  88.892  85.044  1.00  0.00     0.211 HD
ENDBRANCH  32  40
ENDBRANCH   1  27
TORSDOF 12
ENDMDL
MODEL 9
REMARK VINA RESULT:    -6.318      2.835      4.811
REMARK INTER + INTRA:         -10.358
REMARK INTER:                  -9.852
REMARK INTRA:                  -0.506
REMARK UNBOUND:                -1.085
REMARK SMILES O=c1c(O[C@H]2O[C@H](CO)[C@@H](O)[C@@H](O)[C@H]2O)c(-c2ccc(O)c(O)c2)oc2cc(O)cc(O)c12
REMARK SMILES IDX 4 1 3 2 16 3 25 4 2 5 26 6 1 7 33 8 27 9 31 10 28 11 30 12
REMARK SMILES IDX 17 13 18 14 19 15 20 16 24 17 22 18 21 19 23 21 32 23 29 25
REMARK SMILES IDX 5 27 14 28 6 29 12 30 7 31 10 32 15 33 13 35 8 37 9 38 11 40
REMARK H PARENT 21 20 23 22 32 24 29 26 15 34 13 36 9 39 11 41
REMARK Flexibility Score: inf
ROOT
ATOM      1  O   UNL     1       7.608  86.685  79.637  1.00  0.00    -0.454 OA
ENDROOT
BRANCH   1   2
ATOM      2  C   UNL     1       7.180  87.675  78.746  1.00  0.00     0.214 A 
ATOM      3  C   UNL     1       8.043  88.099  77.722  1.00  0.00     0.180 A 
ATOM      4  O   UNL     1       7.564  88.788  76.687  1.00  0.00    -0.452 OA
ATOM      5  C   UNL     1       5.863  88.151  78.749  1.00  0.00     0.239 A 
ATOM      6  C   UNL     1       6.312  89.214  76.616  1.00  0.00     0.146 A 
ATOM      7  O   UNL     1       5.036  87.742  79.645  1.00  0.00    -0.285 OA
ATOM      8  C   UNL     1       5.431  89.001  77.711  1.00  0.00     0.111 A 
ATOM      9  C   UNL     1       5.881  89.899  75.477  1.00  0.00     0.094 A 
ATOM     10  C   UNL     1       4.168  89.650  77.718  1.00  0.00     0.134 A 
ATOM     11  C   UNL     1       4.594  90.469  75.460  1.00  0.00     0.123 A 
ATOM     12  C   UNL     1       3.769  90.386  76.593  1.00  0.00     0.093 A 
BRANCH   3  13
ATOM     13  C   UNL     1       9.496  87.845  77.797  1.00  0.00     0.025 A 
ATOM     14  C   UNL     1       9.950  86.517  77.736  1.00  0.00     0.016 A 
ATOM     15  C   UNL     1      11.308  86.221  77.943  1.00  0.00     0.051 A 
ATOM     16  C   UNL     1      12.210  87.246  78.282  1.00  0.00     0.157 A 
ATOM     17  C   UNL     1      10.386  88.868  78.136  1.00  0.00     0.062 A 
ATOM     18  C   UNL     1      11.749  88.572  78.381  1.00  0.00     0.158 A 
BRANCH  16  19
ATOM     19  O   UNL     1      13.551  86.961  78.559  1.00  0.00    -0.504 OA
ATOM     20  H   UNL     1      13.959  86.067  78.330  1.00  0.00     0.293 HD
ENDBRANCH  16  19
BRANCH  18  21
ATOM     21  O   UNL     1      12.648  89.573  78.757  1.00  0.00    -0.504 OA
ATOM     22  H   UNL     1      12.416  90.246  79.487  1.00  0.00     0.293 HD
ENDBRANCH  18  21
ENDBRANCH   3  13
BRANCH  10  23
ATOM     23  O   UNL     1       3.314  89.597  78.831  1.00  0.00    -0.507 OA
ATOM     24  H   UNL     1       3.373  90.327  79.551  1.00  0.00     0.293 HD
ENDBRANCH  10  23
BRANCH  11  25
ATOM     25  O   UNL     1       4.115  91.090  74.307  1.00  0.00    -0.508 OA
ATOM     26  H   UNL     1       3.146  90.997  74.019  1.00  0.00     0.293 HD
ENDBRANCH  11  25
ENDBRANCH   1   2
BRANCH   1  27
ATOM     27  C   UNL     1       6.786  85.717  80.298  1.00  0.00     0.339 C 
ATOM     28  C   UNL     1       7.381  85.512  81.701  1.00  0.00     0.214 C 
ATOM     29  O   UNL     1       6.813  84.486  79.625  1.00  0.00    -0.332 OA
ATOM     30  C   UNL     1       6.655  84.364  82.452  1.00  0.00     0.180 C 
ATOM     31  C   UNL     1       5.861  83.550  80.155  1.00  0.00     0.179 C 
ATOM     32  C   UNL     1       5.454  83.805  81.644  1.00  0.00     0.177 C 
BRANCH  28  33
ATOM     33  O   UNL     1       8.747  85.219  81.554  1.00  0.00    -0.384 OA
ATOM     34  H   UNL     1       8.816  84.236  81.419  1.00  0.00     0.211 HD
ENDBRANCH  28  33
BRANCH  30  35
ATOM     35  O   UNL     1       7.573  83.355  82.849  1.00  0.00    -0.387 OA
ATOM     36  H   UNL     1       8.136  83.101  82.069  1.00  0.00     0.211 HD
ENDBRANCH  30  35
BRANCH  31  37
ATOM     37  C   UNL     1       4.626  83.486  79.245  1.00  0.00     0.191 C 
BRANCH  37  38
ATOM     38  O   UNL     1       3.796  82.419  79.637  1.00  0.00    -0.394 OA
ATOM     39  H   UNL     1       3.502  82.633  80.557  1.00  0.00     0.210 HD
ENDBRANCH  37  38
ENDBRANCH  31  37
BRANCH  32  40
ATOM     40  O   UNL     1       4.965  82.624  82.236  1.00  0.00    -0.387 OA
ATOM     41  H   UNL     1       5.761  82.102  82.552  1.00  0.00     0.211 HD
ENDBRANCH  32  40
ENDBRANCH   1  27
TORSDOF 12
ENDMDL
