MODEL 1
REMARK VINA RESULT:    19.607      0.000      0.000
REMARK INTER + INTRA:          36.023
REMARK INTER:                  36.800
REMARK INTRA:                  -0.777
REMARK UNBOUND:                -0.777
REMARK SMILES CCCCCCCCC=CCCCCCCCC(=O)[O-]
REMARK SMILES IDX 10 1 9 2 11 3 12 4 13 5 14 6 15 7 16 8 17 9 18 10 19 11
REMARK SMILES IDX 20 12 8 13 7 14 6 15 5 16 4 17 3 18 2 19 1 20
REMARK H PARENT
REMARK Flexibility Score: inf
ROOT
ATOM      1  C   UNL     1      -1.329  19.624   9.377  1.00  0.00    -0.031 C 
ATOM      2  C   UNL     1      -2.140  20.692   9.358  1.00  0.00    -0.031 C 
ENDROOT
BRANCH   1   3
ATOM      3  C   UNL     1      -1.812  18.281   9.848  1.00  0.00     0.027 C 
BRANCH   3   4
ATOM      4  C   UNL     1      -0.749  17.199   9.603  1.00  0.00     0.004 C 
BRANCH   4   5
ATOM      5  C   UNL     1      -1.334  15.929   8.966  1.00  0.00     0.000 C 
BRANCH   5   6
ATOM      6  C   UNL     1      -2.711  16.168   8.322  1.00  0.00     0.000 C 
BRANCH   6   7
ATOM      7  C   UNL     1      -2.959  15.264   7.105  1.00  0.00     0.000 C 
BRANCH   7   8
ATOM      8  C   UNL     1      -4.367  15.447   6.513  1.00  0.00     0.006 C 
BRANCH   8   9
ATOM      9  C   UNL     1      -5.403  15.810   7.586  1.00  0.00     0.053 C 
BRANCH   9  10
ATOM     10  C   UNL     1      -6.430  14.733   7.757  1.00  0.00     0.041 C 
ATOM     11  O   UNL     1      -7.250  14.787   8.712  1.00  0.00    -0.550 OA
ATOM     12  O   UNL     1      -6.461  13.655   6.883  1.00  0.00    -0.550 OA
ENDBRANCH   9  10
ENDBRANCH   8   9
ENDBRANCH   7   8
ENDBRANCH   6   7
ENDBRANCH   5   6
ENDBRANCH   4   5
ENDBRANCH   3   4
ENDBRANCH   1   3
BRANCH   2  13
ATOM     13  C   UNL     1      -1.682  22.025   8.828  1.00  0.00     0.027 C 
BRANCH  13  14
ATOM     14  C   UNL     1      -0.765  22.740   9.829  1.00  0.00     0.004 C 
BRANCH  14  15
ATOM     15  C   UNL     1      -0.350  24.138   9.338  1.00  0.00     0.000 C 
BRANCH  15  16
ATOM     16  C   UNL     1      -0.308  25.171  10.475  1.00  0.00     0.000 C 
BRANCH  16  17
ATOM     17  C   UNL     1       0.070  26.579   9.984  1.00  0.00    -0.000 C 
BRANCH  17  18
ATOM     18  C   UNL     1      -0.717  27.685  10.704  1.00  0.00    -0.000 C 
BRANCH  18  19
ATOM     19  C   UNL     1      -1.742  27.124  11.703  1.00  0.00    -0.003 C 
ATOM     20  C   UNL     1      -1.484  27.656  13.110  1.00  0.00     0.004 C 
ENDBRANCH  18  19
ENDBRANCH  17  18
ENDBRANCH  16  17
ENDBRANCH  15  16
ENDBRANCH  14  15
ENDBRANCH  13  14
ENDBRANCH   2  13
TORSDOF 15
ENDMDL
MODEL 2
REMARK VINA RESULT:    19.923      4.538     10.694
REMARK INTER + INTRA:          36.616
REMARK INTER:                  37.109
REMARK INTRA:                  -0.493
REMARK UNBOUND:                -0.777
REMARK SMILES CCCCCCCCC=CCCCCCCCC(=O)[O-]
REMARK SMILES IDX 10 1 9 2 11 3 12 4 13 5 14 6 15 7 16 8 17 9 18 10 19 11
REMARK SMILES IDX 20 12 8 13 7 14 6 15 5 16 4 17 3 18 2 19 1 20
REMARK H PARENT
REMARK Flexibility Score: inf
ROOT
ATOM      1  C   UNL     1      -1.140  19.887   9.131  1.00  0.00    -0.031 C 
ATOM      2  C   UNL     1      -1.580  18.725   9.635  1.00  0.00    -0.031 C 
ENDROOT
BRANCH   1   3
ATOM      3  C   UNL     1      -2.056  21.067   8.967  1.00  0.00     0.027 C 
BRANCH   3   4
ATOM      4  C   UNL     1      -1.610  22.235   9.860  1.00  0.00     0.004 C 
BRANCH   4   5
ATOM      5  C   UNL     1      -0.532  23.107   9.198  1.00  0.00     0.000 C 
BRANCH   5   6
ATOM      6  C   UNL     1      -0.064  24.261  10.103  1.00  0.00     0.000 C 
BRANCH   6   7
ATOM      7  C   UNL     1      -0.552  25.633   9.612  1.00  0.00     0.000 C 
BRANCH   7   8
ATOM      8  C   UNL     1       0.123  26.799  10.355  1.00  0.00     0.006 C 
BRANCH   8   9
ATOM      9  C   UNL     1      -0.899  27.815  10.884  1.00  0.00     0.053 C 
BRANCH   9  10
ATOM     10  C   UNL     1      -1.460  27.404  12.210  1.00  0.00     0.041 C 
ATOM     11  O   UNL     1      -1.494  28.224  13.165  1.00  0.00    -0.550 OA
ATOM     12  O   UNL     1      -1.916  26.106  12.401  1.00  0.00    -0.550 OA
ENDBRANCH   9  10
ENDBRANCH   8   9
ENDBRANCH   7   8
ENDBRANCH   6   7
ENDBRANCH   5   6
ENDBRANCH   4   5
ENDBRANCH   3   4
ENDBRANCH   1   3
BRANCH   2  13
ATOM     13  C   UNL     1      -0.654  17.559   9.863  1.00  0.00     0.027 C 
BRANCH  13  14
ATOM     14  C   UNL     1      -1.212  16.272   9.242  1.00  0.00     0.004 C 
BRANCH  14  15
ATOM     15  C   UNL     1      -2.614  16.478   8.643  1.00  0.00     0.000 C 
BRANCH  15  16
ATOM     16  C   UNL     1      -2.984  15.389   7.624  1.00  0.00     0.000 C 
BRANCH  16  17
ATOM     17  C   UNL     1      -4.220  15.755   6.787  1.00  0.00    -0.000 C 
BRANCH  17  18
ATOM     18  C   UNL     1      -5.530  15.622   7.580  1.00  0.00    -0.000 C 
BRANCH  18  19
ATOM     19  C   UNL     1      -6.140  14.215   7.480  1.00  0.00    -0.003 C 
ATOM     20  C   UNL     1      -7.664  14.278   7.462  1.00  0.00     0.004 C 
ENDBRANCH  18  19
ENDBRANCH  17  18
ENDBRANCH  16  17
ENDBRANCH  15  16
ENDBRANCH  14  15
ENDBRANCH  13  14
ENDBRANCH   2  13
TORSDOF 15
ENDMDL
MODEL 3
REMARK VINA RESULT:    20.530      1.542      1.909
REMARK INTER + INTRA:          37.755
REMARK INTER:                  38.572
REMARK INTRA:                  -0.816
REMARK UNBOUND:                -0.777
REMARK SMILES CCCCCCCCC=CCCCCCCCC(=O)[O-]
REMARK SMILES IDX 10 1 9 2 11 3 12 4 13 5 14 6 15 7 16 8 17 9 18 10 19 11
REMARK SMILES IDX 20 12 8 13 7 14 6 15 5 16 4 17 3 18 2 19 1 20
REMARK H PARENT
REMARK Flexibility Score: inf
ROOT
ATOM      1  C   UNL     1      -1.292  19.464   9.416  1.00  0.00    -0.031 C 
ATOM      2  C   UNL     1      -2.152  20.493   9.407  1.00  0.00    -0.031 C 
ENDROOT
BRANCH   1   3
ATOM      3  C   UNL     1      -1.690  18.115   9.948  1.00  0.00     0.027 C 
BRANCH   3   4
ATOM      4  C   UNL     1      -0.940  16.994   9.212  1.00  0.00     0.004 C 
BRANCH   4   5
ATOM      5  C   UNL     1      -1.821  15.762   8.957  1.00  0.00     0.000 C 
BRANCH   5   6
ATOM      6  C   UNL     1      -2.545  15.821   7.601  1.00  0.00     0.000 C 
BRANCH   6   7
ATOM      7  C   UNL     1      -3.966  15.239   7.662  1.00  0.00     0.000 C 
BRANCH   7   8
ATOM      8  C   UNL     1      -5.053  16.320   7.536  1.00  0.00     0.006 C 
BRANCH   8   9
ATOM      9  C   UNL     1      -4.730  17.564   8.377  1.00  0.00     0.053 C 
BRANCH   9  10
ATOM     10  C   UNL     1      -5.966  18.187   8.948  1.00  0.00     0.041 C 
ATOM     11  O   UNL     1      -7.033  18.204   8.279  1.00  0.00    -0.550 OA
ATOM     12  O   UNL     1      -5.931  18.778  10.204  1.00  0.00    -0.550 OA
ENDBRANCH   9  10
ENDBRANCH   8   9
ENDBRANCH   7   8
ENDBRANCH   6   7
ENDBRANCH   5   6
ENDBRANCH   4   5
ENDBRANCH   3   4
ENDBRANCH   1   3
BRANCH   2  13
ATOM     13  C   UNL     1      -1.783  21.829   8.817  1.00  0.00     0.027 C 
BRANCH  13  14
ATOM     14  C   UNL     1      -0.900  22.638   9.775  1.00  0.00     0.004 C 
BRANCH  14  15
ATOM     15  C   UNL     1      -0.468  23.985   9.169  1.00  0.00     0.000 C 
BRANCH  15  16
ATOM     16  C   UNL     1      -0.079  25.014  10.241  1.00  0.00     0.000 C 
BRANCH  16  17
ATOM     17  C   UNL     1      -0.251  26.465   9.760  1.00  0.00    -0.000 C 
BRANCH  17  18
ATOM     18  C   UNL     1      -0.382  27.460  10.924  1.00  0.00    -0.000 C 
BRANCH  18  19
ATOM     19  C   UNL     1      -1.748  27.373  11.623  1.00  0.00    -0.003 C 
ATOM     20  C   UNL     1      -1.591  27.413  13.140  1.00  0.00     0.004 C 
ENDBRANCH  18  19
ENDBRANCH  17  18
ENDBRANCH  16  17
ENDBRANCH  15  16
ENDBRANCH  14  15
ENDBRANCH  13  14
ENDBRANCH   2  13
TORSDOF 15
ENDMDL
MODEL 4
REMARK VINA RESULT:    21.200      4.801      9.792
REMARK INTER + INTRA:          39.014
REMARK INTER:                  40.134
REMARK INTRA:                  -1.120
REMARK UNBOUND:                -0.777
REMARK SMILES CCCCCCCCC=CCCCCCCCC(=O)[O-]
REMARK SMILES IDX 10 1 9 2 11 3 12 4 13 5 14 6 15 7 16 8 17 9 18 10 19 11
REMARK SMILES IDX 20 12 8 13 7 14 6 15 5 16 4 17 3 18 2 19 1 20
REMARK H PARENT
REMARK Flexibility Score: inf
ROOT
ATOM      1  C   UNL     1      -1.674  18.447   9.362  1.00  0.00    -0.031 C 
ATOM      2  C   UNL     1      -0.978  17.391   9.807  1.00  0.00    -0.031 C 
ENDROOT
BRANCH   1   3
ATOM      3  C   UNL     1      -1.334  19.847   9.792  1.00  0.00     0.027 C 
BRANCH   3   4
ATOM      4  C   UNL     1      -2.388  20.846   9.290  1.00  0.00     0.004 C 
BRANCH   4   5
ATOM      5  C   UNL     1      -1.769  22.167   8.810  1.00  0.00     0.000 C 
BRANCH   5   6
ATOM      6  C   UNL     1      -1.022  22.913   9.929  1.00  0.00     0.000 C 
BRANCH   6   7
ATOM      7  C   UNL     1       0.030  23.894   9.387  1.00  0.00     0.000 C 
BRANCH   7   8
ATOM      8  C   UNL     1      -0.435  25.359   9.463  1.00  0.00     0.006 C 
BRANCH   8   9
ATOM      9  C   UNL     1       0.098  26.070  10.714  1.00  0.00     0.053 C 
BRANCH   9  10
ATOM     10  C   UNL     1      -0.743  27.253  11.085  1.00  0.00     0.041 C 
ATOM     11  O   UNL     1      -1.468  27.216  12.114  1.00  0.00    -0.550 OA
ATOM     12  O   UNL     1      -0.750  28.382  10.277  1.00  0.00    -0.550 OA
ENDBRANCH   9  10
ENDBRANCH   8   9
ENDBRANCH   7   8
ENDBRANCH   6   7
ENDBRANCH   5   6
ENDBRANCH   4   5
ENDBRANCH   3   4
ENDBRANCH   1   3
BRANCH   2  13
ATOM     13  C   UNL     1      -1.271  15.992   9.331  1.00  0.00     0.027 C 
BRANCH  13  14
ATOM     14  C   UNL     1      -1.894  15.998   7.929  1.00  0.00     0.004 C 
BRANCH  14  15
ATOM     15  C   UNL     1      -3.234  15.242   7.886  1.00  0.00     0.000 C 
BRANCH  15  16
ATOM     16  C   UNL     1      -4.297  15.978   7.056  1.00  0.00     0.000 C 
BRANCH  16  17
ATOM     17  C   UNL     1      -5.575  16.274   7.858  1.00  0.00    -0.000 C 
BRANCH  17  18
ATOM     18  C   UNL     1      -5.991  17.752   7.781  1.00  0.00    -0.000 C 
BRANCH  18  19
ATOM     19  C   UNL     1      -6.474  18.300   9.133  1.00  0.00    -0.003 C 
ATOM     20  C   UNL     1      -5.294  18.675  10.025  1.00  0.00     0.004 C 
ENDBRANCH  18  19
ENDBRANCH  17  18
ENDBRANCH  16  17
ENDBRANCH  15  16
ENDBRANCH  14  15
ENDBRANCH  13  14
ENDBRANCH   2  13
TORSDOF 15
ENDMDL
MODEL 5
REMARK VINA RESULT:    21.422      2.690      4.099
REMARK INTER + INTRA:          39.429
REMARK INTER:                  40.390
REMARK INTRA:                  -0.961
REMARK UNBOUND:                -0.777
REMARK SMILES CCCCCCCCC=CCCCCCCCC(=O)[O-]
REMARK SMILES IDX 10 1 9 2 11 3 12 4 13 5 14 6 15 7 16 8 17 9 18 10 19 11
REMARK SMILES IDX 20 12 8 13 7 14 6 15 5 16 4 17 3 18 2 19 1 20
REMARK H PARENT
REMARK Flexibility Score: inf
ROOT
ATOM      1  C   UNL     1      -2.897  22.340   8.276  1.00  0.00    -0.031 C 
ATOM      2  C   UNL     1      -2.079  21.532   8.966  1.00  0.00    -0.031 C 
ENDROOT
BRANCH   1   3
ATOM      3  C   UNL     1      -4.093  21.803   7.540  1.00  0.00     0.027 C 
BRANCH   3   4
ATOM      4  C   UNL     1      -5.322  21.745   8.460  1.00  0.00     0.004 C 
BRANCH   4   5
ATOM      5  C   UNL     1      -5.030  21.044   9.795  1.00  0.00     0.000 C 
BRANCH   5   6
ATOM      6  C   UNL     1      -5.381  19.546   9.768  1.00  0.00     0.000 C 
BRANCH   6   7
ATOM      7  C   UNL     1      -4.289  18.671  10.404  1.00  0.00     0.000 C 
BRANCH   7   8
ATOM      8  C   UNL     1      -3.365  18.026   9.357  1.00  0.00     0.006 C 
BRANCH   8   9
ATOM      9  C   UNL     1      -1.887  18.111   9.761  1.00  0.00     0.053 C 
BRANCH   9  10
ATOM     10  C   UNL     1      -1.176  16.810   9.553  1.00  0.00     0.041 C 
ATOM     11  O   UNL     1      -1.580  16.001   8.676  1.00  0.00    -0.550 OA
ATOM     12  O   UNL     1      -0.087  16.476  10.348  1.00  0.00    -0.550 OA
ENDBRANCH   9  10
ENDBRANCH   8   9
ENDBRANCH   7   8
ENDBRANCH   6   7
ENDBRANCH   5   6
ENDBRANCH   4   5
ENDBRANCH   3   4
ENDBRANCH   1   3
BRANCH   2  13
ATOM     13  C   UNL     1      -0.917  22.070   9.759  1.00  0.00     0.027 C 
BRANCH  13  14
ATOM     14  C   UNL     1      -0.370  23.363   9.141  1.00  0.00     0.004 C 
BRANCH  14  15
ATOM     15  C   UNL     1      -0.306  24.512  10.162  1.00  0.00     0.000 C 
BRANCH  15  16
ATOM     16  C   UNL     1      -0.275  25.894   9.491  1.00  0.00     0.000 C 
BRANCH  16  17
ATOM     17  C   UNL     1       0.319  26.982  10.402  1.00  0.00    -0.000 C 
BRANCH  17  18
ATOM     18  C   UNL     1      -0.757  27.909  10.991  1.00  0.00    -0.000 C 
BRANCH  18  19
ATOM     19  C   UNL     1      -1.768  27.154  11.870  1.00  0.00    -0.003 C 
ATOM     20  C   UNL     1      -1.549  27.465  13.347  1.00  0.00     0.004 C 
ENDBRANCH  18  19
ENDBRANCH  17  18
ENDBRANCH  16  17
ENDBRANCH  15  16
ENDBRANCH  14  15
ENDBRANCH  13  14
ENDBRANCH   2  13
TORSDOF 15
ENDMDL
MODEL 6
REMARK VINA RESULT:    21.472     11.469     12.209
REMARK INTER + INTRA:          39.525
REMARK INTER:                  40.505
REMARK INTRA:                  -0.980
REMARK UNBOUND:                -0.777
REMARK SMILES CCCCCCCCC=CCCCCCCCC(=O)[O-]
REMARK SMILES IDX 10 1 9 2 11 3 12 4 13 5 14 6 15 7 16 8 17 9 18 10 19 11
REMARK SMILES IDX 20 12 8 13 7 14 6 15 5 16 4 17 3 18 2 19 1 20
REMARK H PARENT
REMARK Flexibility Score: inf
ROOT
ATOM      1  C   UNL     1      -0.487  14.455  18.643  1.00  0.00    -0.031 C 
ATOM      2  C   UNL     1      -0.757  15.240  19.696  1.00  0.00    -0.031 C 
ENDROOT
BRANCH   1   3
ATOM      3  C   UNL     1      -1.305  13.229  18.348  1.00  0.00     0.027 C 
BRANCH   3   4
ATOM      4  C   UNL     1      -1.950  12.679  19.630  1.00  0.00     0.004 C 
BRANCH   4   5
ATOM      5  C   UNL     1      -3.483  12.626  19.545  1.00  0.00     0.000 C 
BRANCH   5   6
ATOM      6  C   UNL     1      -4.166  13.570  20.550  1.00  0.00     0.000 C 
BRANCH   6   7
ATOM      7  C   UNL     1      -4.143  15.037  20.093  1.00  0.00     0.000 C 
BRANCH   7   8
ATOM      8  C   UNL     1      -4.832  15.978  21.097  1.00  0.00     0.006 C 
BRANCH   8   9
ATOM      9  C   UNL     1      -5.803  16.946  20.408  1.00  0.00     0.053 C 
BRANCH   9  10
ATOM     10  C   UNL     1      -7.186  16.378  20.318  1.00  0.00     0.041 C 
ATOM     11  O   UNL     1      -8.186  17.145  20.311  1.00  0.00    -0.550 OA
ATOM     12  O   UNL     1      -7.373  15.003  20.275  1.00  0.00    -0.550 OA
ENDBRANCH   9  10
ENDBRANCH   8   9
ENDBRANCH   7   8
ENDBRANCH   6   7
ENDBRANCH   5   6
ENDBRANCH   4   5
ENDBRANCH   3   4
ENDBRANCH   1   3
BRANCH   2  13
ATOM     13  C   UNL     1       0.016  16.505  19.960  1.00  0.00     0.027 C 
BRANCH  13  14
ATOM     14  C   UNL     1      -0.849  17.550  20.677  1.00  0.00     0.004 C 
BRANCH  14  15
ATOM     15  C   UNL     1      -0.434  18.988  20.322  1.00  0.00     0.000 C 
BRANCH  15  16
ATOM     16  C   UNL     1      -1.146  20.037  21.191  1.00  0.00     0.000 C 
BRANCH  16  17
ATOM     17  C   UNL     1      -0.164  20.910  21.990  1.00  0.00    -0.000 C 
BRANCH  17  18
ATOM     18  C   UNL     1      -0.670  22.351  22.170  1.00  0.00    -0.000 C 
BRANCH  18  19
ATOM     19  C   UNL     1      -2.072  22.409  22.798  1.00  0.00    -0.003 C 
ATOM     20  C   UNL     1      -2.432  23.836  23.201  1.00  0.00     0.004 C 
ENDBRANCH  18  19
ENDBRANCH  17  18
ENDBRANCH  16  17
ENDBRANCH  15  16
ENDBRANCH  14  15
ENDBRANCH  13  14
ENDBRANCH   2  13
TORSDOF 15
ENDMDL
MODEL 7
REMARK VINA RESULT:    21.519      1.575      2.014
REMARK INTER + INTRA:          39.612
REMARK INTER:                  40.480
REMARK INTRA:                  -0.868
REMARK UNBOUND:                -0.777
REMARK SMILES CCCCCCCCC=CCCCCCCCC(=O)[O-]
REMARK SMILES IDX 10 1 9 2 11 3 12 4 13 5 14 6 15 7 16 8 17 9 18 10 19 11
REMARK SMILES IDX 20 12 8 13 7 14 6 15 5 16 4 17 3 18 2 19 1 20
REMARK H PARENT
REMARK Flexibility Score: inf
ROOT
ATOM      1  C   UNL     1      -1.210  19.223   8.935  1.00  0.00    -0.031 C 
ATOM      2  C   UNL     1      -1.500  20.292   9.691  1.00  0.00    -0.031 C 
ENDROOT
BRANCH   1   3
ATOM      3  C   UNL     1      -0.822  17.908   9.551  1.00  0.00     0.027 C 
BRANCH   3   4
ATOM      4  C   UNL     1      -1.997  17.300  10.331  1.00  0.00     0.004 C 
BRANCH   4   5
ATOM      5  C   UNL     1      -3.350  17.542   9.645  1.00  0.00     0.000 C 
BRANCH   5   6
ATOM      6  C   UNL     1      -4.361  18.256  10.560  1.00  0.00     0.000 C 
BRANCH   6   7
ATOM      7  C   UNL     1      -5.603  18.747   9.800  1.00  0.00     0.000 C 
BRANCH   7   8
ATOM      8  C   UNL     1      -5.669  18.203   8.363  1.00  0.00     0.006 C 
BRANCH   8   9
ATOM      9  C   UNL     1      -6.690  17.065   8.222  1.00  0.00     0.053 C 
BRANCH   9  10
ATOM     10  C   UNL     1      -6.051  15.796   7.750  1.00  0.00     0.041 C 
ATOM     11  O   UNL     1      -6.616  14.689   7.952  1.00  0.00    -0.550 OA
ATOM     12  O   UNL     1      -4.816  15.833   7.114  1.00  0.00    -0.550 OA
ENDBRANCH   9  10
ENDBRANCH   8   9
ENDBRANCH   7   8
ENDBRANCH   6   7
ENDBRANCH   5   6
ENDBRANCH   4   5
ENDBRANCH   3   4
ENDBRANCH   1   3
BRANCH   2  13
ATOM     13  C   UNL     1      -1.952  21.593   9.084  1.00  0.00     0.027 C 
BRANCH  13  14
ATOM     14  C   UNL     1      -0.780  22.568   8.912  1.00  0.00     0.004 C 
BRANCH  14  15
ATOM     15  C   UNL     1      -0.666  23.551  10.090  1.00  0.00     0.000 C 
BRANCH  15  16
ATOM     16  C   UNL     1      -0.347  24.983   9.631  1.00  0.00     0.000 C 
BRANCH  16  17
ATOM     17  C   UNL     1       0.083  25.895  10.792  1.00  0.00    -0.000 C 
BRANCH  17  18
ATOM     18  C   UNL     1      -0.348  27.356  10.584  1.00  0.00    -0.000 C 
BRANCH  18  19
ATOM     19  C   UNL     1      -1.576  27.734  11.428  1.00  0.00    -0.003 C 
ATOM     20  C   UNL     1      -1.437  27.222  12.858  1.00  0.00     0.004 C 
ENDBRANCH  18  19
ENDBRANCH  17  18
ENDBRANCH  16  17
ENDBRANCH  15  16
ENDBRANCH  14  15
ENDBRANCH  13  14
ENDBRANCH   2  13
TORSDOF 15
ENDMDL
MODEL 8
REMARK VINA RESULT:    21.712     12.050     14.203
REMARK INTER + INTRA:          39.974
REMARK INTER:                  41.045
REMARK INTRA:                  -1.071
REMARK UNBOUND:                -0.777
REMARK SMILES CCCCCCCCC=CCCCCCCCC(=O)[O-]
REMARK SMILES IDX 10 1 9 2 11 3 12 4 13 5 14 6 15 7 16 8 17 9 18 10 19 11
REMARK SMILES IDX 20 12 8 13 7 14 6 15 5 16 4 17 3 18 2 19 1 20
REMARK H PARENT
REMARK Flexibility Score: inf
ROOT
ATOM      1  C   UNL     1      -1.705  12.524  19.285  1.00  0.00    -0.031 C 
ATOM      2  C   UNL     1      -2.975  12.922  19.112  1.00  0.00    -0.031 C 
ENDROOT
BRANCH   1   3
ATOM      3  C   UNL     1      -0.623  12.916  18.318  1.00  0.00     0.027 C 
BRANCH   3   4
ATOM      4  C   UNL     1      -0.450  14.442  18.278  1.00  0.00     0.004 C 
BRANCH   4   5
ATOM      5  C   UNL     1      -0.828  15.115  19.607  1.00  0.00     0.000 C 
BRANCH   5   6
ATOM      6  C   UNL     1       0.028  16.358  19.906  1.00  0.00     0.000 C 
BRANCH   6   7
ATOM      7  C   UNL     1      -0.717  17.399  20.757  1.00  0.00     0.000 C 
BRANCH   7   8
ATOM      8  C   UNL     1      -0.442  18.842  20.299  1.00  0.00     0.006 C 
BRANCH   8   9
ATOM      9  C   UNL     1      -1.431  19.841  20.914  1.00  0.00     0.053 C 
BRANCH   9  10
ATOM     10  C   UNL     1      -0.730  20.911  21.694  1.00  0.00     0.041 C 
ATOM     11  O   UNL     1       0.509  20.830  21.908  1.00  0.00    -0.550 OA
ATOM     12  O   UNL     1      -1.449  21.981  22.211  1.00  0.00    -0.550 OA
ENDBRANCH   9  10
ENDBRANCH   8   9
ENDBRANCH   7   8
ENDBRANCH   6   7
ENDBRANCH   5   6
ENDBRANCH   4   5
ENDBRANCH   3   4
ENDBRANCH   1   3
BRANCH   2  13
ATOM     13  C   UNL     1      -4.052  12.588  20.110  1.00  0.00     0.027 C 
BRANCH  13  14
ATOM     14  C   UNL     1      -4.335  13.773  21.043  1.00  0.00     0.004 C 
BRANCH  14  15
ATOM     15  C   UNL     1      -4.192  15.125  20.323  1.00  0.00     0.000 C 
BRANCH  15  16
ATOM     16  C   UNL     1      -4.312  16.318  21.284  1.00  0.00     0.000 C 
BRANCH  16  17
ATOM     17  C   UNL     1      -5.483  17.250  20.928  1.00  0.00    -0.000 C 
BRANCH  17  18
ATOM     18  C   UNL     1      -6.416  16.644  19.867  1.00  0.00    -0.000 C 
BRANCH  18  19
ATOM     19  C   UNL     1      -7.692  16.043  20.479  1.00  0.00    -0.003 C 
ATOM     20  C   UNL     1      -8.931  16.812  20.029  1.00  0.00     0.004 C 
ENDBRANCH  18  19
ENDBRANCH  17  18
ENDBRANCH  16  17
ENDBRANCH  15  16
ENDBRANCH  14  15
ENDBRANCH  13  14
ENDBRANCH   2  13
TORSDOF 15
ENDMDL
