MODEL 1
REMARK VINA RESULT:    -6.045      0.000      0.000
REMARK INTER + INTRA:          -7.403
REMARK INTER:                  -7.106
REMARK INTRA:                  -0.297
REMARK UNBOUND:                -0.297
REMARK SMILES O=c1cc(-c2ccc(O)c(O)c2)oc2cc(O)cc(O)c12
REMARK SMILES IDX 4 1 3 2 2 3 1 4 21 5 19 6 18 7 16 8 15 9 14 10 13 11 5 12
REMARK SMILES IDX 6 13 7 14 8 15 12 16 10 17 9 18 11 20 20 22 17 24
REMARK H PARENT 9 19 11 21 20 23 17 25
REMARK Flexibility Score: inf
ROOT
ATOM      1  C   UNL     1      42.706  12.936  23.927  1.00  0.00     0.138 A 
ATOM      2  C   UNL     1      44.061  12.806  23.594  1.00  0.00     0.100 A 
ATOM      3  C   UNL     1      44.647  13.722  22.718  1.00  0.00     0.197 A 
ATOM      4  O   UNL     1      45.878  13.610  22.482  1.00  0.00    -0.289 OA
ATOM      5  C   UNL     1      43.862  14.751  22.147  1.00  0.00     0.107 A 
ATOM      6  C   UNL     1      44.343  15.721  21.215  1.00  0.00     0.134 A 
ATOM      7  C   UNL     1      43.495  16.752  20.794  1.00  0.00     0.093 A 
ATOM      8  C   UNL     1      42.169  16.818  21.222  1.00  0.00     0.123 A 
ATOM      9  C   UNL     1      41.674  15.846  22.094  1.00  0.00     0.094 A 
ATOM     10  C   UNL     1      42.504  14.824  22.560  1.00  0.00     0.146 A 
ATOM     11  O   UNL     1      41.998  13.930  23.402  1.00  0.00    -0.456 OA
ENDROOT
BRANCH   1  12
ATOM     12  C   UNL     1      42.031  11.989  24.850  1.00  0.00     0.021 A 
ATOM     13  C   UNL     1      40.679  12.190  25.178  1.00  0.00     0.016 A 
ATOM     14  C   UNL     1      40.022  11.318  26.050  1.00  0.00     0.051 A 
ATOM     15  C   UNL     1      40.706  10.236  26.617  1.00  0.00     0.157 A 
ATOM     16  C   UNL     1      42.717  10.906  25.434  1.00  0.00     0.062 A 
ATOM     17  C   UNL     1      42.061  10.032  26.310  1.00  0.00     0.158 A 
BRANCH  15  18
ATOM     18  O   UNL     1      40.046   9.367  27.485  1.00  0.00    -0.504 OA
ATOM     19  H   UNL     1      40.181   9.417  28.488  1.00  0.00     0.293 HD
ENDBRANCH  15  18
BRANCH  17  20
ATOM     20  O   UNL     1      42.773   8.972  26.868  1.00  0.00    -0.504 OA
ATOM     21  H   UNL     1      43.374   9.091  27.675  1.00  0.00     0.293 HD
ENDBRANCH  17  20
ENDBRANCH   1  12
BRANCH   6  22
ATOM     22  O   UNL     1      45.626  15.706  20.661  1.00  0.00    -0.507 OA
ATOM     23  H   UNL     1      45.886  15.223  19.814  1.00  0.00     0.293 HD
ENDBRANCH   6  22
BRANCH   8  24
ATOM     24  O   UNL     1      41.351  17.849  20.770  1.00  0.00    -0.508 OA
ATOM     25  H   UNL     1      41.508  18.812  21.048  1.00  0.00     0.293 HD
ENDBRANCH   8  24
TORSDOF 5
ENDMDL
MODEL 2
REMARK VINA RESULT:    -5.928      4.120      5.216
REMARK INTER + INTRA:          -7.265
REMARK INTER:                  -6.970
REMARK INTRA:                  -0.295
REMARK UNBOUND:                -0.297
REMARK SMILES O=c1cc(-c2ccc(O)c(O)c2)oc2cc(O)cc(O)c12
REMARK SMILES IDX 4 1 3 2 2 3 1 4 21 5 19 6 18 7 16 8 15 9 14 10 13 11 5 12
REMARK SMILES IDX 6 13 7 14 8 15 12 16 10 17 9 18 11 20 20 22 17 24
REMARK H PARENT 9 19 11 21 20 23 17 25
REMARK Flexibility Score: inf
ROOT
ATOM      1  C   UNL     1      45.637  13.303  23.055  1.00  0.00     0.138 A 
ATOM      2  C   UNL     1      45.763  14.264  22.042  1.00  0.00     0.100 A 
ATOM      3  C   UNL     1      45.811  15.618  22.378  1.00  0.00     0.197 A 
ATOM      4  O   UNL     1      45.979  16.452  21.450  1.00  0.00    -0.289 OA
ATOM      5  C   UNL     1      45.696  16.012  23.732  1.00  0.00     0.107 A 
ATOM      6  C   UNL     1      45.697  17.365  24.189  1.00  0.00     0.134 A 
ATOM      7  C   UNL     1      45.676  17.628  25.564  1.00  0.00     0.093 A 
ATOM      8  C   UNL     1      45.595  16.594  26.496  1.00  0.00     0.123 A 
ATOM      9  C   UNL     1      45.543  15.269  26.059  1.00  0.00     0.094 A 
ATOM     10  C   UNL     1      45.598  14.972  24.695  1.00  0.00     0.146 A 
ATOM     11  O   UNL     1      45.563  13.698  24.321  1.00  0.00    -0.456 OA
ENDROOT
BRANCH   1  12
ATOM     12  C   UNL     1      45.577  11.850  22.755  1.00  0.00     0.021 A 
ATOM     13  C   UNL     1      45.712  10.923  23.803  1.00  0.00     0.016 A 
ATOM     14  C   UNL     1      45.667   9.551  23.547  1.00  0.00     0.051 A 
ATOM     15  C   UNL     1      45.498   9.080  22.239  1.00  0.00     0.157 A 
ATOM     16  C   UNL     1      45.421  11.370  21.440  1.00  0.00     0.062 A 
ATOM     17  C   UNL     1      45.378   9.995  21.181  1.00  0.00     0.158 A 
BRANCH  15  18
ATOM     18  O   UNL     1      45.452   7.709  21.988  1.00  0.00    -0.504 OA
ATOM     19  H   UNL     1      45.286   7.345  21.057  1.00  0.00     0.293 HD
ENDBRANCH  15  18
BRANCH  17  20
ATOM     20  O   UNL     1      45.222   9.558  19.866  1.00  0.00    -0.504 OA
ATOM     21  H   UNL     1      45.906   8.966  19.410  1.00  0.00     0.293 HD
ENDBRANCH  17  20
ENDBRANCH   1  12
BRANCH   6  22
ATOM     22  O   UNL     1      45.696  18.478  23.343  1.00  0.00    -0.507 OA
ATOM     23  H   UNL     1      45.167  18.557  22.489  1.00  0.00     0.293 HD
ENDBRANCH   6  22
BRANCH   8  24
ATOM     24  O   UNL     1      45.561  16.894  27.855  1.00  0.00    -0.508 OA
ATOM     25  H   UNL     1      45.656  17.846  28.191  1.00  0.00     0.293 HD
ENDBRANCH   8  24
TORSDOF 5
ENDMDL
MODEL 3
REMARK VINA RESULT:    -5.871      4.916      9.456
REMARK INTER + INTRA:          -7.198
REMARK INTER:                  -6.901
REMARK INTRA:                  -0.296
REMARK UNBOUND:                -0.297
REMARK SMILES O=c1cc(-c2ccc(O)c(O)c2)oc2cc(O)cc(O)c12
REMARK SMILES IDX 4 1 3 2 2 3 1 4 21 5 19 6 18 7 16 8 15 9 14 10 13 11 5 12
REMARK SMILES IDX 6 13 7 14 8 15 12 16 10 17 9 18 11 20 20 22 17 24
REMARK H PARENT 9 19 11 21 20 23 17 25
REMARK Flexibility Score: inf
ROOT
ATOM      1  C   UNL     1      37.864  12.536  27.868  1.00  0.00     0.138 A 
ATOM      2  C   UNL     1      36.961  12.628  28.937  1.00  0.00     0.100 A 
ATOM      3  C   UNL     1      35.963  11.664  29.083  1.00  0.00     0.197 A 
ATOM      4  O   UNL     1      35.204  11.745  30.083  1.00  0.00    -0.289 OA
ATOM      5  C   UNL     1      35.847  10.622  28.133  1.00  0.00     0.107 A 
ATOM      6  C   UNL     1      34.848   9.602  28.161  1.00  0.00     0.134 A 
ATOM      7  C   UNL     1      34.894   8.565  27.220  1.00  0.00     0.093 A 
ATOM      8  C   UNL     1      35.865   8.541  26.220  1.00  0.00     0.123 A 
ATOM      9  C   UNL     1      36.817   9.560  26.153  1.00  0.00     0.094 A 
ATOM     10  C   UNL     1      36.819  10.589  27.097  1.00  0.00     0.146 A 
ATOM     11  O   UNL     1      37.753  11.530  27.008  1.00  0.00    -0.456 OA
ENDROOT
BRANCH   1  12
ATOM     12  C   UNL     1      38.942  13.536  27.663  1.00  0.00     0.021 A 
ATOM     13  C   UNL     1      39.944  13.285  26.709  1.00  0.00     0.016 A 
ATOM     14  C   UNL     1      40.973  14.205  26.501  1.00  0.00     0.051 A 
ATOM     15  C   UNL     1      41.027  15.388  27.250  1.00  0.00     0.157 A 
ATOM     16  C   UNL     1      39.010  14.720  28.422  1.00  0.00     0.062 A 
ATOM     17  C   UNL     1      40.042  15.643  28.217  1.00  0.00     0.158 A 
BRANCH  15  18
ATOM     18  O   UNL     1      42.056  16.304  27.039  1.00  0.00    -0.504 OA
ATOM     19  H   UNL     1      42.357  16.941  27.767  1.00  0.00     0.293 HD
ENDBRANCH  15  18
BRANCH  17  20
ATOM     20  O   UNL     1      40.075  16.805  28.987  1.00  0.00    -0.504 OA
ATOM     21  H   UNL     1      40.682  16.901  29.793  1.00  0.00     0.293 HD
ENDBRANCH  17  20
ENDBRANCH   1  12
BRANCH   6  22
ATOM     22  O   UNL     1      33.784   9.571  29.068  1.00  0.00    -0.507 OA
ATOM     23  H   UNL     1      33.013  10.220  29.079  1.00  0.00     0.293 HD
ENDBRANCH   6  22
BRANCH   8  24
ATOM     24  O   UNL     1      35.871   7.502  25.292  1.00  0.00    -0.508 OA
ATOM     25  H   UNL     1      36.622   6.821  25.263  1.00  0.00     0.293 HD
ENDBRANCH   8  24
TORSDOF 5
ENDMDL
MODEL 4
REMARK VINA RESULT:    -5.860      3.638      7.491
REMARK INTER + INTRA:          -7.184
REMARK INTER:                  -6.888
REMARK INTRA:                  -0.297
REMARK UNBOUND:                -0.297
REMARK SMILES O=c1cc(-c2ccc(O)c(O)c2)oc2cc(O)cc(O)c12
REMARK SMILES IDX 4 1 3 2 2 3 1 4 21 5 19 6 18 7 16 8 15 9 14 10 13 11 5 12
REMARK SMILES IDX 6 13 7 14 8 15 12 16 10 17 9 18 11 20 20 22 17 24
REMARK H PARENT 9 19 11 21 20 23 17 25
REMARK Flexibility Score: inf
ROOT
ATOM      1  C   UNL     1      45.653  12.870  23.103  1.00  0.00     0.138 A 
ATOM      2  C   UNL     1      45.597  12.226  21.859  1.00  0.00     0.100 A 
ATOM      3  C   UNL     1      45.598  10.832  21.803  1.00  0.00     0.197 A 
ATOM      4  O   UNL     1      45.492  10.285  20.675  1.00  0.00    -0.289 OA
ATOM      5  C   UNL     1      45.688  10.079  22.998  1.00  0.00     0.107 A 
ATOM      6  C   UNL     1      45.731   8.653  23.061  1.00  0.00     0.134 A 
ATOM      7  C   UNL     1      45.722   8.017  24.309  1.00  0.00     0.093 A 
ATOM      8  C   UNL     1      45.730   8.753  25.494  1.00  0.00     0.123 A 
ATOM      9  C   UNL     1      45.739  10.148  25.444  1.00  0.00     0.094 A 
ATOM     10  C   UNL     1      45.713  10.812  24.215  1.00  0.00     0.146 A 
ATOM     11  O   UNL     1      45.705  12.140  24.212  1.00  0.00    -0.456 OA
ENDROOT
BRANCH   1  12
ATOM     12  C   UNL     1      45.659  14.350  23.221  1.00  0.00     0.021 A 
ATOM     13  C   UNL     1      45.769  14.941  24.492  1.00  0.00     0.016 A 
ATOM     14  C   UNL     1      45.770  16.330  24.632  1.00  0.00     0.051 A 
ATOM     15  C   UNL     1      45.652  17.155  23.506  1.00  0.00     0.157 A 
ATOM     16  C   UNL     1      45.526  15.185  22.094  1.00  0.00     0.062 A 
ATOM     17  C   UNL     1      45.525  16.578  22.232  1.00  0.00     0.158 A 
BRANCH  15  18
ATOM     18  O   UNL     1      45.655  18.542  23.649  1.00  0.00    -0.504 OA
ATOM     19  H   UNL     1      44.906  19.115  23.278  1.00  0.00     0.293 HD
ENDBRANCH  15  18
BRANCH  17  20
ATOM     20  O   UNL     1      45.393  17.371  21.093  1.00  0.00    -0.504 OA
ATOM     21  H   UNL     1      45.796  18.299  21.032  1.00  0.00     0.293 HD
ENDBRANCH  17  20
ENDBRANCH   1  12
BRANCH   6  22
ATOM     22  O   UNL     1      45.804   7.821  21.940  1.00  0.00    -0.507 OA
ATOM     23  H   UNL     1      45.075   7.195  21.634  1.00  0.00     0.293 HD
ENDBRANCH   6  22
BRANCH   8  24
ATOM     24  O   UNL     1      45.737   8.086  26.716  1.00  0.00    -0.508 OA
ATOM     25  H   UNL     1      46.265   8.436  27.508  1.00  0.00     0.293 HD
ENDBRANCH   8  24
TORSDOF 5
ENDMDL
MODEL 5
REMARK VINA RESULT:    -5.824      2.362      6.902
REMARK INTER + INTRA:          -7.142
REMARK INTER:                  -6.876
REMARK INTRA:                  -0.266
REMARK UNBOUND:                -0.297
REMARK SMILES O=c1cc(-c2ccc(O)c(O)c2)oc2cc(O)cc(O)c12
REMARK SMILES IDX 4 1 3 2 2 3 1 4 21 5 19 6 18 7 16 8 15 9 14 10 13 11 5 12
REMARK SMILES IDX 6 13 7 14 8 15 12 16 10 17 9 18 11 20 20 22 17 24
REMARK H PARENT 9 19 11 21 20 23 17 25
REMARK Flexibility Score: inf
ROOT
ATOM      1  C   UNL     1      43.693  12.128  23.001  1.00  0.00     0.138 A 
ATOM      2  C   UNL     1      44.534  11.400  22.148  1.00  0.00     0.100 A 
ATOM      3  C   UNL     1      45.031  10.162  22.559  1.00  0.00     0.197 A 
ATOM      4  O   UNL     1      45.738   9.509  21.749  1.00  0.00    -0.289 OA
ATOM      5  C   UNL     1      44.711   9.668  23.846  1.00  0.00     0.107 A 
ATOM      6  C   UNL     1      45.188   8.435  24.386  1.00  0.00     0.134 A 
ATOM      7  C   UNL     1      44.723   8.004  25.636  1.00  0.00     0.093 A 
ATOM      8  C   UNL     1      43.847   8.786  26.389  1.00  0.00     0.123 A 
ATOM      9  C   UNL     1      43.414  10.016  25.892  1.00  0.00     0.094 A 
ATOM     10  C   UNL     1      43.832  10.458  24.635  1.00  0.00     0.146 A 
ATOM     11  O   UNL     1      43.382  11.627  24.192  1.00  0.00    -0.456 OA
ENDROOT
BRANCH   1  12
ATOM     12  C   UNL     1      43.139  13.451  22.616  1.00  0.00     0.021 A 
ATOM     13  C   UNL     1      41.747  13.610  22.505  1.00  0.00     0.016 A 
ATOM     14  C   UNL     1      41.201  14.842  22.137  1.00  0.00     0.051 A 
ATOM     15  C   UNL     1      42.035  15.933  21.864  1.00  0.00     0.157 A 
ATOM     16  C   UNL     1      43.973  14.548  22.326  1.00  0.00     0.062 A 
ATOM     17  C   UNL     1      43.428  15.783  21.955  1.00  0.00     0.158 A 
BRANCH  15  18
ATOM     18  O   UNL     1      41.486  17.161  21.498  1.00  0.00    -0.504 OA
ATOM     19  H   UNL     1      41.004  17.285  20.615  1.00  0.00     0.293 HD
ENDBRANCH  15  18
BRANCH  17  20
ATOM     20  O   UNL     1      44.286  16.846  21.677  1.00  0.00    -0.504 OA
ATOM     21  H   UNL     1      44.416  17.203  20.738  1.00  0.00     0.293 HD
ENDBRANCH  17  20
ENDBRANCH   1  12
BRANCH   6  22
ATOM     22  O   UNL     1      46.125   7.612  23.755  1.00  0.00    -0.507 OA
ATOM     23  H   UNL     1      47.059   7.434  24.090  1.00  0.00     0.293 HD
ENDBRANCH   6  22
BRANCH   8  24
ATOM     24  O   UNL     1      43.419   8.332  27.634  1.00  0.00    -0.508 OA
ATOM     25  H   UNL     1      44.032   8.341  28.441  1.00  0.00     0.293 HD
ENDBRANCH   8  24
TORSDOF 5
ENDMDL
MODEL 6
REMARK VINA RESULT:    -5.816      4.194      8.350
REMARK INTER + INTRA:          -7.133
REMARK INTER:                  -6.848
REMARK INTRA:                  -0.285
REMARK UNBOUND:                -0.297
REMARK SMILES O=c1cc(-c2ccc(O)c(O)c2)oc2cc(O)cc(O)c12
REMARK SMILES IDX 4 1 3 2 2 3 1 4 21 5 19 6 18 7 16 8 15 9 14 10 13 11 5 12
REMARK SMILES IDX 6 13 7 14 8 15 12 16 10 17 9 18 11 20 20 22 17 24
REMARK H PARENT 9 19 11 21 20 23 17 25
REMARK Flexibility Score: inf
ROOT
ATOM      1  C   UNL     1      38.550  11.560  27.019  1.00  0.00     0.138 A 
ATOM      2  C   UNL     1      37.801  10.413  27.314  1.00  0.00     0.100 A 
ATOM      3  C   UNL     1      36.594  10.535  28.004  1.00  0.00     0.197 A 
ATOM      4  O   UNL     1      35.919   9.492  28.205  1.00  0.00    -0.289 OA
ATOM      5  C   UNL     1      36.153  11.810  28.431  1.00  0.00     0.107 A 
ATOM      6  C   UNL     1      34.956  12.051  29.171  1.00  0.00     0.134 A 
ATOM      7  C   UNL     1      34.574  13.369  29.453  1.00  0.00     0.093 A 
ATOM      8  C   UNL     1      35.371  14.449  29.073  1.00  0.00     0.123 A 
ATOM      9  C   UNL     1      36.568  14.221  28.393  1.00  0.00     0.094 A 
ATOM     10  C   UNL     1      36.961  12.921  28.067  1.00  0.00     0.146 A 
ATOM     11  O   UNL     1      38.099  12.749  27.404  1.00  0.00    -0.456 OA
ENDROOT
BRANCH   1  12
ATOM     12  C   UNL     1      39.843  11.488  26.292  1.00  0.00     0.021 A 
ATOM     13  C   UNL     1      40.184  12.509  25.388  1.00  0.00     0.016 A 
ATOM     14  C   UNL     1      41.390  12.462  24.685  1.00  0.00     0.051 A 
ATOM     15  C   UNL     1      42.272  11.389  24.864  1.00  0.00     0.157 A 
ATOM     16  C   UNL     1      40.728  10.405  26.457  1.00  0.00     0.062 A 
ATOM     17  C   UNL     1      41.936  10.354  25.752  1.00  0.00     0.158 A 
BRANCH  15  18
ATOM     18  O   UNL     1      43.475  11.346  24.162  1.00  0.00    -0.504 OA
ATOM     19  H   UNL     1      43.855  12.170  23.709  1.00  0.00     0.293 HD
ENDBRANCH  15  18
BRANCH  17  20
ATOM     20  O   UNL     1      42.787   9.267  25.943  1.00  0.00    -0.504 OA
ATOM     21  H   UNL     1      42.459   8.309  25.885  1.00  0.00     0.293 HD
ENDBRANCH  17  20
ENDBRANCH   1  12
BRANCH   6  22
ATOM     22  O   UNL     1      34.124  11.044  29.668  1.00  0.00    -0.507 OA
ATOM     23  H   UNL     1      33.141  10.951  29.464  1.00  0.00     0.293 HD
ENDBRANCH   6  22
BRANCH   8  24
ATOM     24  O   UNL     1      34.966  15.744  29.384  1.00  0.00    -0.508 OA
ATOM     25  H   UNL     1      33.992  15.971  29.548  1.00  0.00     0.293 HD
ENDBRANCH   8  24
TORSDOF 5
ENDMDL
MODEL 7
REMARK VINA RESULT:    -5.740      4.404      8.627
REMARK INTER + INTRA:          -7.043
REMARK INTER:                  -6.753
REMARK INTRA:                  -0.291
REMARK UNBOUND:                -0.297
REMARK SMILES O=c1cc(-c2ccc(O)c(O)c2)oc2cc(O)cc(O)c12
REMARK SMILES IDX 4 1 3 2 2 3 1 4 21 5 19 6 18 7 16 8 15 9 14 10 13 11 5 12
REMARK SMILES IDX 6 13 7 14 8 15 12 16 10 17 9 18 11 20 20 22 17 24
REMARK H PARENT 9 19 11 21 20 23 17 25
REMARK Flexibility Score: inf
ROOT
ATOM      1  C   UNL     1      38.627  12.364  27.349  1.00  0.00     0.138 A 
ATOM      2  C   UNL     1      38.412  13.711  27.672  1.00  0.00     0.100 A 
ATOM      3  C   UNL     1      37.247  14.081  28.346  1.00  0.00     0.197 A 
ATOM      4  O   UNL     1      37.109  15.289  28.671  1.00  0.00    -0.289 OA
ATOM      5  C   UNL     1      36.277  13.102  28.667  1.00  0.00     0.107 A 
ATOM      6  C   UNL     1      35.037  13.368  29.322  1.00  0.00     0.134 A 
ATOM      7  C   UNL     1      34.201  12.301  29.675  1.00  0.00     0.093 A 
ATOM      8  C   UNL     1      34.530  10.986  29.345  1.00  0.00     0.123 A 
ATOM      9  C   UNL     1      35.717  10.719  28.660  1.00  0.00     0.094 A 
ATOM     10  C   UNL     1      36.589  11.758  28.325  1.00  0.00     0.146 A 
ATOM     11  O   UNL     1      37.716  11.459  27.688  1.00  0.00    -0.456 OA
ENDROOT
BRANCH   1  12
ATOM     12  C   UNL     1      39.845  11.915  26.629  1.00  0.00     0.021 A 
ATOM     13  C   UNL     1      40.261  12.607  25.478  1.00  0.00     0.016 A 
ATOM     14  C   UNL     1      41.400  12.202  24.778  1.00  0.00     0.051 A 
ATOM     15  C   UNL     1      42.137  11.091  25.208  1.00  0.00     0.157 A 
ATOM     16  C   UNL     1      40.583  10.791  27.048  1.00  0.00     0.062 A 
ATOM     17  C   UNL     1      41.723  10.381  26.346  1.00  0.00     0.158 A 
BRANCH  15  18
ATOM     18  O   UNL     1      43.274  10.690  24.507  1.00  0.00    -0.504 OA
ATOM     19  H   UNL     1      44.026  10.185  24.960  1.00  0.00     0.293 HD
ENDBRANCH  15  18
BRANCH  17  20
ATOM     20  O   UNL     1      42.428   9.265  26.793  1.00  0.00    -0.504 OA
ATOM     21  H   UNL     1      42.515   8.423  26.235  1.00  0.00     0.293 HD
ENDBRANCH  17  20
ENDBRANCH   1  12
BRANCH   6  22
ATOM     22  O   UNL     1      34.571  14.649  29.629  1.00  0.00    -0.507 OA
ATOM     23  H   UNL     1      34.881  15.207  30.410  1.00  0.00     0.293 HD
ENDBRANCH   6  22
BRANCH   8  24
ATOM     24  O   UNL     1      33.666   9.952  29.698  1.00  0.00    -0.508 OA
ATOM     25  H   UNL     1      32.936   9.634  29.071  1.00  0.00     0.293 HD
ENDBRANCH   8  24
TORSDOF 5
ENDMDL
MODEL 8
REMARK VINA RESULT:    -5.737      3.640      8.530
REMARK INTER + INTRA:          -7.040
REMARK INTER:                  -6.740
REMARK INTRA:                  -0.300
REMARK UNBOUND:                -0.297
REMARK SMILES O=c1cc(-c2ccc(O)c(O)c2)oc2cc(O)cc(O)c12
REMARK SMILES IDX 4 1 3 2 2 3 1 4 21 5 19 6 18 7 16 8 15 9 14 10 13 11 5 12
REMARK SMILES IDX 6 13 7 14 8 15 12 16 10 17 9 18 11 20 20 22 17 24
REMARK H PARENT 9 19 11 21 20 23 17 25
REMARK Flexibility Score: inf
ROOT
ATOM      1  C   UNL     1      39.106  12.261  26.491  1.00  0.00     0.138 A 
ATOM      2  C   UNL     1      39.168  10.878  26.268  1.00  0.00     0.100 A 
ATOM      3  C   UNL     1      38.204  10.043  26.836  1.00  0.00     0.197 A 
ATOM      4  O   UNL     1      38.257   8.814  26.572  1.00  0.00    -0.289 OA
ATOM      5  C   UNL     1      37.194  10.594  27.659  1.00  0.00     0.107 A 
ATOM      6  C   UNL     1      36.179   9.836  28.319  1.00  0.00     0.134 A 
ATOM      7  C   UNL     1      35.172  10.503  29.029  1.00  0.00     0.093 A 
ATOM      8  C   UNL     1      35.176  11.892  29.153  1.00  0.00     0.123 A 
ATOM      9  C   UNL     1      36.191  12.639  28.554  1.00  0.00     0.094 A 
ATOM     10  C   UNL     1      37.190  12.007  27.810  1.00  0.00     0.146 A 
ATOM     11  O   UNL     1      38.129  12.756  27.242  1.00  0.00    -0.456 OA
ENDROOT
BRANCH   1  12
ATOM     12  C   UNL     1      40.107  13.194  25.915  1.00  0.00     0.021 A 
ATOM     13  C   UNL     1      40.633  12.939  24.637  1.00  0.00     0.016 A 
ATOM     14  C   UNL     1      41.581  13.796  24.074  1.00  0.00     0.051 A 
ATOM     15  C   UNL     1      42.029  14.918  24.783  1.00  0.00     0.157 A 
ATOM     16  C   UNL     1      40.572  14.316  26.628  1.00  0.00     0.062 A 
ATOM     17  C   UNL     1      41.524  15.176  26.068  1.00  0.00     0.158 A 
BRANCH  15  18
ATOM     18  O   UNL     1      42.975  15.772  24.218  1.00  0.00    -0.504 OA
ATOM     19  H   UNL     1      43.488  15.517  23.382  1.00  0.00     0.293 HD
ENDBRANCH  15  18
BRANCH  17  20
ATOM     20  O   UNL     1      41.959  16.277  26.804  1.00  0.00    -0.504 OA
ATOM     21  H   UNL     1      42.923  16.382  27.098  1.00  0.00     0.293 HD
ENDBRANCH  17  20
ENDBRANCH   1  12
BRANCH   6  22
ATOM     22  O   UNL     1      36.123   8.439  28.327  1.00  0.00    -0.507 OA
ATOM     23  H   UNL     1      35.278   7.892  28.272  1.00  0.00     0.293 HD
ENDBRANCH   6  22
BRANCH   8  24
ATOM     24  O   UNL     1      34.167  12.519  29.880  1.00  0.00    -0.508 OA
ATOM     25  H   UNL     1      34.378  13.204  30.598  1.00  0.00     0.293 HD
ENDBRANCH   8  24
TORSDOF 5
ENDMDL
MODEL 9
REMARK VINA RESULT:    -5.728      6.581      9.642
REMARK INTER + INTRA:          -7.030
REMARK INTER:                  -6.743
REMARK INTRA:                  -0.287
REMARK UNBOUND:                -0.297
REMARK SMILES O=c1cc(-c2ccc(O)c(O)c2)oc2cc(O)cc(O)c12
REMARK SMILES IDX 4 1 3 2 2 3 1 4 21 5 19 6 18 7 16 8 15 9 14 10 13 11 5 12
REMARK SMILES IDX 6 13 7 14 8 15 12 16 10 17 9 18 11 20 20 22 17 24
REMARK H PARENT 9 19 11 21 20 23 17 25
REMARK Flexibility Score: inf
ROOT
ATOM      1  C   UNL     1      38.036  12.569  28.305  1.00  0.00     0.138 A 
ATOM      2  C   UNL     1      38.453  11.557  27.429  1.00  0.00     0.100 A 
ATOM      3  C   UNL     1      37.633  10.448  27.216  1.00  0.00     0.197 A 
ATOM      4  O   UNL     1      38.010   9.584  26.382  1.00  0.00    -0.289 OA
ATOM      5  C   UNL     1      36.405  10.336  27.911  1.00  0.00     0.107 A 
ATOM      6  C   UNL     1      35.504   9.235  27.800  1.00  0.00     0.134 A 
ATOM      7  C   UNL     1      34.271   9.282  28.464  1.00  0.00     0.093 A 
ATOM      8  C   UNL     1      33.932  10.361  29.280  1.00  0.00     0.123 A 
ATOM      9  C   UNL     1      34.828  11.421  29.436  1.00  0.00     0.094 A 
ATOM     10  C   UNL     1      36.050  11.420  28.760  1.00  0.00     0.146 A 
ATOM     11  O   UNL     1      36.866  12.455  28.922  1.00  0.00    -0.456 OA
ENDROOT
BRANCH   1  12
ATOM     12  C   UNL     1      38.871  13.768  28.572  1.00  0.00     0.021 A 
ATOM     13  C   UNL     1      40.213  13.604  28.955  1.00  0.00     0.016 A 
ATOM     14  C   UNL     1      41.018  14.714  29.218  1.00  0.00     0.051 A 
ATOM     15  C   UNL     1      40.493  16.009  29.115  1.00  0.00     0.157 A 
ATOM     16  C   UNL     1      38.346  15.072  28.483  1.00  0.00     0.062 A 
ATOM     17  C   UNL     1      39.150  16.187  28.749  1.00  0.00     0.158 A 
BRANCH  15  18
ATOM     18  O   UNL     1      41.300  17.115  29.378  1.00  0.00    -0.504 OA
ATOM     19  H   UNL     1      41.075  17.772  30.116  1.00  0.00     0.293 HD
ENDBRANCH  15  18
BRANCH  17  20
ATOM     20  O   UNL     1      38.594  17.462  28.650  1.00  0.00    -0.504 OA
ATOM     21  H   UNL     1      38.057  17.754  27.842  1.00  0.00     0.293 HD
ENDBRANCH  17  20
ENDBRANCH   1  12
BRANCH   6  22
ATOM     22  O   UNL     1      35.774   8.070  27.075  1.00  0.00    -0.507 OA
ATOM     23  H   UNL     1      35.530   7.136  27.366  1.00  0.00     0.293 HD
ENDBRANCH   6  22
BRANCH   8  24
ATOM     24  O   UNL     1      32.705  10.367  29.937  1.00  0.00    -0.508 OA
ATOM     25  H   UNL     1      31.875   9.966  29.514  1.00  0.00     0.293 HD
ENDBRANCH   8  24
TORSDOF 5
ENDMDL
