MODEL 1
REMARK VINA RESULT:    -4.065      0.000      0.000
REMARK INTER + INTRA:         -14.537
REMARK INTER:                 -10.245
REMARK INTRA:                  -4.292
REMARK UNBOUND:                -4.292
REMARK SMILES CCCCCCCCCCCCCCCCCCCCCCCCCCCC(=O)[O-]
REMARK SMILES IDX 15 1 16 2 17 3 18 4 19 5 20 6 21 7 22 8 23 9 24 10 25 11
REMARK SMILES IDX 26 12 27 13 28 14 29 15 30 16 14 17 13 18 12 19 11 20 10 21
REMARK SMILES IDX 9 22 8 23 7 24 6 25 5 26 4 27 3 28 2 29 1 30
REMARK H PARENT
REMARK Flexibility Score: inf
ROOT
ATOM      1  C   UNL     1     -19.568 -24.686 -16.491  1.00  0.00     0.000 C 
ENDROOT
BRANCH   1   2
ATOM      2  C   UNL     1     -19.111 -23.623 -15.479  1.00  0.00     0.000 C 
BRANCH   2   3
ATOM      3  C   UNL     1     -17.604 -23.328 -15.579  1.00  0.00     0.000 C 
BRANCH   3   4
ATOM      4  C   UNL     1     -16.795 -24.548 -16.048  1.00  0.00     0.000 C 
BRANCH   4   5
ATOM      5  C   UNL     1     -15.938 -25.161 -14.925  1.00  0.00     0.000 C 
BRANCH   5   6
ATOM      6  C   UNL     1     -15.938 -26.705 -14.957  1.00  0.00     0.000 C 
BRANCH   6   7
ATOM      7  C   UNL     1     -17.180 -27.314 -15.636  1.00  0.00     0.000 C 
BRANCH   7   8
ATOM      8  C   UNL     1     -16.907 -28.053 -16.960  1.00  0.00     0.000 C 
BRANCH   8   9
ATOM      9  C   UNL     1     -17.386 -27.318 -18.226  1.00  0.00     0.000 C 
BRANCH   9  10
ATOM     10  C   UNL     1     -16.253 -26.585 -18.960  1.00  0.00     0.000 C 
BRANCH  10  11
ATOM     11  C   UNL     1     -14.938 -27.372 -18.857  1.00  0.00     0.000 C 
BRANCH  11  12
ATOM     12  C   UNL     1     -13.800 -26.545 -18.237  1.00  0.00     0.006 C 
BRANCH  12  13
ATOM     13  C   UNL     1     -13.138 -27.249 -17.047  1.00  0.00     0.053 C 
BRANCH  13  14
ATOM     14  C   UNL     1     -11.648 -27.165 -17.153  1.00  0.00     0.041 C 
ATOM     15  O   UNL     1     -10.926 -27.439 -16.158  1.00  0.00    -0.550 OA
ATOM     16  O   UNL     1     -11.058 -26.733 -18.334  1.00  0.00    -0.550 OA
ENDBRANCH  13  14
ENDBRANCH  12  13
ENDBRANCH  11  12
ENDBRANCH  10  11
ENDBRANCH   9  10
ENDBRANCH   8   9
ENDBRANCH   7   8
ENDBRANCH   6   7
ENDBRANCH   5   6
ENDBRANCH   4   5
ENDBRANCH   3   4
ENDBRANCH   2   3
ENDBRANCH   1   2
BRANCH   1  17
ATOM     17  C   UNL     1     -19.923 -24.081 -17.862  1.00  0.00     0.000 C 
BRANCH  17  18
ATOM     18  C   UNL     1     -20.293 -25.150 -18.903  1.00  0.00     0.000 C 
BRANCH  18  19
ATOM     19  C   UNL     1     -21.490 -26.010 -18.464  1.00  0.00     0.000 C 
BRANCH  19  20
ATOM     20  C   UNL     1     -22.840 -25.391 -18.862  1.00  0.00     0.000 C 
BRANCH  20  21
ATOM     21  C   UNL     1     -23.907 -25.535 -17.767  1.00  0.00     0.000 C 
BRANCH  21  22
ATOM     22  C   UNL     1     -24.124 -24.200 -17.038  1.00  0.00    -0.000 C 
BRANCH  22  23
ATOM     23  C   UNL     1     -23.216 -24.036 -15.809  1.00  0.00    -0.000 C 
BRANCH  23  24
ATOM     24  C   UNL     1     -22.689 -22.600 -15.651  1.00  0.00    -0.000 C 
BRANCH  24  25
ATOM     25  C   UNL     1     -22.758 -21.793 -16.959  1.00  0.00    -0.000 C 
BRANCH  25  26
ATOM     26  C   UNL     1     -21.539 -20.872 -17.180  1.00  0.00    -0.000 C 
BRANCH  26  27
ATOM     27  C   UNL     1     -21.909 -19.384 -17.079  1.00  0.00    -0.000 C 
BRANCH  27  28
ATOM     28  C   UNL     1     -23.433 -19.193 -17.118  1.00  0.00    -0.000 C 
BRANCH  28  29
ATOM     29  C   UNL     1     -23.943 -18.794 -18.511  1.00  0.00    -0.003 C 
ATOM     30  C   UNL     1     -25.456 -18.588 -18.552  1.00  0.00     0.004 C 
ENDBRANCH  28  29
ENDBRANCH  27  28
ENDBRANCH  26  27
ENDBRANCH  25  26
ENDBRANCH  24  25
ENDBRANCH  23  24
ENDBRANCH  22  23
ENDBRANCH  21  22
ENDBRANCH  20  21
ENDBRANCH  19  20
ENDBRANCH  18  19
ENDBRANCH  17  18
ENDBRANCH   1  17
TORSDOF 26
ENDMDL
MODEL 2
REMARK VINA RESULT:    -3.881     14.974     18.938
REMARK INTER + INTRA:         -14.073
REMARK INTER:                 -10.828
REMARK INTRA:                  -3.245
REMARK UNBOUND:                -4.292
REMARK SMILES CCCCCCCCCCCCCCCCCCCCCCCCCCCC(=O)[O-]
REMARK SMILES IDX 15 1 16 2 17 3 18 4 19 5 20 6 21 7 22 8 23 9 24 10 25 11
REMARK SMILES IDX 26 12 27 13 28 14 29 15 30 16 14 17 13 18 12 19 11 20 10 21
REMARK SMILES IDX 9 22 8 23 7 24 6 25 5 26 4 27 3 28 2 29 1 30
REMARK H PARENT
REMARK Flexibility Score: inf
ROOT
ATOM      1  C   UNL     1     -25.056 -22.744 -30.259  1.00  0.00     0.000 C 
ENDROOT
BRANCH   1   2
ATOM      2  C   UNL     1     -26.430 -22.663 -29.576  1.00  0.00     0.000 C 
BRANCH   2   3
ATOM      3  C   UNL     1     -26.448 -21.657 -28.412  1.00  0.00     0.000 C 
BRANCH   3   4
ATOM      4  C   UNL     1     -27.676 -20.733 -28.450  1.00  0.00     0.000 C 
BRANCH   4   5
ATOM      5  C   UNL     1     -27.354 -19.298 -27.997  1.00  0.00     0.000 C 
BRANCH   5   6
ATOM      6  C   UNL     1     -28.384 -18.269 -28.514  1.00  0.00     0.000 C 
BRANCH   6   7
ATOM      7  C   UNL     1     -28.545 -18.265 -30.047  1.00  0.00     0.000 C 
BRANCH   7   8
ATOM      8  C   UNL     1     -27.234 -18.403 -30.844  1.00  0.00     0.000 C 
BRANCH   8   9
ATOM      9  C   UNL     1     -27.406 -18.456 -32.374  1.00  0.00     0.000 C 
BRANCH   9  10
ATOM     10  C   UNL     1     -26.161 -18.990 -33.099  1.00  0.00     0.000 C 
BRANCH  10  11
ATOM     11  C   UNL     1     -26.554 -20.004 -34.184  1.00  0.00     0.000 C 
BRANCH  11  12
ATOM     12  C   UNL     1     -28.027 -20.432 -34.089  1.00  0.00     0.006 C 
BRANCH  12  13
ATOM     13  C   UNL     1     -28.194 -21.949 -33.938  1.00  0.00     0.053 C 
BRANCH  13  14
ATOM     14  C   UNL     1     -28.787 -22.279 -32.605  1.00  0.00     0.041 C 
ATOM     15  O   UNL     1     -28.942 -21.377 -31.740  1.00  0.00    -0.550 OA
ATOM     16  O   UNL     1     -29.120 -23.592 -32.298  1.00  0.00    -0.550 OA
ENDBRANCH  13  14
ENDBRANCH  12  13
ENDBRANCH  11  12
ENDBRANCH  10  11
ENDBRANCH   9  10
ENDBRANCH   8   9
ENDBRANCH   7   8
ENDBRANCH   6   7
ENDBRANCH   5   6
ENDBRANCH   4   5
ENDBRANCH   3   4
ENDBRANCH   2   3
ENDBRANCH   1   2
BRANCH   1  17
ATOM     17  C   UNL     1     -25.060 -22.119 -31.667  1.00  0.00     0.000 C 
BRANCH  17  18
ATOM     18  C   UNL     1     -24.909 -23.169 -32.781  1.00  0.00     0.000 C 
BRANCH  18  19
ATOM     19  C   UNL     1     -24.016 -22.681 -33.934  1.00  0.00     0.000 C 
BRANCH  19  20
ATOM     20  C   UNL     1     -23.163 -21.462 -33.546  1.00  0.00     0.000 C 
BRANCH  20  21
ATOM     21  C   UNL     1     -21.712 -21.570 -34.037  1.00  0.00     0.000 C 
BRANCH  21  22
ATOM     22  C   UNL     1     -21.480 -22.903 -34.764  1.00  0.00    -0.000 C 
BRANCH  22  23
ATOM     23  C   UNL     1     -20.485 -23.817 -34.032  1.00  0.00    -0.000 C 
BRANCH  23  24
ATOM     24  C   UNL     1     -20.073 -25.037 -34.873  1.00  0.00    -0.000 C 
BRANCH  24  25
ATOM     25  C   UNL     1     -20.906 -26.291 -34.553  1.00  0.00    -0.000 C 
BRANCH  25  26
ATOM     26  C   UNL     1     -21.141 -26.504 -33.042  1.00  0.00    -0.000 C 
BRANCH  26  27
ATOM     27  C   UNL     1     -21.123 -27.992 -32.657  1.00  0.00    -0.000 C 
BRANCH  27  28
ATOM     28  C   UNL     1     -20.512 -28.843 -33.781  1.00  0.00    -0.000 C 
BRANCH  28  29
ATOM     29  C   UNL     1     -19.136 -29.415 -33.408  1.00  0.00    -0.003 C 
ATOM     30  C   UNL     1     -17.989 -28.458 -33.731  1.00  0.00     0.004 C 
ENDBRANCH  28  29
ENDBRANCH  27  28
ENDBRANCH  26  27
ENDBRANCH  25  26
ENDBRANCH  24  25
ENDBRANCH  23  24
ENDBRANCH  22  23
ENDBRANCH  21  22
ENDBRANCH  20  21
ENDBRANCH  19  20
ENDBRANCH  18  19
ENDBRANCH  17  18
ENDBRANCH   1  17
TORSDOF 26
ENDMDL
MODEL 3
REMARK VINA RESULT:    -3.840      1.508      4.421
REMARK INTER + INTRA:         -13.969
REMARK INTER:                  -9.545
REMARK INTRA:                  -4.424
REMARK UNBOUND:                -4.292
REMARK SMILES CCCCCCCCCCCCCCCCCCCCCCCCCCCC(=O)[O-]
REMARK SMILES IDX 15 1 16 2 17 3 18 4 19 5 20 6 21 7 22 8 23 9 24 10 25 11
REMARK SMILES IDX 26 12 27 13 28 14 29 15 30 16 14 17 13 18 12 19 11 20 10 21
REMARK SMILES IDX 9 22 8 23 7 24 6 25 5 26 4 27 3 28 2 29 1 30
REMARK H PARENT
REMARK Flexibility Score: inf
ROOT
ATOM      1  C   UNL     1     -19.428 -23.461 -16.438  1.00  0.00     0.000 C 
ENDROOT
BRANCH   1   2
ATOM      2  C   UNL     1     -19.509 -24.910 -15.929  1.00  0.00     0.000 C 
BRANCH   2   3
ATOM      3  C   UNL     1     -20.657 -25.698 -16.584  1.00  0.00     0.000 C 
BRANCH   3   4
ATOM      4  C   UNL     1     -20.922 -25.258 -18.033  1.00  0.00     0.000 C 
BRANCH   4   5
ATOM      5  C   UNL     1     -21.171 -26.447 -18.979  1.00  0.00     0.000 C 
BRANCH   5   6
ATOM      6  C   UNL     1     -19.907 -26.847 -19.772  1.00  0.00     0.000 C 
BRANCH   6   7
ATOM      7  C   UNL     1     -18.830 -25.746 -19.824  1.00  0.00     0.000 C 
BRANCH   7   8
ATOM      8  C   UNL     1     -17.474 -26.125 -19.199  1.00  0.00     0.000 C 
BRANCH   8   9
ATOM      9  C   UNL     1     -17.521 -27.308 -18.212  1.00  0.00     0.000 C 
BRANCH   9  10
ATOM     10  C   UNL     1     -16.951 -26.958 -16.829  1.00  0.00     0.000 C 
BRANCH  10  11
ATOM     11  C   UNL     1     -15.707 -27.804 -16.521  1.00  0.00     0.000 C 
BRANCH  11  12
ATOM     12  C   UNL     1     -14.426 -26.960 -16.426  1.00  0.00     0.006 C 
BRANCH  12  13
ATOM     13  C   UNL     1     -13.636 -26.935 -17.741  1.00  0.00     0.053 C 
BRANCH  13  14
ATOM     14  C   UNL     1     -12.191 -27.225 -17.487  1.00  0.00     0.041 C 
ATOM     15  O   UNL     1     -11.859 -28.064 -16.608  1.00  0.00    -0.550 OA
ATOM     16  O   UNL     1     -11.209 -26.531 -18.182  1.00  0.00    -0.550 OA
ENDBRANCH  13  14
ENDBRANCH  12  13
ENDBRANCH  11  12
ENDBRANCH  10  11
ENDBRANCH   9  10
ENDBRANCH   8   9
ENDBRANCH   7   8
ENDBRANCH   6   7
ENDBRANCH   5   6
ENDBRANCH   4   5
ENDBRANCH   3   4
ENDBRANCH   2   3
ENDBRANCH   1   2
BRANCH   1  17
ATOM     17  C   UNL     1     -18.847 -22.498 -15.384  1.00  0.00     0.000 C 
BRANCH  17  18
ATOM     18  C   UNL     1     -19.718 -21.247 -15.184  1.00  0.00     0.000 C 
BRANCH  18  19
ATOM     19  C   UNL     1     -18.998 -19.955 -15.606  1.00  0.00     0.000 C 
BRANCH  19  20
ATOM     20  C   UNL     1     -19.709 -19.232 -16.762  1.00  0.00     0.000 C 
BRANCH  20  21
ATOM     21  C   UNL     1     -20.532 -18.024 -16.293  1.00  0.00     0.000 C 
BRANCH  21  22
ATOM     22  C   UNL     1     -22.025 -18.231 -16.594  1.00  0.00    -0.000 C 
BRANCH  22  23
ATOM     23  C   UNL     1     -22.783 -18.891 -15.431  1.00  0.00    -0.000 C 
BRANCH  23  24
ATOM     24  C   UNL     1     -23.471 -20.203 -15.844  1.00  0.00    -0.000 C 
BRANCH  24  25
ATOM     25  C   UNL     1     -22.973 -20.736 -17.199  1.00  0.00    -0.000 C 
BRANCH  25  26
ATOM     26  C   UNL     1     -22.804 -22.271 -17.233  1.00  0.00    -0.000 C 
BRANCH  26  27
ATOM     27  C   UNL     1     -23.040 -22.910 -15.855  1.00  0.00    -0.000 C 
BRANCH  27  28
ATOM     28  C   UNL     1     -23.892 -24.183 -15.979  1.00  0.00    -0.000 C 
BRANCH  28  29
ATOM     29  C   UNL     1     -24.806 -24.165 -17.213  1.00  0.00    -0.003 C 
ATOM     30  C   UNL     1     -24.684 -25.430 -18.060  1.00  0.00     0.004 C 
ENDBRANCH  28  29
ENDBRANCH  27  28
ENDBRANCH  26  27
ENDBRANCH  25  26
ENDBRANCH  24  25
ENDBRANCH  23  24
ENDBRANCH  22  23
ENDBRANCH  21  22
ENDBRANCH  20  21
ENDBRANCH  19  20
ENDBRANCH  18  19
ENDBRANCH  17  18
ENDBRANCH   1  17
TORSDOF 26
ENDMDL
MODEL 4
REMARK VINA RESULT:    -3.673      3.262      8.501
REMARK INTER + INTRA:         -13.549
REMARK INTER:                  -9.930
REMARK INTRA:                  -3.619
REMARK UNBOUND:                -4.292
REMARK SMILES CCCCCCCCCCCCCCCCCCCCCCCCCCCC(=O)[O-]
REMARK SMILES IDX 15 1 16 2 17 3 18 4 19 5 20 6 21 7 22 8 23 9 24 10 25 11
REMARK SMILES IDX 26 12 27 13 28 14 29 15 30 16 14 17 13 18 12 19 11 20 10 21
REMARK SMILES IDX 9 22 8 23 7 24 6 25 5 26 4 27 3 28 2 29 1 30
REMARK H PARENT
REMARK Flexibility Score: inf
ROOT
ATOM      1  C   UNL     1     -19.042 -23.572 -16.109  1.00  0.00     0.000 C 
ENDROOT
BRANCH   1   2
ATOM      2  C   UNL     1     -19.714 -22.233 -15.765  1.00  0.00     0.000 C 
BRANCH   2   3
ATOM      3  C   UNL     1     -20.871 -21.896 -16.721  1.00  0.00     0.000 C 
BRANCH   3   4
ATOM      4  C   UNL     1     -22.249 -22.171 -16.099  1.00  0.00     0.000 C 
BRANCH   4   5
ATOM      5  C   UNL     1     -22.934 -23.414 -16.695  1.00  0.00     0.000 C 
BRANCH   5   6
ATOM      6  C   UNL     1     -22.476 -24.725 -16.017  1.00  0.00     0.000 C 
BRANCH   6   7
ATOM      7  C   UNL     1     -22.100 -25.841 -17.010  1.00  0.00     0.000 C 
BRANCH   7   8
ATOM      8  C   UNL     1     -21.702 -25.360 -18.418  1.00  0.00     0.000 C 
BRANCH   8   9
ATOM      9  C   UNL     1     -20.959 -26.402 -19.276  1.00  0.00     0.000 C 
BRANCH   9  10
ATOM     10  C   UNL     1     -19.471 -26.070 -19.468  1.00  0.00     0.000 C 
BRANCH  10  11
ATOM     11  C   UNL     1     -19.237 -25.381 -20.820  1.00  0.00     0.000 C 
BRANCH  11  12
ATOM     12  C   UNL     1     -17.869 -25.726 -21.431  1.00  0.00     0.006 C 
BRANCH  12  13
ATOM     13  C   UNL     1     -17.621 -25.013 -22.766  1.00  0.00     0.053 C 
BRANCH  13  14
ATOM     14  C   UNL     1     -18.303 -25.740 -23.882  1.00  0.00     0.041 C 
ATOM     15  O   UNL     1     -18.909 -26.820 -23.655  1.00  0.00    -0.550 OA
ATOM     16  O   UNL     1     -18.224 -25.253 -25.180  1.00  0.00    -0.550 OA
ENDBRANCH  13  14
ENDBRANCH  12  13
ENDBRANCH  11  12
ENDBRANCH  10  11
ENDBRANCH   9  10
ENDBRANCH   8   9
ENDBRANCH   7   8
ENDBRANCH   6   7
ENDBRANCH   5   6
ENDBRANCH   4   5
ENDBRANCH   3   4
ENDBRANCH   2   3
ENDBRANCH   1   2
BRANCH   1  17
ATOM     17  C   UNL     1     -19.021 -24.545 -14.915  1.00  0.00     0.000 C 
BRANCH  17  18
ATOM     18  C   UNL     1     -17.764 -25.430 -14.895  1.00  0.00     0.000 C 
BRANCH  18  19
ATOM     19  C   UNL     1     -16.473 -24.625 -15.115  1.00  0.00     0.000 C 
BRANCH  19  20
ATOM     20  C   UNL     1     -15.661 -25.126 -16.321  1.00  0.00     0.000 C 
BRANCH  20  21
ATOM     21  C   UNL     1     -16.544 -25.720 -17.428  1.00  0.00     0.000 C 
BRANCH  21  22
ATOM     22  C   UNL     1     -15.826 -26.877 -18.138  1.00  0.00    -0.000 C 
BRANCH  22  23
ATOM     23  C   UNL     1     -16.451 -28.247 -17.830  1.00  0.00    -0.000 C 
BRANCH  23  24
ATOM     24  C   UNL     1     -16.510 -28.544 -16.322  1.00  0.00    -0.000 C 
BRANCH  24  25
ATOM     25  C   UNL     1     -15.116 -28.699 -15.690  1.00  0.00    -0.000 C 
BRANCH  25  26
ATOM     26  C   UNL     1     -14.233 -29.750 -16.397  1.00  0.00    -0.000 C 
BRANCH  26  27
ATOM     27  C   UNL     1     -12.876 -29.172 -16.829  1.00  0.00    -0.000 C 
BRANCH  27  28
ATOM     28  C   UNL     1     -12.828 -27.653 -16.601  1.00  0.00    -0.000 C 
BRANCH  28  29
ATOM     29  C   UNL     1     -12.111 -26.908 -17.736  1.00  0.00    -0.003 C 
ATOM     30  C   UNL     1     -10.592 -26.892 -17.568  1.00  0.00     0.004 C 
ENDBRANCH  28  29
ENDBRANCH  27  28
ENDBRANCH  26  27
ENDBRANCH  25  26
ENDBRANCH  24  25
ENDBRANCH  23  24
ENDBRANCH  22  23
ENDBRANCH  21  22
ENDBRANCH  20  21
ENDBRANCH  19  20
ENDBRANCH  18  19
ENDBRANCH  17  18
ENDBRANCH   1  17
TORSDOF 26
ENDMDL
MODEL 5
REMARK VINA RESULT:    -3.527      3.839      9.235
REMARK INTER + INTRA:         -13.181
REMARK INTER:                 -10.277
REMARK INTRA:                  -2.904
REMARK UNBOUND:                -4.292
REMARK SMILES CCCCCCCCCCCCCCCCCCCCCCCCCCCC(=O)[O-]
REMARK SMILES IDX 15 1 16 2 17 3 18 4 19 5 20 6 21 7 22 8 23 9 24 10 25 11
REMARK SMILES IDX 26 12 27 13 28 14 29 15 30 16 14 17 13 18 12 19 11 20 10 21
REMARK SMILES IDX 9 22 8 23 7 24 6 25 5 26 4 27 3 28 2 29 1 30
REMARK H PARENT
REMARK Flexibility Score: inf
ROOT
ATOM      1  C   UNL     1     -16.292 -23.113 -15.131  1.00  0.00     0.000 C 
ENDROOT
BRANCH   1   2
ATOM      2  C   UNL     1     -17.189 -21.865 -15.141  1.00  0.00     0.000 C 
BRANCH   2   3
ATOM      3  C   UNL     1     -16.382 -20.564 -15.294  1.00  0.00     0.000 C 
BRANCH   3   4
ATOM      4  C   UNL     1     -17.240 -19.308 -15.073  1.00  0.00     0.000 C 
BRANCH   4   5
ATOM      5  C   UNL     1     -18.747 -19.583 -15.220  1.00  0.00     0.000 C 
BRANCH   5   6
ATOM      6  C   UNL     1     -19.357 -18.893 -16.461  1.00  0.00     0.000 C 
BRANCH   6   7
ATOM      7  C   UNL     1     -20.271 -19.810 -17.297  1.00  0.00     0.000 C 
BRANCH   7   8
ATOM      8  C   UNL     1     -21.553 -20.282 -16.586  1.00  0.00     0.000 C 
BRANCH   8   9
ATOM      9  C   UNL     1     -21.473 -21.690 -15.967  1.00  0.00     0.000 C 
BRANCH   9  10
ATOM     10  C   UNL     1     -22.044 -22.782 -16.884  1.00  0.00     0.000 C 
BRANCH  10  11
ATOM     11  C   UNL     1     -23.576 -22.826 -16.793  1.00  0.00     0.000 C 
BRANCH  11  12
ATOM     12  C   UNL     1     -24.097 -24.154 -16.220  1.00  0.00     0.006 C 
BRANCH  12  13
ATOM     13  C   UNL     1     -23.538 -25.377 -16.958  1.00  0.00     0.053 C 
BRANCH  13  14
ATOM     14  C   UNL     1     -24.089 -25.445 -18.347  1.00  0.00     0.041 C 
ATOM     15  O   UNL     1     -23.323 -25.668 -19.321  1.00  0.00    -0.550 OA
ATOM     16  O   UNL     1     -25.439 -25.209 -18.572  1.00  0.00    -0.550 OA
ENDBRANCH  13  14
ENDBRANCH  12  13
ENDBRANCH  11  12
ENDBRANCH  10  11
ENDBRANCH   9  10
ENDBRANCH   8   9
ENDBRANCH   7   8
ENDBRANCH   6   7
ENDBRANCH   5   6
ENDBRANCH   4   5
ENDBRANCH   3   4
ENDBRANCH   2   3
ENDBRANCH   1   2
BRANCH   1  17
ATOM     17  C   UNL     1     -17.067 -24.398 -15.482  1.00  0.00     0.000 C 
BRANCH  17  18
ATOM     18  C   UNL     1     -18.412 -24.109 -16.168  1.00  0.00     0.000 C 
BRANCH  18  19
ATOM     19  C   UNL     1     -19.292 -25.364 -16.294  1.00  0.00     0.000 C 
BRANCH  19  20
ATOM     20  C   UNL     1     -20.125 -25.376 -17.586  1.00  0.00     0.000 C 
BRANCH  20  21
ATOM     21  C   UNL     1     -19.961 -26.675 -18.389  1.00  0.00     0.000 C 
BRANCH  21  22
ATOM     22  C   UNL     1     -18.486 -27.102 -18.439  1.00  0.00    -0.000 C 
BRANCH  22  23
ATOM     23  C   UNL     1     -17.607 -26.123 -19.233  1.00  0.00    -0.000 C 
BRANCH  23  24
ATOM     24  C   UNL     1     -16.104 -26.391 -19.043  1.00  0.00    -0.000 C 
BRANCH  24  25
ATOM     25  C   UNL     1     -15.800 -27.202 -17.772  1.00  0.00    -0.000 C 
BRANCH  25  26
ATOM     26  C   UNL     1     -14.446 -26.843 -17.122  1.00  0.00    -0.000 C 
BRANCH  26  27
ATOM     27  C   UNL     1     -13.262 -27.508 -17.841  1.00  0.00    -0.000 C 
BRANCH  27  28
ATOM     28  C   UNL     1     -12.322 -28.192 -16.836  1.00  0.00    -0.000 C 
BRANCH  28  29
ATOM     29  C   UNL     1     -11.107 -27.323 -16.479  1.00  0.00    -0.003 C 
ATOM     30  C   UNL     1     -10.419 -26.731 -17.709  1.00  0.00     0.004 C 
ENDBRANCH  28  29
ENDBRANCH  27  28
ENDBRANCH  26  27
ENDBRANCH  25  26
ENDBRANCH  24  25
ENDBRANCH  23  24
ENDBRANCH  22  23
ENDBRANCH  21  22
ENDBRANCH  20  21
ENDBRANCH  19  20
ENDBRANCH  18  19
ENDBRANCH  17  18
ENDBRANCH   1  17
TORSDOF 26
ENDMDL
MODEL 6
REMARK VINA RESULT:    -3.474      2.141      4.773
REMARK INTER + INTRA:         -13.047
REMARK INTER:                  -9.298
REMARK INTRA:                  -3.748
REMARK UNBOUND:                -4.292
REMARK SMILES CCCCCCCCCCCCCCCCCCCCCCCCCCCC(=O)[O-]
REMARK SMILES IDX 15 1 16 2 17 3 18 4 19 5 20 6 21 7 22 8 23 9 24 10 25 11
REMARK SMILES IDX 26 12 27 13 28 14 29 15 30 16 14 17 13 18 12 19 11 20 10 21
REMARK SMILES IDX 9 22 8 23 7 24 6 25 5 26 4 27 3 28 2 29 1 30
REMARK H PARENT
REMARK Flexibility Score: inf
ROOT
ATOM      1  C   UNL     1     -17.641 -23.589 -15.446  1.00  0.00     0.000 C 
ENDROOT
BRANCH   1   2
ATOM      2  C   UNL     1     -16.843 -24.847 -15.067  1.00  0.00     0.000 C 
BRANCH   2   3
ATOM      3  C   UNL     1     -17.745 -26.078 -14.876  1.00  0.00     0.000 C 
BRANCH   3   4
ATOM      4  C   UNL     1     -19.044 -25.990 -15.694  1.00  0.00     0.000 C 
BRANCH   4   5
ATOM      5  C   UNL     1     -19.284 -27.236 -16.566  1.00  0.00     0.000 C 
BRANCH   5   6
ATOM      6  C   UNL     1     -19.411 -26.894 -18.066  1.00  0.00     0.000 C 
BRANCH   6   7
ATOM      7  C   UNL     1     -18.499 -25.738 -18.521  1.00  0.00     0.000 C 
BRANCH   7   8
ATOM      8  C   UNL     1     -17.174 -26.167 -19.178  1.00  0.00     0.000 C 
BRANCH   8   9
ATOM      9  C   UNL     1     -16.016 -26.431 -18.196  1.00  0.00     0.000 C 
BRANCH   9  10
ATOM     10  C   UNL     1     -14.825 -27.146 -18.852  1.00  0.00     0.000 C 
BRANCH  10  11
ATOM     11  C   UNL     1     -13.502 -26.703 -18.211  1.00  0.00     0.000 C 
BRANCH  11  12
ATOM     12  C   UNL     1     -13.292 -27.303 -16.812  1.00  0.00     0.006 C 
BRANCH  12  13
ATOM     13  C   UNL     1     -13.207 -28.834 -16.832  1.00  0.00     0.053 C 
BRANCH  13  14
ATOM     14  C   UNL     1     -14.337 -29.430 -16.054  1.00  0.00     0.041 C 
ATOM     15  O   UNL     1     -14.433 -30.680 -15.935  1.00  0.00    -0.550 OA
ATOM     16  O   UNL     1     -15.314 -28.608 -15.506  1.00  0.00    -0.550 OA
ENDBRANCH  13  14
ENDBRANCH  12  13
ENDBRANCH  11  12
ENDBRANCH  10  11
ENDBRANCH   9  10
ENDBRANCH   8   9
ENDBRANCH   7   8
ENDBRANCH   6   7
ENDBRANCH   5   6
ENDBRANCH   4   5
ENDBRANCH   3   4
ENDBRANCH   2   3
ENDBRANCH   1   2
BRANCH   1  17
ATOM     17  C   UNL     1     -16.889 -22.288 -15.105  1.00  0.00     0.000 C 
BRANCH  17  18
ATOM     18  C   UNL     1     -17.809 -21.057 -15.102  1.00  0.00     0.000 C 
BRANCH  18  19
ATOM     19  C   UNL     1     -17.038 -19.745 -15.330  1.00  0.00     0.000 C 
BRANCH  19  20
ATOM     20  C   UNL     1     -17.885 -18.678 -16.042  1.00  0.00     0.000 C 
BRANCH  20  21
ATOM     21  C   UNL     1     -19.395 -18.901 -15.867  1.00  0.00     0.000 C 
BRANCH  21  22
ATOM     22  C   UNL     1     -20.042 -19.321 -17.196  1.00  0.00    -0.000 C 
BRANCH  22  23
ATOM     23  C   UNL     1     -21.509 -19.749 -17.036  1.00  0.00    -0.000 C 
BRANCH  23  24
ATOM     24  C   UNL     1     -21.652 -21.219 -16.605  1.00  0.00    -0.000 C 
BRANCH  24  25
ATOM     25  C   UNL     1     -20.622 -22.141 -17.281  1.00  0.00    -0.000 C 
BRANCH  25  26
ATOM     26  C   UNL     1     -20.989 -23.638 -17.201  1.00  0.00    -0.000 C 
BRANCH  26  27
ATOM     27  C   UNL     1     -21.882 -24.079 -18.372  1.00  0.00    -0.000 C 
BRANCH  27  28
ATOM     28  C   UNL     1     -23.101 -24.867 -17.868  1.00  0.00    -0.000 C 
BRANCH  28  29
ATOM     29  C   UNL     1     -22.820 -25.613 -16.554  1.00  0.00    -0.003 C 
ATOM     30  C   UNL     1     -23.490 -24.959 -15.347  1.00  0.00     0.004 C 
ENDBRANCH  28  29
ENDBRANCH  27  28
ENDBRANCH  26  27
ENDBRANCH  25  26
ENDBRANCH  24  25
ENDBRANCH  23  24
ENDBRANCH  22  23
ENDBRANCH  21  22
ENDBRANCH  20  21
ENDBRANCH  19  20
ENDBRANCH  18  19
ENDBRANCH  17  18
ENDBRANCH   1  17
TORSDOF 26
ENDMDL
MODEL 7
REMARK VINA RESULT:    -3.469      4.654      9.460
REMARK INTER + INTRA:         -13.033
REMARK INTER:                  -9.191
REMARK INTRA:                  -3.842
REMARK UNBOUND:                -4.292
REMARK SMILES CCCCCCCCCCCCCCCCCCCCCCCCCCCC(=O)[O-]
REMARK SMILES IDX 15 1 16 2 17 3 18 4 19 5 20 6 21 7 22 8 23 9 24 10 25 11
REMARK SMILES IDX 26 12 27 13 28 14 29 15 30 16 14 17 13 18 12 19 11 20 10 21
REMARK SMILES IDX 9 22 8 23 7 24 6 25 5 26 4 27 3 28 2 29 1 30
REMARK H PARENT
REMARK Flexibility Score: inf
ROOT
ATOM      1  C   UNL     1     -20.176 -23.390 -17.055  1.00  0.00     0.000 C 
ENDROOT
BRANCH   1   2
ATOM      2  C   UNL     1     -20.375 -21.866 -17.068  1.00  0.00     0.000 C 
BRANCH   2   3
ATOM      3  C   UNL     1     -19.880 -21.198 -15.774  1.00  0.00     0.000 C 
BRANCH   3   4
ATOM      4  C   UNL     1     -19.362 -19.770 -16.007  1.00  0.00     0.000 C 
BRANCH   4   5
ATOM      5  C   UNL     1     -20.089 -19.055 -17.160  1.00  0.00     0.000 C 
BRANCH   5   6
ATOM      6  C   UNL     1     -20.981 -17.894 -16.669  1.00  0.00     0.000 C 
BRANCH   6   7
ATOM      7  C   UNL     1     -22.330 -18.351 -16.079  1.00  0.00     0.000 C 
BRANCH   7   8
ATOM      8  C   UNL     1     -23.092 -19.394 -16.918  1.00  0.00     0.000 C 
BRANCH   8   9
ATOM      9  C   UNL     1     -23.483 -20.678 -16.161  1.00  0.00     0.000 C 
BRANCH   9  10
ATOM     10  C   UNL     1     -24.370 -21.618 -16.992  1.00  0.00     0.000 C 
BRANCH  10  11
ATOM     11  C   UNL     1     -23.877 -23.069 -16.886  1.00  0.00     0.000 C 
BRANCH  11  12
ATOM     12  C   UNL     1     -25.025 -24.089 -16.934  1.00  0.00     0.006 C 
BRANCH  12  13
ATOM     13  C   UNL     1     -26.331 -23.485 -17.466  1.00  0.00     0.053 C 
BRANCH  13  14
ATOM     14  C   UNL     1     -27.324 -24.564 -17.761  1.00  0.00     0.041 C 
ATOM     15  O   UNL     1     -28.500 -24.479 -17.320  1.00  0.00    -0.550 OA
ATOM     16  O   UNL     1     -26.936 -25.690 -18.476  1.00  0.00    -0.550 OA
ENDBRANCH  13  14
ENDBRANCH  12  13
ENDBRANCH  11  12
ENDBRANCH  10  11
ENDBRANCH   9  10
ENDBRANCH   8   9
ENDBRANCH   7   8
ENDBRANCH   6   7
ENDBRANCH   5   6
ENDBRANCH   4   5
ENDBRANCH   3   4
ENDBRANCH   2   3
ENDBRANCH   1   2
BRANCH   1  17
ATOM     17  C   UNL     1     -19.964 -23.944 -15.633  1.00  0.00     0.000 C 
BRANCH  17  18
ATOM     18  C   UNL     1     -21.209 -24.662 -15.086  1.00  0.00     0.000 C 
BRANCH  18  19
ATOM     19  C   UNL     1     -21.436 -26.033 -15.746  1.00  0.00     0.000 C 
BRANCH  19  20
ATOM     20  C   UNL     1     -20.422 -27.090 -15.277  1.00  0.00     0.000 C 
BRANCH  20  21
ATOM     21  C   UNL     1     -19.274 -27.297 -16.275  1.00  0.00     0.000 C 
BRANCH  21  22
ATOM     22  C   UNL     1     -19.722 -26.949 -17.703  1.00  0.00    -0.000 C 
BRANCH  22  23
ATOM     23  C   UNL     1     -18.603 -27.130 -18.741  1.00  0.00    -0.000 C 
BRANCH  23  24
ATOM     24  C   UNL     1     -17.562 -25.999 -18.691  1.00  0.00    -0.000 C 
BRANCH  24  25
ATOM     25  C   UNL     1     -16.136 -26.488 -18.998  1.00  0.00    -0.000 C 
BRANCH  25  26
ATOM     26  C   UNL     1     -15.610 -27.528 -17.985  1.00  0.00    -0.000 C 
BRANCH  26  27
ATOM     27  C   UNL     1     -14.808 -26.876 -16.847  1.00  0.00    -0.000 C 
BRANCH  27  28
ATOM     28  C   UNL     1     -15.633 -26.826 -15.552  1.00  0.00    -0.000 C 
BRANCH  28  29
ATOM     29  C   UNL     1     -15.599 -25.445 -14.882  1.00  0.00    -0.003 C 
ATOM     30  C   UNL     1     -16.303 -24.368 -15.707  1.00  0.00     0.004 C 
ENDBRANCH  28  29
ENDBRANCH  27  28
ENDBRANCH  26  27
ENDBRANCH  25  26
ENDBRANCH  24  25
ENDBRANCH  23  24
ENDBRANCH  22  23
ENDBRANCH  21  22
ENDBRANCH  20  21
ENDBRANCH  19  20
ENDBRANCH  18  19
ENDBRANCH  17  18
ENDBRANCH   1  17
TORSDOF 26
ENDMDL
MODEL 8
REMARK VINA RESULT:    -1.135      4.542      9.243
REMARK INTER + INTRA:          -7.152
REMARK INTER:                  -2.881
REMARK INTRA:                  -4.271
REMARK UNBOUND:                -4.292
REMARK SMILES CCCCCCCCCCCCCCCCCCCCCCCCCCCC(=O)[O-]
REMARK SMILES IDX 15 1 16 2 17 3 18 4 19 5 20 6 21 7 22 8 23 9 24 10 25 11
REMARK SMILES IDX 26 12 27 13 28 14 29 15 30 16 14 17 13 18 12 19 11 20 10 21
REMARK SMILES IDX 9 22 8 23 7 24 6 25 5 26 4 27 3 28 2 29 1 30
REMARK H PARENT
REMARK Flexibility Score: inf
ROOT
ATOM      1  C   UNL     1     -20.411 -24.571 -14.875  1.00  0.00     0.000 C 
ENDROOT
BRANCH   1   2
ATOM      2  C   UNL     1     -19.153 -23.687 -14.883  1.00  0.00     0.000 C 
BRANCH   2   3
ATOM      3  C   UNL     1     -19.174 -22.647 -16.016  1.00  0.00     0.000 C 
BRANCH   3   4
ATOM      4  C   UNL     1     -18.982 -21.211 -15.503  1.00  0.00     0.000 C 
BRANCH   4   5
ATOM      5  C   UNL     1     -20.141 -20.278 -15.898  1.00  0.00     0.000 C 
BRANCH   5   6
ATOM      6  C   UNL     1     -20.859 -20.737 -17.186  1.00  0.00     0.000 C 
BRANCH   6   7
ATOM      7  C   UNL     1     -22.329 -20.283 -17.276  1.00  0.00     0.000 C 
BRANCH   7   8
ATOM      8  C   UNL     1     -23.227 -20.733 -16.107  1.00  0.00     0.000 C 
BRANCH   8   9
ATOM      9  C   UNL     1     -23.093 -22.218 -15.719  1.00  0.00     0.000 C 
BRANCH   9  10
ATOM     10  C   UNL     1     -23.576 -23.172 -16.821  1.00  0.00     0.000 C 
BRANCH  10  11
ATOM     11  C   UNL     1     -23.950 -24.541 -16.233  1.00  0.00     0.000 C 
BRANCH  11  12
ATOM     12  C   UNL     1     -24.603 -25.471 -17.267  1.00  0.00     0.006 C 
BRANCH  12  13
ATOM     13  C   UNL     1     -25.424 -24.707 -18.314  1.00  0.00     0.053 C 
BRANCH  13  14
ATOM     14  C   UNL     1     -26.865 -24.657 -17.913  1.00  0.00     0.041 C 
ATOM     15  O   UNL     1     -27.257 -23.807 -17.070  1.00  0.00    -0.550 OA
ATOM     16  O   UNL     1     -27.763 -25.582 -18.428  1.00  0.00    -0.550 OA
ENDBRANCH  13  14
ENDBRANCH  12  13
ENDBRANCH  11  12
ENDBRANCH  10  11
ENDBRANCH   9  10
ENDBRANCH   8   9
ENDBRANCH   7   8
ENDBRANCH   6   7
ENDBRANCH   5   6
ENDBRANCH   4   5
ENDBRANCH   3   4
ENDBRANCH   2   3
ENDBRANCH   1   2
BRANCH   1  17
ATOM     17  C   UNL     1     -20.083 -26.064 -15.068  1.00  0.00     0.000 C 
BRANCH  17  18
ATOM     18  C   UNL     1     -20.677 -26.636 -16.366  1.00  0.00     0.000 C 
BRANCH  18  19
ATOM     19  C   UNL     1     -20.860 -25.564 -17.453  1.00  0.00     0.000 C 
BRANCH  19  20
ATOM     20  C   UNL     1     -21.173 -26.167 -18.833  1.00  0.00     0.000 C 
BRANCH  20  21
ATOM     21  C   UNL     1     -19.980 -26.923 -19.436  1.00  0.00     0.000 C 
BRANCH  21  22
ATOM     22  C   UNL     1     -19.073 -25.968 -20.227  1.00  0.00    -0.000 C 
BRANCH  22  23
ATOM     23  C   UNL     1     -17.674 -25.823 -19.607  1.00  0.00    -0.000 C 
BRANCH  23  24
ATOM     24  C   UNL     1     -17.538 -26.576 -18.273  1.00  0.00    -0.000 C 
BRANCH  24  25
ATOM     25  C   UNL     1     -16.847 -25.738 -17.183  1.00  0.00    -0.000 C 
BRANCH  25  26
ATOM     26  C   UNL     1     -16.696 -26.481 -15.838  1.00  0.00    -0.000 C 
BRANCH  26  27
ATOM     27  C   UNL     1     -15.224 -26.750 -15.486  1.00  0.00    -0.000 C 
BRANCH  27  28
ATOM     28  C   UNL     1     -14.689 -27.969 -16.254  1.00  0.00    -0.000 C 
BRANCH  28  29
ATOM     29  C   UNL     1     -13.323 -27.703 -16.906  1.00  0.00    -0.003 C 
ATOM     30  C   UNL     1     -13.411 -26.746 -18.094  1.00  0.00     0.004 C 
ENDBRANCH  28  29
ENDBRANCH  27  28
ENDBRANCH  26  27
ENDBRANCH  25  26
ENDBRANCH  24  25
ENDBRANCH  23  24
ENDBRANCH  22  23
ENDBRANCH  21  22
ENDBRANCH  20  21
ENDBRANCH  19  20
ENDBRANCH  18  19
ENDBRANCH  17  18
ENDBRANCH   1  17
TORSDOF 26
ENDMDL
