MODEL 1
REMARK VINA RESULT:    -4.599      0.000      0.000
REMARK INTER + INTRA:         -11.532
REMARK INTER:                  -9.976
REMARK INTRA:                  -1.556
REMARK UNBOUND:                -1.556
REMARK SMILES CCCCCCCCCCCCCCCCCCCCCC(=O)[O-]
REMARK SMILES IDX 12 1 11 2 10 3 9 4 8 5 7 6 6 7 5 8 4 9 3 10 2 11 1 12 13 13
REMARK SMILES IDX 14 14 15 15 16 16 17 17 18 18 19 19 20 20 21 21 22 22 23 23
REMARK SMILES IDX 24 24
REMARK H PARENT
REMARK Flexibility Score: inf
ROOT
ATOM      1  C   UNL     1      42.812  65.569  53.791  1.00  0.00     0.000 C 
ENDROOT
BRANCH   1   2
ATOM      2  C   UNL     1      43.596  64.334  54.264  1.00  0.00     0.000 C 
BRANCH   2   3
ATOM      3  C   UNL     1      43.582  64.169  55.793  1.00  0.00     0.000 C 
BRANCH   3   4
ATOM      4  C   UNL     1      42.569  65.112  56.475  1.00  0.00    -0.000 C 
BRANCH   4   5
ATOM      5  C   UNL     1      41.415  64.372  57.171  1.00  0.00    -0.000 C 
BRANCH   5   6
ATOM      6  C   UNL     1      40.047  65.014  56.899  1.00  0.00    -0.000 C 
BRANCH   6   7
ATOM      7  C   UNL     1      39.494  64.676  55.503  1.00  0.00    -0.000 C 
BRANCH   7   8
ATOM      8  C   UNL     1      37.953  64.595  55.441  1.00  0.00    -0.000 C 
BRANCH   8   9
ATOM      9  C   UNL     1      37.372  63.604  56.464  1.00  0.00    -0.000 C 
BRANCH   9  10
ATOM     10  C   UNL     1      36.859  62.333  55.768  1.00  0.00    -0.000 C 
BRANCH  10  11
ATOM     11  C   UNL     1      37.551  61.058  56.277  1.00  0.00    -0.003 C 
ATOM     12  C   UNL     1      37.230  59.829  55.426  1.00  0.00     0.004 C 
ENDBRANCH  10  11
ENDBRANCH   9  10
ENDBRANCH   8   9
ENDBRANCH   7   8
ENDBRANCH   6   7
ENDBRANCH   5   6
ENDBRANCH   4   5
ENDBRANCH   3   4
ENDBRANCH   2   3
ENDBRANCH   1   2
BRANCH   1  13
ATOM     13  C   UNL     1      43.615  66.441  52.816  1.00  0.00     0.000 C 
BRANCH  13  14
ATOM     14  C   UNL     1      44.714  65.629  52.120  1.00  0.00     0.000 C 
BRANCH  14  15
ATOM     15  C   UNL     1      44.812  66.008  50.634  1.00  0.00     0.000 C 
BRANCH  15  16
ATOM     16  C   UNL     1      44.299  67.427  50.345  1.00  0.00     0.000 C 
BRANCH  16  17
ATOM     17  C   UNL     1      43.238  67.460  49.232  1.00  0.00     0.000 C 
BRANCH  17  18
ATOM     18  C   UNL     1      41.867  67.934  49.745  1.00  0.00     0.000 C 
BRANCH  18  19
ATOM     19  C   UNL     1      40.794  67.941  48.643  1.00  0.00     0.000 C 
BRANCH  19  20
ATOM     20  C   UNL     1      40.458  66.529  48.136  1.00  0.00     0.006 C 
BRANCH  20  21
ATOM     21  C   UNL     1      40.976  66.275  46.715  1.00  0.00     0.053 C 
BRANCH  21  22
ATOM     22  C   UNL     1      41.274  64.822  46.519  1.00  0.00     0.041 C 
ATOM     23  O   UNL     1      40.484  63.948  46.963  1.00  0.00    -0.550 OA
ATOM     24  O   UNL     1      42.448  64.432  45.884  1.00  0.00    -0.550 OA
ENDBRANCH  21  22
ENDBRANCH  20  21
ENDBRANCH  19  20
ENDBRANCH  18  19
ENDBRANCH  17  18
ENDBRANCH  16  17
ENDBRANCH  15  16
ENDBRANCH  14  15
ENDBRANCH  13  14
ENDBRANCH   1  13
TORSDOF 20
ENDMDL
MODEL 2
REMARK VINA RESULT:    -4.445      8.020     11.798
REMARK INTER + INTRA:         -11.199
REMARK INTER:                 -10.012
REMARK INTRA:                  -1.187
REMARK UNBOUND:                -1.556
REMARK SMILES CCCCCCCCCCCCCCCCCCCCCC(=O)[O-]
REMARK SMILES IDX 12 1 11 2 10 3 9 4 8 5 7 6 6 7 5 8 4 9 3 10 2 11 1 12 13 13
REMARK SMILES IDX 14 14 15 15 16 16 17 17 18 18 19 19 20 20 21 21 22 22 23 23
REMARK SMILES IDX 24 24
REMARK H PARENT
REMARK Flexibility Score: inf
ROOT
ATOM      1  C   UNL     1      37.653  61.497  55.874  1.00  0.00     0.000 C 
ENDROOT
BRANCH   1   2
ATOM      2  C   UNL     1      36.327  62.186  55.510  1.00  0.00     0.000 C 
BRANCH   2   3
ATOM      3  C   UNL     1      36.284  63.662  55.944  1.00  0.00     0.000 C 
BRANCH   3   4
ATOM      4  C   UNL     1      36.343  64.628  54.742  1.00  0.00    -0.000 C 
BRANCH   4   5
ATOM      5  C   UNL     1      35.530  65.916  54.951  1.00  0.00    -0.000 C 
BRANCH   5   6
ATOM      6  C   UNL     1      34.241  65.682  55.751  1.00  0.00    -0.000 C 
BRANCH   6   7
ATOM      7  C   UNL     1      33.714  66.962  56.425  1.00  0.00    -0.000 C 
BRANCH   7   8
ATOM      8  C   UNL     1      32.531  67.621  55.682  1.00  0.00    -0.000 C 
BRANCH   8   9
ATOM      9  C   UNL     1      31.979  66.739  54.550  1.00  0.00    -0.000 C 
BRANCH   9  10
ATOM     10  C   UNL     1      31.146  67.570  53.561  1.00  0.00    -0.000 C 
BRANCH  10  11
ATOM     11  C   UNL     1      31.865  67.791  52.220  1.00  0.00    -0.003 C 
ATOM     12  C   UNL     1      33.342  67.398  52.267  1.00  0.00     0.004 C 
ENDBRANCH  10  11
ENDBRANCH   9  10
ENDBRANCH   8   9
ENDBRANCH   7   8
ENDBRANCH   6   7
ENDBRANCH   5   6
ENDBRANCH   4   5
ENDBRANCH   3   4
ENDBRANCH   2   3
ENDBRANCH   1   2
BRANCH   1  13
ATOM     13  C   UNL     1      37.449  60.075  56.415  1.00  0.00     0.000 C 
BRANCH  13  14
ATOM     14  C   UNL     1      36.773  59.176  55.374  1.00  0.00     0.000 C 
BRANCH  14  15
ATOM     15  C   UNL     1      37.270  57.727  55.501  1.00  0.00     0.000 C 
BRANCH  15  16
ATOM     16  C   UNL     1      37.839  57.411  56.893  1.00  0.00     0.000 C 
BRANCH  16  17
ATOM     17  C   UNL     1      36.921  56.491  57.714  1.00  0.00     0.000 C 
BRANCH  17  18
ATOM     18  C   UNL     1      36.427  55.282  56.901  1.00  0.00     0.000 C 
BRANCH  18  19
ATOM     19  C   UNL     1      35.220  54.586  57.553  1.00  0.00     0.000 C 
BRANCH  19  20
ATOM     20  C   UNL     1      34.847  53.270  56.849  1.00  0.00     0.006 C 
BRANCH  20  21
ATOM     21  C   UNL     1      34.195  53.500  55.479  1.00  0.00     0.053 C 
BRANCH  21  22
ATOM     22  C   UNL     1      34.161  52.226  54.696  1.00  0.00     0.041 C 
ATOM     23  O   UNL     1      34.953  51.288  54.978  1.00  0.00    -0.550 OA
ATOM     24  O   UNL     1      33.286  52.091  53.624  1.00  0.00    -0.550 OA
ENDBRANCH  21  22
ENDBRANCH  20  21
ENDBRANCH  19  20
ENDBRANCH  18  19
ENDBRANCH  17  18
ENDBRANCH  16  17
ENDBRANCH  15  16
ENDBRANCH  14  15
ENDBRANCH  13  14
ENDBRANCH   1  13
TORSDOF 20
ENDMDL
MODEL 3
REMARK VINA RESULT:    -4.438      3.198      8.655
REMARK INTER + INTRA:         -11.183
REMARK INTER:                  -9.289
REMARK INTRA:                  -1.894
REMARK UNBOUND:                -1.556
REMARK SMILES CCCCCCCCCCCCCCCCCCCCCC(=O)[O-]
REMARK SMILES IDX 12 1 11 2 10 3 9 4 8 5 7 6 6 7 5 8 4 9 3 10 2 11 1 12 13 13
REMARK SMILES IDX 14 14 15 15 16 16 17 17 18 18 19 19 20 20 21 21 22 22 23 23
REMARK SMILES IDX 24 24
REMARK H PARENT
REMARK Flexibility Score: inf
ROOT
ATOM      1  C   UNL     1      44.258  66.397  52.562  1.00  0.00     0.000 C 
ENDROOT
BRANCH   1   2
ATOM      2  C   UNL     1      45.071  65.360  51.771  1.00  0.00     0.000 C 
BRANCH   2   3
ATOM      3  C   UNL     1      45.350  65.799  50.323  1.00  0.00     0.000 C 
BRANCH   3   4
ATOM      4  C   UNL     1      44.515  67.031  49.914  1.00  0.00    -0.000 C 
BRANCH   4   5
ATOM      5  C   UNL     1      43.643  66.794  48.670  1.00  0.00    -0.000 C 
BRANCH   5   6
ATOM      6  C   UNL     1      42.253  67.436  48.787  1.00  0.00    -0.000 C 
BRANCH   6   7
ATOM      7  C   UNL     1      41.444  67.355  47.480  1.00  0.00    -0.000 C 
BRANCH   7   8
ATOM      8  C   UNL     1      40.593  66.073  47.348  1.00  0.00    -0.000 C 
BRANCH   8   9
ATOM      9  C   UNL     1      41.211  65.049  46.381  1.00  0.00    -0.000 C 
BRANCH   9  10
ATOM     10  C   UNL     1      41.694  65.731  45.091  1.00  0.00    -0.000 C 
BRANCH  10  11
ATOM     11  C   UNL     1      43.141  65.360  44.730  1.00  0.00    -0.003 C 
ATOM     12  C   UNL     1      43.772  64.391  45.729  1.00  0.00     0.004 C 
ENDBRANCH  10  11
ENDBRANCH   9  10
ENDBRANCH   8   9
ENDBRANCH   7   8
ENDBRANCH   6   7
ENDBRANCH   5   6
ENDBRANCH   4   5
ENDBRANCH   3   4
ENDBRANCH   2   3
ENDBRANCH   1   2
BRANCH   1  13
ATOM     13  C   UNL     1      43.216  65.750  53.487  1.00  0.00     0.000 C 
BRANCH  13  14
ATOM     14  C   UNL     1      43.697  64.387  53.997  1.00  0.00     0.000 C 
BRANCH  14  15
ATOM     15  C   UNL     1      43.299  64.187  55.468  1.00  0.00     0.000 C 
BRANCH  15  16
ATOM     16  C   UNL     1      42.784  65.475  56.128  1.00  0.00     0.000 C 
BRANCH  16  17
ATOM     17  C   UNL     1      42.157  65.225  57.510  1.00  0.00     0.000 C 
BRANCH  17  18
ATOM     18  C   UNL     1      40.690  64.773  57.412  1.00  0.00     0.000 C 
BRANCH  18  19
ATOM     19  C   UNL     1      39.903  65.546  56.339  1.00  0.00     0.000 C 
BRANCH  19  20
ATOM     20  C   UNL     1      39.178  64.616  55.353  1.00  0.00     0.006 C 
BRANCH  20  21
ATOM     21  C   UNL     1      37.735  64.316  55.779  1.00  0.00     0.053 C 
BRANCH  21  22
ATOM     22  C   UNL     1      37.534  62.844  55.944  1.00  0.00     0.041 C 
ATOM     23  O   UNL     1      38.510  62.098  56.226  1.00  0.00    -0.550 OA
ATOM     24  O   UNL     1      36.276  62.285  55.743  1.00  0.00    -0.550 OA
ENDBRANCH  21  22
ENDBRANCH  20  21
ENDBRANCH  19  20
ENDBRANCH  18  19
ENDBRANCH  17  18
ENDBRANCH  16  17
ENDBRANCH  15  16
ENDBRANCH  14  15
ENDBRANCH  13  14
ENDBRANCH   1  13
TORSDOF 20
ENDMDL
MODEL 4
REMARK VINA RESULT:    -4.387      3.027      9.145
REMARK INTER + INTRA:         -11.072
REMARK INTER:                  -8.766
REMARK INTRA:                  -2.306
REMARK UNBOUND:                -1.556
REMARK SMILES CCCCCCCCCCCCCCCCCCCCCC(=O)[O-]
REMARK SMILES IDX 12 1 11 2 10 3 9 4 8 5 7 6 6 7 5 8 4 9 3 10 2 11 1 12 13 13
REMARK SMILES IDX 14 14 15 15 16 16 17 17 18 18 19 19 20 20 21 21 22 22 23 23
REMARK SMILES IDX 24 24
REMARK H PARENT
REMARK Flexibility Score: inf
ROOT
ATOM      1  C   UNL     1      45.300  65.858  50.779  1.00  0.00     0.000 C 
ENDROOT
BRANCH   1   2
ATOM      2  C   UNL     1      44.596  67.138  50.301  1.00  0.00     0.000 C 
BRANCH   2   3
ATOM      3  C   UNL     1      43.787  66.927  49.009  1.00  0.00     0.000 C 
BRANCH   3   4
ATOM      4  C   UNL     1      42.351  67.479  49.121  1.00  0.00    -0.000 C 
BRANCH   4   5
ATOM      5  C   UNL     1      41.701  67.777  47.759  1.00  0.00    -0.000 C 
BRANCH   5   6
ATOM      6  C   UNL     1      40.528  66.838  47.442  1.00  0.00    -0.000 C 
BRANCH   6   7
ATOM      7  C   UNL     1      40.983  65.416  47.069  1.00  0.00    -0.000 C 
BRANCH   7   8
ATOM      8  C   UNL     1      41.642  65.314  45.676  1.00  0.00    -0.000 C 
BRANCH   8   9
ATOM      9  C   UNL     1      42.977  64.552  45.708  1.00  0.00    -0.000 C 
BRANCH   9  10
ATOM     10  C   UNL     1      44.079  65.341  44.983  1.00  0.00    -0.000 C 
BRANCH  10  11
ATOM     11  C   UNL     1      43.811  66.855  44.966  1.00  0.00    -0.003 C 
ATOM     12  C   UNL     1      44.969  67.668  45.544  1.00  0.00     0.004 C 
ENDBRANCH  10  11
ENDBRANCH   9  10
ENDBRANCH   8   9
ENDBRANCH   7   8
ENDBRANCH   6   7
ENDBRANCH   5   6
ENDBRANCH   4   5
ENDBRANCH   3   4
ENDBRANCH   2   3
ENDBRANCH   1   2
BRANCH   1  13
ATOM     13  C   UNL     1      44.702  65.307  52.082  1.00  0.00     0.000 C 
BRANCH  13  14
ATOM     14  C   UNL     1      43.767  66.329  52.739  1.00  0.00     0.000 C 
BRANCH  14  15
ATOM     15  C   UNL     1      42.833  65.641  53.747  1.00  0.00     0.000 C 
BRANCH  15  16
ATOM     16  C   UNL     1      43.436  64.361  54.343  1.00  0.00     0.000 C 
BRANCH  16  17
ATOM     17  C   UNL     1      43.439  64.365  55.881  1.00  0.00     0.000 C 
BRANCH  17  18
ATOM     18  C   UNL     1      42.763  65.619  56.462  1.00  0.00     0.000 C 
BRANCH  18  19
ATOM     19  C   UNL     1      41.755  65.285  57.576  1.00  0.00     0.000 C 
BRANCH  19  20
ATOM     20  C   UNL     1      41.090  63.913  57.377  1.00  0.00     0.006 C 
BRANCH  20  21
ATOM     21  C   UNL     1      39.562  64.007  57.279  1.00  0.00     0.053 C 
BRANCH  21  22
ATOM     22  C   UNL     1      39.163  64.729  56.032  1.00  0.00     0.041 C 
ATOM     23  O   UNL     1      39.717  64.454  54.935  1.00  0.00    -0.550 OA
ATOM     24  O   UNL     1      38.208  65.740  56.087  1.00  0.00    -0.550 OA
ENDBRANCH  21  22
ENDBRANCH  20  21
ENDBRANCH  19  20
ENDBRANCH  18  19
ENDBRANCH  17  18
ENDBRANCH  16  17
ENDBRANCH  15  16
ENDBRANCH  14  15
ENDBRANCH  13  14
ENDBRANCH   1  13
TORSDOF 20
ENDMDL
MODEL 5
REMARK VINA RESULT:    -4.380      3.193      8.629
REMARK INTER + INTRA:         -11.058
REMARK INTER:                  -9.284
REMARK INTRA:                  -1.774
REMARK UNBOUND:                -1.556
REMARK SMILES CCCCCCCCCCCCCCCCCCCCCC(=O)[O-]
REMARK SMILES IDX 12 1 11 2 10 3 9 4 8 5 7 6 6 7 5 8 4 9 3 10 2 11 1 12 13 13
REMARK SMILES IDX 14 14 15 15 16 16 17 17 18 18 19 19 20 20 21 21 22 22 23 23
REMARK SMILES IDX 24 24
REMARK H PARENT
REMARK Flexibility Score: inf
ROOT
ATOM      1  C   UNL     1      43.629  66.243  52.880  1.00  0.00     0.000 C 
ENDROOT
BRANCH   1   2
ATOM      2  C   UNL     1      44.638  65.380  52.106  1.00  0.00     0.000 C 
BRANCH   2   3
ATOM      3  C   UNL     1      45.122  66.049  50.808  1.00  0.00     0.000 C 
BRANCH   3   4
ATOM      4  C   UNL     1      44.451  67.418  50.569  1.00  0.00    -0.000 C 
BRANCH   4   5
ATOM      5  C   UNL     1      43.951  67.612  49.129  1.00  0.00    -0.000 C 
BRANCH   5   6
ATOM      6  C   UNL     1      44.259  66.410  48.225  1.00  0.00    -0.000 C 
BRANCH   6   7
ATOM      7  C   UNL     1      43.482  66.443  46.897  1.00  0.00    -0.000 C 
BRANCH   7   8
ATOM      8  C   UNL     1      42.772  65.116  46.552  1.00  0.00    -0.000 C 
BRANCH   8   9
ATOM      9  C   UNL     1      41.279  65.309  46.235  1.00  0.00    -0.000 C 
BRANCH   9  10
ATOM     10  C   UNL     1      40.869  66.781  46.392  1.00  0.00    -0.000 C 
BRANCH  10  11
ATOM     11  C   UNL     1      39.787  66.984  47.465  1.00  0.00    -0.003 C 
ATOM     12  C   UNL     1      40.368  67.361  48.829  1.00  0.00     0.004 C 
ENDBRANCH  10  11
ENDBRANCH   9  10
ENDBRANCH   8   9
ENDBRANCH   7   8
ENDBRANCH   6   7
ENDBRANCH   5   6
ENDBRANCH   4   5
ENDBRANCH   3   4
ENDBRANCH   2   3
ENDBRANCH   1   2
BRANCH   1  13
ATOM     13  C   UNL     1      42.901  65.457  53.980  1.00  0.00     0.000 C 
BRANCH  13  14
ATOM     14  C   UNL     1      43.702  64.220  54.402  1.00  0.00     0.000 C 
BRANCH  14  15
ATOM     15  C   UNL     1      43.615  64.007  55.921  1.00  0.00     0.000 C 
BRANCH  15  16
ATOM     16  C   UNL     1      42.928  65.173  56.649  1.00  0.00     0.000 C 
BRANCH  16  17
ATOM     17  C   UNL     1      42.107  64.713  57.864  1.00  0.00     0.000 C 
BRANCH  17  18
ATOM     18  C   UNL     1      40.749  65.431  57.957  1.00  0.00     0.000 C 
BRANCH  18  19
ATOM     19  C   UNL     1      39.560  64.471  57.776  1.00  0.00     0.000 C 
BRANCH  19  20
ATOM     20  C   UNL     1      39.377  64.026  56.316  1.00  0.00     0.006 C 
BRANCH  20  21
ATOM     21  C   UNL     1      37.900  63.913  55.916  1.00  0.00     0.053 C 
BRANCH  21  22
ATOM     22  C   UNL     1      37.485  62.478  55.847  1.00  0.00     0.041 C 
ATOM     23  O   UNL     1      38.319  61.565  56.089  1.00  0.00    -0.550 OA
ATOM     24  O   UNL     1      36.188  62.144  55.470  1.00  0.00    -0.550 OA
ENDBRANCH  21  22
ENDBRANCH  20  21
ENDBRANCH  19  20
ENDBRANCH  18  19
ENDBRANCH  17  18
ENDBRANCH  16  17
ENDBRANCH  15  16
ENDBRANCH  14  15
ENDBRANCH  13  14
ENDBRANCH   1  13
TORSDOF 20
ENDMDL
MODEL 6
REMARK VINA RESULT:    -4.353      4.069      9.862
REMARK INTER + INTRA:         -10.998
REMARK INTER:                  -8.608
REMARK INTRA:                  -2.390
REMARK UNBOUND:                -1.556
REMARK SMILES CCCCCCCCCCCCCCCCCCCCCC(=O)[O-]
REMARK SMILES IDX 12 1 11 2 10 3 9 4 8 5 7 6 6 7 5 8 4 9 3 10 2 11 1 12 13 13
REMARK SMILES IDX 14 14 15 15 16 16 17 17 18 18 19 19 20 20 21 21 22 22 23 23
REMARK SMILES IDX 24 24
REMARK H PARENT
REMARK Flexibility Score: inf
ROOT
ATOM      1  C   UNL     1      40.748  67.732  49.164  1.00  0.00     0.000 C 
ENDROOT
BRANCH   1   2
ATOM      2  C   UNL     1      40.620  67.064  47.785  1.00  0.00     0.000 C 
BRANCH   2   3
ATOM      3  C   UNL     1      39.908  65.702  47.847  1.00  0.00     0.000 C 
BRANCH   3   4
ATOM      4  C   UNL     1      40.626  64.627  47.004  1.00  0.00    -0.000 C 
BRANCH   4   5
ATOM      5  C   UNL     1      41.539  65.213  45.914  1.00  0.00    -0.000 C 
BRANCH   5   6
ATOM      6  C   UNL     1      42.832  64.406  45.724  1.00  0.00    -0.000 C 
BRANCH   6   7
ATOM      7  C   UNL     1      44.088  65.294  45.660  1.00  0.00    -0.000 C 
BRANCH   7   8
ATOM      8  C   UNL     1      43.844  66.681  45.025  1.00  0.00    -0.000 C 
BRANCH   8   9
ATOM      9  C   UNL     1      45.116  67.545  44.989  1.00  0.00    -0.000 C 
BRANCH   9  10
ATOM     10  C   UNL     1      45.868  67.362  43.661  1.00  0.00    -0.000 C 
BRANCH  10  11
ATOM     11  C   UNL     1      44.996  66.722  42.569  1.00  0.00    -0.003 C 
ATOM     12  C   UNL     1      45.631  65.471  41.960  1.00  0.00     0.004 C 
ENDBRANCH  10  11
ENDBRANCH   9  10
ENDBRANCH   8   9
ENDBRANCH   7   8
ENDBRANCH   6   7
ENDBRANCH   5   6
ENDBRANCH   4   5
ENDBRANCH   3   4
ENDBRANCH   2   3
ENDBRANCH   1   2
BRANCH   1  13
ATOM     13  C   UNL     1      42.191  67.727  49.690  1.00  0.00     0.000 C 
BRANCH  13  14
ATOM     14  C   UNL     1      43.193  67.454  48.562  1.00  0.00     0.000 C 
BRANCH  14  15
ATOM     15  C   UNL     1      44.342  66.562  49.059  1.00  0.00     0.000 C 
BRANCH  15  16
ATOM     16  C   UNL     1      44.672  66.787  50.542  1.00  0.00     0.000 C 
BRANCH  16  17
ATOM     17  C   UNL     1      45.166  65.509  51.240  1.00  0.00     0.000 C 
BRANCH  17  18
ATOM     18  C   UNL     1      44.442  65.256  52.575  1.00  0.00     0.000 C 
BRANCH  18  19
ATOM     19  C   UNL     1      43.420  66.355  52.911  1.00  0.00     0.000 C 
BRANCH  19  20
ATOM     20  C   UNL     1      42.459  65.943  54.038  1.00  0.00     0.006 C 
BRANCH  20  21
ATOM     21  C   UNL     1      43.149  65.106  55.123  1.00  0.00     0.053 C 
BRANCH  21  22
ATOM     22  C   UNL     1      42.207  64.835  56.252  1.00  0.00     0.041 C 
ATOM     23  O   UNL     1      42.389  63.841  57.005  1.00  0.00    -0.550 OA
ATOM     24  O   UNL     1      41.101  65.655  56.449  1.00  0.00    -0.550 OA
ENDBRANCH  21  22
ENDBRANCH  20  21
ENDBRANCH  19  20
ENDBRANCH  18  19
ENDBRANCH  17  18
ENDBRANCH  16  17
ENDBRANCH  15  16
ENDBRANCH  14  15
ENDBRANCH  13  14
ENDBRANCH   1  13
TORSDOF 20
ENDMDL
MODEL 7
REMARK VINA RESULT:    -4.314      7.295     10.051
REMARK INTER + INTRA:         -10.914
REMARK INTER:                  -9.791
REMARK INTRA:                  -1.123
REMARK UNBOUND:                -1.556
REMARK SMILES CCCCCCCCCCCCCCCCCCCCCC(=O)[O-]
REMARK SMILES IDX 12 1 11 2 10 3 9 4 8 5 7 6 6 7 5 8 4 9 3 10 2 11 1 12 13 13
REMARK SMILES IDX 14 14 15 15 16 16 17 17 18 18 19 19 20 20 21 21 22 22 23 23
REMARK SMILES IDX 24 24
REMARK H PARENT
REMARK Flexibility Score: inf
ROOT
ATOM      1  C   UNL     1      37.226  59.387  55.267  1.00  0.00     0.000 C 
ENDROOT
BRANCH   1   2
ATOM      2  C   UNL     1      37.236  57.924  55.736  1.00  0.00     0.000 C 
BRANCH   2   3
ATOM      3  C   UNL     1      37.928  57.739  57.098  1.00  0.00     0.000 C 
BRANCH   3   4
ATOM      4  C   UNL     1      37.391  56.514  57.866  1.00  0.00    -0.000 C 
BRANCH   4   5
ATOM      5  C   UNL     1      36.078  55.957  57.292  1.00  0.00    -0.000 C 
BRANCH   5   6
ATOM      6  C   UNL     1      36.240  54.554  56.690  1.00  0.00    -0.000 C 
BRANCH   6   7
ATOM      7  C   UNL     1      35.238  53.537  57.264  1.00  0.00    -0.000 C 
BRANCH   7   8
ATOM      8  C   UNL     1      33.847  53.581  56.595  1.00  0.00    -0.000 C 
BRANCH   8   9
ATOM      9  C   UNL     1      32.699  53.579  57.619  1.00  0.00    -0.000 C 
BRANCH   9  10
ATOM     10  C   UNL     1      32.087  54.982  57.762  1.00  0.00    -0.000 C 
BRANCH  10  11
ATOM     11  C   UNL     1      30.758  55.129  57.004  1.00  0.00    -0.003 C 
ATOM     12  C   UNL     1      30.152  56.526  57.136  1.00  0.00     0.004 C 
ENDBRANCH  10  11
ENDBRANCH   9  10
ENDBRANCH   8   9
ENDBRANCH   7   8
ENDBRANCH   6   7
ENDBRANCH   5   6
ENDBRANCH   4   5
ENDBRANCH   3   4
ENDBRANCH   2   3
ENDBRANCH   1   2
BRANCH   1  13
ATOM     13  C   UNL     1      36.207  60.245  56.031  1.00  0.00     0.000 C 
BRANCH  13  14
ATOM     14  C   UNL     1      36.193  61.687  55.511  1.00  0.00     0.000 C 
BRANCH  14  15
ATOM     15  C   UNL     1      36.878  62.632  56.511  1.00  0.00     0.000 C 
BRANCH  15  16
ATOM     16  C   UNL     1      36.458  64.098  56.331  1.00  0.00     0.000 C 
BRANCH  16  17
ATOM     17  C   UNL     1      36.057  64.428  54.884  1.00  0.00     0.000 C 
BRANCH  17  18
ATOM     18  C   UNL     1      35.370  65.799  54.766  1.00  0.00     0.000 C 
BRANCH  18  19
ATOM     19  C   UNL     1      34.007  65.841  55.480  1.00  0.00     0.000 C 
BRANCH  19  20
ATOM     20  C   UNL     1      33.010  66.788  54.793  1.00  0.00     0.006 C 
BRANCH  20  21
ATOM     21  C   UNL     1      33.640  67.563  53.628  1.00  0.00     0.053 C 
BRANCH  21  22
ATOM     22  C   UNL     1      32.846  67.365  52.377  1.00  0.00     0.041 C 
ATOM     23  O   UNL     1      31.587  67.329  52.424  1.00  0.00    -0.550 OA
ATOM     24  O   UNL     1      33.496  67.175  51.162  1.00  0.00    -0.550 OA
ENDBRANCH  21  22
ENDBRANCH  20  21
ENDBRANCH  19  20
ENDBRANCH  18  19
ENDBRANCH  17  18
ENDBRANCH  16  17
ENDBRANCH  15  16
ENDBRANCH  14  15
ENDBRANCH  13  14
ENDBRANCH   1  13
TORSDOF 20
ENDMDL
MODEL 8
REMARK VINA RESULT:    -4.254      2.903      4.560
REMARK INTER + INTRA:         -10.784
REMARK INTER:                  -9.485
REMARK INTRA:                  -1.299
REMARK UNBOUND:                -1.556
REMARK SMILES CCCCCCCCCCCCCCCCCCCCCC(=O)[O-]
REMARK SMILES IDX 12 1 11 2 10 3 9 4 8 5 7 6 6 7 5 8 4 9 3 10 2 11 1 12 13 13
REMARK SMILES IDX 14 14 15 15 16 16 17 17 18 18 19 19 20 20 21 21 22 22 23 23
REMARK SMILES IDX 24 24
REMARK H PARENT
REMARK Flexibility Score: inf
ROOT
ATOM      1  C   UNL     1      40.340  64.556  54.414  1.00  0.00     0.000 C 
ENDROOT
BRANCH   1   2
ATOM      2  C   UNL     1      39.694  65.080  55.707  1.00  0.00     0.000 C 
BRANCH   2   3
ATOM      3  C   UNL     1      39.220  63.950  56.637  1.00  0.00     0.000 C 
BRANCH   3   4
ATOM      4  C   UNL     1      37.685  63.919  56.786  1.00  0.00    -0.000 C 
BRANCH   4   5
ATOM      5  C   UNL     1      36.962  63.330  55.563  1.00  0.00    -0.000 C 
BRANCH   5   6
ATOM      6  C   UNL     1      36.065  64.355  54.852  1.00  0.00    -0.000 C 
BRANCH   6   7
ATOM      7  C   UNL     1      35.277  65.242  55.832  1.00  0.00    -0.000 C 
BRANCH   7   8
ATOM      8  C   UNL     1      34.336  66.255  55.144  1.00  0.00    -0.000 C 
BRANCH   8   9
ATOM      9  C   UNL     1      34.987  66.936  53.929  1.00  0.00    -0.000 C 
BRANCH   9  10
ATOM     10  C   UNL     1      33.922  67.440  52.943  1.00  0.00    -0.000 C 
BRANCH  10  11
ATOM     11  C   UNL     1      32.542  67.612  53.598  1.00  0.00    -0.003 C 
ATOM     12  C   UNL     1      31.392  67.495  52.598  1.00  0.00     0.004 C 
ENDBRANCH  10  11
ENDBRANCH   9  10
ENDBRANCH   8   9
ENDBRANCH   7   8
ENDBRANCH   6   7
ENDBRANCH   5   6
ENDBRANCH   4   5
ENDBRANCH   3   4
ENDBRANCH   2   3
ENDBRANCH   1   2
BRANCH   1  13
ATOM     13  C   UNL     1      41.522  65.421  53.953  1.00  0.00     0.000 C 
BRANCH  13  14
ATOM     14  C   UNL     1      42.861  64.746  54.272  1.00  0.00     0.000 C 
BRANCH  14  15
ATOM     15  C   UNL     1      43.916  65.104  53.214  1.00  0.00     0.000 C 
BRANCH  15  16
ATOM     16  C   UNL     1      43.801  66.555  52.722  1.00  0.00     0.000 C 
BRANCH  16  17
ATOM     17  C   UNL     1      44.928  66.945  51.752  1.00  0.00     0.000 C 
BRANCH  17  18
ATOM     18  C   UNL     1      45.309  65.793  50.806  1.00  0.00     0.000 C 
BRANCH  18  19
ATOM     19  C   UNL     1      45.162  66.174  49.322  1.00  0.00     0.000 C 
BRANCH  19  20
ATOM     20  C   UNL     1      43.743  66.652  48.973  1.00  0.00     0.006 C 
BRANCH  20  21
ATOM     21  C   UNL     1      43.551  66.873  47.467  1.00  0.00     0.053 C 
BRANCH  21  22
ATOM     22  C   UNL     1      42.939  65.664  46.835  1.00  0.00     0.041 C 
ATOM     23  O   UNL     1      41.713  65.419  46.992  1.00  0.00    -0.550 OA
ATOM     24  O   UNL     1      43.731  64.782  46.107  1.00  0.00    -0.550 OA
ENDBRANCH  21  22
ENDBRANCH  20  21
ENDBRANCH  19  20
ENDBRANCH  18  19
ENDBRANCH  17  18
ENDBRANCH  16  17
ENDBRANCH  15  16
ENDBRANCH  14  15
ENDBRANCH  13  14
ENDBRANCH   1  13
TORSDOF 20
ENDMDL
MODEL 9
REMARK VINA RESULT:    -4.165      8.394     12.506
REMARK INTER + INTRA:         -10.592
REMARK INTER:                  -9.328
REMARK INTRA:                  -1.264
REMARK UNBOUND:                -1.556
REMARK SMILES CCCCCCCCCCCCCCCCCCCCCC(=O)[O-]
REMARK SMILES IDX 12 1 11 2 10 3 9 4 8 5 7 6 6 7 5 8 4 9 3 10 2 11 1 12 13 13
REMARK SMILES IDX 14 14 15 15 16 16 17 17 18 18 19 19 20 20 21 21 22 22 23 23
REMARK SMILES IDX 24 24
REMARK H PARENT
REMARK Flexibility Score: inf
ROOT
ATOM      1  C   UNL     1      37.253  59.384  55.120  1.00  0.00     0.000 C 
ENDROOT
BRANCH   1   2
ATOM      2  C   UNL     1      36.544  60.324  56.109  1.00  0.00     0.000 C 
BRANCH   2   3
ATOM      3  C   UNL     1      37.156  61.736  56.132  1.00  0.00     0.000 C 
BRANCH   3   4
ATOM      4  C   UNL     1      36.436  62.669  57.128  1.00  0.00    -0.000 C 
BRANCH   4   5
ATOM      5  C   UNL     1      36.546  64.158  56.761  1.00  0.00    -0.000 C 
BRANCH   5   6
ATOM      6  C   UNL     1      36.265  64.427  55.276  1.00  0.00    -0.000 C 
BRANCH   6   7
ATOM      7  C   UNL     1      35.035  65.324  55.052  1.00  0.00    -0.000 C 
BRANCH   7   8
ATOM      8  C   UNL     1      34.694  66.233  56.253  1.00  0.00    -0.000 C 
BRANCH   8   9
ATOM      9  C   UNL     1      33.211  66.637  56.287  1.00  0.00    -0.000 C 
BRANCH   9  10
ATOM     10  C   UNL     1      32.503  66.244  54.981  1.00  0.00    -0.000 C 
BRANCH  10  11
ATOM     11  C   UNL     1      31.765  67.423  54.327  1.00  0.00    -0.003 C 
ATOM     12  C   UNL     1      31.700  67.311  52.804  1.00  0.00     0.004 C 
ENDBRANCH  10  11
ENDBRANCH   9  10
ENDBRANCH   8   9
ENDBRANCH   7   8
ENDBRANCH   6   7
ENDBRANCH   5   6
ENDBRANCH   4   5
ENDBRANCH   3   4
ENDBRANCH   2   3
ENDBRANCH   1   2
BRANCH   1  13
ATOM     13  C   UNL     1      37.209  57.916  55.566  1.00  0.00     0.000 C 
BRANCH  13  14
ATOM     14  C   UNL     1      37.618  57.769  57.036  1.00  0.00     0.000 C 
BRANCH  14  15
ATOM     15  C   UNL     1      37.247  56.375  57.567  1.00  0.00     0.000 C 
BRANCH  15  16
ATOM     16  C   UNL     1      36.824  55.405  56.453  1.00  0.00     0.000 C 
BRANCH  16  17
ATOM     17  C   UNL     1      36.133  54.143  56.995  1.00  0.00     0.000 C 
BRANCH  17  18
ATOM     18  C   UNL     1      34.703  54.426  57.487  1.00  0.00     0.000 C 
BRANCH  18  19
ATOM     19  C   UNL     1      33.631  53.828  56.559  1.00  0.00     0.000 C 
BRANCH  19  20
ATOM     20  C   UNL     1      34.233  52.945  55.453  1.00  0.00     0.006 C 
BRANCH  20  21
ATOM     21  C   UNL     1      33.714  51.502  55.503  1.00  0.00     0.053 C 
BRANCH  21  22
ATOM     22  C   UNL     1      32.313  51.432  54.984  1.00  0.00     0.041 C 
ATOM     23  O   UNL     1      32.044  51.854  53.828  1.00  0.00    -0.550 OA
ATOM     24  O   UNL     1      31.294  50.941  55.794  1.00  0.00    -0.550 OA
ENDBRANCH  21  22
ENDBRANCH  20  21
ENDBRANCH  19  20
ENDBRANCH  18  19
ENDBRANCH  17  18
ENDBRANCH  16  17
ENDBRANCH  15  16
ENDBRANCH  14  15
ENDBRANCH  13  14
ENDBRANCH   1  13
TORSDOF 20
ENDMDL
