MODEL 1
REMARK VINA RESULT:    -4.673      0.000      0.000
REMARK INTER + INTRA:          -4.673
REMARK INTER:                  -4.673
REMARK INTRA:                   0.000
REMARK UNBOUND:                 0.000
REMARK SMILES CC1(C)O[C@]2(C)CC[C@H]1CC2
REMARK SMILES IDX 1 1 2 2 9 3 8 4 7 5 5 6 4 7 11 8 10 9 6 10 3 11
REMARK H PARENT
REMARK Flexibility Score: inf
ROOT
ATOM      1  C   UNL     1     178.512 193.762 203.117  1.00  0.00     0.042 C 
ATOM      2  C   UNL     1     179.611 192.960 202.387  1.00  0.00     0.066 C 
ATOM      3  C   UNL     1     179.802 191.543 203.054  1.00  0.00     0.021 C 
ATOM      4  C   UNL     1     180.875 190.766 202.253  1.00  0.00     0.009 C 
ATOM      5  C   UNL     1     180.504 190.788 200.750  1.00  0.00     0.035 C 
ATOM      6  C   UNL     1     179.134 191.501 200.557  1.00  0.00     0.066 C 
ATOM      7  O   UNL     1     179.242 192.853 201.004  1.00  0.00    -0.369 OA
ATOM      8  C   UNL     1     178.058 190.766 201.406  1.00  0.00     0.035 C 
ATOM      9  C   UNL     1     178.487 190.745 202.892  1.00  0.00     0.009 C 
ATOM     10  C   UNL     1     178.738 191.500 199.077  1.00  0.00     0.042 C 
ATOM     11  C   UNL     1     180.915 193.784 202.473  1.00  0.00     0.042 C 
ENDROOT
TORSDOF 0
ENDMDL
MODEL 2
REMARK VINA RESULT:    -4.639      1.248      3.141
REMARK INTER + INTRA:          -4.639
REMARK INTER:                  -4.639
REMARK INTRA:                   0.000
REMARK UNBOUND:                 0.000
REMARK SMILES CC1(C)O[C@]2(C)CC[C@H]1CC2
REMARK SMILES IDX 1 1 2 2 9 3 8 4 7 5 5 6 4 7 11 8 10 9 6 10 3 11
REMARK H PARENT
REMARK Flexibility Score: inf
ROOT
ATOM      1  C   UNL     1     177.875 190.000 199.738  1.00  0.00     0.042 C 
ATOM      2  C   UNL     1     178.616 191.317 200.056  1.00  0.00     0.066 C 
ATOM      3  C   UNL     1     178.016 191.998 201.346  1.00  0.00     0.021 C 
ATOM      4  C   UNL     1     178.827 193.281 201.644  1.00  0.00     0.009 C 
ATOM      5  C   UNL     1     180.336 192.934 201.674  1.00  0.00     0.035 C 
ATOM      6  C   UNL     1     180.527 191.401 201.487  1.00  0.00     0.066 C 
ATOM      7  O   UNL     1     180.012 191.017 200.211  1.00  0.00    -0.369 OA
ATOM      8  C   UNL     1     179.742 190.654 202.602  1.00  0.00     0.035 C 
ATOM      9  C   UNL     1     178.248 191.055 202.550  1.00  0.00     0.009 C 
ATOM     10  C   UNL     1     182.015 191.039 201.548  1.00  0.00     0.042 C 
ATOM     11  C   UNL     1     178.459 192.240 198.827  1.00  0.00     0.042 C 
ENDROOT
TORSDOF 0
ENDMDL
MODEL 3
REMARK VINA RESULT:    -4.348      1.039      2.555
REMARK INTER + INTRA:          -4.348
REMARK INTER:                  -4.348
REMARK INTRA:                   0.000
REMARK UNBOUND:                 0.000
REMARK SMILES CC1(C)O[C@]2(C)CC[C@H]1CC2
REMARK SMILES IDX 1 1 2 2 9 3 8 4 7 5 5 6 4 7 11 8 10 9 6 10 3 11
REMARK H PARENT
REMARK Flexibility Score: inf
ROOT
ATOM      1  C   UNL     1     181.975 191.817 201.964  1.00  0.00     0.042 C 
ATOM      2  C   UNL     1     180.643 191.044 201.869  1.00  0.00     0.066 C 
ATOM      3  C   UNL     1     179.569 191.661 202.846  1.00  0.00     0.021 C 
ATOM      4  C   UNL     1     178.243 190.882 202.672  1.00  0.00     0.009 C 
ATOM      5  C   UNL     1     177.875 190.833 201.169  1.00  0.00     0.035 C 
ATOM      6  C   UNL     1     178.907 191.659 200.347  1.00  0.00     0.066 C 
ATOM      7  O   UNL     1     180.203 191.078 200.503  1.00  0.00    -0.369 OA
ATOM      8  C   UNL     1     178.932 193.117 200.887  1.00  0.00     0.035 C 
ATOM      9  C   UNL     1     179.275 193.112 202.396  1.00  0.00     0.009 C 
ATOM     10  C   UNL     1     178.535 191.647 198.861  1.00  0.00     0.042 C 
ATOM     11  C   UNL     1     180.937 189.574 202.240  1.00  0.00     0.042 C 
ENDROOT
TORSDOF 0
ENDMDL
MODEL 4
REMARK VINA RESULT:    -4.312     12.693     14.697
REMARK INTER + INTRA:          -4.312
REMARK INTER:                  -4.312
REMARK INTRA:                   0.000
REMARK UNBOUND:                 0.000
REMARK SMILES CC1(C)O[C@]2(C)CC[C@H]1CC2
REMARK SMILES IDX 1 1 2 2 9 3 8 4 7 5 5 6 4 7 11 8 10 9 6 10 3 11
REMARK H PARENT
REMARK Flexibility Score: inf
ROOT
ATOM      1  C   UNL     1     186.595 189.640 187.271  1.00  0.00     0.042 C 
ATOM      2  C   UNL     1     186.742 190.918 188.125  1.00  0.00     0.066 C 
ATOM      3  C   UNL     1     185.688 192.007 187.686  1.00  0.00     0.021 C 
ATOM      4  C   UNL     1     185.846 193.241 188.606  1.00  0.00     0.009 C 
ATOM      5  C   UNL     1     185.803 192.782 190.084  1.00  0.00     0.035 C 
ATOM      6  C   UNL     1     185.523 191.253 190.153  1.00  0.00     0.066 C 
ATOM      7  O   UNL     1     186.587 190.553 189.505  1.00  0.00    -0.369 OA
ATOM      8  C   UNL     1     184.187 190.950 189.416  1.00  0.00     0.035 C 
ATOM      9  C   UNL     1     184.269 191.451 187.954  1.00  0.00     0.009 C 
ATOM     10  C   UNL     1     185.444 190.791 191.612  1.00  0.00     0.042 C 
ATOM     11  C   UNL     1     188.182 191.440 187.928  1.00  0.00     0.042 C 
ENDROOT
TORSDOF 0
ENDMDL
MODEL 5
REMARK VINA RESULT:    -4.234     12.792     14.698
REMARK INTER + INTRA:          -4.234
REMARK INTER:                  -4.234
REMARK INTRA:                   0.000
REMARK UNBOUND:                 0.000
REMARK SMILES CC1(C)O[C@]2(C)CC[C@H]1CC2
REMARK SMILES IDX 1 1 2 2 9 3 8 4 7 5 5 6 4 7 11 8 10 9 6 10 3 11
REMARK H PARENT
REMARK Flexibility Score: inf
ROOT
ATOM      1  C   UNL     1     185.367 191.123 191.333  1.00  0.00     0.042 C 
ATOM      2  C   UNL     1     185.451 190.957 189.801  1.00  0.00     0.066 C 
ATOM      3  C   UNL     1     184.913 192.247 189.070  1.00  0.00     0.021 C 
ATOM      4  C   UNL     1     185.069 192.046 187.543  1.00  0.00     0.009 C 
ATOM      5  C   UNL     1     186.525 191.623 187.232  1.00  0.00     0.035 C 
ATOM      6  C   UNL     1     187.367 191.630 188.541  1.00  0.00     0.066 C 
ATOM      7  O   UNL     1     186.817 190.681 189.456  1.00  0.00    -0.369 OA
ATOM      8  C   UNL     1     187.302 193.049 189.176  1.00  0.00     0.035 C 
ATOM      9  C   UNL     1     185.828 193.438 189.441  1.00  0.00     0.009 C 
ATOM     10  C   UNL     1     188.819 191.245 188.242  1.00  0.00     0.042 C 
ATOM     11  C   UNL     1     184.604 189.722 189.424  1.00  0.00     0.042 C 
ENDROOT
TORSDOF 0
ENDMDL
MODEL 6
REMARK VINA RESULT:    -4.207     12.469     14.227
REMARK INTER + INTRA:          -4.207
REMARK INTER:                  -4.207
REMARK INTRA:                   0.000
REMARK UNBOUND:                 0.000
REMARK SMILES CC1(C)O[C@]2(C)CC[C@H]1CC2
REMARK SMILES IDX 1 1 2 2 9 3 8 4 7 5 5 6 4 7 11 8 10 9 6 10 3 11
REMARK H PARENT
REMARK Flexibility Score: inf
ROOT
ATOM      1  C   UNL     1     187.680 192.686 190.548  1.00  0.00     0.042 C 
ATOM      2  C   UNL     1     186.394 192.686 189.692  1.00  0.00     0.066 C 
ATOM      3  C   UNL     1     186.686 192.123 188.247  1.00  0.00     0.021 C 
ATOM      4  C   UNL     1     185.358 192.098 187.454  1.00  0.00     0.009 C 
ATOM      5  C   UNL     1     184.280 191.362 188.288  1.00  0.00     0.035 C 
ATOM      6  C   UNL     1     184.914 190.813 189.599  1.00  0.00     0.066 C 
ATOM      7  O   UNL     1     185.402 191.908 190.377  1.00  0.00    -0.369 OA
ATOM      8  C   UNL     1     186.100 189.876 189.234  1.00  0.00     0.035 C 
ATOM      9  C   UNL     1     187.134 190.648 188.379  1.00  0.00     0.009 C 
ATOM     10  C   UNL     1     183.866 190.053 190.418  1.00  0.00     0.042 C 
ATOM     11  C   UNL     1     185.892 194.145 189.618  1.00  0.00     0.042 C 
ENDROOT
TORSDOF 0
ENDMDL
MODEL 7
REMARK VINA RESULT:    -4.048     12.850     14.675
REMARK INTER + INTRA:          -4.048
REMARK INTER:                  -4.048
REMARK INTRA:                   0.000
REMARK UNBOUND:                 0.000
REMARK SMILES CC1(C)O[C@]2(C)CC[C@H]1CC2
REMARK SMILES IDX 1 1 2 2 9 3 8 4 7 5 5 6 4 7 11 8 10 9 6 10 3 11
REMARK H PARENT
REMARK Flexibility Score: inf
ROOT
ATOM      1  C   UNL     1     185.794 193.719 189.571  1.00  0.00     0.042 C 
ATOM      2  C   UNL     1     185.807 192.182 189.721  1.00  0.00     0.066 C 
ATOM      3  C   UNL     1     184.588 191.536 188.955  1.00  0.00     0.021 C 
ATOM      4  C   UNL     1     184.681 189.998 189.096  1.00  0.00     0.009 C 
ATOM      5  C   UNL     1     186.098 189.533 188.676  1.00  0.00     0.035 C 
ATOM      6  C   UNL     1     186.921 190.751 188.166  1.00  0.00     0.066 C 
ATOM      7  O   UNL     1     187.065 191.697 189.227  1.00  0.00    -0.369 OA
ATOM      8  C   UNL     1     186.160 191.418 186.986  1.00  0.00     0.035 C 
ATOM      9  C   UNL     1     184.743 191.838 187.446  1.00  0.00     0.009 C 
ATOM     10  C   UNL     1     188.315 190.299 187.715  1.00  0.00     0.042 C 
ATOM     11  C   UNL     1     185.732 191.867 191.231  1.00  0.00     0.042 C 
ENDROOT
TORSDOF 0
ENDMDL
MODEL 8
REMARK VINA RESULT:    -4.044     12.656     14.359
REMARK INTER + INTRA:          -4.044
REMARK INTER:                  -4.044
REMARK INTRA:                   0.000
REMARK UNBOUND:                 0.000
REMARK SMILES CC1(C)O[C@]2(C)CC[C@H]1CC2
REMARK SMILES IDX 1 1 2 2 9 3 8 4 7 5 5 6 4 7 11 8 10 9 6 10 3 11
REMARK H PARENT
REMARK Flexibility Score: inf
ROOT
ATOM      1  C   UNL     1     183.883 190.388 190.025  1.00  0.00     0.042 C 
ATOM      2  C   UNL     1     185.372 190.796 189.989  1.00  0.00     0.066 C 
ATOM      3  C   UNL     1     186.055 190.294 188.658  1.00  0.00     0.021 C 
ATOM      4  C   UNL     1     187.526 190.774 188.652  1.00  0.00     0.009 C 
ATOM      5  C   UNL     1     187.566 192.297 188.928  1.00  0.00     0.035 C 
ATOM      6  C   UNL     1     186.116 192.853 189.026  1.00  0.00     0.066 C 
ATOM      7  O   UNL     1     185.447 192.224 190.121  1.00  0.00    -0.369 OA
ATOM      8  C   UNL     1     185.359 192.525 187.708  1.00  0.00     0.035 C 
ATOM      9  C   UNL     1     185.371 190.997 187.461  1.00  0.00     0.009 C 
ATOM     10  C   UNL     1     186.141 194.366 189.266  1.00  0.00     0.042 C 
ATOM     11  C   UNL     1     186.052 190.165 191.223  1.00  0.00     0.042 C 
ENDROOT
TORSDOF 0
ENDMDL
MODEL 9
REMARK VINA RESULT:    -4.034     14.157     15.567
REMARK INTER + INTRA:          -4.034
REMARK INTER:                  -4.034
REMARK INTRA:                   0.000
REMARK UNBOUND:                 0.000
REMARK SMILES CC1(C)O[C@]2(C)CC[C@H]1CC2
REMARK SMILES IDX 1 1 2 2 9 3 8 4 7 5 5 6 4 7 11 8 10 9 6 10 3 11
REMARK H PARENT
REMARK Flexibility Score: inf
ROOT
ATOM      1  C   UNL     1     186.834 190.228 190.157  1.00  0.00     0.042 C 
ATOM      2  C   UNL     1     186.235 189.563 188.899  1.00  0.00     0.066 C 
ATOM      3  C   UNL     1     184.716 189.954 188.731  1.00  0.00     0.021 C 
ATOM      4  C   UNL     1     184.184 189.305 187.431  1.00  0.00     0.009 C 
ATOM      5  C   UNL     1     185.132 189.661 186.259  1.00  0.00     0.035 C 
ATOM      6  C   UNL     1     186.246 190.625 186.759  1.00  0.00     0.066 C 
ATOM      7  O   UNL     1     187.018 189.968 187.765  1.00  0.00    -0.369 OA
ATOM      8  C   UNL     1     185.583 191.893 187.369  1.00  0.00     0.035 C 
ATOM      9  C   UNL     1     184.625 191.483 188.514  1.00  0.00     0.009 C 
ATOM     10  C   UNL     1     187.172 191.013 185.601  1.00  0.00     0.042 C 
ATOM     11  C   UNL     1     186.391 188.036 189.067  1.00  0.00     0.042 C 
ENDROOT
TORSDOF 0
ENDMDL
