MODEL 1
REMARK VINA RESULT:    -5.747      0.000      0.000
REMARK INTER + INTRA:          -9.597
REMARK INTER:                  -7.931
REMARK INTRA:                  -1.667
REMARK UNBOUND:                -1.667
REMARK SMILES CC[C@H](CC[C@H](C)[C@H]1CC[C@H]2[C@H]3CC=C4C[C@@H](O)CC[C@]4(C)[C@H]3CC[C@]12C)C(C)C
REMARK SMILES IDX 5 1 4 2 3 3 2 4 1 5 28 6 29 7 30 8 6 9 7 10 8 11 9 12 26 13
REMARK SMILES IDX 10 14 11 15 25 16 27 17 12 18 24 19 23 20 13 21 21 22 14 23
REMARK SMILES IDX 15 24 20 25 22 26 16 27 19 28 17 29 18 30
REMARK H PARENT 18 31
REMARK Flexibility Score: inf
ROOT
ATOM      1  C   UNL     1       4.832  -7.088   7.290  1.00  0.00     0.004 C 
ENDROOT
BRANCH   1   2
ATOM      2  C   UNL     1       5.289  -7.471   5.854  1.00  0.00     0.004 C 
BRANCH   2   3
ATOM      3  C   UNL     1       5.025  -6.362   4.792  1.00  0.00    -0.009 C 
BRANCH   3   4
ATOM      4  C   UNL     1       6.357  -5.754   4.272  1.00  0.00     0.000 C 
ATOM      5  C   UNL     1       6.159  -4.449   3.495  1.00  0.00     0.004 C 
ENDBRANCH   3   4
BRANCH   3   6
ATOM      6  C   UNL     1       4.117  -6.891   3.627  1.00  0.00    -0.014 C 
ATOM      7  C   UNL     1       2.669  -6.370   3.680  1.00  0.00     0.007 C 
ATOM      8  C   UNL     1       4.121  -8.427   3.560  1.00  0.00     0.007 C 
ENDBRANCH   3   6
ENDBRANCH   2   3
ENDBRANCH   1   2
BRANCH   1   9
ATOM      9  C   UNL     1       3.356  -7.424   7.668  1.00  0.00    -0.011 C 
ATOM     10  C   UNL     1       2.925  -8.858   7.305  1.00  0.00     0.008 C 
BRANCH   9  11
ATOM     11  C   UNL     1       2.225  -6.368   7.379  1.00  0.00    -0.002 C 
ATOM     12  C   UNL     1       0.952  -6.921   6.695  1.00  0.00     0.005 C 
ATOM     13  C   UNL     1       1.664  -5.349   8.424  1.00  0.00    -0.026 C 
ATOM     14  C   UNL     1      -0.108  -5.797   6.792  1.00  0.00     0.005 C 
ATOM     15  C   UNL     1       0.624  -4.661   7.509  1.00  0.00    -0.001 C 
ATOM     16  C   UNL     1       2.659  -4.267   8.907  1.00  0.00     0.007 C 
ATOM     17  C   UNL     1       0.999  -6.071   9.639  1.00  0.00     0.012 C 
ATOM     18  C   UNL     1      -0.152  -3.462   8.102  1.00  0.00     0.000 C 
ATOM     19  C   UNL     1       1.940  -3.035   9.528  1.00  0.00     0.005 C 
ATOM     20  C   UNL     1       0.869  -2.395   8.584  1.00  0.00     0.003 C 
ATOM     21  C   UNL     1      -1.153  -3.788   9.217  1.00  0.00     0.031 C 
ATOM     22  C   UNL     1       0.141  -1.079   9.119  1.00  0.00    -0.008 C 
ATOM     23  C   UNL     1      -1.869  -2.548   9.643  1.00  0.00    -0.027 C 
ATOM     24  C   UNL     1      -1.274  -1.338   9.678  1.00  0.00    -0.065 C 
ATOM     25  C   UNL     1      -0.030  -0.103   7.909  1.00  0.00     0.014 C 
ATOM     26  C   UNL     1       0.996  -0.376  10.208  1.00  0.00     0.016 C 
ATOM     27  C   UNL     1      -2.124  -0.131  10.027  1.00  0.00     0.063 C 
ATOM     28  C   UNL     1      -0.885   1.145   8.212  1.00  0.00     0.033 C 
ATOM     29  C   UNL     1      -2.262   0.766   8.788  1.00  0.00     0.118 C 
BRANCH  29  30
ATOM     30  O   UNL     1      -3.008   1.918   9.090  1.00  0.00    -0.393 OA
ATOM     31  H   UNL     1      -3.927   1.626   9.332  1.00  0.00     0.210 HD
ENDBRANCH  29  30
ENDBRANCH   9  11
ENDBRANCH   1   9
TORSDOF 7
ENDMDL
MODEL 2
REMARK VINA RESULT:    -5.718      4.635      8.344
REMARK INTER + INTRA:          -9.557
REMARK INTER:                  -7.942
REMARK INTRA:                  -1.616
REMARK UNBOUND:                -1.667
REMARK SMILES CC[C@H](CC[C@H](C)[C@H]1CC[C@H]2[C@H]3CC=C4C[C@@H](O)CC[C@]4(C)[C@H]3CC[C@]12C)C(C)C
REMARK SMILES IDX 5 1 4 2 3 3 2 4 1 5 28 6 29 7 30 8 6 9 7 10 8 11 9 12 26 13
REMARK SMILES IDX 10 14 11 15 25 16 27 17 12 18 24 19 23 20 13 21 21 22 14 23
REMARK SMILES IDX 15 24 20 25 22 26 16 27 19 28 17 29 18 30
REMARK H PARENT 18 31
REMARK Flexibility Score: inf
ROOT
ATOM      1  C   UNL     1      -0.976  -2.699  10.296  1.00  0.00     0.004 C 
ENDROOT
BRANCH   1   2
ATOM      2  C   UNL     1      -2.405  -2.271  10.734  1.00  0.00     0.004 C 
BRANCH   2   3
ATOM      3  C   UNL     1      -3.394  -2.070   9.548  1.00  0.00    -0.009 C 
BRANCH   3   4
ATOM      4  C   UNL     1      -4.392  -3.256   9.442  1.00  0.00     0.000 C 
ATOM      5  C   UNL     1      -5.729  -2.982  10.138  1.00  0.00     0.004 C 
ENDBRANCH   3   4
BRANCH   3   6
ATOM      6  C   UNL     1      -4.124  -0.684   9.640  1.00  0.00    -0.014 C 
ATOM      7  C   UNL     1      -4.328   0.005   8.278  1.00  0.00     0.007 C 
ATOM      8  C   UNL     1      -3.406   0.269  10.609  1.00  0.00     0.007 C 
ENDBRANCH   3   6
ENDBRANCH   2   3
ENDBRANCH   1   2
BRANCH   1   9
ATOM      9  C   UNL     1      -0.596  -2.446   8.803  1.00  0.00    -0.011 C 
ATOM     10  C   UNL     1       0.024  -3.669   8.099  1.00  0.00     0.008 C 
BRANCH   9  11
ATOM     11  C   UNL     1       0.115  -1.100   8.404  1.00  0.00    -0.002 C 
ATOM     12  C   UNL     1      -0.827   0.058   7.995  1.00  0.00     0.005 C 
ATOM     13  C   UNL     1       1.222  -0.389   9.248  1.00  0.00    -0.026 C 
ATOM     14  C   UNL     1       0.055   1.329   7.948  1.00  0.00     0.005 C 
ATOM     15  C   UNL     1       1.452   0.823   8.314  1.00  0.00    -0.001 C 
ATOM     16  C   UNL     1       2.563  -1.150   9.373  1.00  0.00     0.007 C 
ATOM     17  C   UNL     1       0.695   0.039  10.655  1.00  0.00     0.012 C 
ATOM     18  C   UNL     1       2.579   1.808   8.701  1.00  0.00     0.000 C 
ATOM     19  C   UNL     1       3.741  -0.216   9.774  1.00  0.00     0.005 C 
ATOM     20  C   UNL     1       3.912   1.017   8.826  1.00  0.00     0.003 C 
ATOM     21  C   UNL     1       2.338   2.654   9.958  1.00  0.00     0.031 C 
ATOM     22  C   UNL     1       5.146   1.984   9.127  1.00  0.00    -0.008 C 
ATOM     23  C   UNL     1       3.477   3.597  10.168  1.00  0.00    -0.027 C 
ATOM     24  C   UNL     1       4.753   3.277   9.871  1.00  0.00    -0.065 C 
ATOM     25  C   UNL     1       5.750   2.426   7.753  1.00  0.00     0.014 C 
ATOM     26  C   UNL     1       6.244   1.245   9.938  1.00  0.00     0.016 C 
ATOM     27  C   UNL     1       5.816   4.348  10.028  1.00  0.00     0.063 C 
ATOM     28  C   UNL     1       6.839   3.514   7.856  1.00  0.00     0.033 C 
ATOM     29  C   UNL     1       6.344   4.743   8.641  1.00  0.00     0.118 C 
BRANCH  29  30
ATOM     30  O   UNL     1       7.363   5.704   8.754  1.00  0.00    -0.393 OA
ATOM     31  H   UNL     1       7.914   5.468   9.546  1.00  0.00     0.210 HD
ENDBRANCH  29  30
ENDBRANCH   9  11
ENDBRANCH   1   9
TORSDOF 7
ENDMDL
MODEL 3
REMARK VINA RESULT:    -5.706     11.020     15.126
REMARK INTER + INTRA:          -9.540
REMARK INTER:                  -7.824
REMARK INTRA:                  -1.716
REMARK UNBOUND:                -1.667
REMARK SMILES CC[C@H](CC[C@H](C)[C@H]1CC[C@H]2[C@H]3CC=C4C[C@@H](O)CC[C@]4(C)[C@H]3CC[C@]12C)C(C)C
REMARK SMILES IDX 5 1 4 2 3 3 2 4 1 5 28 6 29 7 30 8 6 9 7 10 8 11 9 12 26 13
REMARK SMILES IDX 10 14 11 15 25 16 27 17 12 18 24 19 23 20 13 21 21 22 14 23
REMARK SMILES IDX 15 24 20 25 22 26 16 27 19 28 17 29 18 30
REMARK H PARENT 18 31
REMARK Flexibility Score: inf
ROOT
ATOM      1  C   UNL     1       8.156   3.745  -3.960  1.00  0.00     0.004 C 
ENDROOT
BRANCH   1   2
ATOM      2  C   UNL     1       7.988   5.237  -3.555  1.00  0.00     0.004 C 
BRANCH   2   3
ATOM      3  C   UNL     1       6.651   5.542  -2.817  1.00  0.00    -0.009 C 
BRANCH   3   4
ATOM      4  C   UNL     1       6.908   5.991  -1.352  1.00  0.00     0.000 C 
ATOM      5  C   UNL     1       5.626   6.371  -0.605  1.00  0.00     0.004 C 
ENDBRANCH   3   4
BRANCH   3   6
ATOM      6  C   UNL     1       5.782   6.579  -3.613  1.00  0.00    -0.014 C 
ATOM      7  C   UNL     1       4.541   5.964  -4.288  1.00  0.00     0.007 C 
ATOM      8  C   UNL     1       6.621   7.341  -4.651  1.00  0.00     0.007 C 
ENDBRANCH   3   6
ENDBRANCH   2   3
ENDBRANCH   1   2
BRANCH   1   9
ATOM      9  C   UNL     1       7.540   3.317  -5.329  1.00  0.00    -0.011 C 
ATOM     10  C   UNL     1       7.778   4.328  -6.468  1.00  0.00     0.008 C 
BRANCH   9  11
ATOM     11  C   UNL     1       6.093   2.701  -5.366  1.00  0.00    -0.002 C 
ATOM     12  C   UNL     1       5.187   3.190  -6.522  1.00  0.00     0.005 C 
ATOM     13  C   UNL     1       5.767   1.175  -5.268  1.00  0.00    -0.026 C 
ATOM     14  C   UNL     1       3.962   2.244  -6.533  1.00  0.00     0.005 C 
ATOM     15  C   UNL     1       4.227   1.282  -5.374  1.00  0.00    -0.001 C 
ATOM     16  C   UNL     1       6.102   0.503  -3.915  1.00  0.00     0.007 C 
ATOM     17  C   UNL     1       6.388   0.371  -6.454  1.00  0.00     0.012 C 
ATOM     18  C   UNL     1       3.418  -0.027  -5.224  1.00  0.00     0.000 C 
ATOM     19  C   UNL     1       5.328  -0.830  -3.707  1.00  0.00     0.005 C 
ATOM     20  C   UNL     1       3.778  -0.684  -3.862  1.00  0.00     0.003 C 
ATOM     21  C   UNL     1       3.558  -1.045  -6.363  1.00  0.00     0.031 C 
ATOM     22  C   UNL     1       2.906  -1.992  -3.588  1.00  0.00    -0.008 C 
ATOM     23  C   UNL     1       2.674  -2.222  -6.111  1.00  0.00    -0.027 C 
ATOM     24  C   UNL     1       2.437  -2.705  -4.875  1.00  0.00    -0.065 C 
ATOM     25  C   UNL     1       1.612  -1.553  -2.826  1.00  0.00     0.014 C 
ATOM     26  C   UNL     1       3.685  -3.002  -2.704  1.00  0.00     0.016 C 
ATOM     27  C   UNL     1       1.442  -3.840  -4.727  1.00  0.00     0.063 C 
ATOM     28  C   UNL     1       0.566  -2.672  -2.646  1.00  0.00     0.033 C 
ATOM     29  C   UNL     1       0.196  -3.327  -3.989  1.00  0.00     0.118 C 
BRANCH  29  30
ATOM     30  O   UNL     1      -0.730  -4.367  -3.797  1.00  0.00    -0.393 OA
ATOM     31  H   UNL     1      -1.392  -4.060  -3.122  1.00  0.00     0.210 HD
ENDBRANCH  29  30
ENDBRANCH   9  11
ENDBRANCH   1   9
TORSDOF 7
ENDMDL
MODEL 4
REMARK VINA RESULT:    -5.617      5.482      9.163
REMARK INTER + INTRA:          -9.418
REMARK INTER:                  -7.456
REMARK INTRA:                  -1.963
REMARK UNBOUND:                -1.667
REMARK SMILES CC[C@H](CC[C@H](C)[C@H]1CC[C@H]2[C@H]3CC=C4C[C@@H](O)CC[C@]4(C)[C@H]3CC[C@]12C)C(C)C
REMARK SMILES IDX 5 1 4 2 3 3 2 4 1 5 28 6 29 7 30 8 6 9 7 10 8 11 9 12 26 13
REMARK SMILES IDX 10 14 11 15 25 16 27 17 12 18 24 19 23 20 13 21 21 22 14 23
REMARK SMILES IDX 15 24 20 25 22 26 16 27 19 28 17 29 18 30
REMARK H PARENT 18 31
REMARK Flexibility Score: inf
ROOT
ATOM      1  C   UNL     1      -4.378  -0.840   8.830  1.00  0.00     0.004 C 
ENDROOT
BRANCH   1   2
ATOM      2  C   UNL     1      -4.846   0.182   9.904  1.00  0.00     0.004 C 
BRANCH   2   3
ATOM      3  C   UNL     1      -4.666   1.669   9.479  1.00  0.00    -0.009 C 
BRANCH   3   4
ATOM      4  C   UNL     1      -5.881   2.531   9.923  1.00  0.00     0.000 C 
ATOM      5  C   UNL     1      -6.664   3.117   8.744  1.00  0.00     0.004 C 
ENDBRANCH   3   4
BRANCH   3   6
ATOM      6  C   UNL     1      -3.304   2.251   9.996  1.00  0.00    -0.014 C 
ATOM      7  C   UNL     1      -3.094   2.094  11.515  1.00  0.00     0.007 C 
ATOM      8  C   UNL     1      -3.129   3.724   9.591  1.00  0.00     0.007 C 
ENDBRANCH   3   6
ENDBRANCH   2   3
ENDBRANCH   1   2
BRANCH   1   9
ATOM      9  C   UNL     1      -3.095  -1.666   9.160  1.00  0.00    -0.011 C 
ATOM     10  C   UNL     1      -3.379  -3.025   9.829  1.00  0.00     0.008 C 
BRANCH   9  11
ATOM     11  C   UNL     1      -1.848  -0.938   9.785  1.00  0.00    -0.002 C 
ATOM     12  C   UNL     1      -1.170  -1.671  10.968  1.00  0.00     0.005 C 
ATOM     13  C   UNL     1      -0.642  -0.369   8.969  1.00  0.00    -0.026 C 
ATOM     14  C   UNL     1       0.175  -0.942  11.206  1.00  0.00     0.005 C 
ATOM     15  C   UNL     1       0.180   0.175  10.161  1.00  0.00    -0.001 C 
ATOM     16  C   UNL     1      -0.965   0.821   8.035  1.00  0.00     0.007 C 
ATOM     17  C   UNL     1       0.114  -1.494   8.191  1.00  0.00     0.012 C 
ATOM     18  C   UNL     1       1.478   0.947   9.828  1.00  0.00     0.000 C 
ATOM     19  C   UNL     1       0.303   1.635   7.650  1.00  0.00     0.005 C 
ATOM     20  C   UNL     1       1.126   2.132   8.885  1.00  0.00     0.003 C 
ATOM     21  C   UNL     1       2.628   0.119   9.241  1.00  0.00     0.031 C 
ATOM     22  C   UNL     1       2.402   3.040   8.575  1.00  0.00    -0.008 C 
ATOM     23  C   UNL     1       3.828   0.983   9.032  1.00  0.00    -0.027 C 
ATOM     24  C   UNL     1       3.740   2.276   8.656  1.00  0.00    -0.065 C 
ATOM     25  C   UNL     1       2.463   4.163   9.662  1.00  0.00     0.014 C 
ATOM     26  C   UNL     1       2.281   3.706   7.178  1.00  0.00     0.016 C 
ATOM     27  C   UNL     1       5.019   3.087   8.574  1.00  0.00     0.063 C 
ATOM     28  C   UNL     1       3.744   5.021   9.621  1.00  0.00     0.033 C 
ATOM     29  C   UNL     1       5.014   4.152   9.681  1.00  0.00     0.118 C 
BRANCH  29  30
ATOM     30  O   UNL     1       6.167   4.952   9.605  1.00  0.00    -0.393 OA
ATOM     31  H   UNL     1       6.379   5.085   8.644  1.00  0.00     0.210 HD
ENDBRANCH  29  30
ENDBRANCH   9  11
ENDBRANCH   1   9
TORSDOF 7
ENDMDL
MODEL 5
REMARK VINA RESULT:    -5.545      5.782      8.012
REMARK INTER + INTRA:          -9.318
REMARK INTER:                  -7.394
REMARK INTRA:                  -1.925
REMARK UNBOUND:                -1.667
REMARK SMILES CC[C@H](CC[C@H](C)[C@H]1CC[C@H]2[C@H]3CC=C4C[C@@H](O)CC[C@]4(C)[C@H]3CC[C@]12C)C(C)C
REMARK SMILES IDX 5 1 4 2 3 3 2 4 1 5 28 6 29 7 30 8 6 9 7 10 8 11 9 12 26 13
REMARK SMILES IDX 10 14 11 15 25 16 27 17 12 18 24 19 23 20 13 21 21 22 14 23
REMARK SMILES IDX 15 24 20 25 22 26 16 27 19 28 17 29 18 30
REMARK H PARENT 18 31
REMARK Flexibility Score: inf
ROOT
ATOM      1  C   UNL     1       3.320   2.002  10.298  1.00  0.00     0.004 C 
ENDROOT
BRANCH   1   2
ATOM      2  C   UNL     1       3.102   3.230   9.370  1.00  0.00     0.004 C 
BRANCH   2   3
ATOM      3  C   UNL     1       3.431   2.955   7.873  1.00  0.00    -0.009 C 
BRANCH   3   4
ATOM      4  C   UNL     1       2.519   3.792   6.934  1.00  0.00     0.000 C 
ATOM      5  C   UNL     1       1.097   3.968   7.476  1.00  0.00     0.004 C 
ENDBRANCH   3   4
BRANCH   3   6
ATOM      6  C   UNL     1       4.955   3.174   7.571  1.00  0.00    -0.014 C 
ATOM      7  C   UNL     1       5.799   1.888   7.660  1.00  0.00     0.007 C 
ATOM      8  C   UNL     1       5.558   4.262   8.475  1.00  0.00     0.007 C 
ENDBRANCH   3   6
ENDBRANCH   2   3
ENDBRANCH   1   2
BRANCH   1   9
ATOM      9  C   UNL     1       2.364   0.787  10.088  1.00  0.00    -0.011 C 
ATOM     10  C   UNL     1       3.078  -0.500   9.630  1.00  0.00     0.008 C 
BRANCH   9  11
ATOM     11  C   UNL     1       0.989   1.003   9.355  1.00  0.00    -0.002 C 
ATOM     12  C   UNL     1       0.658  -0.017   8.239  1.00  0.00     0.005 C 
ATOM     13  C   UNL     1      -0.384   1.215  10.074  1.00  0.00    -0.026 C 
ATOM     14  C   UNL     1      -0.833   0.203   7.888  1.00  0.00     0.005 C 
ATOM     15  C   UNL     1      -1.264   1.346   8.809  1.00  0.00    -0.001 C 
ATOM     16  C   UNL     1      -0.521   2.525  10.884  1.00  0.00     0.007 C 
ATOM     17  C   UNL     1      -0.779  -0.020  10.946  1.00  0.00     0.012 C 
ATOM     18  C   UNL     1      -2.760   1.675   9.022  1.00  0.00     0.000 C 
ATOM     19  C   UNL     1      -2.006   2.908  11.146  1.00  0.00     0.005 C 
ATOM     20  C   UNL     1      -2.869   2.991   9.843  1.00  0.00     0.003 C 
ATOM     21  C   UNL     1      -3.613   0.573   9.663  1.00  0.00     0.031 C 
ATOM     22  C   UNL     1      -4.387   3.453  10.020  1.00  0.00    -0.008 C 
ATOM     23  C   UNL     1      -5.038   1.009   9.745  1.00  0.00    -0.027 C 
ATOM     24  C   UNL     1      -5.398   2.287   9.984  1.00  0.00    -0.065 C 
ATOM     25  C   UNL     1      -4.744   4.389   8.819  1.00  0.00     0.014 C 
ATOM     26  C   UNL     1      -4.574   4.246  11.341  1.00  0.00     0.016 C 
ATOM     27  C   UNL     1      -6.873   2.636   9.945  1.00  0.00     0.063 C 
ATOM     28  C   UNL     1      -6.235   4.777   8.733  1.00  0.00     0.033 C 
ATOM     29  C   UNL     1      -7.147   3.537   8.732  1.00  0.00     0.118 C 
BRANCH  29  30
ATOM     30  O   UNL     1      -8.500   3.916   8.690  1.00  0.00    -0.393 OA
ATOM     31  H   UNL     1      -8.927   3.598   9.529  1.00  0.00     0.210 HD
ENDBRANCH  29  30
ENDBRANCH   9  11
ENDBRANCH   1   9
TORSDOF 7
ENDMDL
MODEL 6
REMARK VINA RESULT:    -5.520      2.962      5.858
REMARK INTER + INTRA:          -9.285
REMARK INTER:                  -7.897
REMARK INTRA:                  -1.388
REMARK UNBOUND:                -1.667
REMARK SMILES CC[C@H](CC[C@H](C)[C@H]1CC[C@H]2[C@H]3CC=C4C[C@@H](O)CC[C@]4(C)[C@H]3CC[C@]12C)C(C)C
REMARK SMILES IDX 5 1 4 2 3 3 2 4 1 5 28 6 29 7 30 8 6 9 7 10 8 11 9 12 26 13
REMARK SMILES IDX 10 14 11 15 25 16 27 17 12 18 24 19 23 20 13 21 21 22 14 23
REMARK SMILES IDX 15 24 20 25 22 26 16 27 19 28 17 29 18 30
REMARK H PARENT 18 31
REMARK Flexibility Score: inf
ROOT
ATOM      1  C   UNL     1       1.838  -3.405  10.509  1.00  0.00     0.004 C 
ENDROOT
BRANCH   1   2
ATOM      2  C   UNL     1       1.682  -4.899  10.107  1.00  0.00     0.004 C 
BRANCH   2   3
ATOM      3  C   UNL     1       1.725  -5.146   8.570  1.00  0.00    -0.009 C 
BRANCH   3   4
ATOM      4  C   UNL     1       2.938  -6.033   8.177  1.00  0.00     0.000 C 
ATOM      5  C   UNL     1       4.213  -5.688   8.954  1.00  0.00     0.004 C 
ENDBRANCH   3   4
BRANCH   3   6
ATOM      6  C   UNL     1       0.366  -5.731   8.046  1.00  0.00    -0.014 C 
ATOM      7  C   UNL     1       0.041  -5.344   6.591  1.00  0.00     0.007 C 
ATOM      8  C   UNL     1      -0.805  -5.348   8.965  1.00  0.00     0.007 C 
ENDBRANCH   3   6
ENDBRANCH   2   3
ENDBRANCH   1   2
BRANCH   1   9
ATOM      9  C   UNL     1       2.447  -2.451   9.434  1.00  0.00    -0.011 C 
ATOM     10  C   UNL     1       3.823  -1.873   9.817  1.00  0.00     0.008 C 
BRANCH   9  11
ATOM     11  C   UNL     1       1.524  -1.386   8.734  1.00  0.00    -0.002 C 
ATOM     12  C   UNL     1       0.086  -1.859   8.408  1.00  0.00     0.005 C 
ATOM     13  C   UNL     1       1.321   0.084   9.226  1.00  0.00    -0.026 C 
ATOM     14  C   UNL     1      -0.704  -0.585   8.020  1.00  0.00     0.005 C 
ATOM     15  C   UNL     1       0.329   0.538   8.129  1.00  0.00    -0.001 C 
ATOM     16  C   UNL     1       2.567   0.997   9.143  1.00  0.00     0.007 C 
ATOM     17  C   UNL     1       0.690   0.137  10.654  1.00  0.00     0.012 C 
ATOM     18  C   UNL     1      -0.106   2.021   8.142  1.00  0.00     0.000 C 
ATOM     19  C   UNL     1       2.199   2.508   9.165  1.00  0.00     0.005 C 
ATOM     20  C   UNL     1       1.164   2.915   8.065  1.00  0.00     0.003 C 
ATOM     21  C   UNL     1      -0.996   2.457   9.313  1.00  0.00     0.031 C 
ATOM     22  C   UNL     1       0.791   4.464   7.972  1.00  0.00    -0.008 C 
ATOM     23  C   UNL     1      -1.386   3.890   9.156  1.00  0.00    -0.027 C 
ATOM     24  C   UNL     1      -0.561   4.817   8.628  1.00  0.00    -0.065 C 
ATOM     25  C   UNL     1       0.662   4.834   6.458  1.00  0.00     0.014 C 
ATOM     26  C   UNL     1       1.906   5.341   8.605  1.00  0.00     0.016 C 
ATOM     27  C   UNL     1      -1.097   6.220   8.421  1.00  0.00     0.063 C 
ATOM     28  C   UNL     1       0.122   6.255   6.192  1.00  0.00     0.033 C 
ATOM     29  C   UNL     1      -1.214   6.501   6.916  1.00  0.00     0.118 C 
BRANCH  29  30
ATOM     30  O   UNL     1      -1.668   7.811   6.689  1.00  0.00    -0.393 OA
ATOM     31  H   UNL     1      -2.266   7.790   5.896  1.00  0.00     0.210 HD
ENDBRANCH  29  30
ENDBRANCH   9  11
ENDBRANCH   1   9
TORSDOF 7
ENDMDL
MODEL 7
REMARK VINA RESULT:    -5.516      3.593      8.536
REMARK INTER + INTRA:          -9.279
REMARK INTER:                  -7.251
REMARK INTRA:                  -2.028
REMARK UNBOUND:                -1.667
REMARK SMILES CC[C@H](CC[C@H](C)[C@H]1CC[C@H]2[C@H]3CC=C4C[C@@H](O)CC[C@]4(C)[C@H]3CC[C@]12C)C(C)C
REMARK SMILES IDX 5 1 4 2 3 3 2 4 1 5 28 6 29 7 30 8 6 9 7 10 8 11 9 12 26 13
REMARK SMILES IDX 10 14 11 15 25 16 27 17 12 18 24 19 23 20 13 21 21 22 14 23
REMARK SMILES IDX 15 24 20 25 22 26 16 27 19 28 17 29 18 30
REMARK H PARENT 18 31
REMARK Flexibility Score: inf
ROOT
ATOM      1  C   UNL     1       0.047   3.462  10.252  1.00  0.00     0.004 C 
ENDROOT
BRANCH   1   2
ATOM      2  C   UNL     1       1.105   4.162   9.354  1.00  0.00     0.004 C 
BRANCH   2   3
ATOM      3  C   UNL     1       1.246   3.533   7.937  1.00  0.00    -0.009 C 
BRANCH   3   4
ATOM      4  C   UNL     1       0.674   4.476   6.843  1.00  0.00     0.000 C 
ATOM      5  C   UNL     1       0.076   5.766   7.413  1.00  0.00     0.004 C 
ENDBRANCH   3   4
BRANCH   3   6
ATOM      6  C   UNL     1       2.729   3.111   7.643  1.00  0.00    -0.014 C 
ATOM      7  C   UNL     1       3.585   2.918   8.909  1.00  0.00     0.007 C 
ATOM      8  C   UNL     1       3.418   4.099   6.688  1.00  0.00     0.007 C 
ENDBRANCH   3   6
ENDBRANCH   2   3
ENDBRANCH   1   2
BRANCH   1   9
ATOM      9  C   UNL     1      -1.044   2.619   9.521  1.00  0.00    -0.011 C 
ATOM     10  C   UNL     1      -2.447   3.258   9.538  1.00  0.00     0.008 C 
BRANCH   9  11
ATOM     11  C   UNL     1      -1.093   1.061   9.740  1.00  0.00    -0.002 C 
ATOM     12  C   UNL     1      -2.468   0.394   9.492  1.00  0.00     0.005 C 
ATOM     13  C   UNL     1      -0.077   0.040   9.132  1.00  0.00    -0.026 C 
ATOM     14  C   UNL     1      -2.203  -1.131   9.467  1.00  0.00     0.005 C 
ATOM     15  C   UNL     1      -0.699  -1.249   9.719  1.00  0.00    -0.001 C 
ATOM     16  C   UNL     1       1.374   0.146   9.655  1.00  0.00     0.007 C 
ATOM     17  C   UNL     1      -0.105   0.053   7.570  1.00  0.00     0.012 C 
ATOM     18  C   UNL     1       0.051  -2.576   9.456  1.00  0.00     0.000 C 
ATOM     19  C   UNL     1       2.191  -1.155   9.410  1.00  0.00     0.005 C 
ATOM     20  C   UNL     1       1.507  -2.440   9.985  1.00  0.00     0.003 C 
ATOM     21  C   UNL     1       0.053  -3.078   8.007  1.00  0.00     0.031 C 
ATOM     22  C   UNL     1       2.318  -3.807   9.841  1.00  0.00    -0.008 C 
ATOM     23  C   UNL     1       0.755  -4.393   7.921  1.00  0.00    -0.027 C 
ATOM     24  C   UNL     1       1.823  -4.702   8.684  1.00  0.00    -0.065 C 
ATOM     25  C   UNL     1       2.111  -4.626  11.157  1.00  0.00     0.014 C 
ATOM     26  C   UNL     1       3.835  -3.534   9.658  1.00  0.00     0.016 C 
ATOM     27  C   UNL     1       2.394  -6.103   8.586  1.00  0.00     0.063 C 
ATOM     28  C   UNL     1       2.676  -6.060  11.112  1.00  0.00     0.033 C 
ATOM     29  C   UNL     1       2.135  -6.848   9.905  1.00  0.00     0.118 C 
BRANCH  29  30
ATOM     30  O   UNL     1       2.691  -8.138   9.864  1.00  0.00    -0.393 OA
ATOM     31  H   UNL     1       3.301  -8.178   9.080  1.00  0.00     0.210 HD
ENDBRANCH  29  30
ENDBRANCH   9  11
ENDBRANCH   1   9
TORSDOF 7
ENDMDL
MODEL 8
REMARK VINA RESULT:    -5.495      4.739      7.688
REMARK INTER + INTRA:          -9.250
REMARK INTER:                  -7.328
REMARK INTRA:                  -1.922
REMARK UNBOUND:                -1.667
REMARK SMILES CC[C@H](CC[C@H](C)[C@H]1CC[C@H]2[C@H]3CC=C4C[C@@H](O)CC[C@]4(C)[C@H]3CC[C@]12C)C(C)C
REMARK SMILES IDX 5 1 4 2 3 3 2 4 1 5 28 6 29 7 30 8 6 9 7 10 8 11 9 12 26 13
REMARK SMILES IDX 10 14 11 15 25 16 27 17 12 18 24 19 23 20 13 21 21 22 14 23
REMARK SMILES IDX 15 24 20 25 22 26 16 27 19 28 17 29 18 30
REMARK H PARENT 18 31
REMARK Flexibility Score: inf
ROOT
ATOM      1  C   UNL     1       4.655   1.504   8.522  1.00  0.00     0.004 C 
ENDROOT
BRANCH   1   2
ATOM      2  C   UNL     1       4.505   0.654   9.815  1.00  0.00     0.004 C 
BRANCH   2   3
ATOM      3  C   UNL     1       4.042  -0.810   9.557  1.00  0.00    -0.009 C 
BRANCH   3   4
ATOM      4  C   UNL     1       4.773  -1.805  10.500  1.00  0.00     0.000 C 
ATOM      5  C   UNL     1       5.580  -1.110  11.600  1.00  0.00     0.004 C 
ENDBRANCH   3   4
BRANCH   3   6
ATOM      6  C   UNL     1       2.481  -0.942   9.648  1.00  0.00    -0.014 C 
ATOM      7  C   UNL     1       1.913  -0.663  11.052  1.00  0.00     0.007 C 
ATOM      8  C   UNL     1       2.000  -2.315   9.150  1.00  0.00     0.007 C 
ENDBRANCH   3   6
ENDBRANCH   2   3
ENDBRANCH   1   2
BRANCH   1   9
ATOM      9  C   UNL     1       3.475   2.463   8.173  1.00  0.00    -0.011 C 
ATOM     10  C   UNL     1       3.920   3.866   7.716  1.00  0.00     0.008 C 
BRANCH   9  11
ATOM     11  C   UNL     1       2.213   2.510   9.112  1.00  0.00    -0.002 C 
ATOM     12  C   UNL     1       2.198   3.656  10.154  1.00  0.00     0.005 C 
ATOM     13  C   UNL     1       0.730   2.443   8.623  1.00  0.00    -0.026 C 
ATOM     14  C   UNL     1       0.763   3.685  10.734  1.00  0.00     0.005 C 
ATOM     15  C   UNL     1       0.048   2.545  10.007  1.00  0.00    -0.001 C 
ATOM     16  C   UNL     1       0.297   1.104   7.980  1.00  0.00     0.007 C 
ATOM     17  C   UNL     1       0.370   3.646   7.694  1.00  0.00     0.012 C 
ATOM     18  C   UNL     1      -1.494   2.421  10.044  1.00  0.00     0.000 C 
ATOM     19  C   UNL     1      -1.248   0.922   7.973  1.00  0.00     0.005 C 
ATOM     20  C   UNL     1      -1.902   1.072   9.387  1.00  0.00     0.003 C 
ATOM     21  C   UNL     1      -2.282   3.580   9.422  1.00  0.00     0.031 C 
ATOM     22  C   UNL     1      -3.476   0.824   9.477  1.00  0.00    -0.008 C 
ATOM     23  C   UNL     1      -3.748   3.351   9.589  1.00  0.00    -0.027 C 
ATOM     24  C   UNL     1      -4.306   2.124   9.536  1.00  0.00    -0.065 C 
ATOM     25  C   UNL     1      -3.762   0.052  10.807  1.00  0.00     0.014 C 
ATOM     26  C   UNL     1      -3.969  -0.039   8.285  1.00  0.00     0.016 C 
ATOM     27  C   UNL     1      -5.790   1.998   9.821  1.00  0.00     0.063 C 
ATOM     28  C   UNL     1      -5.259  -0.107  11.143  1.00  0.00     0.033 C 
ATOM     29  C   UNL     1      -5.989   1.249  11.148  1.00  0.00     0.118 C 
BRANCH  29  30
ATOM     30  O   UNL     1      -7.356   1.076  11.420  1.00  0.00    -0.393 OA
ATOM     31  H   UNL     1      -7.693   1.920  11.822  1.00  0.00     0.210 HD
ENDBRANCH  29  30
ENDBRANCH   9  11
ENDBRANCH   1   9
TORSDOF 7
ENDMDL
MODEL 9
REMARK VINA RESULT:    -5.416      4.022      7.973
REMARK INTER + INTRA:          -9.141
REMARK INTER:                  -6.892
REMARK INTRA:                  -2.249
REMARK UNBOUND:                -1.667
REMARK SMILES CC[C@H](CC[C@H](C)[C@H]1CC[C@H]2[C@H]3CC=C4C[C@@H](O)CC[C@]4(C)[C@H]3CC[C@]12C)C(C)C
REMARK SMILES IDX 5 1 4 2 3 3 2 4 1 5 28 6 29 7 30 8 6 9 7 10 8 11 9 12 26 13
REMARK SMILES IDX 10 14 11 15 25 16 27 17 12 18 24 19 23 20 13 21 21 22 14 23
REMARK SMILES IDX 15 24 20 25 22 26 16 27 19 28 17 29 18 30
REMARK H PARENT 18 31
REMARK Flexibility Score: inf
ROOT
ATOM      1  C   UNL     1       1.165   3.681   7.886  1.00  0.00     0.004 C 
ENDROOT
BRANCH   1   2
ATOM      2  C   UNL     1       2.424   3.468   8.773  1.00  0.00     0.004 C 
BRANCH   2   3
ATOM      3  C   UNL     1       3.255   2.207   8.395  1.00  0.00    -0.009 C 
BRANCH   3   4
ATOM      4  C   UNL     1       4.532   2.593   7.598  1.00  0.00     0.000 C 
ATOM      5  C   UNL     1       5.776   1.818   8.043  1.00  0.00     0.004 C 
ENDBRANCH   3   4
BRANCH   3   6
ATOM      6  C   UNL     1       3.583   1.337   9.659  1.00  0.00    -0.014 C 
ATOM      7  C   UNL     1       3.108  -0.124   9.551  1.00  0.00     0.007 C 
ATOM      8  C   UNL     1       3.028   1.976  10.943  1.00  0.00     0.007 C 
ENDBRANCH   3   6
ENDBRANCH   2   3
ENDBRANCH   1   2
BRANCH   1   9
ATOM      9  C   UNL     1      -0.204   3.243   8.495  1.00  0.00    -0.011 C 
ATOM     10  C   UNL     1      -1.022   4.401   9.098  1.00  0.00     0.008 C 
BRANCH   9  11
ATOM     11  C   UNL     1      -0.277   1.938   9.372  1.00  0.00    -0.002 C 
ATOM     12  C   UNL     1      -1.016   2.081  10.724  1.00  0.00     0.005 C 
ATOM     13  C   UNL     1      -0.735   0.536   8.852  1.00  0.00    -0.026 C 
ATOM     14  C   UNL     1      -1.225   0.640  11.250  1.00  0.00     0.005 C 
ATOM     15  C   UNL     1      -0.578  -0.241  10.181  1.00  0.00    -0.001 C 
ATOM     16  C   UNL     1       0.191  -0.126   7.805  1.00  0.00     0.007 C 
ATOM     17  C   UNL     1      -2.213   0.558   8.349  1.00  0.00     0.012 C 
ATOM     18  C   UNL     1      -0.838  -1.765  10.140  1.00  0.00     0.000 C 
ATOM     19  C   UNL     1      -0.029  -1.663   7.705  1.00  0.00     0.005 C 
ATOM     20  C   UNL     1       0.099  -2.404   9.077  1.00  0.00     0.003 C 
ATOM     21  C   UNL     1      -2.290  -2.199   9.904  1.00  0.00     0.031 C 
ATOM     22  C   UNL     1      -0.039  -3.994   9.047  1.00  0.00    -0.008 C 
ATOM     23  C   UNL     1      -2.396  -3.688   9.955  1.00  0.00    -0.027 C 
ATOM     24  C   UNL     1      -1.423  -4.504   9.500  1.00  0.00    -0.065 C 
ATOM     25  C   UNL     1       1.004  -4.582  10.052  1.00  0.00     0.014 C 
ATOM     26  C   UNL     1       0.268  -4.549   7.630  1.00  0.00     0.016 C 
ATOM     27  C   UNL     1      -1.592  -5.999   9.695  1.00  0.00     0.063 C 
ATOM     28  C   UNL     1       0.878  -6.102  10.286  1.00  0.00     0.033 C 
ATOM     29  C   UNL     1      -0.549  -6.497  10.707  1.00  0.00     0.118 C 
BRANCH  29  30
ATOM     30  O   UNL     1      -0.650  -7.888  10.879  1.00  0.00    -0.393 OA
ATOM     31  H   UNL     1      -1.541  -8.080  11.273  1.00  0.00     0.210 HD
ENDBRANCH  29  30
ENDBRANCH   9  11
ENDBRANCH   1   9
TORSDOF 7
ENDMDL
