MODEL 1
REMARK VINA RESULT:    -5.487      0.000      0.000
REMARK INTER + INTRA:         -12.302
REMARK INTER:                 -10.619
REMARK INTRA:                  -1.684
REMARK UNBOUND:                -1.684
REMARK SMILES CCCCCCCCCCCCCCCCCC(=O)[O-]
REMARK SMILES IDX 10 1 11 2 12 3 13 4 14 5 15 6 16 7 17 8 18 9 19 10 20 11
REMARK SMILES IDX 9 12 8 13 7 14 6 15 5 16 4 17 3 18 2 19 1 20
REMARK H PARENT
REMARK Flexibility Score: inf
ROOT
ATOM      1  C   UNL     1       8.855  21.428  -5.916  1.00  0.00     0.000 C 
ENDROOT
BRANCH   1   2
ATOM      2  C   UNL     1       9.254  22.435  -7.006  1.00  0.00     0.000 C 
BRANCH   2   3
ATOM      3  C   UNL     1       9.188  21.838  -8.420  1.00  0.00     0.000 C 
BRANCH   3   4
ATOM      4  C   UNL     1       9.505  22.903  -9.480  1.00  0.00     0.000 C 
BRANCH   4   5
ATOM      5  C   UNL     1      11.013  23.046  -9.746  1.00  0.00     0.000 C 
BRANCH   5   6
ATOM      6  C   UNL     1      11.576  24.387  -9.247  1.00  0.00     0.000 C 
BRANCH   6   7
ATOM      7  C   UNL     1      12.793  24.221  -8.317  1.00  0.00     0.006 C 
BRANCH   7   8
ATOM      8  C   UNL     1      12.792  22.907  -7.515  1.00  0.00     0.053 C 
BRANCH   8   9
ATOM      9  C   UNL     1      14.060  22.704  -6.742  1.00  0.00     0.041 C 
ATOM     10  O   UNL     1      14.109  22.996  -5.519  1.00  0.00    -0.550 OA
ATOM     11  O   UNL     1      15.197  22.224  -7.380  1.00  0.00    -0.550 OA
ENDBRANCH   8   9
ENDBRANCH   7   8
ENDBRANCH   6   7
ENDBRANCH   5   6
ENDBRANCH   4   5
ENDBRANCH   3   4
ENDBRANCH   2   3
ENDBRANCH   1   2
BRANCH   1  12
ATOM     12  C   UNL     1       7.792  21.986  -4.952  1.00  0.00     0.000 C 
BRANCH  12  13
ATOM     13  C   UNL     1       7.206  23.326  -5.444  1.00  0.00    -0.000 C 
BRANCH  13  14
ATOM     14  C   UNL     1       5.790  23.199  -6.031  1.00  0.00    -0.000 C 
BRANCH  14  15
ATOM     15  C   UNL     1       5.733  23.531  -7.530  1.00  0.00    -0.000 C 
BRANCH  15  16
ATOM     16  C   UNL     1       4.651  22.733  -8.278  1.00  0.00    -0.000 C 
BRANCH  16  17
ATOM     17  C   UNL     1       5.060  22.333  -9.711  1.00  0.00    -0.000 C 
BRANCH  17  18
ATOM     18  C   UNL     1       5.798  23.468 -10.443  1.00  0.00    -0.000 C 
BRANCH  18  19
ATOM     19  C   UNL     1       4.846  24.558 -10.957  1.00  0.00    -0.003 C 
ATOM     20  C   UNL     1       4.416  24.332 -12.406  1.00  0.00     0.004 C 
ENDBRANCH  18  19
ENDBRANCH  17  18
ENDBRANCH  16  17
ENDBRANCH  15  16
ENDBRANCH  14  15
ENDBRANCH  13  14
ENDBRANCH  12  13
ENDBRANCH   1  12
TORSDOF 16
ENDMDL
MODEL 2
REMARK VINA RESULT:    -5.397      2.851      5.573
REMARK INTER + INTRA:         -12.130
REMARK INTER:                 -10.035
REMARK INTRA:                  -2.095
REMARK UNBOUND:                -1.684
REMARK SMILES CCCCCCCCCCCCCCCCCC(=O)[O-]
REMARK SMILES IDX 10 1 11 2 12 3 13 4 14 5 15 6 16 7 17 8 18 9 19 10 20 11
REMARK SMILES IDX 9 12 8 13 7 14 6 15 5 16 4 17 3 18 2 19 1 20
REMARK H PARENT
REMARK Flexibility Score: inf
ROOT
ATOM      1  C   UNL     1      13.292  22.423  -7.079  1.00  0.00     0.000 C 
ENDROOT
BRANCH   1   2
ATOM      2  C   UNL     1      11.782  22.190  -6.909  1.00  0.00     0.000 C 
BRANCH   2   3
ATOM      3  C   UNL     1      11.328  20.828  -7.455  1.00  0.00     0.000 C 
BRANCH   3   4
ATOM      4  C   UNL     1       9.875  20.535  -7.052  1.00  0.00     0.000 C 
BRANCH   4   5
ATOM      5  C   UNL     1       9.136  21.784  -6.543  1.00  0.00     0.000 C 
BRANCH   5   6
ATOM      6  C   UNL     1       8.610  21.615  -5.108  1.00  0.00     0.000 C 
BRANCH   6   7
ATOM      7  C   UNL     1       7.460  22.582  -4.771  1.00  0.00     0.006 C 
BRANCH   7   8
ATOM      8  C   UNL     1       6.654  23.048  -5.996  1.00  0.00     0.053 C 
BRANCH   8   9
ATOM      9  C   UNL     1       6.660  24.538  -6.158  1.00  0.00     0.041 C 
ATOM     10  O   UNL     1       6.973  25.053  -7.263  1.00  0.00    -0.550 OA
ATOM     11  O   UNL     1       6.355  25.359  -5.079  1.00  0.00    -0.550 OA
ENDBRANCH   8   9
ENDBRANCH   7   8
ENDBRANCH   6   7
ENDBRANCH   5   6
ENDBRANCH   4   5
ENDBRANCH   3   4
ENDBRANCH   2   3
ENDBRANCH   1   2
BRANCH   1  12
ATOM     12  C   UNL     1      13.610  23.686  -7.900  1.00  0.00     0.000 C 
BRANCH  12  13
ATOM     13  C   UNL     1      12.336  24.468  -8.282  1.00  0.00    -0.000 C 
BRANCH  13  14
ATOM     14  C   UNL     1      12.109  24.570  -9.799  1.00  0.00    -0.000 C 
BRANCH  14  15
ATOM     15  C   UNL     1      11.128  23.511 -10.329  1.00  0.00    -0.000 C 
BRANCH  15  16
ATOM     16  C   UNL     1       9.791  23.503  -9.569  1.00  0.00    -0.000 C 
BRANCH  16  17
ATOM     17  C   UNL     1       8.785  22.462 -10.103  1.00  0.00    -0.000 C 
BRANCH  17  18
ATOM     18  C   UNL     1       7.377  22.658  -9.515  1.00  0.00    -0.000 C 
BRANCH  18  19
ATOM     19  C   UNL     1       6.303  22.834 -10.598  1.00  0.00    -0.003 C 
ATOM     20  C   UNL     1       5.216  23.831 -10.197  1.00  0.00     0.004 C 
ENDBRANCH  18  19
ENDBRANCH  17  18
ENDBRANCH  16  17
ENDBRANCH  15  16
ENDBRANCH  14  15
ENDBRANCH  13  14
ENDBRANCH  12  13
ENDBRANCH   1  12
TORSDOF 16
ENDMDL
MODEL 3
REMARK VINA RESULT:    -5.369      2.722      6.552
REMARK INTER + INTRA:         -12.074
REMARK INTER:                 -10.298
REMARK INTRA:                  -1.777
REMARK UNBOUND:                -1.684
REMARK SMILES CCCCCCCCCCCCCCCCCC(=O)[O-]
REMARK SMILES IDX 10 1 11 2 12 3 13 4 14 5 15 6 16 7 17 8 18 9 19 10 20 11
REMARK SMILES IDX 9 12 8 13 7 14 6 15 5 16 4 17 3 18 2 19 1 20
REMARK H PARENT
REMARK Flexibility Score: inf
ROOT
ATOM      1  C   UNL     1       8.744  22.607  -8.765  1.00  0.00     0.000 C 
ENDROOT
BRANCH   1   2
ATOM      2  C   UNL     1       7.870  22.059  -9.905  1.00  0.00     0.000 C 
BRANCH   2   3
ATOM      3  C   UNL     1       6.804  23.063 -10.370  1.00  0.00     0.000 C 
BRANCH   3   4
ATOM      4  C   UNL     1       5.401  22.440 -10.307  1.00  0.00     0.000 C 
BRANCH   4   5
ATOM      5  C   UNL     1       4.451  23.208  -9.373  1.00  0.00     0.000 C 
BRANCH   5   6
ATOM      6  C   UNL     1       4.053  22.391  -8.133  1.00  0.00     0.000 C 
BRANCH   6   7
ATOM      7  C   UNL     1       4.693  22.918  -6.835  1.00  0.00     0.006 C 
BRANCH   7   8
ATOM      8  C   UNL     1       5.964  23.756  -7.058  1.00  0.00     0.053 C 
BRANCH   8   9
ATOM      9  C   UNL     1       6.631  24.145  -5.774  1.00  0.00     0.041 C 
ATOM     10  O   UNL     1       6.582  25.336  -5.371  1.00  0.00    -0.550 OA
ATOM     11  O   UNL     1       7.337  23.200  -5.040  1.00  0.00    -0.550 OA
ENDBRANCH   8   9
ENDBRANCH   7   8
ENDBRANCH   6   7
ENDBRANCH   5   6
ENDBRANCH   4   5
ENDBRANCH   3   4
ENDBRANCH   2   3
ENDBRANCH   1   2
BRANCH   1  12
ATOM     12  C   UNL     1       9.780  21.583  -8.267  1.00  0.00     0.000 C 
BRANCH  12  13
ATOM     13  C   UNL     1       9.845  21.522  -6.726  1.00  0.00    -0.000 C 
BRANCH  13  14
ATOM     14  C   UNL     1      11.250  21.783  -6.159  1.00  0.00    -0.000 C 
BRANCH  14  15
ATOM     15  C   UNL     1      12.316  21.942  -7.254  1.00  0.00    -0.000 C 
BRANCH  15  16
ATOM     16  C   UNL     1      13.286  23.104  -6.980  1.00  0.00    -0.000 C 
BRANCH  16  17
ATOM     17  C   UNL     1      13.362  24.129  -8.130  1.00  0.00    -0.000 C 
BRANCH  17  18
ATOM     18  C   UNL     1      11.969  24.620  -8.564  1.00  0.00    -0.000 C 
BRANCH  18  19
ATOM     19  C   UNL     1      11.884  24.900 -10.072  1.00  0.00    -0.003 C 
ATOM     20  C   UNL     1      11.296  23.728 -10.858  1.00  0.00     0.004 C 
ENDBRANCH  18  19
ENDBRANCH  17  18
ENDBRANCH  16  17
ENDBRANCH  15  16
ENDBRANCH  14  15
ENDBRANCH  13  14
ENDBRANCH  12  13
ENDBRANCH   1  12
TORSDOF 16
ENDMDL
MODEL 4
REMARK VINA RESULT:    -5.293      1.198      4.004
REMARK INTER + INTRA:         -11.927
REMARK INTER:                  -9.901
REMARK INTRA:                  -2.026
REMARK UNBOUND:                -1.684
REMARK SMILES CCCCCCCCCCCCCCCCCC(=O)[O-]
REMARK SMILES IDX 10 1 11 2 12 3 13 4 14 5 15 6 16 7 17 8 18 9 19 10 20 11
REMARK SMILES IDX 9 12 8 13 7 14 6 15 5 16 4 17 3 18 2 19 1 20
REMARK H PARENT
REMARK Flexibility Score: inf
ROOT
ATOM      1  C   UNL     1       5.246  22.395  -9.803  1.00  0.00     0.000 C 
ENDROOT
BRANCH   1   2
ATOM      2  C   UNL     1       6.501  23.220 -10.131  1.00  0.00     0.000 C 
BRANCH   2   3
ATOM      3  C   UNL     1       7.791  22.388 -10.066  1.00  0.00     0.000 C 
BRANCH   3   4
ATOM      4  C   UNL     1       8.946  23.214  -9.480  1.00  0.00     0.000 C 
BRANCH   4   5
ATOM      5  C   UNL     1      10.306  22.860 -10.105  1.00  0.00     0.000 C 
BRANCH   5   6
ATOM      6  C   UNL     1      11.414  23.849  -9.707  1.00  0.00     0.000 C 
BRANCH   6   7
ATOM      7  C   UNL     1      11.782  23.771  -8.214  1.00  0.00     0.006 C 
BRANCH   7   8
ATOM      8  C   UNL     1      13.273  24.019  -7.922  1.00  0.00     0.053 C 
BRANCH   8   9
ATOM      9  C   UNL     1      13.874  22.959  -7.049  1.00  0.00     0.041 C 
ATOM     10  O   UNL     1      13.427  22.769  -5.888  1.00  0.00    -0.550 OA
ATOM     11  O   UNL     1      14.949  22.206  -7.504  1.00  0.00    -0.550 OA
ENDBRANCH   8   9
ENDBRANCH   7   8
ENDBRANCH   6   7
ENDBRANCH   5   6
ENDBRANCH   4   5
ENDBRANCH   3   4
ENDBRANCH   2   3
ENDBRANCH   1   2
BRANCH   1  12
ATOM     12  C   UNL     1       4.526  22.889  -8.535  1.00  0.00     0.000 C 
BRANCH  12  13
ATOM     13  C   UNL     1       5.355  22.637  -7.258  1.00  0.00    -0.000 C 
BRANCH  13  14
ATOM     14  C   UNL     1       6.066  23.893  -6.728  1.00  0.00    -0.000 C 
BRANCH  14  15
ATOM     15  C   UNL     1       7.514  23.621  -6.294  1.00  0.00    -0.000 C 
BRANCH  15  16
ATOM     16  C   UNL     1       7.609  22.665  -5.093  1.00  0.00    -0.000 C 
BRANCH  16  17
ATOM     17  C   UNL     1       8.489  21.426  -5.360  1.00  0.00    -0.000 C 
BRANCH  17  18
ATOM     18  C   UNL     1       9.431  21.629  -6.560  1.00  0.00    -0.000 C 
BRANCH  18  19
ATOM     19  C   UNL     1       9.866  20.302  -7.200  1.00  0.00    -0.003 C 
ATOM     20  C   UNL     1      11.327  20.316  -7.652  1.00  0.00     0.004 C 
ENDBRANCH  18  19
ENDBRANCH  17  18
ENDBRANCH  16  17
ENDBRANCH  15  16
ENDBRANCH  14  15
ENDBRANCH  13  14
ENDBRANCH  12  13
ENDBRANCH   1  12
TORSDOF 16
ENDMDL
MODEL 5
REMARK VINA RESULT:    -5.279      1.742      3.007
REMARK INTER + INTRA:         -11.901
REMARK INTER:                 -10.703
REMARK INTRA:                  -1.198
REMARK UNBOUND:                -1.684
REMARK SMILES CCCCCCCCCCCCCCCCCC(=O)[O-]
REMARK SMILES IDX 10 1 11 2 12 3 13 4 14 5 15 6 16 7 17 8 18 9 19 10 20 11
REMARK SMILES IDX 9 12 8 13 7 14 6 15 5 16 4 17 3 18 2 19 1 20
REMARK H PARENT
REMARK Flexibility Score: inf
ROOT
ATOM      1  C   UNL     1       8.205  22.848  -7.810  1.00  0.00     0.000 C 
ENDROOT
BRANCH   1   2
ATOM      2  C   UNL     1       9.522  22.277  -8.359  1.00  0.00     0.000 C 
BRANCH   2   3
ATOM      3  C   UNL     1       9.906  22.874  -9.721  1.00  0.00     0.000 C 
BRANCH   3   4
ATOM      4  C   UNL     1      11.265  23.585  -9.645  1.00  0.00     0.000 C 
BRANCH   4   5
ATOM      5  C   UNL     1      11.941  23.427  -8.272  1.00  0.00     0.000 C 
BRANCH   5   6
ATOM      6  C   UNL     1      13.120  24.396  -8.079  1.00  0.00     0.000 C 
BRANCH   6   7
ATOM      7  C   UNL     1      14.283  23.777  -7.282  1.00  0.00     0.006 C 
BRANCH   7   8
ATOM      8  C   UNL     1      13.870  22.597  -6.386  1.00  0.00     0.053 C 
BRANCH   8   9
ATOM      9  C   UNL     1      14.313  22.770  -4.964  1.00  0.00     0.041 C 
ATOM     10  O   UNL     1      15.538  22.859  -4.690  1.00  0.00    -0.550 OA
ATOM     11  O   UNL     1      13.375  22.798  -3.939  1.00  0.00    -0.550 OA
ENDBRANCH   8   9
ENDBRANCH   7   8
ENDBRANCH   6   7
ENDBRANCH   5   6
ENDBRANCH   4   5
ENDBRANCH   3   4
ENDBRANCH   2   3
ENDBRANCH   1   2
BRANCH   1  12
ATOM     12  C   UNL     1       7.913  24.269  -8.327  1.00  0.00     0.000 C 
BRANCH  12  13
ATOM     13  C   UNL     1       6.516  24.378  -8.975  1.00  0.00    -0.000 C 
BRANCH  13  14
ATOM     14  C   UNL     1       6.059  23.085  -9.671  1.00  0.00    -0.000 C 
BRANCH  14  15
ATOM     15  C   UNL     1       5.295  23.349 -10.978  1.00  0.00    -0.000 C 
BRANCH  15  16
ATOM     16  C   UNL     1       4.716  24.772 -11.055  1.00  0.00    -0.000 C 
BRANCH  16  17
ATOM     17  C   UNL     1       4.032  25.088 -12.401  1.00  0.00    -0.000 C 
BRANCH  17  18
ATOM     18  C   UNL     1       4.281  26.537 -12.855  1.00  0.00    -0.000 C 
BRANCH  18  19
ATOM     19  C   UNL     1       4.633  27.469 -11.686  1.00  0.00    -0.003 C 
ATOM     20  C   UNL     1       4.107  28.891 -11.886  1.00  0.00     0.004 C 
ENDBRANCH  18  19
ENDBRANCH  17  18
ENDBRANCH  16  17
ENDBRANCH  15  16
ENDBRANCH  14  15
ENDBRANCH  13  14
ENDBRANCH  12  13
ENDBRANCH   1  12
TORSDOF 16
ENDMDL
MODEL 6
REMARK VINA RESULT:    -5.270      2.515      4.094
REMARK INTER + INTRA:         -11.884
REMARK INTER:                 -10.049
REMARK INTRA:                  -1.834
REMARK UNBOUND:                -1.684
REMARK SMILES CCCCCCCCCCCCCCCCCC(=O)[O-]
REMARK SMILES IDX 10 1 11 2 12 3 13 4 14 5 15 6 16 7 17 8 18 9 19 10 20 11
REMARK SMILES IDX 9 12 8 13 7 14 6 15 5 16 4 17 3 18 2 19 1 20
REMARK H PARENT
REMARK Flexibility Score: inf
ROOT
ATOM      1  C   UNL     1       6.501  24.225  -6.128  1.00  0.00     0.000 C 
ENDROOT
BRANCH   1   2
ATOM      2  C   UNL     1       6.656  22.761  -5.688  1.00  0.00     0.000 C 
BRANCH   2   3
ATOM      3  C   UNL     1       8.002  22.488  -5.000  1.00  0.00     0.000 C 
BRANCH   3   4
ATOM      4  C   UNL     1       8.795  21.412  -5.756  1.00  0.00     0.000 C 
BRANCH   4   5
ATOM      5  C   UNL     1       9.930  22.002  -6.610  1.00  0.00     0.000 C 
BRANCH   5   6
ATOM      6  C   UNL     1      10.131  21.242  -7.932  1.00  0.00     0.000 C 
BRANCH   6   7
ATOM      7  C   UNL     1      10.105  22.164  -9.166  1.00  0.00     0.006 C 
BRANCH   7   8
ATOM      8  C   UNL     1      10.333  23.651  -8.841  1.00  0.00     0.053 C 
BRANCH   8   9
ATOM      9  C   UNL     1      11.755  24.076  -9.052  1.00  0.00     0.041 C 
ATOM     10  O   UNL     1      12.063  24.776 -10.051  1.00  0.00    -0.550 OA
ATOM     11  O   UNL     1      12.744  23.670  -8.165  1.00  0.00    -0.550 OA
ENDBRANCH   8   9
ENDBRANCH   7   8
ENDBRANCH   6   7
ENDBRANCH   5   6
ENDBRANCH   4   5
ENDBRANCH   3   4
ENDBRANCH   2   3
ENDBRANCH   1   2
BRANCH   1  12
ATOM     12  C   UNL     1       6.943  24.458  -7.584  1.00  0.00     0.000 C 
BRANCH  12  13
ATOM     13  C   UNL     1       6.637  23.245  -8.487  1.00  0.00    -0.000 C 
BRANCH  13  14
ATOM     14  C   UNL     1       5.385  23.428  -9.361  1.00  0.00    -0.000 C 
BRANCH  14  15
ATOM     15  C   UNL     1       4.330  22.335  -9.130  1.00  0.00    -0.000 C 
BRANCH  15  16
ATOM     16  C   UNL     1       3.560  22.517  -7.811  1.00  0.00    -0.000 C 
BRANCH  16  17
ATOM     17  C   UNL     1       2.069  22.133  -7.909  1.00  0.00    -0.000 C 
BRANCH  17  18
ATOM     18  C   UNL     1       1.871  20.624  -8.141  1.00  0.00    -0.000 C 
BRANCH  18  19
ATOM     19  C   UNL     1       0.390  20.232  -8.248  1.00  0.00    -0.003 C 
ATOM     20  C   UNL     1       0.179  18.931  -9.022  1.00  0.00     0.004 C 
ENDBRANCH  18  19
ENDBRANCH  17  18
ENDBRANCH  16  17
ENDBRANCH  15  16
ENDBRANCH  14  15
ENDBRANCH  13  14
ENDBRANCH  12  13
ENDBRANCH   1  12
TORSDOF 16
ENDMDL
MODEL 7
REMARK VINA RESULT:    -5.245      1.312      2.521
REMARK INTER + INTRA:         -11.835
REMARK INTER:                  -9.864
REMARK INTRA:                  -1.971
REMARK UNBOUND:                -1.684
REMARK SMILES CCCCCCCCCCCCCCCCCC(=O)[O-]
REMARK SMILES IDX 10 1 11 2 12 3 13 4 14 5 15 6 16 7 17 8 18 9 19 10 20 11
REMARK SMILES IDX 9 12 8 13 7 14 6 15 5 16 4 17 3 18 2 19 1 20
REMARK H PARENT
REMARK Flexibility Score: inf
ROOT
ATOM      1  C   UNL     1       9.587  21.713  -8.502  1.00  0.00     0.000 C 
ENDROOT
BRANCH   1   2
ATOM      2  C   UNL     1      10.066  22.718  -9.562  1.00  0.00     0.000 C 
BRANCH   2   3
ATOM      3  C   UNL     1      10.534  24.047  -8.950  1.00  0.00     0.000 C 
BRANCH   3   4
ATOM      4  C   UNL     1      11.976  24.366  -9.373  1.00  0.00     0.000 C 
BRANCH   4   5
ATOM      5  C   UNL     1      12.955  24.368  -8.187  1.00  0.00     0.000 C 
BRANCH   5   6
ATOM      6  C   UNL     1      12.987  23.022  -7.445  1.00  0.00     0.000 C 
BRANCH   6   7
ATOM      7  C   UNL     1      14.161  22.909  -6.454  1.00  0.00     0.006 C 
BRANCH   7   8
ATOM      8  C   UNL     1      15.277  23.943  -6.685  1.00  0.00     0.053 C 
BRANCH   8   9
ATOM      9  C   UNL     1      16.564  23.312  -7.125  1.00  0.00     0.041 C 
ATOM     10  O   UNL     1      17.644  23.953  -7.039  1.00  0.00    -0.550 OA
ATOM     11  O   UNL     1      16.566  22.032  -7.664  1.00  0.00    -0.550 OA
ENDBRANCH   8   9
ENDBRANCH   7   8
ENDBRANCH   6   7
ENDBRANCH   5   6
ENDBRANCH   4   5
ENDBRANCH   3   4
ENDBRANCH   2   3
ENDBRANCH   1   2
BRANCH   1  12
ATOM     12  C   UNL     1       9.737  22.248  -7.066  1.00  0.00     0.000 C 
BRANCH  12  13
ATOM     13  C   UNL     1       8.564  21.820  -6.159  1.00  0.00    -0.000 C 
BRANCH  13  14
ATOM     14  C   UNL     1       7.715  22.998  -5.654  1.00  0.00    -0.000 C 
BRANCH  14  15
ATOM     15  C   UNL     1       6.629  23.423  -6.653  1.00  0.00    -0.000 C 
BRANCH  15  16
ATOM     16  C   UNL     1       7.061  24.603  -7.540  1.00  0.00    -0.000 C 
BRANCH  16  17
ATOM     17  C   UNL     1       6.744  24.399  -9.036  1.00  0.00    -0.000 C 
BRANCH  17  18
ATOM     18  C   UNL     1       6.277  22.965  -9.341  1.00  0.00    -0.000 C 
BRANCH  18  19
ATOM     19  C   UNL     1       5.151  22.919 -10.385  1.00  0.00    -0.003 C 
ATOM     20  C   UNL     1       4.871  24.285 -11.011  1.00  0.00     0.004 C 
ENDBRANCH  18  19
ENDBRANCH  17  18
ENDBRANCH  16  17
ENDBRANCH  15  16
ENDBRANCH  14  15
ENDBRANCH  13  14
ENDBRANCH  12  13
ENDBRANCH   1  12
TORSDOF 16
ENDMDL
MODEL 8
REMARK VINA RESULT:    -5.196      4.381      7.497
REMARK INTER + INTRA:         -11.740
REMARK INTER:                 -10.088
REMARK INTRA:                  -1.652
REMARK UNBOUND:                -1.684
REMARK SMILES CCCCCCCCCCCCCCCCCC(=O)[O-]
REMARK SMILES IDX 10 1 11 2 12 3 13 4 14 5 15 6 16 7 17 8 18 9 19 10 20 11
REMARK SMILES IDX 9 12 8 13 7 14 6 15 5 16 4 17 3 18 2 19 1 20
REMARK H PARENT
REMARK Flexibility Score: inf
ROOT
ATOM      1  C   UNL     1       7.650  23.763  -6.770  1.00  0.00     0.000 C 
ENDROOT
BRANCH   1   2
ATOM      2  C   UNL     1       6.869  23.627  -8.086  1.00  0.00     0.000 C 
BRANCH   2   3
ATOM      3  C   UNL     1       7.617  22.793  -9.136  1.00  0.00     0.000 C 
BRANCH   3   4
ATOM      4  C   UNL     1       6.679  22.384 -10.282  1.00  0.00     0.000 C 
BRANCH   4   5
ATOM      5  C   UNL     1       5.319  23.100 -10.219  1.00  0.00     0.000 C 
BRANCH   5   6
ATOM      6  C   UNL     1       5.018  23.909 -11.491  1.00  0.00     0.000 C 
BRANCH   6   7
ATOM      7  C   UNL     1       4.693  25.387 -11.202  1.00  0.00     0.006 C 
BRANCH   7   8
ATOM      8  C   UNL     1       4.076  26.138 -12.395  1.00  0.00     0.053 C 
BRANCH   8   9
ATOM      9  C   UNL     1       4.115  27.626 -12.222  1.00  0.00     0.041 C 
ATOM     10  O   UNL     1       5.111  28.174 -11.684  1.00  0.00    -0.550 OA
ATOM     11  O   UNL     1       3.035  28.404 -12.622  1.00  0.00    -0.550 OA
ENDBRANCH   8   9
ENDBRANCH   7   8
ENDBRANCH   6   7
ENDBRANCH   5   6
ENDBRANCH   4   5
ENDBRANCH   3   4
ENDBRANCH   2   3
ENDBRANCH   1   2
BRANCH   1  12
ATOM     12  C   UNL     1       7.065  22.896  -5.640  1.00  0.00     0.000 C 
BRANCH  12  13
ATOM     13  C   UNL     1       8.017  21.752  -5.233  1.00  0.00    -0.000 C 
BRANCH  13  14
ATOM     14  C   UNL     1       9.407  21.847  -5.882  1.00  0.00    -0.000 C 
BRANCH  14  15
ATOM     15  C   UNL     1       9.704  20.678  -6.833  1.00  0.00    -0.000 C 
BRANCH  15  16
ATOM     16  C   UNL     1      10.573  21.090  -8.034  1.00  0.00    -0.000 C 
BRANCH  16  17
ATOM     17  C   UNL     1      11.425  22.350  -7.774  1.00  0.00    -0.000 C 
BRANCH  17  18
ATOM     18  C   UNL     1      11.092  23.489  -8.754  1.00  0.00    -0.000 C 
BRANCH  18  19
ATOM     19  C   UNL     1      12.290  24.416  -9.010  1.00  0.00    -0.003 C 
ATOM     20  C   UNL     1      13.333  24.355  -7.895  1.00  0.00     0.004 C 
ENDBRANCH  18  19
ENDBRANCH  17  18
ENDBRANCH  16  17
ENDBRANCH  15  16
ENDBRANCH  14  15
ENDBRANCH  13  14
ENDBRANCH  12  13
ENDBRANCH   1  12
TORSDOF 16
ENDMDL
MODEL 9
REMARK VINA RESULT:    -5.183      2.570      7.081
REMARK INTER + INTRA:         -11.714
REMARK INTER:                 -10.048
REMARK INTRA:                  -1.666
REMARK UNBOUND:                -1.684
REMARK SMILES CCCCCCCCCCCCCCCCCC(=O)[O-]
REMARK SMILES IDX 10 1 11 2 12 3 13 4 14 5 15 6 16 7 17 8 18 9 19 10 20 11
REMARK SMILES IDX 9 12 8 13 7 14 6 15 5 16 4 17 3 18 2 19 1 20
REMARK H PARENT
REMARK Flexibility Score: inf
ROOT
ATOM      1  C   UNL     1       8.561  22.817  -9.193  1.00  0.00     0.000 C 
ENDROOT
BRANCH   1   2
ATOM      2  C   UNL     1       7.176  23.477  -9.098  1.00  0.00     0.000 C 
BRANCH   2   3
ATOM      3  C   UNL     1       6.157  22.863 -10.069  1.00  0.00     0.000 C 
BRANCH   3   4
ATOM      4  C   UNL     1       4.724  23.254  -9.679  1.00  0.00     0.000 C 
BRANCH   4   5
ATOM      5  C   UNL     1       3.975  22.121  -8.959  1.00  0.00     0.000 C 
BRANCH   5   6
ATOM      6  C   UNL     1       3.616  22.479  -7.507  1.00  0.00     0.000 C 
BRANCH   6   7
ATOM      7  C   UNL     1       4.622  23.450  -6.861  1.00  0.00     0.006 C 
BRANCH   7   8
ATOM      8  C   UNL     1       5.516  22.804  -5.788  1.00  0.00     0.053 C 
BRANCH   8   9
ATOM      9  C   UNL     1       6.849  23.478  -5.666  1.00  0.00     0.041 C 
ATOM     10  O   UNL     1       7.907  22.798  -5.702  1.00  0.00    -0.550 OA
ATOM     11  O   UNL     1       6.922  24.853  -5.477  1.00  0.00    -0.550 OA
ENDBRANCH   8   9
ENDBRANCH   7   8
ENDBRANCH   6   7
ENDBRANCH   5   6
ENDBRANCH   4   5
ENDBRANCH   3   4
ENDBRANCH   2   3
ENDBRANCH   1   2
BRANCH   1  12
ATOM     12  C   UNL     1       9.712  23.823  -9.014  1.00  0.00     0.000 C 
BRANCH  12  13
ATOM     13  C   UNL     1      10.867  23.569 -10.007  1.00  0.00    -0.000 C 
BRANCH  13  14
ATOM     14  C   UNL     1      12.138  24.374  -9.690  1.00  0.00    -0.000 C 
BRANCH  14  15
ATOM     15  C   UNL     1      12.441  24.443  -8.185  1.00  0.00    -0.000 C 
BRANCH  15  16
ATOM     16  C   UNL     1      13.756  23.739  -7.807  1.00  0.00    -0.000 C 
BRANCH  16  17
ATOM     17  C   UNL     1      13.551  22.452  -6.982  1.00  0.00    -0.000 C 
BRANCH  17  18
ATOM     18  C   UNL     1      12.068  22.055  -6.883  1.00  0.00    -0.000 C 
BRANCH  18  19
ATOM     19  C   UNL     1      11.755  20.748  -7.627  1.00  0.00    -0.003 C 
ATOM     20  C   UNL     1      10.318  20.275  -7.411  1.00  0.00     0.004 C 
ENDBRANCH  18  19
ENDBRANCH  17  18
ENDBRANCH  16  17
ENDBRANCH  15  16
ENDBRANCH  14  15
ENDBRANCH  13  14
ENDBRANCH  12  13
ENDBRANCH   1  12
TORSDOF 16
ENDMDL
