MODEL 1
REMARK VINA RESULT:    -8.495      0.000      0.000
REMARK INTER + INTRA:         -10.256
REMARK INTER:                  -9.985
REMARK INTRA:                  -0.271
REMARK UNBOUND:                -0.271
REMARK SMILES O=c1cc(-c2ccc(O)c(O)c2)oc2cc(O)cc(O)c12
REMARK SMILES IDX 4 1 3 2 2 3 1 4 21 5 19 6 18 7 16 8 15 9 14 10 13 11 5 12
REMARK SMILES IDX 6 13 7 14 8 15 12 16 10 17 9 18 11 20 20 22 17 24
REMARK H PARENT 9 19 11 21 20 23 17 25
REMARK Flexibility Score: inf
ROOT
ATOM      1  C   UNL     1     -47.574 -15.922  33.558  1.00  0.00     0.138 A 
ATOM      2  C   UNL     1     -46.248 -15.814  34.011  1.00  0.00     0.100 A 
ATOM      3  C   UNL     1     -45.256 -16.599  33.422  1.00  0.00     0.197 A 
ATOM      4  O   UNL     1     -44.070 -16.497  33.836  1.00  0.00    -0.289 OA
ATOM      5  C   UNL     1     -45.598 -17.490  32.385  1.00  0.00     0.107 A 
ATOM      6  C   UNL     1     -44.654 -18.321  31.733  1.00  0.00     0.134 A 
ATOM      7  C   UNL     1     -45.077 -19.185  30.713  1.00  0.00     0.093 A 
ATOM      8  C   UNL     1     -46.420 -19.235  30.333  1.00  0.00     0.123 A 
ATOM      9  C   UNL     1     -47.357 -18.418  30.972  1.00  0.00     0.094 A 
ATOM     10  C   UNL     1     -46.956 -17.548  31.991  1.00  0.00     0.146 A 
ATOM     11  O   UNL     1     -47.865 -16.780  32.583  1.00  0.00    -0.456 OA
ENDROOT
BRANCH   1  12
ATOM     12  C   UNL     1     -48.671 -15.113  34.148  1.00  0.00     0.021 A 
ATOM     13  C   UNL     1     -49.072 -15.354  35.472  1.00  0.00     0.016 A 
ATOM     14  C   UNL     1     -50.106 -14.612  36.049  1.00  0.00     0.051 A 
ATOM     15  C   UNL     1     -50.764 -13.623  35.308  1.00  0.00     0.157 A 
ATOM     16  C   UNL     1     -49.346 -14.125  33.404  1.00  0.00     0.062 A 
ATOM     17  C   UNL     1     -50.383 -13.381  33.978  1.00  0.00     0.158 A 
BRANCH  15  18
ATOM     18  O   UNL     1     -51.794 -12.883  35.887  1.00  0.00    -0.504 OA
ATOM     19  H   UNL     1     -52.556 -13.331  36.383  1.00  0.00     0.293 HD
ENDBRANCH  15  18
BRANCH  17  20
ATOM     20  O   UNL     1     -51.026 -12.411  33.210  1.00  0.00    -0.504 OA
ATOM     21  H   UNL     1     -51.760 -12.645  32.551  1.00  0.00     0.293 HD
ENDBRANCH  17  20
ENDBRANCH   1  12
BRANCH   6  22
ATOM     22  O   UNL     1     -43.306 -18.291  32.092  1.00  0.00    -0.507 OA
ATOM     23  H   UNL     1     -42.601 -17.896  31.480  1.00  0.00     0.293 HD
ENDBRANCH   6  22
BRANCH   8  24
ATOM     24  O   UNL     1     -46.813 -20.103  29.316  1.00  0.00    -0.508 OA
ATOM     25  H   UNL     1     -46.766 -19.832  28.341  1.00  0.00     0.293 HD
ENDBRANCH   8  24
TORSDOF 5
ENDMDL
MODEL 2
REMARK VINA RESULT:    -8.313      7.404     11.890
REMARK INTER + INTRA:         -10.042
REMARK INTER:                  -9.771
REMARK INTRA:                  -0.271
REMARK UNBOUND:                -0.271
REMARK SMILES O=c1cc(-c2ccc(O)c(O)c2)oc2cc(O)cc(O)c12
REMARK SMILES IDX 4 1 3 2 2 3 1 4 21 5 19 6 18 7 16 8 15 9 14 10 13 11 5 12
REMARK SMILES IDX 6 13 7 14 8 15 12 16 10 17 9 18 11 20 20 22 17 24
REMARK H PARENT 9 19 11 21 20 23 17 25
REMARK Flexibility Score: inf
ROOT
ATOM      1  C   UNL     1     -41.810 -24.807  33.291  1.00  0.00     0.138 A 
ATOM      2  C   UNL     1     -43.098 -24.859  33.850  1.00  0.00     0.100 A 
ATOM      3  C   UNL     1     -44.063 -23.940  33.437  1.00  0.00     0.197 A 
ATOM      4  O   UNL     1     -45.215 -23.993  33.946  1.00  0.00    -0.289 OA
ATOM      5  C   UNL     1     -43.733 -22.972  32.468  1.00  0.00     0.107 A 
ATOM      6  C   UNL     1     -44.652 -22.006  31.992  1.00  0.00     0.134 A 
ATOM      7  C   UNL     1     -44.242 -21.073  31.028  1.00  0.00     0.093 A 
ATOM      8  C   UNL     1     -42.936 -21.087  30.533  1.00  0.00     0.123 A 
ATOM      9  C   UNL     1     -42.024 -22.039  30.998  1.00  0.00     0.094 A 
ATOM     10  C   UNL     1     -42.413 -22.979  31.957  1.00  0.00     0.146 A 
ATOM     11  O   UNL     1     -41.528 -23.875  32.383  1.00  0.00    -0.456 OA
ENDROOT
BRANCH   1  12
ATOM     12  C   UNL     1     -40.743 -25.758  33.693  1.00  0.00     0.021 A 
ATOM     13  C   UNL     1     -40.099 -26.529  32.711  1.00  0.00     0.016 A 
ATOM     14  C   UNL     1     -39.096 -27.435  33.063  1.00  0.00     0.051 A 
ATOM     15  C   UNL     1     -38.728 -27.595  34.405  1.00  0.00     0.157 A 
ATOM     16  C   UNL     1     -40.376 -25.933  35.042  1.00  0.00     0.062 A 
ATOM     17  C   UNL     1     -39.374 -26.843  35.398  1.00  0.00     0.158 A 
BRANCH  15  18
ATOM     18  O   UNL     1     -37.725 -28.500  34.752  1.00  0.00    -0.504 OA
ATOM     19  H   UNL     1     -37.088 -28.879  34.061  1.00  0.00     0.293 HD
ENDBRANCH  15  18
BRANCH  17  20
ATOM     20  O   UNL     1     -39.037 -26.986  36.744  1.00  0.00    -0.504 OA
ATOM     21  H   UNL     1     -39.663 -27.422  37.411  1.00  0.00     0.293 HD
ENDBRANCH  17  20
ENDBRANCH   1  12
BRANCH   6  22
ATOM     22  O   UNL     1     -45.963 -21.968  32.469  1.00  0.00    -0.507 OA
ATOM     23  H   UNL     1     -46.559 -21.161  32.321  1.00  0.00     0.293 HD
ENDBRANCH   6  22
BRANCH   8  24
ATOM     24  O   UNL     1     -42.556 -20.148  29.576  1.00  0.00    -0.508 OA
ATOM     25  H   UNL     1     -42.069 -19.297  29.833  1.00  0.00     0.293 HD
ENDBRANCH   8  24
TORSDOF 5
ENDMDL
MODEL 3
REMARK VINA RESULT:    -8.200      7.078     11.583
REMARK INTER + INTRA:          -9.910
REMARK INTER:                  -9.619
REMARK INTRA:                  -0.290
REMARK UNBOUND:                -0.271
REMARK SMILES O=c1cc(-c2ccc(O)c(O)c2)oc2cc(O)cc(O)c12
REMARK SMILES IDX 4 1 3 2 2 3 1 4 21 5 19 6 18 7 16 8 15 9 14 10 13 11 5 12
REMARK SMILES IDX 6 13 7 14 8 15 12 16 10 17 9 18 11 20 20 22 17 24
REMARK H PARENT 9 19 11 21 20 23 17 25
REMARK Flexibility Score: inf
ROOT
ATOM      1  C   UNL     1     -42.051 -24.502  33.219  1.00  0.00     0.138 A 
ATOM      2  C   UNL     1     -43.360 -24.571  33.724  1.00  0.00     0.100 A 
ATOM      3  C   UNL     1     -44.332 -23.700  33.233  1.00  0.00     0.197 A 
ATOM      4  O   UNL     1     -45.504 -23.768  33.693  1.00  0.00    -0.289 OA
ATOM      5  C   UNL     1     -43.988 -22.761  32.239  1.00  0.00     0.107 A 
ATOM      6  C   UNL     1     -44.912 -21.843  31.685  1.00  0.00     0.134 A 
ATOM      7  C   UNL     1     -44.488 -20.937  30.703  1.00  0.00     0.093 A 
ATOM      8  C   UNL     1     -43.161 -20.930  30.265  1.00  0.00     0.123 A 
ATOM      9  C   UNL     1     -42.243 -21.835  30.808  1.00  0.00     0.094 A 
ATOM     10  C   UNL     1     -42.646 -22.747  31.787  1.00  0.00     0.146 A 
ATOM     11  O   UNL     1     -41.756 -23.598  32.287  1.00  0.00    -0.456 OA
ENDROOT
BRANCH   1  12
ATOM     12  C   UNL     1     -40.975 -25.403  33.705  1.00  0.00     0.021 A 
ATOM     13  C   UNL     1     -40.790 -25.575  35.087  1.00  0.00     0.016 A 
ATOM     14  C   UNL     1     -39.781 -26.412  35.571  1.00  0.00     0.051 A 
ATOM     15  C   UNL     1     -38.932 -27.082  34.681  1.00  0.00     0.157 A 
ATOM     16  C   UNL     1     -40.109 -26.070  32.816  1.00  0.00     0.062 A 
ATOM     17  C   UNL     1     -39.095 -26.906  33.298  1.00  0.00     0.158 A 
BRANCH  15  18
ATOM     18  O   UNL     1     -37.927 -27.917  35.168  1.00  0.00    -0.504 OA
ATOM     19  H   UNL     1     -37.093 -27.544  35.607  1.00  0.00     0.293 HD
ENDBRANCH  15  18
BRANCH  17  20
ATOM     20  O   UNL     1     -38.259 -27.551  32.387  1.00  0.00    -0.504 OA
ATOM     21  H   UNL     1     -38.612 -27.957  31.528  1.00  0.00     0.293 HD
ENDBRANCH  17  20
ENDBRANCH   1  12
BRANCH   6  22
ATOM     22  O   UNL     1     -46.244 -21.827  32.103  1.00  0.00    -0.507 OA
ATOM     23  H   UNL     1     -46.999 -22.097  31.484  1.00  0.00     0.293 HD
ENDBRANCH   6  22
BRANCH   8  24
ATOM     24  O   UNL     1     -42.766 -20.019  29.288  1.00  0.00    -0.508 OA
ATOM     25  H   UNL     1     -41.789 -19.870  29.067  1.00  0.00     0.293 HD
ENDBRANCH   8  24
TORSDOF 5
ENDMDL
MODEL 4
REMARK VINA RESULT:    -7.990      7.655     12.060
REMARK INTER + INTRA:          -9.663
REMARK INTER:                  -9.378
REMARK INTRA:                  -0.285
REMARK UNBOUND:                -0.271
REMARK SMILES O=c1cc(-c2ccc(O)c(O)c2)oc2cc(O)cc(O)c12
REMARK SMILES IDX 4 1 3 2 2 3 1 4 21 5 19 6 18 7 16 8 15 9 14 10 13 11 5 12
REMARK SMILES IDX 6 13 7 14 8 15 12 16 10 17 9 18 11 20 20 22 17 24
REMARK H PARENT 9 19 11 21 20 23 17 25
REMARK Flexibility Score: inf
ROOT
ATOM      1  C   UNL     1     -41.559 -24.867  33.100  1.00  0.00     0.138 A 
ATOM      2  C   UNL     1     -41.256 -23.902  32.125  1.00  0.00     0.100 A 
ATOM      3  C   UNL     1     -42.232 -22.980  31.746  1.00  0.00     0.197 A 
ATOM      4  O   UNL     1     -41.952 -22.118  30.869  1.00  0.00    -0.289 OA
ATOM      5  C   UNL     1     -43.508 -23.031  32.342  1.00  0.00     0.107 A 
ATOM      6  C   UNL     1     -44.554 -22.134  32.016  1.00  0.00     0.134 A 
ATOM      7  C   UNL     1     -45.797 -22.256  32.652  1.00  0.00     0.093 A 
ATOM      8  C   UNL     1     -46.016 -23.255  33.605  1.00  0.00     0.123 A 
ATOM      9  C   UNL     1     -44.988 -24.144  33.931  1.00  0.00     0.094 A 
ATOM     10  C   UNL     1     -43.740 -24.038  33.310  1.00  0.00     0.146 A 
ATOM     11  O   UNL     1     -42.777 -24.895  33.638  1.00  0.00    -0.456 OA
ENDROOT
BRANCH   1  12
ATOM     12  C   UNL     1     -40.562 -25.874  33.542  1.00  0.00     0.021 A 
ATOM     13  C   UNL     1     -39.918 -26.676  32.585  1.00  0.00     0.016 A 
ATOM     14  C   UNL     1     -38.980 -27.635  32.974  1.00  0.00     0.051 A 
ATOM     15  C   UNL     1     -38.677 -27.817  34.329  1.00  0.00     0.157 A 
ATOM     16  C   UNL     1     -40.261 -26.071  34.904  1.00  0.00     0.062 A 
ATOM     17  C   UNL     1     -39.323 -27.033  35.298  1.00  0.00     0.158 A 
BRANCH  15  18
ATOM     18  O   UNL     1     -37.739 -28.774  34.715  1.00  0.00    -0.504 OA
ATOM     19  H   UNL     1     -37.987 -29.752  34.811  1.00  0.00     0.293 HD
ENDBRANCH  15  18
BRANCH  17  20
ATOM     20  O   UNL     1     -39.051 -27.196  36.656  1.00  0.00    -0.504 OA
ATOM     21  H   UNL     1     -38.798 -26.416  37.251  1.00  0.00     0.293 HD
ENDBRANCH  17  20
ENDBRANCH   1  12
BRANCH   6  22
ATOM     22  O   UNL     1     -44.364 -21.127  31.069  1.00  0.00    -0.507 OA
ATOM     23  H   UNL     1     -43.447 -20.919  30.690  1.00  0.00     0.293 HD
ENDBRANCH   6  22
BRANCH   8  24
ATOM     24  O   UNL     1     -47.262 -23.354  34.221  1.00  0.00    -0.508 OA
ATOM     25  H   UNL     1     -47.359 -23.307  35.228  1.00  0.00     0.293 HD
ENDBRANCH   8  24
TORSDOF 5
ENDMDL
MODEL 5
REMARK VINA RESULT:    -7.944      6.016      8.900
REMARK INTER + INTRA:          -9.608
REMARK INTER:                  -9.314
REMARK INTRA:                  -0.294
REMARK UNBOUND:                -0.271
REMARK SMILES O=c1cc(-c2ccc(O)c(O)c2)oc2cc(O)cc(O)c12
REMARK SMILES IDX 4 1 3 2 2 3 1 4 21 5 19 6 18 7 16 8 15 9 14 10 13 11 5 12
REMARK SMILES IDX 6 13 7 14 8 15 12 16 10 17 9 18 11 20 20 22 17 24
REMARK H PARENT 9 19 11 21 20 23 17 25
REMARK Flexibility Score: inf
ROOT
ATOM      1  C   UNL     1     -44.416 -21.712  30.929  1.00  0.00     0.138 A 
ATOM      2  C   UNL     1     -45.676 -21.186  31.257  1.00  0.00     0.100 A 
ATOM      3  C   UNL     1     -46.289 -20.281  30.390  1.00  0.00     0.197 A 
ATOM      4  O   UNL     1     -47.420 -19.813  30.694  1.00  0.00    -0.289 OA
ATOM      5  C   UNL     1     -45.636 -19.905  29.200  1.00  0.00     0.107 A 
ATOM      6  C   UNL     1     -46.187 -18.996  28.266  1.00  0.00     0.134 A 
ATOM      7  C   UNL     1     -45.469 -18.670  27.106  1.00  0.00     0.093 A 
ATOM      8  C   UNL     1     -44.213 -19.234  26.863  1.00  0.00     0.123 A 
ATOM      9  C   UNL     1     -43.663 -20.132  27.782  1.00  0.00     0.094 A 
ATOM     10  C   UNL     1     -44.364 -20.472  28.943  1.00  0.00     0.146 A 
ATOM     11  O   UNL     1     -43.821 -21.330  29.801  1.00  0.00    -0.456 OA
ENDROOT
BRANCH   1  12
ATOM     12  C   UNL     1     -43.716 -22.677  31.814  1.00  0.00     0.021 A 
ATOM     13  C   UNL     1     -42.343 -22.912  31.631  1.00  0.00     0.016 A 
ATOM     14  C   UNL     1     -41.661 -23.820  32.445  1.00  0.00     0.051 A 
ATOM     15  C   UNL     1     -42.343 -24.518  33.450  1.00  0.00     0.157 A 
ATOM     16  C   UNL     1     -44.398 -23.392  32.818  1.00  0.00     0.062 A 
ATOM     17  C   UNL     1     -43.718 -24.305  33.634  1.00  0.00     0.158 A 
BRANCH  15  18
ATOM     18  O   UNL     1     -41.659 -25.422  34.261  1.00  0.00    -0.504 OA
ATOM     19  H   UNL     1     -42.146 -26.013  34.926  1.00  0.00     0.293 HD
ENDBRANCH  15  18
BRANCH  17  20
ATOM     20  O   UNL     1     -44.428 -24.991  34.618  1.00  0.00    -0.504 OA
ATOM     21  H   UNL     1     -44.053 -25.138  35.548  1.00  0.00     0.293 HD
ENDBRANCH  17  20
ENDBRANCH   1  12
BRANCH   6  22
ATOM     22  O   UNL     1     -47.438 -18.417  28.482  1.00  0.00    -0.507 OA
ATOM     23  H   UNL     1     -48.178 -18.478  27.791  1.00  0.00     0.293 HD
ENDBRANCH   6  22
BRANCH   8  24
ATOM     24  O   UNL     1     -43.521 -18.892  25.703  1.00  0.00    -0.508 OA
ATOM     25  H   UNL     1     -43.438 -19.537  24.927  1.00  0.00     0.293 HD
ENDBRANCH   8  24
TORSDOF 5
ENDMDL
MODEL 6
REMARK VINA RESULT:    -7.794      2.537      4.749
REMARK INTER + INTRA:          -9.432
REMARK INTER:                  -9.137
REMARK INTRA:                  -0.295
REMARK UNBOUND:                -0.271
REMARK SMILES O=c1cc(-c2ccc(O)c(O)c2)oc2cc(O)cc(O)c12
REMARK SMILES IDX 4 1 3 2 2 3 1 4 21 5 19 6 18 7 16 8 15 9 14 10 13 11 5 12
REMARK SMILES IDX 6 13 7 14 8 15 12 16 10 17 9 18 11 20 20 22 17 24
REMARK H PARENT 9 19 11 21 20 23 17 25
REMARK Flexibility Score: inf
ROOT
ATOM      1  C   UNL     1     -45.388 -18.718  30.898  1.00  0.00     0.138 A 
ATOM      2  C   UNL     1     -44.130 -19.260  31.211  1.00  0.00     0.100 A 
ATOM      3  C   UNL     1     -43.524 -20.148  30.321  1.00  0.00     0.197 A 
ATOM      4  O   UNL     1     -42.397 -20.630  30.610  1.00  0.00    -0.289 OA
ATOM      5  C   UNL     1     -44.183 -20.490  29.123  1.00  0.00     0.107 A 
ATOM      6  C   UNL     1     -43.640 -21.380  28.166  1.00  0.00     0.134 A 
ATOM      7  C   UNL     1     -44.363 -21.673  27.000  1.00  0.00     0.093 A 
ATOM      8  C   UNL     1     -45.615 -21.096  26.774  1.00  0.00     0.123 A 
ATOM      9  C   UNL     1     -46.157 -20.216  27.716  1.00  0.00     0.094 A 
ATOM     10  C   UNL     1     -45.452 -19.909  28.883  1.00  0.00     0.146 A 
ATOM     11  O   UNL     1     -45.988 -19.068  29.763  1.00  0.00    -0.456 OA
ENDROOT
BRANCH   1  12
ATOM     12  C   UNL     1     -46.080 -17.770  31.808  1.00  0.00     0.021 A 
ATOM     13  C   UNL     1     -47.444 -17.498  31.614  1.00  0.00     0.016 A 
ATOM     14  C   UNL     1     -48.118 -16.605  32.451  1.00  0.00     0.051 A 
ATOM     15  C   UNL     1     -47.436 -15.960  33.490  1.00  0.00     0.157 A 
ATOM     16  C   UNL     1     -45.397 -17.108  32.847  1.00  0.00     0.062 A 
ATOM     17  C   UNL     1     -46.069 -16.211  33.686  1.00  0.00     0.158 A 
BRANCH  15  18
ATOM     18  O   UNL     1     -48.112 -15.071  34.325  1.00  0.00    -0.504 OA
ATOM     19  H   UNL     1     -48.088 -14.070  34.166  1.00  0.00     0.293 HD
ENDBRANCH  15  18
BRANCH  17  20
ATOM     20  O   UNL     1     -45.359 -15.577  34.706  1.00  0.00    -0.504 OA
ATOM     21  H   UNL     1     -45.817 -15.208  35.531  1.00  0.00     0.293 HD
ENDBRANCH  17  20
ENDBRANCH   1  12
BRANCH   6  22
ATOM     22  O   UNL     1     -42.392 -21.971  28.365  1.00  0.00    -0.507 OA
ATOM     23  H   UNL     1     -42.134 -22.838  27.905  1.00  0.00     0.293 HD
ENDBRANCH   6  22
BRANCH   8  24
ATOM     24  O   UNL     1     -46.312 -21.404  25.608  1.00  0.00    -0.508 OA
ATOM     25  H   UNL     1     -46.452 -22.363  25.312  1.00  0.00     0.293 HD
ENDBRANCH   8  24
TORSDOF 5
ENDMDL
MODEL 7
REMARK VINA RESULT:    -7.775      3.376      6.386
REMARK INTER + INTRA:          -9.409
REMARK INTER:                  -9.113
REMARK INTRA:                  -0.296
REMARK UNBOUND:                -0.271
REMARK SMILES O=c1cc(-c2ccc(O)c(O)c2)oc2cc(O)cc(O)c12
REMARK SMILES IDX 4 1 3 2 2 3 1 4 21 5 19 6 18 7 16 8 15 9 14 10 13 11 5 12
REMARK SMILES IDX 6 13 7 14 8 15 12 16 10 17 9 18 11 20 20 22 17 24
REMARK H PARENT 9 19 11 21 20 23 17 25
REMARK Flexibility Score: inf
ROOT
ATOM      1  C   UNL     1     -45.453 -19.241  29.600  1.00  0.00     0.138 A 
ATOM      2  C   UNL     1     -46.503 -19.203  28.667  1.00  0.00     0.100 A 
ATOM      3  C   UNL     1     -46.378 -19.899  27.465  1.00  0.00     0.197 A 
ATOM      4  O   UNL     1     -47.324 -19.859  26.633  1.00  0.00    -0.289 OA
ATOM      5  C   UNL     1     -45.200 -20.627  27.201  1.00  0.00     0.107 A 
ATOM      6  C   UNL     1     -44.992 -21.361  26.009  1.00  0.00     0.134 A 
ATOM      7  C   UNL     1     -43.789 -22.056  25.821  1.00  0.00     0.093 A 
ATOM      8  C   UNL     1     -42.791 -22.030  26.799  1.00  0.00     0.123 A 
ATOM      9  C   UNL     1     -42.990 -21.307  27.978  1.00  0.00     0.094 A 
ATOM     10  C   UNL     1     -44.183 -20.610  28.186  1.00  0.00     0.146 A 
ATOM     11  O   UNL     1     -44.350 -19.930  29.317  1.00  0.00    -0.456 OA
ENDROOT
BRANCH   1  12
ATOM     12  C   UNL     1     -45.530 -18.519  30.895  1.00  0.00     0.021 A 
ATOM     13  C   UNL     1     -44.386 -18.428  31.705  1.00  0.00     0.016 A 
ATOM     14  C   UNL     1     -44.432 -17.760  32.931  1.00  0.00     0.051 A 
ATOM     15  C   UNL     1     -45.628 -17.180  33.374  1.00  0.00     0.157 A 
ATOM     16  C   UNL     1     -46.732 -17.944  31.353  1.00  0.00     0.062 A 
ATOM     17  C   UNL     1     -46.783 -17.276  32.582  1.00  0.00     0.158 A 
BRANCH  15  18
ATOM     18  O   UNL     1     -45.670 -16.513  34.598  1.00  0.00    -0.504 OA
ATOM     19  H   UNL     1     -46.386 -16.713  35.288  1.00  0.00     0.293 HD
ENDBRANCH  15  18
BRANCH  17  20
ATOM     20  O   UNL     1     -47.991 -16.718  33.000  1.00  0.00    -0.504 OA
ATOM     21  H   UNL     1     -48.093 -15.725  33.172  1.00  0.00     0.293 HD
ENDBRANCH  17  20
ENDBRANCH   1  12
BRANCH   6  22
ATOM     22  O   UNL     1     -45.971 -21.405  25.014  1.00  0.00    -0.507 OA
ATOM     23  H   UNL     1     -45.928 -20.804  24.199  1.00  0.00     0.293 HD
ENDBRANCH   6  22
BRANCH   8  24
ATOM     24  O   UNL     1     -41.604 -22.729  26.586  1.00  0.00    -0.508 OA
ATOM     25  H   UNL     1     -41.600 -23.649  26.163  1.00  0.00     0.293 HD
ENDBRANCH   8  24
TORSDOF 5
ENDMDL
MODEL 8
REMARK VINA RESULT:    -7.774      3.169      8.266
REMARK INTER + INTRA:          -9.409
REMARK INTER:                  -9.112
REMARK INTRA:                  -0.297
REMARK UNBOUND:                -0.271
REMARK SMILES O=c1cc(-c2ccc(O)c(O)c2)oc2cc(O)cc(O)c12
REMARK SMILES IDX 4 1 3 2 2 3 1 4 21 5 19 6 18 7 16 8 15 9 14 10 13 11 5 12
REMARK SMILES IDX 6 13 7 14 8 15 12 16 10 17 9 18 11 20 20 22 17 24
REMARK H PARENT 9 19 11 21 20 23 17 25
REMARK Flexibility Score: inf
ROOT
ATOM      1  C   UNL     1     -45.629 -19.244  29.685  1.00  0.00     0.138 A 
ATOM      2  C   UNL     1     -46.978 -18.916  29.896  1.00  0.00     0.100 A 
ATOM      3  C   UNL     1     -47.335 -18.167  31.018  1.00  0.00     0.197 A 
ATOM      4  O   UNL     1     -48.549 -17.879  31.200  1.00  0.00    -0.289 OA
ATOM      5  C   UNL     1     -46.339 -17.753  31.924  1.00  0.00     0.107 A 
ATOM      6  C   UNL     1     -46.614 -16.990  33.084  1.00  0.00     0.134 A 
ATOM      7  C   UNL     1     -45.565 -16.622  33.939  1.00  0.00     0.093 A 
ATOM      8  C   UNL     1     -44.250 -17.001  33.658  1.00  0.00     0.123 A 
ATOM      9  C   UNL     1     -43.971 -17.755  32.513  1.00  0.00     0.094 A 
ATOM     10  C   UNL     1     -45.002 -18.130  31.647  1.00  0.00     0.146 A 
ATOM     11  O   UNL     1     -44.713 -18.845  30.564  1.00  0.00    -0.456 OA
ENDROOT
BRANCH   1  12
ATOM     12  C   UNL     1     -45.191 -20.040  28.510  1.00  0.00     0.021 A 
ATOM     13  C   UNL     1     -43.845 -20.426  28.400  1.00  0.00     0.016 A 
ATOM     14  C   UNL     1     -43.405 -21.169  27.302  1.00  0.00     0.051 A 
ATOM     15  C   UNL     1     -44.302 -21.529  26.288  1.00  0.00     0.157 A 
ATOM     16  C   UNL     1     -46.084 -20.394  27.480  1.00  0.00     0.062 A 
ATOM     17  C   UNL     1     -45.647 -21.136  26.377  1.00  0.00     0.158 A 
BRANCH  15  18
ATOM     18  O   UNL     1     -43.860 -22.272  25.194  1.00  0.00    -0.504 OA
ATOM     19  H   UNL     1     -42.889 -22.262  24.902  1.00  0.00     0.293 HD
ENDBRANCH  15  18
BRANCH  17  20
ATOM     20  O   UNL     1     -46.562 -21.470  25.379  1.00  0.00    -0.504 OA
ATOM     21  H   UNL     1     -46.671 -22.421  25.046  1.00  0.00     0.293 HD
ENDBRANCH  17  20
ENDBRANCH   1  12
BRANCH   6  22
ATOM     22  O   UNL     1     -47.917 -16.597  33.391  1.00  0.00    -0.507 OA
ATOM     23  H   UNL     1     -48.119 -15.684  33.783  1.00  0.00     0.293 HD
ENDBRANCH   6  22
BRANCH   8  24
ATOM     24  O   UNL     1     -43.226 -16.623  34.524  1.00  0.00    -0.508 OA
ATOM     25  H   UNL     1     -43.300 -16.762  35.524  1.00  0.00     0.293 HD
ENDBRANCH   8  24
TORSDOF 5
ENDMDL
MODEL 9
REMARK VINA RESULT:    -7.742      7.123      8.344
REMARK INTER + INTRA:          -9.371
REMARK INTER:                  -9.074
REMARK INTRA:                  -0.296
REMARK UNBOUND:                -0.271
REMARK SMILES O=c1cc(-c2ccc(O)c(O)c2)oc2cc(O)cc(O)c12
REMARK SMILES IDX 4 1 3 2 2 3 1 4 21 5 19 6 18 7 16 8 15 9 14 10 13 11 5 12
REMARK SMILES IDX 6 13 7 14 8 15 12 16 10 17 9 18 11 20 20 22 17 24
REMARK H PARENT 9 19 11 21 20 23 17 25
REMARK Flexibility Score: inf
ROOT
ATOM      1  C   UNL     1     -44.112 -21.148  29.738  1.00  0.00     0.138 A 
ATOM      2  C   UNL     1     -42.759 -21.477  29.921  1.00  0.00     0.100 A 
ATOM      3  C   UNL     1     -42.382 -22.250  31.020  1.00  0.00     0.197 A 
ATOM      4  O   UNL     1     -41.165 -22.539  31.176  1.00  0.00    -0.289 OA
ATOM      5  C   UNL     1     -43.363 -22.689  31.931  1.00  0.00     0.107 A 
ATOM      6  C   UNL     1     -43.068 -23.477  33.069  1.00  0.00     0.134 A 
ATOM      7  C   UNL     1     -44.103 -23.868  33.931  1.00  0.00     0.093 A 
ATOM      8  C   UNL     1     -45.423 -23.487  33.679  1.00  0.00     0.123 A 
ATOM      9  C   UNL     1     -45.721 -22.709  32.557  1.00  0.00     0.094 A 
ATOM     10  C   UNL     1     -44.705 -22.310  31.684  1.00  0.00     0.146 A 
ATOM     11  O   UNL     1     -45.013 -21.571  30.622  1.00  0.00    -0.456 OA
ENDROOT
BRANCH   1  12
ATOM     12  C   UNL     1     -44.570 -20.328  28.589  1.00  0.00     0.021 A 
ATOM     13  C   UNL     1     -45.914 -19.921  28.522  1.00  0.00     0.016 A 
ATOM     14  C   UNL     1     -46.372 -19.154  27.448  1.00  0.00     0.051 A 
ATOM     15  C   UNL     1     -45.498 -18.789  26.417  1.00  0.00     0.157 A 
ATOM     16  C   UNL     1     -43.700 -19.968  27.541  1.00  0.00     0.062 A 
ATOM     17  C   UNL     1     -44.157 -19.201  26.463  1.00  0.00     0.158 A 
BRANCH  15  18
ATOM     18  O   UNL     1     -45.959 -18.022  25.348  1.00  0.00    -0.504 OA
ATOM     19  H   UNL     1     -45.947 -18.374  24.397  1.00  0.00     0.293 HD
ENDBRANCH  15  18
BRANCH  17  20
ATOM     20  O   UNL     1     -43.264 -18.863  25.446  1.00  0.00    -0.504 OA
ATOM     21  H   UNL     1     -42.495 -19.468  25.184  1.00  0.00     0.293 HD
ENDBRANCH  17  20
ENDBRANCH   1  12
BRANCH   6  22
ATOM     22  O   UNL     1     -41.759 -23.873  33.347  1.00  0.00    -0.507 OA
ATOM     23  H   UNL     1     -41.494 -24.851  33.379  1.00  0.00     0.293 HD
ENDBRANCH   6  22
BRANCH   8  24
ATOM     24  O   UNL     1     -46.432 -23.889  34.552  1.00  0.00    -0.508 OA
ATOM     25  H   UNL     1     -46.378 -24.766  35.056  1.00  0.00     0.293 HD
ENDBRANCH   8  24
TORSDOF 5
ENDMDL
