MODEL 1
REMARK VINA RESULT:    -6.933      0.000      0.000
REMARK INTER + INTRA:         -11.193
REMARK INTER:                  -9.567
REMARK INTRA:                  -1.626
REMARK UNBOUND:                -1.626
REMARK SMILES CC[C@H](CC[C@@H](C)[C@@H]1CC[C@@H]2[C@@H]3CC=C4C[C@H](O)CC[C@]4(C)[C@@H]3CC[C@]21C)C(C)C
REMARK SMILES IDX 5 1 4 2 3 3 2 4 1 5 28 6 29 7 30 8 6 9 7 10 8 11 9 12 26 13
REMARK SMILES IDX 10 14 11 15 25 16 27 17 12 18 24 19 23 20 13 21 21 22 14 23
REMARK SMILES IDX 15 24 20 25 22 26 16 27 19 28 17 29 18 30
REMARK H PARENT 18 31
REMARK Flexibility Score: inf
ROOT
ATOM      1  C   UNL     1      32.663  29.499  14.636  1.00  0.00     0.004 C 
ENDROOT
BRANCH   1   2
ATOM      2  C   UNL     1      32.073  29.686  16.060  1.00  0.00     0.004 C 
BRANCH   2   3
ATOM      3  C   UNL     1      30.778  30.546  16.158  1.00  0.00    -0.009 C 
BRANCH   3   4
ATOM      4  C   UNL     1      30.636  31.242  17.543  1.00  0.00     0.000 C 
ATOM      5  C   UNL     1      29.924  30.429  18.626  1.00  0.00     0.004 C 
ENDBRANCH   3   4
BRANCH   3   6
ATOM      6  C   UNL     1      30.524  31.473  14.916  1.00  0.00    -0.014 C 
ATOM      7  C   UNL     1      29.021  31.573  14.589  1.00  0.00     0.007 C 
ATOM      8  C   UNL     1      31.072  32.896  15.132  1.00  0.00     0.007 C 
ENDBRANCH   3   6
ENDBRANCH   2   3
ENDBRANCH   1   2
BRANCH   1   9
ATOM      9  C   UNL     1      32.570  28.038  14.084  1.00  0.00    -0.011 C 
ATOM     10  C   UNL     1      33.868  27.287  14.456  1.00  0.00     0.008 C 
BRANCH   9  11
ATOM     11  C   UNL     1      31.310  27.275  14.628  1.00  0.00    -0.002 C 
ATOM     12  C   UNL     1      31.625  25.815  15.057  1.00  0.00     0.005 C 
ATOM     13  C   UNL     1      30.070  27.111  13.688  1.00  0.00    -0.026 C 
ATOM     14  C   UNL     1      30.339  24.995  14.889  1.00  0.00     0.005 C 
ATOM     15  C   UNL     1      29.304  26.022  14.457  1.00  0.00    -0.001 C 
ATOM     16  C   UNL     1      29.130  28.333  13.598  1.00  0.00     0.007 C 
ATOM     17  C   UNL     1      30.518  26.683  12.260  1.00  0.00     0.012 C 
ATOM     18  C   UNL     1      27.975  25.539  13.831  1.00  0.00     0.000 C 
ATOM     19  C   UNL     1      27.777  27.982  12.939  1.00  0.00     0.005 C 
ATOM     20  C   UNL     1      27.029  26.762  13.573  1.00  0.00     0.003 C 
ATOM     21  C   UNL     1      28.106  24.540  12.640  1.00  0.00     0.031 C 
ATOM     22  C   UNL     1      25.758  26.316  12.756  1.00  0.00    -0.008 C 
ATOM     23  C   UNL     1      27.319  24.912  11.408  1.00  0.00    -0.027 C 
ATOM     24  C   UNL     1      26.212  25.677  11.448  1.00  0.00    -0.065 C 
ATOM     25  C   UNL     1      24.827  27.528  12.439  1.00  0.00     0.014 C 
ATOM     26  C   UNL     1      24.945  25.280  13.578  1.00  0.00     0.016 C 
ATOM     27  C   UNL     1      25.491  26.019  10.161  1.00  0.00     0.063 C 
ATOM     28  C   UNL     1      23.640  27.179  11.514  1.00  0.00     0.033 C 
ATOM     29  C   UNL     1      23.981  26.148  10.405  1.00  0.00     0.118 C 
BRANCH  29  30
ATOM     30  O   UNL     1      23.351  26.505   9.203  1.00  0.00    -0.393 OA
ATOM     31  H   UNL     1      22.538  25.941   9.130  1.00  0.00     0.210 HD
ENDBRANCH  29  30
ENDBRANCH   9  11
ENDBRANCH   1   9
TORSDOF 7
ENDMDL
MODEL 2
REMARK VINA RESULT:    -6.762      2.227      3.773
REMARK INTER + INTRA:         -10.957
REMARK INTER:                  -9.376
REMARK INTRA:                  -1.581
REMARK UNBOUND:                -1.626
REMARK SMILES CC[C@H](CC[C@@H](C)[C@@H]1CC[C@@H]2[C@@H]3CC=C4C[C@H](O)CC[C@]4(C)[C@@H]3CC[C@]21C)C(C)C
REMARK SMILES IDX 5 1 4 2 3 3 2 4 1 5 28 6 29 7 30 8 6 9 7 10 8 11 9 12 26 13
REMARK SMILES IDX 10 14 11 15 25 16 27 17 12 18 24 19 23 20 13 21 21 22 14 23
REMARK SMILES IDX 15 24 20 25 22 26 16 27 19 28 17 29 18 30
REMARK H PARENT 18 31
REMARK Flexibility Score: inf
ROOT
ATOM      1  C   UNL     1      31.158  27.960  13.707  1.00  0.00     0.004 C 
ENDROOT
BRANCH   1   2
ATOM      2  C   UNL     1      31.691  29.095  14.624  1.00  0.00     0.004 C 
BRANCH   2   3
ATOM      3  C   UNL     1      30.775  30.347  14.766  1.00  0.00    -0.009 C 
BRANCH   3   4
ATOM      4  C   UNL     1      29.269  29.967  14.865  1.00  0.00     0.000 C 
ATOM      5  C   UNL     1      28.290  30.958  14.232  1.00  0.00     0.004 C 
ENDBRANCH   3   4
BRANCH   3   6
ATOM      6  C   UNL     1      31.271  31.392  15.828  1.00  0.00    -0.014 C 
ATOM      7  C   UNL     1      31.081  32.836  15.326  1.00  0.00     0.007 C 
ATOM      8  C   UNL     1      30.538  31.244  17.175  1.00  0.00     0.007 C 
ENDBRANCH   3   6
ENDBRANCH   2   3
ENDBRANCH   1   2
BRANCH   1   9
ATOM      9  C   UNL     1      31.021  28.357  12.200  1.00  0.00    -0.011 C 
ATOM     10  C   UNL     1      32.412  28.246  11.534  1.00  0.00     0.008 C 
BRANCH   9  11
ATOM     11  C   UNL     1      29.970  27.470  11.444  1.00  0.00    -0.002 C 
ATOM     12  C   UNL     1      30.423  27.087  10.007  1.00  0.00     0.005 C 
ATOM     13  C   UNL     1      28.530  28.039  11.223  1.00  0.00    -0.026 C 
ATOM     14  C   UNL     1      29.158  26.877   9.164  1.00  0.00     0.005 C 
ATOM     15  C   UNL     1      28.021  27.055  10.157  1.00  0.00    -0.001 C 
ATOM     16  C   UNL     1      27.570  27.920  12.428  1.00  0.00     0.007 C 
ATOM     17  C   UNL     1      28.593  29.518  10.743  1.00  0.00     0.012 C 
ATOM     18  C   UNL     1      26.586  27.287   9.631  1.00  0.00     0.000 C 
ATOM     19  C   UNL     1      26.100  28.182  12.032  1.00  0.00     0.005 C 
ATOM     20  C   UNL     1      25.576  27.328  10.829  1.00  0.00     0.003 C 
ATOM     21  C   UNL     1      26.421  28.432   8.585  1.00  0.00     0.031 C 
ATOM     22  C   UNL     1      24.146  27.761  10.332  1.00  0.00    -0.008 C 
ATOM     23  C   UNL     1      25.326  29.423   8.895  1.00  0.00    -0.027 C 
ATOM     24  C   UNL     1      24.251  29.119   9.646  1.00  0.00    -0.065 C 
ATOM     25  C   UNL     1      23.135  27.863  11.517  1.00  0.00     0.014 C 
ATOM     26  C   UNL     1      23.604  26.715   9.320  1.00  0.00     0.016 C 
ATOM     27  C   UNL     1      23.207  30.178   9.924  1.00  0.00     0.063 C 
ATOM     28  C   UNL     1      21.753  28.425  11.114  1.00  0.00     0.033 C 
ATOM     29  C   UNL     1      21.813  29.547  10.042  1.00  0.00     0.118 C 
BRANCH  29  30
ATOM     30  O   UNL     1      20.878  30.551  10.340  1.00  0.00    -0.393 OA
ATOM     31  H   UNL     1      20.037  30.300   9.879  1.00  0.00     0.210 HD
ENDBRANCH  29  30
ENDBRANCH   9  11
ENDBRANCH   1   9
TORSDOF 7
ENDMDL
MODEL 3
REMARK VINA RESULT:    -6.350      1.852      3.764
REMARK INTER + INTRA:         -10.389
REMARK INTER:                  -9.126
REMARK INTRA:                  -1.263
REMARK UNBOUND:                -1.626
REMARK SMILES CC[C@H](CC[C@@H](C)[C@@H]1CC[C@@H]2[C@@H]3CC=C4C[C@H](O)CC[C@]4(C)[C@@H]3CC[C@]21C)C(C)C
REMARK SMILES IDX 5 1 4 2 3 3 2 4 1 5 28 6 29 7 30 8 6 9 7 10 8 11 9 12 26 13
REMARK SMILES IDX 10 14 11 15 25 16 27 17 12 18 24 19 23 20 13 21 21 22 14 23
REMARK SMILES IDX 15 24 20 25 22 26 16 27 19 28 17 29 18 30
REMARK H PARENT 18 31
REMARK Flexibility Score: inf
ROOT
ATOM      1  C   UNL     1      28.945  27.766  14.937  1.00  0.00     0.004 C 
ENDROOT
BRANCH   1   2
ATOM      2  C   UNL     1      29.055  29.286  14.636  1.00  0.00     0.004 C 
BRANCH   2   3
ATOM      3  C   UNL     1      30.370  29.983  15.100  1.00  0.00    -0.009 C 
BRANCH   3   4
ATOM      4  C   UNL     1      31.430  30.058  13.963  1.00  0.00     0.000 C 
ATOM      5  C   UNL     1      32.523  28.989  14.002  1.00  0.00     0.004 C 
ENDBRANCH   3   4
BRANCH   3   6
ATOM      6  C   UNL     1      30.146  31.319  15.894  1.00  0.00    -0.014 C 
ATOM      7  C   UNL     1      30.483  31.147  17.388  1.00  0.00     0.007 C 
ATOM      8  C   UNL     1      30.993  32.476  15.333  1.00  0.00     0.007 C 
ENDBRANCH   3   6
ENDBRANCH   2   3
ENDBRANCH   1   2
BRANCH   1   9
ATOM      9  C   UNL     1      29.412  26.840  13.766  1.00  0.00    -0.011 C 
ATOM     10  C   UNL     1      30.504  25.885  14.300  1.00  0.00     0.008 C 
BRANCH   9  11
ATOM     11  C   UNL     1      28.223  26.032  13.135  1.00  0.00    -0.002 C 
ATOM     12  C   UNL     1      28.698  24.935  12.141  1.00  0.00     0.005 C 
ATOM     13  C   UNL     1      27.139  26.808  12.318  1.00  0.00    -0.026 C 
ATOM     14  C   UNL     1      27.575  24.720  11.118  1.00  0.00     0.005 C 
ATOM     15  C   UNL     1      26.457  25.630  11.605  1.00  0.00    -0.001 C 
ATOM     16  C   UNL     1      26.047  27.512  13.153  1.00  0.00     0.007 C 
ATOM     17  C   UNL     1      27.808  27.832  11.355  1.00  0.00     0.012 C 
ATOM     18  C   UNL     1      25.295  25.980  10.647  1.00  0.00     0.000 C 
ATOM     19  C   UNL     1      24.846  27.956  12.289  1.00  0.00     0.005 C 
ATOM     20  C   UNL     1      24.216  26.830  11.401  1.00  0.00     0.003 C 
ATOM     21  C   UNL     1      25.710  26.527   9.246  1.00  0.00     0.031 C 
ATOM     22  C   UNL     1      23.129  27.364  10.394  1.00  0.00    -0.008 C 
ATOM     23  C   UNL     1      25.024  27.807   8.835  1.00  0.00    -0.027 C 
ATOM     24  C   UNL     1      23.820  28.179   9.308  1.00  0.00    -0.065 C 
ATOM     25  C   UNL     1      22.073  28.260  11.115  1.00  0.00     0.014 C 
ATOM     26  C   UNL     1      22.386  26.165   9.743  1.00  0.00     0.016 C 
ATOM     27  C   UNL     1      23.211  29.490   8.857  1.00  0.00     0.063 C 
ATOM     28  C   UNL     1      21.065  28.932  10.156  1.00  0.00     0.033 C 
ATOM     29  C   UNL     1      21.680  29.386   8.805  1.00  0.00     0.118 C 
BRANCH  29  30
ATOM     30  O   UNL     1      21.149  30.628   8.425  1.00  0.00    -0.393 OA
ATOM     31  H   UNL     1      21.797  31.032   7.792  1.00  0.00     0.210 HD
ENDBRANCH  29  30
ENDBRANCH   9  11
ENDBRANCH   1   9
TORSDOF 7
ENDMDL
MODEL 4
REMARK VINA RESULT:    -6.315      1.232      1.824
REMARK INTER + INTRA:         -10.341
REMARK INTER:                  -8.768
REMARK INTRA:                  -1.573
REMARK UNBOUND:                -1.626
REMARK SMILES CC[C@H](CC[C@@H](C)[C@@H]1CC[C@@H]2[C@@H]3CC=C4C[C@H](O)CC[C@]4(C)[C@@H]3CC[C@]21C)C(C)C
REMARK SMILES IDX 5 1 4 2 3 3 2 4 1 5 28 6 29 7 30 8 6 9 7 10 8 11 9 12 26 13
REMARK SMILES IDX 10 14 11 15 25 16 27 17 12 18 24 19 23 20 13 21 21 22 14 23
REMARK SMILES IDX 15 24 20 25 22 26 16 27 19 28 17 29 18 30
REMARK H PARENT 18 31
REMARK Flexibility Score: inf
ROOT
ATOM      1  C   UNL     1      32.407  28.986  13.179  1.00  0.00     0.004 C 
ENDROOT
BRANCH   1   2
ATOM      2  C   UNL     1      31.829  29.176  14.608  1.00  0.00     0.004 C 
BRANCH   2   3
ATOM      3  C   UNL     1      30.839  30.365  14.795  1.00  0.00    -0.009 C 
BRANCH   3   4
ATOM      4  C   UNL     1      29.367  29.886  14.950  1.00  0.00     0.000 C 
ATOM      5  C   UNL     1      28.303  30.794  14.330  1.00  0.00     0.004 C 
ENDBRANCH   3   4
BRANCH   3   6
ATOM      6  C   UNL     1      31.308  31.435  15.843  1.00  0.00    -0.014 C 
ATOM      7  C   UNL     1      31.078  32.868  15.323  1.00  0.00     0.007 C 
ATOM      8  C   UNL     1      30.580  31.284  17.192  1.00  0.00     0.007 C 
ENDBRANCH   3   6
ENDBRANCH   2   3
ENDBRANCH   1   2
BRANCH   1   9
ATOM      9  C   UNL     1      31.950  27.670  12.466  1.00  0.00    -0.011 C 
ATOM     10  C   UNL     1      33.149  26.697  12.415  1.00  0.00     0.008 C 
BRANCH   9  11
ATOM     11  C   UNL     1      30.721  27.003  13.180  1.00  0.00    -0.002 C 
ATOM     12  C   UNL     1      31.051  25.603  13.771  1.00  0.00     0.005 C 
ATOM     13  C   UNL     1      29.422  26.741  12.348  1.00  0.00    -0.026 C 
ATOM     14  C   UNL     1      29.750  24.790  13.788  1.00  0.00     0.005 C 
ATOM     15  C   UNL     1      28.698  25.771  13.295  1.00  0.00    -0.001 C 
ATOM     16  C   UNL     1      28.489  27.958  12.163  1.00  0.00     0.007 C 
ATOM     17  C   UNL     1      29.775  26.130  10.961  1.00  0.00     0.012 C 
ATOM     18  C   UNL     1      27.328  25.235  12.820  1.00  0.00     0.000 C 
ATOM     19  C   UNL     1      27.094  27.549  11.640  1.00  0.00     0.005 C 
ATOM     20  C   UNL     1      26.377  26.431  12.468  1.00  0.00     0.003 C 
ATOM     21  C   UNL     1      27.375  24.092  11.759  1.00  0.00     0.031 C 
ATOM     22  C   UNL     1      25.054  25.905  11.795  1.00  0.00    -0.008 C 
ATOM     23  C   UNL     1      26.513  24.318  10.541  1.00  0.00    -0.027 C 
ATOM     24  C   UNL     1      25.417  25.100  10.553  1.00  0.00    -0.065 C 
ATOM     25  C   UNL     1      24.114  27.083  11.386  1.00  0.00     0.014 C 
ATOM     26  C   UNL     1      24.286  24.995  12.791  1.00  0.00     0.016 C 
ATOM     27  C   UNL     1      24.618  25.289   9.281  1.00  0.00     0.063 C 
ATOM     28  C   UNL     1      22.867  26.640  10.589  1.00  0.00     0.033 C 
ATOM     29  C   UNL     1      23.128  25.472   9.600  1.00  0.00     0.118 C 
BRANCH  29  30
ATOM     30  O   UNL     1      22.425  25.685   8.404  1.00  0.00    -0.393 OA
ATOM     31  H   UNL     1      21.923  24.850   8.218  1.00  0.00     0.210 HD
ENDBRANCH  29  30
ENDBRANCH   9  11
ENDBRANCH   1   9
TORSDOF 7
ENDMDL
MODEL 5
REMARK VINA RESULT:    -6.123      1.845      4.566
REMARK INTER + INTRA:         -10.075
REMARK INTER:                  -8.150
REMARK INTRA:                  -1.925
REMARK UNBOUND:                -1.626
REMARK SMILES CC[C@H](CC[C@@H](C)[C@@H]1CC[C@@H]2[C@@H]3CC=C4C[C@H](O)CC[C@]4(C)[C@@H]3CC[C@]21C)C(C)C
REMARK SMILES IDX 5 1 4 2 3 3 2 4 1 5 28 6 29 7 30 8 6 9 7 10 8 11 9 12 26 13
REMARK SMILES IDX 10 14 11 15 25 16 27 17 12 18 24 19 23 20 13 21 21 22 14 23
REMARK SMILES IDX 15 24 20 25 22 26 16 27 19 28 17 29 18 30
REMARK H PARENT 18 31
REMARK Flexibility Score: inf
ROOT
ATOM      1  C   UNL     1      32.509  29.887  15.091  1.00  0.00     0.004 C 
ENDROOT
BRANCH   1   2
ATOM      2  C   UNL     1      33.110  28.457  15.172  1.00  0.00     0.004 C 
BRANCH   2   3
ATOM      3  C   UNL     1      32.785  27.508  13.980  1.00  0.00    -0.009 C 
BRANCH   3   4
ATOM      4  C   UNL     1      34.021  27.264  13.067  1.00  0.00     0.000 C 
ATOM      5  C   UNL     1      34.018  28.010  11.731  1.00  0.00     0.004 C 
ENDBRANCH   3   4
BRANCH   3   6
ATOM      6  C   UNL     1      31.987  26.218  14.383  1.00  0.00    -0.014 C 
ATOM      7  C   UNL     1      31.889  25.228  13.205  1.00  0.00     0.007 C 
ATOM      8  C   UNL     1      32.627  25.489  15.579  1.00  0.00     0.007 C 
ENDBRANCH   3   6
ENDBRANCH   2   3
ENDBRANCH   1   2
BRANCH   1   9
ATOM      9  C   UNL     1      31.038  30.000  15.612  1.00  0.00    -0.011 C 
ATOM     10  C   UNL     1      31.009  30.997  16.792  1.00  0.00     0.008 C 
BRANCH   9  11
ATOM     11  C   UNL     1      30.040  30.442  14.484  1.00  0.00    -0.002 C 
ATOM     12  C   UNL     1      28.822  31.238  15.032  1.00  0.00     0.005 C 
ATOM     13  C   UNL     1      29.375  29.339  13.597  1.00  0.00    -0.026 C 
ATOM     14  C   UNL     1      27.648  31.007  14.070  1.00  0.00     0.005 C 
ATOM     15  C   UNL     1      28.248  30.164  12.955  1.00  0.00    -0.001 C 
ATOM     16  C   UNL     1      30.241  28.799  12.438  1.00  0.00     0.007 C 
ATOM     17  C   UNL     1      28.874  28.157  14.476  1.00  0.00     0.012 C 
ATOM     18  C   UNL     1      27.307  29.414  11.985  1.00  0.00     0.000 C 
ATOM     19  C   UNL     1      29.413  27.983  11.420  1.00  0.00     0.005 C 
ATOM     20  C   UNL     1      28.145  28.712  10.861  1.00  0.00     0.003 C 
ATOM     21  C   UNL     1      26.213  28.523  12.650  1.00  0.00     0.031 C 
ATOM     22  C   UNL     1      27.225  27.782   9.985  1.00  0.00    -0.008 C 
ATOM     23  C   UNL     1      26.139  27.110  12.126  1.00  0.00    -0.027 C 
ATOM     24  C   UNL     1      26.546  26.762  10.892  1.00  0.00    -0.065 C 
ATOM     25  C   UNL     1      28.049  27.029   8.893  1.00  0.00     0.014 C 
ATOM     26  C   UNL     1      26.143  28.638   9.272  1.00  0.00     0.016 C 
ATOM     27  C   UNL     1      26.454  25.317  10.452  1.00  0.00     0.063 C 
ATOM     28  C   UNL     1      27.227  25.991   8.096  1.00  0.00     0.033 C 
ATOM     29  C   UNL     1      26.176  25.226   8.945  1.00  0.00     0.118 C 
BRANCH  29  30
ATOM     30  O   UNL     1      26.139  23.875   8.566  1.00  0.00    -0.393 OA
ATOM     31  H   UNL     1      26.928  23.442   8.982  1.00  0.00     0.210 HD
ENDBRANCH  29  30
ENDBRANCH   9  11
ENDBRANCH   1   9
TORSDOF 7
ENDMDL
MODEL 6
REMARK VINA RESULT:    -6.055      1.445      2.346
REMARK INTER + INTRA:          -9.982
REMARK INTER:                  -8.285
REMARK INTRA:                  -1.697
REMARK UNBOUND:                -1.626
REMARK SMILES CC[C@H](CC[C@@H](C)[C@@H]1CC[C@@H]2[C@@H]3CC=C4C[C@H](O)CC[C@]4(C)[C@@H]3CC[C@]21C)C(C)C
REMARK SMILES IDX 5 1 4 2 3 3 2 4 1 5 28 6 29 7 30 8 6 9 7 10 8 11 9 12 26 13
REMARK SMILES IDX 10 14 11 15 25 16 27 17 12 18 24 19 23 20 13 21 21 22 14 23
REMARK SMILES IDX 15 24 20 25 22 26 16 27 19 28 17 29 18 30
REMARK H PARENT 18 31
REMARK Flexibility Score: inf
ROOT
ATOM      1  C   UNL     1      31.791  29.874  12.715  1.00  0.00     0.004 C 
ENDROOT
BRANCH   1   2
ATOM      2  C   UNL     1      30.829  30.037  13.924  1.00  0.00     0.004 C 
BRANCH   2   3
ATOM      3  C   UNL     1      31.476  29.914  15.336  1.00  0.00    -0.009 C 
BRANCH   3   4
ATOM      4  C   UNL     1      32.905  29.299  15.277  1.00  0.00     0.000 C 
ATOM      5  C   UNL     1      32.980  27.777  15.418  1.00  0.00     0.004 C 
ENDBRANCH   3   4
BRANCH   3   6
ATOM      6  C   UNL     1      31.340  31.203  16.222  1.00  0.00    -0.014 C 
ATOM      7  C   UNL     1      30.944  32.427  15.374  1.00  0.00     0.007 C 
ATOM      8  C   UNL     1      30.299  31.029  17.344  1.00  0.00     0.007 C 
ENDBRANCH   3   6
ENDBRANCH   2   3
ENDBRANCH   1   2
BRANCH   1   9
ATOM      9  C   UNL     1      31.558  28.575  11.874  1.00  0.00    -0.011 C 
ATOM     10  C   UNL     1      32.902  27.823  11.747  1.00  0.00     0.008 C 
BRANCH   9  11
ATOM     11  C   UNL     1      30.458  27.648  12.504  1.00  0.00    -0.002 C 
ATOM     12  C   UNL     1      30.917  26.168  12.634  1.00  0.00     0.005 C 
ATOM     13  C   UNL     1      29.075  27.530  11.783  1.00  0.00    -0.026 C 
ATOM     14  C   UNL     1      29.662  25.287  12.567  1.00  0.00     0.005 C 
ATOM     15  C   UNL     1      28.517  26.286  12.493  1.00  0.00    -0.001 C 
ATOM     16  C   UNL     1      28.078  28.678  12.056  1.00  0.00     0.007 C 
ATOM     17  C   UNL     1      29.269  27.353  10.250  1.00  0.00     0.012 C 
ATOM     18  C   UNL     1      27.119  25.801  12.043  1.00  0.00     0.000 C 
ATOM     19  C   UNL     1      26.644  28.327  11.599  1.00  0.00     0.005 C 
ATOM     20  C   UNL     1      26.085  26.974  12.153  1.00  0.00     0.003 C 
ATOM     21  C   UNL     1      27.074  25.002  10.704  1.00  0.00     0.031 C 
ATOM     22  C   UNL     1      24.707  26.559  11.512  1.00  0.00    -0.008 C 
ATOM     23  C   UNL     1      26.055  25.491   9.705  1.00  0.00    -0.027 C 
ATOM     24  C   UNL     1      24.940  26.156  10.060  1.00  0.00    -0.065 C 
ATOM     25  C   UNL     1      23.677  27.731  11.561  1.00  0.00     0.014 C 
ATOM     26  C   UNL     1      24.111  25.355  12.290  1.00  0.00     0.016 C 
ATOM     27  C   UNL     1      23.977  26.628   8.992  1.00  0.00     0.063 C 
ATOM     28  C   UNL     1      22.356  27.433  10.817  1.00  0.00     0.033 C 
ATOM     29  C   UNL     1      22.534  26.605   9.515  1.00  0.00     0.118 C 
BRANCH  29  30
ATOM     30  O   UNL     1      21.675  27.087   8.515  1.00  0.00    -0.393 OA
ATOM     31  H   UNL     1      21.164  26.306   8.180  1.00  0.00     0.210 HD
ENDBRANCH  29  30
ENDBRANCH   9  11
ENDBRANCH   1   9
TORSDOF 7
ENDMDL
MODEL 7
REMARK VINA RESULT:    -5.957      1.659      2.945
REMARK INTER + INTRA:          -9.846
REMARK INTER:                  -8.406
REMARK INTRA:                  -1.440
REMARK UNBOUND:                -1.626
REMARK SMILES CC[C@H](CC[C@@H](C)[C@@H]1CC[C@@H]2[C@@H]3CC=C4C[C@H](O)CC[C@]4(C)[C@@H]3CC[C@]21C)C(C)C
REMARK SMILES IDX 5 1 4 2 3 3 2 4 1 5 28 6 29 7 30 8 6 9 7 10 8 11 9 12 26 13
REMARK SMILES IDX 10 14 11 15 25 16 27 17 12 18 24 19 23 20 13 21 21 22 14 23
REMARK SMILES IDX 15 24 20 25 22 26 16 27 19 28 17 29 18 30
REMARK H PARENT 18 31
REMARK Flexibility Score: inf
ROOT
ATOM      1  C   UNL     1      31.843  28.380  14.108  1.00  0.00     0.004 C 
ENDROOT
BRANCH   1   2
ATOM      2  C   UNL     1      31.828  29.825  14.678  1.00  0.00     0.004 C 
BRANCH   2   3
ATOM      3  C   UNL     1      30.466  30.577  14.601  1.00  0.00    -0.009 C 
BRANCH   3   4
ATOM      4  C   UNL     1      29.254  29.601  14.588  1.00  0.00     0.000 C 
ATOM      5  C   UNL     1      27.972  30.142  13.952  1.00  0.00     0.004 C 
ENDBRANCH   3   4
BRANCH   3   6
ATOM      6  C   UNL     1      30.340  31.785  15.596  1.00  0.00    -0.014 C 
ATOM      7  C   UNL     1      30.624  31.348  17.047  1.00  0.00     0.007 C 
ATOM      8  C   UNL     1      31.299  32.936  15.237  1.00  0.00     0.007 C 
ENDBRANCH   3   6
ENDBRANCH   2   3
ENDBRANCH   1   2
BRANCH   1   9
ATOM      9  C   UNL     1      32.382  28.269  12.643  1.00  0.00    -0.011 C 
ATOM     10  C   UNL     1      33.907  28.022  12.697  1.00  0.00     0.008 C 
BRANCH   9  11
ATOM     11  C   UNL     1      31.662  27.136  11.828  1.00  0.00    -0.002 C 
ATOM     12  C   UNL     1      32.261  26.939  10.407  1.00  0.00     0.005 C 
ATOM     13  C   UNL     1      30.128  27.270  11.553  1.00  0.00    -0.026 C 
ATOM     14  C   UNL     1      31.145  26.395   9.506  1.00  0.00     0.005 C 
ATOM     15  C   UNL     1      29.968  26.209  10.452  1.00  0.00    -0.001 C 
ATOM     16  C   UNL     1      29.200  26.846  12.712  1.00  0.00     0.007 C 
ATOM     17  C   UNL     1      29.777  28.716  11.098  1.00  0.00     0.012 C 
ATOM     18  C   UNL     1      28.548  26.029   9.866  1.00  0.00     0.000 C 
ATOM     19  C   UNL     1      27.733  26.681  12.256  1.00  0.00     0.005 C 
ATOM     20  C   UNL     1      27.525  25.745  11.019  1.00  0.00     0.003 C 
ATOM     21  C   UNL     1      28.098  27.106   8.831  1.00  0.00     0.031 C 
ATOM     22  C   UNL     1      26.051  25.758  10.466  1.00  0.00    -0.008 C 
ATOM     23  C   UNL     1      26.751  27.728   9.107  1.00  0.00    -0.027 C 
ATOM     24  C   UNL     1      25.784  27.106   9.805  1.00  0.00    -0.065 C 
ATOM     25  C   UNL     1      25.010  25.531  11.607  1.00  0.00     0.014 C 
ATOM     26  C   UNL     1      25.875  24.627   9.416  1.00  0.00     0.016 C 
ATOM     27  C   UNL     1      24.467  27.810  10.053  1.00  0.00     0.063 C 
ATOM     28  C   UNL     1      23.541  25.679  11.152  1.00  0.00     0.033 C 
ATOM     29  C   UNL     1      23.313  26.799  10.100  1.00  0.00     0.118 C 
BRANCH  29  30
ATOM     30  O   UNL     1      22.116  27.480  10.372  1.00  0.00    -0.393 OA
ATOM     31  H   UNL     1      21.654  26.968  11.085  1.00  0.00     0.210 HD
ENDBRANCH  29  30
ENDBRANCH   9  11
ENDBRANCH   1   9
TORSDOF 7
ENDMDL
MODEL 8
REMARK VINA RESULT:    -5.722      2.652      5.001
REMARK INTER + INTRA:          -9.521
REMARK INTER:                  -7.339
REMARK INTRA:                  -2.182
REMARK UNBOUND:                -1.626
REMARK SMILES CC[C@H](CC[C@@H](C)[C@@H]1CC[C@@H]2[C@@H]3CC=C4C[C@H](O)CC[C@]4(C)[C@@H]3CC[C@]21C)C(C)C
REMARK SMILES IDX 5 1 4 2 3 3 2 4 1 5 28 6 29 7 30 8 6 9 7 10 8 11 9 12 26 13
REMARK SMILES IDX 10 14 11 15 25 16 27 17 12 18 24 19 23 20 13 21 21 22 14 23
REMARK SMILES IDX 15 24 20 25 22 26 16 27 19 28 17 29 18 30
REMARK H PARENT 18 31
REMARK Flexibility Score: inf
ROOT
ATOM      1  C   UNL     1      35.110  26.420  11.860  1.00  0.00     0.004 C 
ENDROOT
BRANCH   1   2
ATOM      2  C   UNL     1      34.909  27.655  10.940  1.00  0.00     0.004 C 
BRANCH   2   3
ATOM      3  C   UNL     1      34.378  27.361   9.505  1.00  0.00    -0.009 C 
BRANCH   3   4
ATOM      4  C   UNL     1      33.726  25.952   9.395  1.00  0.00     0.000 C 
ATOM      5  C   UNL     1      34.449  24.954   8.490  1.00  0.00     0.004 C 
ENDBRANCH   3   4
BRANCH   3   6
ATOM      6  C   UNL     1      33.547  28.533   8.872  1.00  0.00    -0.014 C 
ATOM      7  C   UNL     1      32.254  28.011   8.214  1.00  0.00     0.007 C 
ATOM      8  C   UNL     1      33.167  29.603   9.913  1.00  0.00     0.007 C 
ENDBRANCH   3   6
ENDBRANCH   2   3
ENDBRANCH   1   2
BRANCH   1   9
ATOM      9  C   UNL     1      34.031  26.268  12.983  1.00  0.00    -0.011 C 
ATOM     10  C   UNL     1      34.752  26.000  14.324  1.00  0.00     0.008 C 
BRANCH   9  11
ATOM     11  C   UNL     1      33.103  27.529  13.091  1.00  0.00    -0.002 C 
ATOM     12  C   UNL     1      33.238  28.265  14.454  1.00  0.00     0.005 C 
ATOM     13  C   UNL     1      31.557  27.337  12.942  1.00  0.00    -0.026 C 
ATOM     14  C   UNL     1      31.902  28.965  14.737  1.00  0.00     0.005 C 
ATOM     15  C   UNL     1      31.073  28.688  13.492  1.00  0.00    -0.001 C 
ATOM     16  C   UNL     1      31.031  27.236  11.494  1.00  0.00     0.007 C 
ATOM     17  C   UNL     1      31.076  26.107  13.766  1.00  0.00     0.012 C 
ATOM     18  C   UNL     1      29.543  28.908  13.539  1.00  0.00     0.000 C 
ATOM     19  C   UNL     1      29.496  27.391  11.417  1.00  0.00     0.005 C 
ATOM     20  C   UNL     1      28.924  28.668  12.118  1.00  0.00     0.003 C 
ATOM     21  C   UNL     1      28.791  28.212  14.715  1.00  0.00     0.031 C 
ATOM     22  C   UNL     1      27.351  28.690  12.190  1.00  0.00    -0.008 C 
ATOM     23  C   UNL     1      27.591  27.393  14.306  1.00  0.00    -0.027 C 
ATOM     24  C   UNL     1      26.887  27.632  13.184  1.00  0.00    -0.065 C 
ATOM     25  C   UNL     1      26.711  28.400  10.796  1.00  0.00     0.014 C 
ATOM     26  C   UNL     1      26.868  30.088  12.664  1.00  0.00     0.016 C 
ATOM     27  C   UNL     1      25.706  26.751  12.839  1.00  0.00     0.063 C 
ATOM     28  C   UNL     1      25.173  28.263  10.830  1.00  0.00     0.033 C 
ATOM     29  C   UNL     1      24.627  27.556  12.101  1.00  0.00     0.118 C 
BRANCH  29  30
ATOM     30  O   UNL     1      23.568  26.700  11.760  1.00  0.00    -0.393 OA
ATOM     31  H   UNL     1      22.743  27.110  12.127  1.00  0.00     0.210 HD
ENDBRANCH  29  30
ENDBRANCH   9  11
ENDBRANCH   1   9
TORSDOF 7
ENDMDL
MODEL 9
REMARK VINA RESULT:    -5.434      1.784      4.367
REMARK INTER + INTRA:          -9.124
REMARK INTER:                  -7.186
REMARK INTRA:                  -1.938
REMARK UNBOUND:                -1.626
REMARK SMILES CC[C@H](CC[C@@H](C)[C@@H]1CC[C@@H]2[C@@H]3CC=C4C[C@H](O)CC[C@]4(C)[C@@H]3CC[C@]21C)C(C)C
REMARK SMILES IDX 5 1 4 2 3 3 2 4 1 5 28 6 29 7 30 8 6 9 7 10 8 11 9 12 26 13
REMARK SMILES IDX 10 14 11 15 25 16 27 17 12 18 24 19 23 20 13 21 21 22 14 23
REMARK SMILES IDX 15 24 20 25 22 26 16 27 19 28 17 29 18 30
REMARK H PARENT 18 31
REMARK Flexibility Score: inf
ROOT
ATOM      1  C   UNL     1      32.925  28.428  13.735  1.00  0.00     0.004 C 
ENDROOT
BRANCH   1   2
ATOM      2  C   UNL     1      33.684  27.165  14.226  1.00  0.00     0.004 C 
BRANCH   2   3
ATOM      3  C   UNL     1      32.932  25.810  14.068  1.00  0.00    -0.009 C 
BRANCH   3   4
ATOM      4  C   UNL     1      32.056  25.474  15.310  1.00  0.00     0.000 C 
ATOM      5  C   UNL     1      32.515  24.275  16.142  1.00  0.00     0.004 C 
ENDBRANCH   3   4
BRANCH   3   6
ATOM      6  C   UNL     1      32.221  25.625  12.681  1.00  0.00    -0.014 C 
ATOM      7  C   UNL     1      33.186  25.040  11.630  1.00  0.00     0.007 C 
ATOM      8  C   UNL     1      30.990  24.704  12.777  1.00  0.00     0.007 C 
ENDBRANCH   3   6
ENDBRANCH   2   3
ENDBRANCH   1   2
BRANCH   1   9
ATOM      9  C   UNL     1      31.834  28.953  14.727  1.00  0.00    -0.011 C 
ATOM     10  C   UNL     1      32.511  29.895  15.749  1.00  0.00     0.008 C 
BRANCH   9  11
ATOM     11  C   UNL     1      30.660  29.685  13.986  1.00  0.00    -0.002 C 
ATOM     12  C   UNL     1      29.793  30.556  14.940  1.00  0.00     0.005 C 
ATOM     13  C   UNL     1      29.598  28.822  13.228  1.00  0.00    -0.026 C 
ATOM     14  C   UNL     1      28.381  30.629  14.343  1.00  0.00     0.005 C 
ATOM     15  C   UNL     1      28.500  29.879  13.026  1.00  0.00    -0.001 C 
ATOM     16  C   UNL     1      30.010  28.338  11.821  1.00  0.00     0.007 C 
ATOM     17  C   UNL     1      29.158  27.608  14.097  1.00  0.00     0.012 C 
ATOM     18  C   UNL     1      27.216  29.412  12.303  1.00  0.00     0.000 C 
ATOM     19  C   UNL     1      28.808  27.798  11.014  1.00  0.00     0.005 C 
ATOM     20  C   UNL     1      27.583  28.767  10.921  1.00  0.00     0.003 C 
ATOM     21  C   UNL     1      26.206  28.596  13.167  1.00  0.00     0.031 C 
ATOM     22  C   UNL     1      26.313  28.108  10.264  1.00  0.00    -0.008 C 
ATOM     23  C   UNL     1      25.749  27.295  12.554  1.00  0.00    -0.027 C 
ATOM     24  C   UNL     1      25.739  27.074  11.226  1.00  0.00    -0.065 C 
ATOM     25  C   UNL     1      26.665  27.411   8.912  1.00  0.00     0.014 C 
ATOM     26  C   UNL     1      25.243  29.198   9.984  1.00  0.00     0.016 C 
ATOM     27  C   UNL     1      25.282  25.732  10.694  1.00  0.00     0.063 C 
ATOM     28  C   UNL     1      25.491  26.621   8.292  1.00  0.00     0.033 C 
ATOM     29  C   UNL     1      24.594  25.896   9.332  1.00  0.00     0.118 C 
BRANCH  29  30
ATOM     30  O   UNL     1      24.222  24.631   8.850  1.00  0.00    -0.393 OA
ATOM     31  H   UNL     1      23.432  24.772   8.267  1.00  0.00     0.210 HD
ENDBRANCH  29  30
ENDBRANCH   9  11
ENDBRANCH   1   9
TORSDOF 7
ENDMDL
