MODEL 1
REMARK VINA RESULT:    -6.446      0.000      0.000
REMARK INTER + INTRA:         -10.675
REMARK INTER:                  -8.896
REMARK INTRA:                  -1.778
REMARK UNBOUND:                -1.778
REMARK SMILES CC[C@H](CC[C@H](C)[C@H]1CC[C@@H]2C3=CC[C@H]4C[C@@H](O)CC[C@]4(C)[C@@H]3CC[C@]21C)C(C)C
REMARK SMILES IDX 5 1 4 2 3 3 2 4 1 5 28 6 29 7 30 8 6 9 7 10 8 11 9 12 26 13
REMARK SMILES IDX 10 14 11 15 25 16 27 17 12 18 24 19 23 20 13 21 21 22 14 23
REMARK SMILES IDX 15 24 20 25 22 26 16 27 19 28 17 29 18 30
REMARK H PARENT 18 31
REMARK Flexibility Score: inf
ROOT
ATOM      1  C   UNL     1      20.323   0.042  31.099  1.00  0.00     0.004 C 
ENDROOT
BRANCH   1   2
ATOM      2  C   UNL     1      20.420   1.426  31.784  1.00  0.00     0.004 C 
BRANCH   2   3
ATOM      3  C   UNL     1      19.619   1.593  33.105  1.00  0.00    -0.009 C 
BRANCH   3   4
ATOM      4  C   UNL     1      20.136   2.822  33.900  1.00  0.00     0.000 C 
ATOM      5  C   UNL     1      20.786   2.442  35.236  1.00  0.00     0.004 C 
ENDBRANCH   3   4
BRANCH   3   6
ATOM      6  C   UNL     1      18.070   1.642  32.873  1.00  0.00    -0.014 C 
ATOM      7  C   UNL     1      17.376   0.338  33.280  1.00  0.00     0.007 C 
ATOM      8  C   UNL     1      17.387   2.839  33.554  1.00  0.00     0.007 C 
ENDBRANCH   3   6
ENDBRANCH   2   3
ENDBRANCH   1   2
BRANCH   1   9
ATOM      9  C   UNL     1      19.858   0.061  29.613  1.00  0.00    -0.011 C 
ATOM     10  C   UNL     1      21.085   0.035  28.670  1.00  0.00     0.008 C 
BRANCH   9  11
ATOM     11  C   UNL     1      18.854   1.249  29.384  1.00  0.00    -0.002 C 
ATOM     12  C   UNL     1      19.345   2.309  28.353  1.00  0.00     0.005 C 
ATOM     13  C   UNL     1      17.388   0.912  28.948  1.00  0.00    -0.023 C 
ATOM     14  C   UNL     1      18.276   2.415  27.254  1.00  0.00     0.009 C 
ATOM     15  C   UNL     1      17.447   1.152  27.437  1.00  0.00     0.021 C 
ATOM     16  C   UNL     1      16.843  -0.529  29.212  1.00  0.00     0.008 C 
ATOM     17  C   UNL     1      16.433   1.929  29.662  1.00  0.00     0.012 C 
ATOM     18  C   UNL     1      16.078   0.992  26.830  1.00  0.00    -0.067 C 
ATOM     19  C   UNL     1      15.491  -0.807  28.481  1.00  0.00     0.009 C 
ATOM     20  C   UNL     1      15.541  -0.433  26.965  1.00  0.00     0.021 C 
ATOM     21  C   UNL     1      15.285   2.043  26.525  1.00  0.00    -0.027 C 
ATOM     22  C   UNL     1      14.232  -0.648  26.118  1.00  0.00    -0.023 C 
ATOM     23  C   UNL     1      13.851   1.898  26.089  1.00  0.00     0.031 C 
ATOM     24  C   UNL     1      13.240   0.519  26.401  1.00  0.00     0.002 C 
ATOM     25  C   UNL     1      13.531  -1.989  26.479  1.00  0.00     0.010 C 
ATOM     26  C   UNL     1      14.663  -0.689  24.615  1.00  0.00     0.012 C 
ATOM     27  C   UNL     1      11.909   0.340  25.635  1.00  0.00     0.036 C 
ATOM     28  C   UNL     1      12.185  -2.191  25.756  1.00  0.00     0.032 C 
ATOM     29  C   UNL     1      11.223  -0.998  25.954  1.00  0.00     0.114 C 
BRANCH  29  30
ATOM     30  O   UNL     1      10.124  -1.136  25.084  1.00  0.00    -0.393 OA
ATOM     31  H   UNL     1       9.793  -0.222  24.871  1.00  0.00     0.210 HD
ENDBRANCH  29  30
ENDBRANCH   9  11
ENDBRANCH   1   9
TORSDOF 7
ENDMDL
MODEL 2
REMARK VINA RESULT:    -6.144     14.538     18.659
REMARK INTER + INTRA:         -10.257
REMARK INTER:                  -8.310
REMARK INTRA:                  -1.947
REMARK UNBOUND:                -1.778
REMARK SMILES CC[C@H](CC[C@H](C)[C@H]1CC[C@@H]2C3=CC[C@H]4C[C@@H](O)CC[C@]4(C)[C@@H]3CC[C@]21C)C(C)C
REMARK SMILES IDX 5 1 4 2 3 3 2 4 1 5 28 6 29 7 30 8 6 9 7 10 8 11 9 12 26 13
REMARK SMILES IDX 10 14 11 15 25 16 27 17 12 18 24 19 23 20 13 21 21 22 14 23
REMARK SMILES IDX 15 24 20 25 22 26 16 27 19 28 17 29 18 30
REMARK H PARENT 18 31
REMARK Flexibility Score: inf
ROOT
ATOM      1  C   UNL     1      17.182 -13.764  17.618  1.00  0.00     0.004 C 
ENDROOT
BRANCH   1   2
ATOM      2  C   UNL     1      17.550 -14.621  16.384  1.00  0.00     0.004 C 
BRANCH   2   3
ATOM      3  C   UNL     1      16.538 -15.736  15.999  1.00  0.00    -0.009 C 
BRANCH   3   4
ATOM      4  C   UNL     1      17.232 -17.124  16.008  1.00  0.00     0.000 C 
ATOM      5  C   UNL     1      18.761 -17.030  16.089  1.00  0.00     0.004 C 
ENDBRANCH   3   4
BRANCH   3   6
ATOM      6  C   UNL     1      15.244 -15.711  16.883  1.00  0.00    -0.014 C 
ATOM      7  C   UNL     1      14.115 -14.893  16.245  1.00  0.00     0.007 C 
ATOM      8  C   UNL     1      14.733 -17.111  17.260  1.00  0.00     0.007 C 
ENDBRANCH   3   6
ENDBRANCH   2   3
ENDBRANCH   1   2
BRANCH   1   9
ATOM      9  C   UNL     1      18.030 -14.033  18.897  1.00  0.00    -0.011 C 
ATOM     10  C   UNL     1      19.534 -14.089  18.537  1.00  0.00     0.008 C 
BRANCH   9  11
ATOM     11  C   UNL     1      17.467 -15.292  19.653  1.00  0.00    -0.002 C 
ATOM     12  C   UNL     1      18.559 -16.160  20.346  1.00  0.00     0.005 C 
ATOM     13  C   UNL     1      16.372 -15.073  20.751  1.00  0.00    -0.023 C 
ATOM     14  C   UNL     1      18.199 -16.256  21.837  1.00  0.00     0.009 C 
ATOM     15  C   UNL     1      17.200 -15.125  22.037  1.00  0.00     0.021 C 
ATOM     16  C   UNL     1      15.549 -13.743  20.731  1.00  0.00     0.008 C 
ATOM     17  C   UNL     1      15.362 -16.268  20.660  1.00  0.00     0.012 C 
ATOM     18  C   UNL     1      16.300 -15.050  23.241  1.00  0.00    -0.067 C 
ATOM     19  C   UNL     1      14.705 -13.536  22.029  1.00  0.00     0.009 C 
ATOM     20  C   UNL     1      15.550 -13.721  23.329  1.00  0.00     0.021 C 
ATOM     21  C   UNL     1      15.934 -16.140  23.951  1.00  0.00    -0.027 C 
ATOM     22  C   UNL     1      14.809 -13.557  24.709  1.00  0.00    -0.023 C 
ATOM     23  C   UNL     1      14.895 -16.107  25.041  1.00  0.00     0.031 C 
ATOM     24  C   UNL     1      14.003 -14.853  25.016  1.00  0.00     0.002 C 
ATOM     25  C   UNL     1      13.821 -12.355  24.687  1.00  0.00     0.010 C 
ATOM     26  C   UNL     1      15.909 -13.290  25.788  1.00  0.00     0.012 C 
ATOM     27  C   UNL     1      13.210 -14.736  26.337  1.00  0.00     0.036 C 
ATOM     28  C   UNL     1      12.991 -12.222  25.979  1.00  0.00     0.032 C 
ATOM     29  C   UNL     1      12.255 -13.531  26.345  1.00  0.00     0.114 C 
BRANCH  29  30
ATOM     30  O   UNL     1      11.718 -13.416  27.642  1.00  0.00    -0.393 OA
ATOM     31  H   UNL     1      12.385 -13.792  28.278  1.00  0.00     0.210 HD
ENDBRANCH  29  30
ENDBRANCH   9  11
ENDBRANCH   1   9
TORSDOF 7
ENDMDL
MODEL 3
REMARK VINA RESULT:    -5.925     12.034     15.843
REMARK INTER + INTRA:          -9.955
REMARK INTER:                  -8.923
REMARK INTRA:                  -1.032
REMARK UNBOUND:                -1.778
REMARK SMILES CC[C@H](CC[C@H](C)[C@H]1CC[C@@H]2C3=CC[C@H]4C[C@@H](O)CC[C@]4(C)[C@@H]3CC[C@]21C)C(C)C
REMARK SMILES IDX 5 1 4 2 3 3 2 4 1 5 28 6 29 7 30 8 6 9 7 10 8 11 9 12 26 13
REMARK SMILES IDX 10 14 11 15 25 16 27 17 12 18 24 19 23 20 13 21 21 22 14 23
REMARK SMILES IDX 15 24 20 25 22 26 16 27 19 28 17 29 18 30
REMARK H PARENT 18 31
REMARK Flexibility Score: inf
ROOT
ATOM      1  C   UNL     1      11.817 -10.773  27.046  1.00  0.00     0.004 C 
ENDROOT
BRANCH   1   2
ATOM      2  C   UNL     1      10.650  -9.763  26.944  1.00  0.00     0.004 C 
BRANCH   2   3
ATOM      3  C   UNL     1      10.580  -8.682  28.059  1.00  0.00    -0.009 C 
BRANCH   3   4
ATOM      4  C   UNL     1      10.539  -7.262  27.434  1.00  0.00     0.000 C 
ATOM      5  C   UNL     1      10.342  -7.281  25.913  1.00  0.00     0.004 C 
ENDBRANCH   3   4
BRANCH   3   6
ATOM      6  C   UNL     1       9.405  -8.925  29.066  1.00  0.00    -0.014 C 
ATOM      7  C   UNL     1       9.767  -8.517  30.498  1.00  0.00     0.007 C 
ATOM      8  C   UNL     1       8.088  -8.253  28.643  1.00  0.00     0.007 C 
ENDBRANCH   3   6
ENDBRANCH   2   3
ENDBRANCH   1   2
BRANCH   1   9
ATOM      9  C   UNL     1      12.460 -11.192  25.692  1.00  0.00    -0.011 C 
ATOM     10  C   UNL     1      11.811 -10.406  24.527  1.00  0.00     0.008 C 
BRANCH   9  11
ATOM     11  C   UNL     1      12.429 -12.758  25.550  1.00  0.00    -0.002 C 
ATOM     12  C   UNL     1      11.474 -13.279  24.434  1.00  0.00     0.005 C 
ATOM     13  C   UNL     1      13.781 -13.511  25.306  1.00  0.00    -0.023 C 
ATOM     14  C   UNL     1      12.311 -14.135  23.470  1.00  0.00     0.009 C 
ATOM     15  C   UNL     1      13.745 -13.739  23.793  1.00  0.00     0.021 C 
ATOM     16  C   UNL     1      15.115 -12.788  25.679  1.00  0.00     0.008 C 
ATOM     17  C   UNL     1      13.723 -14.861  26.100  1.00  0.00     0.012 C 
ATOM     18  C   UNL     1      14.926 -14.568  23.362  1.00  0.00    -0.067 C 
ATOM     19  C   UNL     1      16.377 -13.527  25.127  1.00  0.00     0.009 C 
ATOM     20  C   UNL     1      16.258 -13.860  23.606  1.00  0.00     0.021 C 
ATOM     21  C   UNL     1      14.840 -15.896  23.124  1.00  0.00    -0.027 C 
ATOM     22  C   UNL     1      17.459 -14.624  22.932  1.00  0.00    -0.023 C 
ATOM     23  C   UNL     1      16.040 -16.770  22.870  1.00  0.00     0.031 C 
ATOM     24  C   UNL     1      17.376 -16.135  23.297  1.00  0.00     0.002 C 
ATOM     25  C   UNL     1      18.830 -14.073  23.417  1.00  0.00     0.010 C 
ATOM     26  C   UNL     1      17.336 -14.393  21.390  1.00  0.00     0.012 C 
ATOM     27  C   UNL     1      18.559 -16.934  22.705  1.00  0.00     0.036 C 
ATOM     28  C   UNL     1      20.036 -14.863  22.869  1.00  0.00     0.032 C 
ATOM     29  C   UNL     1      19.923 -16.379  23.147  1.00  0.00     0.114 C 
BRANCH  29  30
ATOM     30  O   UNL     1      20.920 -17.061  22.422  1.00  0.00    -0.393 OA
ATOM     31  H   UNL     1      20.467 -17.741  21.855  1.00  0.00     0.210 HD
ENDBRANCH  29  30
ENDBRANCH   9  11
ENDBRANCH   1   9
TORSDOF 7
ENDMDL
MODEL 4
REMARK VINA RESULT:    -5.857     12.843     16.622
REMARK INTER + INTRA:          -9.860
REMARK INTER:                  -8.940
REMARK INTRA:                  -0.921
REMARK UNBOUND:                -1.778
REMARK SMILES CC[C@H](CC[C@H](C)[C@H]1CC[C@@H]2C3=CC[C@H]4C[C@@H](O)CC[C@]4(C)[C@@H]3CC[C@]21C)C(C)C
REMARK SMILES IDX 5 1 4 2 3 3 2 4 1 5 28 6 29 7 30 8 6 9 7 10 8 11 9 12 26 13
REMARK SMILES IDX 10 14 11 15 25 16 27 17 12 18 24 19 23 20 13 21 21 22 14 23
REMARK SMILES IDX 15 24 20 25 22 26 16 27 19 28 17 29 18 30
REMARK H PARENT 18 31
REMARK Flexibility Score: inf
ROOT
ATOM      1  C   UNL     1      12.103 -12.009  26.710  1.00  0.00     0.004 C 
ENDROOT
BRANCH   1   2
ATOM      2  C   UNL     1      12.183 -10.505  27.058  1.00  0.00     0.004 C 
BRANCH   2   3
ATOM      3  C   UNL     1      10.931  -9.654  26.706  1.00  0.00    -0.009 C 
BRANCH   3   4
ATOM      4  C   UNL     1      10.599  -8.675  27.864  1.00  0.00     0.000 C 
ATOM      5  C   UNL     1       9.182  -8.861  28.419  1.00  0.00     0.004 C 
ENDBRANCH   3   4
BRANCH   3   6
ATOM      6  C   UNL     1      11.064  -8.922  25.327  1.00  0.00    -0.014 C 
ATOM      7  C   UNL     1      10.301  -7.594  25.293  1.00  0.00     0.007 C 
ATOM      8  C   UNL     1      12.522  -8.704  24.888  1.00  0.00     0.007 C 
ENDBRANCH   3   6
ENDBRANCH   2   3
ENDBRANCH   1   2
BRANCH   1   9
ATOM      9  C   UNL     1      12.668 -12.405  25.313  1.00  0.00    -0.011 C 
ATOM     10  C   UNL     1      11.549 -13.028  24.443  1.00  0.00     0.008 C 
BRANCH   9  11
ATOM     11  C   UNL     1      13.957 -13.288  25.491  1.00  0.00    -0.002 C 
ATOM     12  C   UNL     1      13.717 -14.620  26.261  1.00  0.00     0.005 C 
ATOM     13  C   UNL     1      14.757 -13.703  24.209  1.00  0.00    -0.023 C 
ATOM     14  C   UNL     1      14.179 -15.771  25.353  1.00  0.00     0.009 C 
ATOM     15  C   UNL     1      14.256 -15.130  23.975  1.00  0.00     0.021 C 
ATOM     16  C   UNL     1      14.554 -12.872  22.901  1.00  0.00     0.008 C 
ATOM     17  C   UNL     1      16.282 -13.673  24.571  1.00  0.00     0.012 C 
ATOM     18  C   UNL     1      15.005 -15.765  22.833  1.00  0.00    -0.067 C 
ATOM     19  C   UNL     1      15.184 -13.559  21.647  1.00  0.00     0.009 C 
ATOM     20  C   UNL     1      14.755 -15.054  21.503  1.00  0.00     0.021 C 
ATOM     21  C   UNL     1      16.032 -16.623  23.018  1.00  0.00    -0.027 C 
ATOM     22  C   UNL     1      15.338 -15.866  20.287  1.00  0.00    -0.023 C 
ATOM     23  C   UNL     1      16.904 -17.123  21.897  1.00  0.00     0.031 C 
ATOM     24  C   UNL     1      16.803 -16.288  20.607  1.00  0.00     0.002 C 
ATOM     25  C   UNL     1      15.344 -15.017  18.984  1.00  0.00     0.010 C 
ATOM     26  C   UNL     1      14.410 -17.107  20.080  1.00  0.00     0.012 C 
ATOM     27  C   UNL     1      17.451 -17.048  19.427  1.00  0.00     0.036 C 
ATOM     28  C   UNL     1      16.010 -15.731  17.790  1.00  0.00     0.032 C 
ATOM     29  C   UNL     1      17.432 -16.236  18.123  1.00  0.00     0.114 C 
BRANCH  29  30
ATOM     30  O   UNL     1      17.882 -17.076  17.086  1.00  0.00    -0.393 OA
ATOM     31  H   UNL     1      17.708 -18.015  17.364  1.00  0.00     0.210 HD
ENDBRANCH  29  30
ENDBRANCH   9  11
ENDBRANCH   1   9
TORSDOF 7
ENDMDL
MODEL 5
REMARK VINA RESULT:    -5.848     11.729     15.560
REMARK INTER + INTRA:          -9.849
REMARK INTER:                  -8.717
REMARK INTRA:                  -1.132
REMARK UNBOUND:                -1.778
REMARK SMILES CC[C@H](CC[C@H](C)[C@H]1CC[C@@H]2C3=CC[C@H]4C[C@@H](O)CC[C@]4(C)[C@@H]3CC[C@]21C)C(C)C
REMARK SMILES IDX 5 1 4 2 3 3 2 4 1 5 28 6 29 7 30 8 6 9 7 10 8 11 9 12 26 13
REMARK SMILES IDX 10 14 11 15 25 16 27 17 12 18 24 19 23 20 13 21 21 22 14 23
REMARK SMILES IDX 15 24 20 25 22 26 16 27 19 28 17 29 18 30
REMARK H PARENT 18 31
REMARK Flexibility Score: inf
ROOT
ATOM      1  C   UNL     1      12.487 -10.405  26.808  1.00  0.00     0.004 C 
ENDROOT
BRANCH   1   2
ATOM      2  C   UNL     1      11.001 -10.233  27.197  1.00  0.00     0.004 C 
BRANCH   2   3
ATOM      3  C   UNL     1      10.615  -8.872  27.842  1.00  0.00    -0.009 C 
BRANCH   3   4
ATOM      4  C   UNL     1      10.361  -7.805  26.743  1.00  0.00     0.000 C 
ATOM      5  C   UNL     1      11.324  -6.615  26.829  1.00  0.00     0.004 C 
ENDBRANCH   3   4
BRANCH   3   6
ATOM      6  C   UNL     1       9.415  -8.994  28.842  1.00  0.00    -0.014 C 
ATOM      7  C   UNL     1       9.803  -8.599  30.271  1.00  0.00     0.007 C 
ATOM      8  C   UNL     1       8.167  -8.214  28.399  1.00  0.00     0.007 C 
ENDBRANCH   3   6
ENDBRANCH   2   3
ENDBRANCH   1   2
BRANCH   1   9
ATOM      9  C   UNL     1      12.748 -10.861  25.342  1.00  0.00    -0.011 C 
ATOM     10  C   UNL     1      11.607 -10.367  24.419  1.00  0.00     0.008 C 
BRANCH   9  11
ATOM     11  C   UNL     1      13.023 -12.409  25.307  1.00  0.00    -0.002 C 
ATOM     12  C   UNL     1      11.784 -13.268  24.916  1.00  0.00     0.005 C 
ATOM     13  C   UNL     1      14.183 -12.938  24.397  1.00  0.00    -0.023 C 
ATOM     14  C   UNL     1      12.172 -14.109  23.689  1.00  0.00     0.009 C 
ATOM     15  C   UNL     1      13.419 -13.416  23.160  1.00  0.00     0.021 C 
ATOM     16  C   UNL     1      15.298 -11.938  23.951  1.00  0.00     0.008 C 
ATOM     17  C   UNL     1      14.873 -14.127  25.150  1.00  0.00     0.012 C 
ATOM     18  C   UNL     1      14.360 -14.081  22.191  1.00  0.00    -0.067 C 
ATOM     19  C   UNL     1      16.220 -12.521  22.832  1.00  0.00     0.009 C 
ATOM     20  C   UNL     1      15.409 -13.117  21.638  1.00  0.00     0.021 C 
ATOM     21  C   UNL     1      14.483 -15.424  22.094  1.00  0.00    -0.027 C 
ATOM     22  C   UNL     1      16.223 -13.755  20.450  1.00  0.00    -0.023 C 
ATOM     23  C   UNL     1      15.543 -16.100  21.264  1.00  0.00     0.031 C 
ATOM     24  C   UNL     1      16.708 -15.175  20.865  1.00  0.00     0.002 C 
ATOM     25  C   UNL     1      17.467 -12.896  20.085  1.00  0.00     0.010 C 
ATOM     26  C   UNL     1      15.263 -13.808  19.217  1.00  0.00     0.012 C 
ATOM     27  C   UNL     1      17.559 -15.837  19.758  1.00  0.00     0.036 C 
ATOM     28  C   UNL     1      18.358 -13.538  19.003  1.00  0.00     0.032 C 
ATOM     29  C   UNL     1      18.773 -14.983  19.361  1.00  0.00     0.114 C 
BRANCH  29  30
ATOM     30  O   UNL     1      19.375 -15.586  18.239  1.00  0.00    -0.393 OA
ATOM     31  H   UNL     1      20.079 -14.967  17.907  1.00  0.00     0.210 HD
ENDBRANCH  29  30
ENDBRANCH   9  11
ENDBRANCH   1   9
TORSDOF 7
ENDMDL
MODEL 6
REMARK VINA RESULT:    -5.724      2.038      4.195
REMARK INTER + INTRA:          -9.678
REMARK INTER:                  -7.276
REMARK INTRA:                  -2.402
REMARK UNBOUND:                -1.778
REMARK SMILES CC[C@H](CC[C@H](C)[C@H]1CC[C@@H]2C3=CC[C@H]4C[C@@H](O)CC[C@]4(C)[C@@H]3CC[C@]21C)C(C)C
REMARK SMILES IDX 5 1 4 2 3 3 2 4 1 5 28 6 29 7 30 8 6 9 7 10 8 11 9 12 26 13
REMARK SMILES IDX 10 14 11 15 25 16 27 17 12 18 24 19 23 20 13 21 21 22 14 23
REMARK SMILES IDX 15 24 20 25 22 26 16 27 19 28 17 29 18 30
REMARK H PARENT 18 31
REMARK Flexibility Score: inf
ROOT
ATOM      1  C   UNL     1      20.087  -0.258  28.413  1.00  0.00     0.004 C 
ENDROOT
BRANCH   1   2
ATOM      2  C   UNL     1      19.617  -1.679  28.024  1.00  0.00     0.004 C 
BRANCH   2   3
ATOM      3  C   UNL     1      18.782  -1.790  26.718  1.00  0.00    -0.009 C 
BRANCH   3   4
ATOM      4  C   UNL     1      19.505  -1.067  25.550  1.00  0.00     0.000 C 
ATOM      5  C   UNL     1      18.537  -0.381  24.578  1.00  0.00     0.004 C 
ENDBRANCH   3   4
BRANCH   3   6
ATOM      6  C   UNL     1      18.407  -3.269  26.363  1.00  0.00    -0.014 C 
ATOM      7  C   UNL     1      18.794  -4.254  27.472  1.00  0.00     0.007 C 
ATOM      8  C   UNL     1      16.927  -3.453  25.987  1.00  0.00     0.007 C 
ENDBRANCH   3   6
ENDBRANCH   2   3
ENDBRANCH   1   2
BRANCH   1   9
ATOM      9  C   UNL     1      19.518   0.292  29.754  1.00  0.00    -0.011 C 
ATOM     10  C   UNL     1      18.973  -0.870  30.620  1.00  0.00     0.008 C 
BRANCH   9  11
ATOM     11  C   UNL     1      18.498   1.453  29.463  1.00  0.00    -0.002 C 
ATOM     12  C   UNL     1      19.007   2.506  28.434  1.00  0.00     0.005 C 
ATOM     13  C   UNL     1      17.059   1.074  28.972  1.00  0.00    -0.023 C 
ATOM     14  C   UNL     1      17.983   2.569  27.290  1.00  0.00     0.009 C 
ATOM     15  C   UNL     1      17.175   1.290  27.461  1.00  0.00     0.021 C 
ATOM     16  C   UNL     1      16.537  -0.374  29.240  1.00  0.00     0.008 C 
ATOM     17  C   UNL     1      16.053   2.081  29.629  1.00  0.00     0.012 C 
ATOM     18  C   UNL     1      15.837   1.088  26.801  1.00  0.00    -0.067 C 
ATOM     19  C   UNL     1      15.222  -0.696  28.459  1.00  0.00     0.009 C 
ATOM     20  C   UNL     1      15.327  -0.346  26.940  1.00  0.00     0.021 C 
ATOM     21  C   UNL     1      15.034   2.115  26.445  1.00  0.00    -0.027 C 
ATOM     22  C   UNL     1      14.059  -0.606  26.043  1.00  0.00    -0.023 C 
ATOM     23  C   UNL     1      13.623   1.929  25.953  1.00  0.00     0.031 C 
ATOM     24  C   UNL     1      13.031   0.542  26.264  1.00  0.00     0.002 C 
ATOM     25  C   UNL     1      13.375  -1.957  26.400  1.00  0.00     0.010 C 
ATOM     26  C   UNL     1      14.554  -0.663  24.561  1.00  0.00     0.012 C 
ATOM     27  C   UNL     1      11.738   0.319  25.447  1.00  0.00     0.036 C 
ATOM     28  C   UNL     1      12.065  -2.203  25.625  1.00  0.00     0.032 C 
ATOM     29  C   UNL     1      11.069  -1.029  25.762  1.00  0.00     0.114 C 
BRANCH  29  30
ATOM     30  O   UNL     1      10.010  -1.207  24.850  1.00  0.00    -0.393 OA
ATOM     31  H   UNL     1      10.170  -2.064  24.369  1.00  0.00     0.210 HD
ENDBRANCH  29  30
ENDBRANCH   9  11
ENDBRANCH   1   9
TORSDOF 7
ENDMDL
MODEL 7
REMARK VINA RESULT:    -5.634     12.434     15.472
REMARK INTER + INTRA:          -9.553
REMARK INTER:                  -7.671
REMARK INTRA:                  -1.883
REMARK UNBOUND:                -1.778
REMARK SMILES CC[C@H](CC[C@H](C)[C@H]1CC[C@@H]2C3=CC[C@H]4C[C@@H](O)CC[C@]4(C)[C@@H]3CC[C@]21C)C(C)C
REMARK SMILES IDX 5 1 4 2 3 3 2 4 1 5 28 6 29 7 30 8 6 9 7 10 8 11 9 12 26 13
REMARK SMILES IDX 10 14 11 15 25 16 27 17 12 18 24 19 23 20 13 21 21 22 14 23
REMARK SMILES IDX 15 24 20 25 22 26 16 27 19 28 17 29 18 30
REMARK H PARENT 18 31
REMARK Flexibility Score: inf
ROOT
ATOM      1  C   UNL     1      13.285 -14.434  26.280  1.00  0.00     0.004 C 
ENDROOT
BRANCH   1   2
ATOM      2  C   UNL     1      12.142 -13.470  25.884  1.00  0.00     0.004 C 
BRANCH   2   3
ATOM      3  C   UNL     1      12.568 -12.164  25.158  1.00  0.00    -0.009 C 
BRANCH   3   4
ATOM      4  C   UNL     1      11.520 -11.777  24.081  1.00  0.00     0.000 C 
ATOM      5  C   UNL     1      11.736 -12.501  22.746  1.00  0.00     0.004 C 
ENDBRANCH   3   4
BRANCH   3   6
ATOM      6  C   UNL     1      12.865 -10.989  26.150  1.00  0.00    -0.014 C 
ATOM      7  C   UNL     1      13.088  -9.655  25.428  1.00  0.00     0.007 C 
ATOM      8  C   UNL     1      11.795 -10.825  27.243  1.00  0.00     0.007 C 
ENDBRANCH   3   6
ENDBRANCH   2   3
ENDBRANCH   1   2
BRANCH   1   9
ATOM      9  C   UNL     1      14.465 -14.526  25.268  1.00  0.00    -0.011 C 
ATOM     10  C   UNL     1      15.010 -15.974  25.215  1.00  0.00     0.008 C 
BRANCH   9  11
ATOM     11  C   UNL     1      15.529 -13.413  25.589  1.00  0.00    -0.002 C 
ATOM     12  C   UNL     1      16.729 -13.909  26.449  1.00  0.00     0.005 C 
ATOM     13  C   UNL     1      16.184 -12.642  24.393  1.00  0.00    -0.023 C 
ATOM     14  C   UNL     1      18.017 -13.610  25.665  1.00  0.00     0.009 C 
ATOM     15  C   UNL     1      17.524 -13.367  24.246  1.00  0.00     0.021 C 
ATOM     16  C   UNL     1      15.450 -12.645  23.012  1.00  0.00     0.008 C 
ATOM     17  C   UNL     1      16.374 -11.151  24.836  1.00  0.00     0.012 C 
ATOM     18  C   UNL     1      18.372 -12.689  23.203  1.00  0.00    -0.067 C 
ATOM     19  C   UNL     1      16.340 -12.088  21.855  1.00  0.00     0.009 C 
ATOM     20  C   UNL     1      17.751 -12.758  21.808  1.00  0.00     0.021 C 
ATOM     21  C   UNL     1      19.368 -11.831  23.515  1.00  0.00    -0.027 C 
ATOM     22  C   UNL     1      18.753 -12.269  20.696  1.00  0.00    -0.023 C 
ATOM     23  C   UNL     1      20.104 -11.010  22.489  1.00  0.00     0.031 C 
ATOM     24  C   UNL     1      19.382 -10.913  21.132  1.00  0.00     0.002 C 
ATOM     25  C   UNL     1      18.036 -12.064  19.331  1.00  0.00     0.010 C 
ATOM     26  C   UNL     1      19.837 -13.385  20.538  1.00  0.00     0.012 C 
ATOM     27  C   UNL     1      20.340 -10.353  20.056  1.00  0.00     0.036 C 
ATOM     28  C   UNL     1      18.953 -11.479  18.239  1.00  0.00     0.032 C 
ATOM     29  C   UNL     1      19.655 -10.179  18.692  1.00  0.00     0.114 C 
BRANCH  29  30
ATOM     30  O   UNL     1      20.647  -9.834  17.753  1.00  0.00    -0.393 OA
ATOM     31  H   UNL     1      21.109 -10.673  17.483  1.00  0.00     0.210 HD
ENDBRANCH  29  30
ENDBRANCH   9  11
ENDBRANCH   1   9
TORSDOF 7
ENDMDL
MODEL 8
REMARK VINA RESULT:    -5.613     12.848     16.266
REMARK INTER + INTRA:          -9.524
REMARK INTER:                  -8.161
REMARK INTRA:                  -1.363
REMARK UNBOUND:                -1.778
REMARK SMILES CC[C@H](CC[C@H](C)[C@H]1CC[C@@H]2C3=CC[C@H]4C[C@@H](O)CC[C@]4(C)[C@@H]3CC[C@]21C)C(C)C
REMARK SMILES IDX 5 1 4 2 3 3 2 4 1 5 28 6 29 7 30 8 6 9 7 10 8 11 9 12 26 13
REMARK SMILES IDX 10 14 11 15 25 16 27 17 12 18 24 19 23 20 13 21 21 22 14 23
REMARK SMILES IDX 15 24 20 25 22 26 16 27 19 28 17 29 18 30
REMARK H PARENT 18 31
REMARK Flexibility Score: inf
ROOT
ATOM      1  C   UNL     1      17.116 -12.022  18.679  1.00  0.00     0.004 C 
ENDROOT
BRANCH   1   2
ATOM      2  C   UNL     1      17.938 -10.722  18.517  1.00  0.00     0.004 C 
BRANCH   2   3
ATOM      3  C   UNL     1      17.570  -9.556  19.476  1.00  0.00    -0.009 C 
BRANCH   3   4
ATOM      4  C   UNL     1      18.281  -9.735  20.844  1.00  0.00     0.000 C 
ATOM      5  C   UNL     1      17.303  -9.809  22.023  1.00  0.00     0.004 C 
ENDBRANCH   3   4
BRANCH   3   6
ATOM      6  C   UNL     1      17.838  -8.146  18.846  1.00  0.00    -0.014 C 
ATOM      7  C   UNL     1      17.500  -8.100  17.352  1.00  0.00     0.007 C 
ATOM      8  C   UNL     1      17.125  -7.001  19.584  1.00  0.00     0.007 C 
ENDBRANCH   3   6
ENDBRANCH   2   3
ENDBRANCH   1   2
BRANCH   1   9
ATOM      9  C   UNL     1      17.813 -13.322  18.179  1.00  0.00    -0.011 C 
ATOM     10  C   UNL     1      16.867 -14.105  17.236  1.00  0.00     0.008 C 
BRANCH   9  11
ATOM     11  C   UNL     1      18.367 -14.134  19.407  1.00  0.00    -0.002 C 
ATOM     12  C   UNL     1      19.629 -13.505  20.070  1.00  0.00     0.005 C 
ATOM     13  C   UNL     1      17.396 -14.437  20.598  1.00  0.00    -0.023 C 
ATOM     14  C   UNL     1      19.304 -13.270  21.554  1.00  0.00     0.009 C 
ATOM     15  C   UNL     1      17.785 -13.352  21.605  1.00  0.00     0.021 C 
ATOM     16  C   UNL     1      15.855 -14.363  20.343  1.00  0.00     0.008 C 
ATOM     17  C   UNL     1      17.730 -15.873  21.130  1.00  0.00     0.012 C 
ATOM     18  C   UNL     1      17.033 -13.544  22.895  1.00  0.00    -0.067 C 
ATOM     19  C   UNL     1      15.022 -14.406  21.663  1.00  0.00     0.009 C 
ATOM     20  C   UNL     1      15.524 -13.374  22.723  1.00  0.00     0.021 C 
ATOM     21  C   UNL     1      17.580 -14.135  23.981  1.00  0.00    -0.027 C 
ATOM     22  C   UNL     1      14.778 -13.331  24.109  1.00  0.00    -0.023 C 
ATOM     23  C   UNL     1      16.790 -14.496  25.212  1.00  0.00     0.031 C 
ATOM     24  C   UNL     1      15.266 -14.517  24.992  1.00  0.00     0.002 C 
ATOM     25  C   UNL     1      13.237 -13.452  23.932  1.00  0.00     0.010 C 
ATOM     26  C   UNL     1      15.107 -11.949  24.761  1.00  0.00     0.012 C 
ATOM     27  C   UNL     1      14.532 -14.560  26.351  1.00  0.00     0.036 C 
ATOM     28  C   UNL     1      12.470 -13.526  25.267  1.00  0.00     0.032 C 
ATOM     29  C   UNL     1      13.006 -14.643  26.193  1.00  0.00     0.114 C 
BRANCH  29  30
ATOM     30  O   UNL     1      12.432 -14.503  27.471  1.00  0.00    -0.393 OA
ATOM     31  H   UNL     1      11.695 -13.838  27.398  1.00  0.00     0.210 HD
ENDBRANCH  29  30
ENDBRANCH   9  11
ENDBRANCH   1   9
TORSDOF 7
ENDMDL
MODEL 9
REMARK VINA RESULT:    -5.523     12.532     16.070
REMARK INTER + INTRA:          -9.401
REMARK INTER:                  -7.887
REMARK INTRA:                  -1.513
REMARK UNBOUND:                -1.778
REMARK SMILES CC[C@H](CC[C@H](C)[C@H]1CC[C@@H]2C3=CC[C@H]4C[C@@H](O)CC[C@]4(C)[C@@H]3CC[C@]21C)C(C)C
REMARK SMILES IDX 5 1 4 2 3 3 2 4 1 5 28 6 29 7 30 8 6 9 7 10 8 11 9 12 26 13
REMARK SMILES IDX 10 14 11 15 25 16 27 17 12 18 24 19 23 20 13 21 21 22 14 23
REMARK SMILES IDX 15 24 20 25 22 26 16 27 19 28 17 29 18 30
REMARK H PARENT 18 31
REMARK Flexibility Score: inf
ROOT
ATOM      1  C   UNL     1      12.420 -12.654  26.142  1.00  0.00     0.004 C 
ENDROOT
BRANCH   1   2
ATOM      2  C   UNL     1      12.108 -11.457  25.214  1.00  0.00     0.004 C 
BRANCH   2   3
ATOM      3  C   UNL     1      12.339 -10.044  25.818  1.00  0.00    -0.009 C 
BRANCH   3   4
ATOM      4  C   UNL     1      13.228  -9.190  24.875  1.00  0.00     0.000 C 
ATOM      5  C   UNL     1      14.709  -9.202  25.272  1.00  0.00     0.004 C 
ENDBRANCH   3   4
BRANCH   3   6
ATOM      6  C   UNL     1      11.001  -9.319  26.194  1.00  0.00    -0.014 C 
ATOM      7  C   UNL     1      10.723  -9.348  27.700  1.00  0.00     0.007 C 
ATOM      8  C   UNL     1      10.919  -7.876  25.669  1.00  0.00     0.007 C 
ENDBRANCH   3   6
ENDBRANCH   2   3
ENDBRANCH   1   2
BRANCH   1   9
ATOM      9  C   UNL     1      13.280 -13.787  25.508  1.00  0.00    -0.011 C 
ATOM     10  C   UNL     1      13.199 -15.066  26.376  1.00  0.00     0.008 C 
BRANCH   9  11
ATOM     11  C   UNL     1      14.733 -13.255  25.222  1.00  0.00    -0.002 C 
ATOM     12  C   UNL     1      15.854 -14.021  25.986  1.00  0.00     0.005 C 
ATOM     13  C   UNL     1      15.225 -13.198  23.736  1.00  0.00    -0.023 C 
ATOM     14  C   UNL     1      16.843 -14.558  24.939  1.00  0.00     0.009 C 
ATOM     15  C   UNL     1      16.065 -14.474  23.634  1.00  0.00     0.021 C 
ATOM     16  C   UNL     1      14.156 -13.202  22.595  1.00  0.00     0.008 C 
ATOM     17  C   UNL     1      16.101 -11.909  23.575  1.00  0.00     0.012 C 
ATOM     18  C   UNL     1      16.738 -14.548  22.289  1.00  0.00    -0.067 C 
ATOM     19  C   UNL     1      14.783 -13.427  21.182  1.00  0.00     0.009 C 
ATOM     20  C   UNL     1      15.737 -14.663  21.140  1.00  0.00     0.021 C 
ATOM     21  C   UNL     1      18.031 -14.203  22.097  1.00  0.00    -0.027 C 
ATOM     22  C   UNL     1      16.449 -14.987  19.773  1.00  0.00    -0.023 C 
ATOM     23  C   UNL     1      18.665 -14.099  20.735  1.00  0.00     0.031 C 
ATOM     24  C   UNL     1      17.652 -14.018  19.578  1.00  0.00     0.002 C 
ATOM     25  C   UNL     1      15.479 -14.817  18.569  1.00  0.00     0.010 C 
ATOM     26  C   UNL     1      16.914 -16.479  19.844  1.00  0.00     0.012 C 
ATOM     27  C   UNL     1      18.365 -14.252  18.227  1.00  0.00     0.036 C 
ATOM     28  C   UNL     1      16.161 -15.016  17.201  1.00  0.00     0.032 C 
ATOM     29  C   UNL     1      17.411 -14.123  17.029  1.00  0.00     0.114 C 
BRANCH  29  30
ATOM     30  O   UNL     1      18.113 -14.522  15.875  1.00  0.00    -0.393 OA
ATOM     31  H   UNL     1      18.324 -13.701  15.354  1.00  0.00     0.210 HD
ENDBRANCH  29  30
ENDBRANCH   9  11
ENDBRANCH   1   9
TORSDOF 7
ENDMDL
