MODEL 1
REMARK VINA RESULT:    -7.033      0.000      0.000
REMARK INTER + INTRA:          -7.445
REMARK INTER:                  -7.445
REMARK INTRA:                   0.000
REMARK UNBOUND:                 0.000
REMARK SMILES O=c1ccc2cc(O)c(O)cc2o1
REMARK SMILES IDX 4 1 3 2 2 3 1 4 13 5 12 6 11 7 9 8 7 9 6 10 5 11 8 12 10 14
REMARK H PARENT 8 13 10 15
REMARK Flexibility Score: inf
ROOT
ATOM      1  C   UNL     1       3.274  30.878  70.986  1.00  0.00     0.019 A 
ATOM      2  C   UNL     1       4.456  30.164  71.192  1.00  0.00     0.094 A 
ATOM      3  C   UNL     1       4.774  29.116  70.322  1.00  0.00     0.336 A 
ATOM      4  O   UNL     1       5.836  28.461  70.491  1.00  0.00    -0.246 OA
ATOM      5  O   UNL     1       3.962  28.806  69.315  1.00  0.00    -0.423 OA
ATOM      6  C   UNL     1       2.827  29.461  69.084  1.00  0.00     0.142 A 
ATOM      7  C   UNL     1       2.012  29.090  68.011  1.00  0.00     0.098 A 
ATOM      8  C   UNL     1       0.814  29.769  67.755  1.00  0.00     0.161 A 
ATOM      9  C   UNL     1       0.425  30.842  68.595  1.00  0.00     0.158 A 
ATOM     10  C   UNL     1       1.243  31.212  69.669  1.00  0.00     0.062 A 
ATOM     11  C   UNL     1       2.440  30.529  69.919  1.00  0.00     0.022 A 
ENDROOT
BRANCH   9  12
ATOM     12  O   UNL     1      -0.755  31.562  68.398  1.00  0.00    -0.504 OA
ATOM     13  H   UNL     1      -0.825  32.566  68.477  1.00  0.00     0.293 HD
ENDBRANCH   9  12
BRANCH   8  14
ATOM     14  O   UNL     1       0.048  29.347  66.666  1.00  0.00    -0.504 OA
ATOM     15  H   UNL     1      -0.943  29.160  66.712  1.00  0.00     0.293 HD
ENDBRANCH   8  14
TORSDOF 2
ENDMDL
MODEL 2
REMARK VINA RESULT:    -6.964      2.377      2.980
REMARK INTER + INTRA:          -7.371
REMARK INTER:                  -7.371
REMARK INTRA:                   0.000
REMARK UNBOUND:                 0.000
REMARK SMILES O=c1ccc2cc(O)c(O)cc2o1
REMARK SMILES IDX 4 1 3 2 2 3 1 4 13 5 12 6 11 7 9 8 7 9 6 10 5 11 8 12 10 14
REMARK H PARENT 8 13 10 15
REMARK Flexibility Score: inf
ROOT
ATOM      1  C   UNL     1       1.721  29.709  69.410  1.00  0.00     0.019 A 
ATOM      2  C   UNL     1       2.720  28.823  69.815  1.00  0.00     0.094 A 
ATOM      3  C   UNL     1       4.054  29.240  69.767  1.00  0.00     0.336 A 
ATOM      4  O   UNL     1       4.970  28.455  70.129  1.00  0.00    -0.246 OA
ATOM      5  O   UNL     1       4.363  30.462  69.342  1.00  0.00    -0.423 OA
ATOM      6  C   UNL     1       3.441  31.336  68.947  1.00  0.00     0.142 A 
ATOM      7  C   UNL     1       3.825  32.607  68.509  1.00  0.00     0.098 A 
ATOM      8  C   UNL     1       2.867  33.538  68.090  1.00  0.00     0.161 A 
ATOM      9  C   UNL     1       1.494  33.187  68.111  1.00  0.00     0.158 A 
ATOM     10  C   UNL     1       1.112  31.913  68.550  1.00  0.00     0.062 A 
ATOM     11  C   UNL     1       2.076  30.987  68.967  1.00  0.00     0.022 A 
ENDROOT
BRANCH   9  12
ATOM     12  O   UNL     1       0.486  34.066  67.707  1.00  0.00    -0.504 OA
ATOM     13  H   UNL     1       0.201  34.197  66.748  1.00  0.00     0.293 HD
ENDBRANCH   9  12
BRANCH   8  14
ATOM     14  O   UNL     1       3.319  34.790  67.666  1.00  0.00    -0.504 OA
ATOM     15  H   UNL     1       3.599  34.997  66.719  1.00  0.00     0.293 HD
ENDBRANCH   8  14
TORSDOF 2
ENDMDL
MODEL 3
REMARK VINA RESULT:    -6.901      1.705      2.292
REMARK INTER + INTRA:          -7.305
REMARK INTER:                  -7.305
REMARK INTRA:                   0.000
REMARK UNBOUND:                 0.000
REMARK SMILES O=c1ccc2cc(O)c(O)cc2o1
REMARK SMILES IDX 4 1 3 2 2 3 1 4 13 5 12 6 11 7 9 8 7 9 6 10 5 11 8 12 10 14
REMARK H PARENT 8 13 10 15
REMARK Flexibility Score: inf
ROOT
ATOM      1  C   UNL     1       4.376  30.814  68.286  1.00  0.00     0.019 A 
ATOM      2  C   UNL     1       5.004  30.547  69.504  1.00  0.00     0.094 A 
ATOM      3  C   UNL     1       4.223  30.439  70.659  1.00  0.00     0.336 A 
ATOM      4  O   UNL     1       4.771  30.198  71.767  1.00  0.00    -0.246 OA
ATOM      5  O   UNL     1       2.902  30.589  70.596  1.00  0.00    -0.423 OA
ATOM      6  C   UNL     1       2.265  30.843  69.456  1.00  0.00     0.142 A 
ATOM      7  C   UNL     1       0.876  30.992  69.450  1.00  0.00     0.098 A 
ATOM      8  C   UNL     1       0.190  31.260  68.259  1.00  0.00     0.161 A 
ATOM      9  C   UNL     1       0.915  31.384  67.047  1.00  0.00     0.158 A 
ATOM     10  C   UNL     1       2.307  31.235  67.056  1.00  0.00     0.062 A 
ATOM     11  C   UNL     1       2.986  30.966  68.251  1.00  0.00     0.022 A 
ENDROOT
BRANCH   9  12
ATOM     12  O   UNL     1       0.297  31.651  65.824  1.00  0.00    -0.504 OA
ATOM     13  H   UNL     1      -0.626  32.049  65.732  1.00  0.00     0.293 HD
ENDBRANCH   9  12
BRANCH   8  14
ATOM     14  O   UNL     1      -1.198  31.395  68.324  1.00  0.00    -0.504 OA
ATOM     15  H   UNL     1      -1.746  31.917  67.655  1.00  0.00     0.293 HD
ENDBRANCH   8  14
TORSDOF 2
ENDMDL
MODEL 4
REMARK VINA RESULT:    -6.873      1.099      2.273
REMARK INTER + INTRA:          -7.275
REMARK INTER:                  -7.275
REMARK INTRA:                   0.000
REMARK UNBOUND:                 0.000
REMARK SMILES O=c1ccc2cc(O)c(O)cc2o1
REMARK SMILES IDX 4 1 3 2 2 3 1 4 13 5 12 6 11 7 9 8 7 9 6 10 5 11 8 12 10 14
REMARK H PARENT 8 13 10 15
REMARK Flexibility Score: inf
ROOT
ATOM      1  C   UNL     1       4.110  28.622  69.337  1.00  0.00     0.019 A 
ATOM      2  C   UNL     1       4.912  28.942  70.433  1.00  0.00     0.094 A 
ATOM      3  C   UNL     1       4.523  29.991  71.273  1.00  0.00     0.336 A 
ATOM      4  O   UNL     1       5.233  30.294  72.267  1.00  0.00    -0.246 OA
ATOM      5  O   UNL     1       3.406  30.671  71.028  1.00  0.00    -0.423 OA
ATOM      6  C   UNL     1       2.614  30.397  69.995  1.00  0.00     0.142 A 
ATOM      7  C   UNL     1       1.452  31.146  69.787  1.00  0.00     0.098 A 
ATOM      8  C   UNL     1       0.608  30.871  68.704  1.00  0.00     0.161 A 
ATOM      9  C   UNL     1       0.937  29.822  67.809  1.00  0.00     0.158 A 
ATOM     10  C   UNL     1       2.102  29.073  68.020  1.00  0.00     0.062 A 
ATOM     11  C   UNL     1       2.941  29.354  69.105  1.00  0.00     0.022 A 
ENDROOT
BRANCH   9  12
ATOM     12  O   UNL     1       0.142  29.493  66.709  1.00  0.00    -0.504 OA
ATOM     13  H   UNL     1       0.014  30.091  65.906  1.00  0.00     0.293 HD
ENDBRANCH   9  12
BRANCH   8  14
ATOM     14  O   UNL     1      -0.537  31.657  68.556  1.00  0.00    -0.504 OA
ATOM     15  H   UNL     1      -1.475  31.286  68.526  1.00  0.00     0.293 HD
ENDBRANCH   8  14
TORSDOF 2
ENDMDL
MODEL 5
REMARK VINA RESULT:    -6.756      2.346      2.874
REMARK INTER + INTRA:          -7.151
REMARK INTER:                  -7.151
REMARK INTRA:                   0.000
REMARK UNBOUND:                 0.000
REMARK SMILES O=c1ccc2cc(O)c(O)cc2o1
REMARK SMILES IDX 4 1 3 2 2 3 1 4 13 5 12 6 11 7 9 8 7 9 6 10 5 11 8 12 10 14
REMARK H PARENT 8 13 10 15
REMARK Flexibility Score: inf
ROOT
ATOM      1  C   UNL     1       4.844  30.709  69.871  1.00  0.00     0.019 A 
ATOM      2  C   UNL     1       4.603  29.425  70.362  1.00  0.00     0.094 A 
ATOM      3  C   UNL     1       3.316  28.888  70.250  1.00  0.00     0.336 A 
ATOM      4  O   UNL     1       3.079  27.731  70.686  1.00  0.00    -0.246 OA
ATOM      5  O   UNL     1       2.340  29.592  69.683  1.00  0.00    -0.423 OA
ATOM      6  C   UNL     1       2.528  30.818  69.202  1.00  0.00     0.142 A 
ATOM      7  C   UNL     1       1.464  31.511  68.618  1.00  0.00     0.098 A 
ATOM      8  C   UNL     1       1.646  32.803  68.108  1.00  0.00     0.161 A 
ATOM      9  C   UNL     1       2.922  33.413  68.187  1.00  0.00     0.158 A 
ATOM     10  C   UNL     1       3.987  32.716  68.773  1.00  0.00     0.062 A 
ATOM     11  C   UNL     1       3.798  31.425  69.281  1.00  0.00     0.022 A 
ENDROOT
BRANCH   9  12
ATOM     12  O   UNL     1       3.175  34.697  67.699  1.00  0.00    -0.504 OA
ATOM     13  H   UNL     1       3.132  34.949  66.722  1.00  0.00     0.293 HD
ENDBRANCH   9  12
BRANCH   8  14
ATOM     14  O   UNL     1       0.540  33.438  67.537  1.00  0.00    -0.504 OA
ATOM     15  H   UNL     1      -0.371  33.013  67.449  1.00  0.00     0.293 HD
ENDBRANCH   8  14
TORSDOF 2
ENDMDL
MODEL 6
REMARK VINA RESULT:    -6.533      2.470      4.898
REMARK INTER + INTRA:          -6.914
REMARK INTER:                  -6.914
REMARK INTRA:                   0.000
REMARK UNBOUND:                 0.000
REMARK SMILES O=c1ccc2cc(O)c(O)cc2o1
REMARK SMILES IDX 4 1 3 2 2 3 1 4 13 5 12 6 11 7 9 8 7 9 6 10 5 11 8 12 10 14
REMARK H PARENT 8 13 10 15
REMARK Flexibility Score: inf
ROOT
ATOM      1  C   UNL     1       0.564  31.998  68.129  1.00  0.00     0.019 A 
ATOM      2  C   UNL     1       0.349  32.299  66.784  1.00  0.00     0.094 A 
ATOM      3  C   UNL     1       1.424  32.227  65.893  1.00  0.00     0.336 A 
ATOM      4  O   UNL     1       1.250  32.494  64.675  1.00  0.00    -0.246 OA
ATOM      5  O   UNL     1       2.634  31.877  66.324  1.00  0.00    -0.423 OA
ATOM      6  C   UNL     1       2.881  31.583  67.598  1.00  0.00     0.142 A 
ATOM      7  C   UNL     1       4.172  31.222  67.994  1.00  0.00     0.098 A 
ATOM      8  C   UNL     1       4.449  30.910  69.331  1.00  0.00     0.161 A 
ATOM      9  C   UNL     1       3.408  30.961  70.291  1.00  0.00     0.158 A 
ATOM     10  C   UNL     1       2.116  31.323  69.892  1.00  0.00     0.062 A 
ATOM     11  C   UNL     1       1.846  31.634  68.554  1.00  0.00     0.022 A 
ENDROOT
BRANCH   9  12
ATOM     12  O   UNL     1       3.613  30.663  71.640  1.00  0.00    -0.504 OA
ATOM     13  H   UNL     1       4.252  29.955  71.972  1.00  0.00     0.293 HD
ENDBRANCH   9  12
BRANCH   8  14
ATOM     14  O   UNL     1       5.760  30.556  69.658  1.00  0.00    -0.504 OA
ATOM     15  H   UNL     1       6.010  29.712  70.152  1.00  0.00     0.293 HD
ENDBRANCH   8  14
TORSDOF 2
ENDMDL
MODEL 7
REMARK VINA RESULT:    -6.529      2.269      4.325
REMARK INTER + INTRA:          -6.910
REMARK INTER:                  -6.910
REMARK INTRA:                   0.000
REMARK UNBOUND:                 0.000
REMARK SMILES O=c1ccc2cc(O)c(O)cc2o1
REMARK SMILES IDX 4 1 3 2 2 3 1 4 13 5 12 6 11 7 9 8 7 9 6 10 5 11 8 12 10 14
REMARK H PARENT 8 13 10 15
REMARK Flexibility Score: inf
ROOT
ATOM      1  C   UNL     1       2.339  33.027  68.297  1.00  0.00     0.019 A 
ATOM      2  C   UNL     1       1.978  33.392  66.999  1.00  0.00     0.094 A 
ATOM      3  C   UNL     1       1.638  32.391  66.084  1.00  0.00     0.336 A 
ATOM      4  O   UNL     1       1.308  32.701  64.909  1.00  0.00    -0.246 OA
ATOM      5  O   UNL     1       1.659  31.111  66.447  1.00  0.00    -0.423 OA
ATOM      6  C   UNL     1       1.996  30.721  67.673  1.00  0.00     0.142 A 
ATOM      7  C   UNL     1       2.001  29.362  67.997  1.00  0.00     0.098 A 
ATOM      8  C   UNL     1       2.355  28.935  69.283  1.00  0.00     0.161 A 
ATOM      9  C   UNL     1       2.712  29.892  70.265  1.00  0.00     0.158 A 
ATOM     10  C   UNL     1       2.707  31.254  69.937  1.00  0.00     0.062 A 
ATOM     11  C   UNL     1       2.352  31.673  68.650  1.00  0.00     0.022 A 
ENDROOT
BRANCH   9  12
ATOM     12  O   UNL     1       3.075  29.537  71.566  1.00  0.00    -0.504 OA
ATOM     13  H   UNL     1       3.944  29.082  71.806  1.00  0.00     0.293 HD
ENDBRANCH   9  12
BRANCH   8  14
ATOM     14  O   UNL     1       2.337  27.562  69.540  1.00  0.00    -0.504 OA
ATOM     15  H   UNL     1       1.927  26.877  68.922  1.00  0.00     0.293 HD
ENDBRANCH   8  14
TORSDOF 2
ENDMDL
MODEL 8
REMARK VINA RESULT:    -6.519      2.037      2.712
REMARK INTER + INTRA:          -6.900
REMARK INTER:                  -6.900
REMARK INTRA:                   0.000
REMARK UNBOUND:                 0.000
REMARK SMILES O=c1ccc2cc(O)c(O)cc2o1
REMARK SMILES IDX 4 1 3 2 2 3 1 4 13 5 12 6 11 7 9 8 7 9 6 10 5 11 8 12 10 14
REMARK H PARENT 8 13 10 15
REMARK Flexibility Score: inf
ROOT
ATOM      1  C   UNL     1       3.210  28.619  70.939  1.00  0.00     0.019 A 
ATOM      2  C   UNL     1       4.121  28.831  71.974  1.00  0.00     0.094 A 
ATOM      3  C   UNL     1       5.142  29.771  71.796  1.00  0.00     0.336 A 
ATOM      4  O   UNL     1       5.973  29.977  72.719  1.00  0.00    -0.246 OA
ATOM      5  O   UNL     1       5.240  30.451  70.656  1.00  0.00    -0.423 OA
ATOM      6  C   UNL     1       4.392  30.279  69.646  1.00  0.00     0.142 A 
ATOM      7  C   UNL     1       4.544  31.021  68.472  1.00  0.00     0.098 A 
ATOM      8  C   UNL     1       3.661  30.852  67.399  1.00  0.00     0.161 A 
ATOM      9  C   UNL     1       2.601  29.916  67.506  1.00  0.00     0.158 A 
ATOM     10  C   UNL     1       2.451  29.174  68.683  1.00  0.00     0.062 A 
ATOM     11  C   UNL     1       3.338  29.349  69.752  1.00  0.00     0.022 A 
ENDROOT
BRANCH   9  12
ATOM     12  O   UNL     1       1.684  29.696  66.476  1.00  0.00    -0.504 OA
ATOM     13  H   UNL     1       1.187  30.432  65.995  1.00  0.00     0.293 HD
ENDBRANCH   9  12
BRANCH   8  14
ATOM     14  O   UNL     1       3.870  31.626  66.255  1.00  0.00    -0.504 OA
ATOM     15  H   UNL     1       4.716  31.604  65.706  1.00  0.00     0.293 HD
ENDBRANCH   8  14
TORSDOF 2
ENDMDL
MODEL 9
REMARK VINA RESULT:    -6.511      2.677      3.230
REMARK INTER + INTRA:          -6.892
REMARK INTER:                  -6.892
REMARK INTRA:                   0.000
REMARK UNBOUND:                 0.000
REMARK SMILES O=c1ccc2cc(O)c(O)cc2o1
REMARK SMILES IDX 4 1 3 2 2 3 1 4 13 5 12 6 11 7 9 8 7 9 6 10 5 11 8 12 10 14
REMARK H PARENT 8 13 10 15
REMARK Flexibility Score: inf
ROOT
ATOM      1  C   UNL     1       3.798  32.336  68.922  1.00  0.00     0.019 A 
ATOM      2  C   UNL     1       3.870  31.250  69.796  1.00  0.00     0.094 A 
ATOM      3  C   UNL     1       2.757  30.414  69.930  1.00  0.00     0.336 A 
ATOM      4  O   UNL     1       2.803  29.429  70.712  1.00  0.00    -0.246 OA
ATOM      5  O   UNL     1       1.649  30.651  69.233  1.00  0.00    -0.423 OA
ATOM      6  C   UNL     1       1.539  31.674  68.390  1.00  0.00     0.142 A 
ATOM      7  C   UNL     1       0.349  31.875  67.685  1.00  0.00     0.098 A 
ATOM      8  C   UNL     1       0.218  32.947  66.794  1.00  0.00     0.161 A 
ATOM      9  C   UNL     1       1.304  33.838  66.607  1.00  0.00     0.158 A 
ATOM     10  C   UNL     1       2.495  33.635  67.314  1.00  0.00     0.062 A 
ATOM     11  C   UNL     1       2.619  32.561  68.203  1.00  0.00     0.022 A 
ENDROOT
BRANCH   9  12
ATOM     12  O   UNL     1       1.242  34.928  65.735  1.00  0.00    -0.504 OA
ATOM     13  H   UNL     1       1.123  34.846  64.736  1.00  0.00     0.293 HD
ENDBRANCH   9  12
BRANCH   8  14
ATOM     14  O   UNL     1      -0.999  33.089  66.122  1.00  0.00    -0.504 OA
ATOM     15  H   UNL     1      -1.528  32.316  65.746  1.00  0.00     0.293 HD
ENDBRANCH   8  14
TORSDOF 2
ENDMDL
