MODEL 1
REMARK VINA RESULT:    76.198      0.000      0.000
REMARK INTER + INTRA:         107.366
REMARK INTER:                 107.380
REMARK INTRA:                  -0.014
REMARK UNBOUND:                -0.014
REMARK SMILES O=c1cc(-c2ccc(O)c(O)c2)oc2cc(O)c([C@@H]3O[C@H](CO)[C@H](O)[C@@H](O)[C@H]3O)c(O)c12
REMARK SMILES IDX 4 1 3 2 2 3 1 4 32 5 14 6 13 7 15 8 16 9 18 10 30 11 5 12
REMARK SMILES IDX 6 13 7 14 8 15 12 16 10 17 9 18 11 20 31 22 17 24 19 26
REMARK SMILES IDX 28 27 20 28 26 29 21 30 24 31 29 32 27 34 22 36 23 37 25 39
REMARK H PARENT 9 19 11 21 31 23 17 25 29 33 27 35 23 38 25 40
REMARK Flexibility Score: inf
ROOT
ATOM      1  C   UNL     1      14.019  40.072   9.712  1.00  0.00     0.138 A 
ATOM      2  C   UNL     1      14.339  39.235  10.789  1.00  0.00     0.100 A 
ATOM      3  C   UNL     1      15.626  39.270  11.328  1.00  0.00     0.197 A 
ATOM      4  O   UNL     1      15.908  38.452  12.240  1.00  0.00    -0.289 OA
ATOM      5  C   UNL     1      16.582  40.181  10.812  1.00  0.00     0.107 A 
ATOM      6  C   UNL     1      16.194  40.937   9.685  1.00  0.00     0.146 A 
ATOM      7  O   UNL     1      14.957  40.861   9.201  1.00  0.00    -0.456 OA
ATOM      8  C   UNL     1      17.107  41.762   9.043  1.00  0.00     0.094 A 
ATOM      9  C   UNL     1      18.427  41.867   9.489  1.00  0.00     0.128 A 
ATOM     10  C   UNL     1      18.838  41.189  10.668  1.00  0.00     0.068 A 
ATOM     11  C   UNL     1      17.900  40.345  11.328  1.00  0.00     0.140 A 
ENDROOT
BRANCH   1  12
ATOM     12  C   UNL     1      12.666  40.081   9.099  1.00  0.00     0.021 A 
ATOM     13  C   UNL     1      11.700  39.166   9.543  1.00  0.00     0.016 A 
ATOM     14  C   UNL     1      10.423  39.150   8.978  1.00  0.00     0.051 A 
ATOM     15  C   UNL     1      10.085  40.039   7.953  1.00  0.00     0.157 A 
ATOM     16  C   UNL     1      12.332  40.967   8.058  1.00  0.00     0.062 A 
ATOM     17  C   UNL     1      11.055  40.956   7.483  1.00  0.00     0.158 A 
BRANCH  15  18
ATOM     18  O   UNL     1       8.790  39.976   7.435  1.00  0.00    -0.504 OA
ATOM     19  H   UNL     1       8.325  40.750   6.983  1.00  0.00     0.293 HD
ENDBRANCH  15  18
BRANCH  17  20
ATOM     20  O   UNL     1      10.796  41.863   6.452  1.00  0.00    -0.504 OA
ATOM     21  H   UNL     1      10.260  42.711   6.568  1.00  0.00     0.293 HD
ENDBRANCH  17  20
ENDBRANCH   1  12
BRANCH  11  22
ATOM     22  O   UNL     1      18.315  39.710  12.505  1.00  0.00    -0.506 OA
ATOM     23  H   UNL     1      18.733  38.791  12.539  1.00  0.00     0.293 HD
ENDBRANCH  11  22
BRANCH   9  24
ATOM     24  O   UNL     1      19.302  42.647   8.738  1.00  0.00    -0.507 OA
ATOM     25  H   UNL     1      20.163  43.014   9.125  1.00  0.00     0.293 HD
ENDBRANCH   9  24
BRANCH  10  26
ATOM     26  C   UNL     1      20.249  41.286  11.291  1.00  0.00     0.188 C 
ATOM     27  C   UNL     1      21.353  42.167  10.641  1.00  0.00     0.179 C 
ATOM     28  O   UNL     1      20.191  41.472  12.706  1.00  0.00    -0.362 OA
ATOM     29  C   UNL     1      21.183  43.645  11.044  1.00  0.00     0.177 C 
ATOM     30  C   UNL     1      19.996  42.819  13.125  1.00  0.00     0.176 C 
ATOM     31  C   UNL     1      21.086  43.768  12.573  1.00  0.00     0.177 C 
BRANCH  27  32
ATOM     32  O   UNL     1      22.612  41.720  11.087  1.00  0.00    -0.387 OA
ATOM     33  H   UNL     1      23.023  41.206  10.341  1.00  0.00     0.211 HD
ENDBRANCH  27  32
BRANCH  29  34
ATOM     34  O   UNL     1      22.230  44.430  10.526  1.00  0.00    -0.387 OA
ATOM     35  H   UNL     1      21.967  44.741   9.620  1.00  0.00     0.211 HD
ENDBRANCH  29  34
BRANCH  30  36
ATOM     36  C   UNL     1      18.542  43.299  12.906  1.00  0.00     0.191 C 
BRANCH  36  37
ATOM     37  O   UNL     1      18.477  44.254  11.881  1.00  0.00    -0.394 OA
ATOM     38  H   UNL     1      18.787  43.805  11.051  1.00  0.00     0.210 HD
ENDBRANCH  36  37
ENDBRANCH  30  36
BRANCH  31  39
ATOM     39  O   UNL     1      20.810  45.096  12.940  1.00  0.00    -0.388 OA
ATOM     40  H   UNL     1      19.909  45.314  12.585  1.00  0.00     0.211 HD
ENDBRANCH  31  39
ENDBRANCH  10  26
TORSDOF 11
ENDMDL
MODEL 2
REMARK VINA RESULT:    79.095      1.020      2.118
REMARK INTER + INTRA:         111.449
REMARK INTER:                 109.017
REMARK INTRA:                   2.432
REMARK UNBOUND:                -0.014
REMARK SMILES O=c1cc(-c2ccc(O)c(O)c2)oc2cc(O)c([C@@H]3O[C@H](CO)[C@H](O)[C@@H](O)[C@H]3O)c(O)c12
REMARK SMILES IDX 4 1 3 2 2 3 1 4 32 5 14 6 13 7 15 8 16 9 18 10 30 11 5 12
REMARK SMILES IDX 6 13 7 14 8 15 12 16 10 17 9 18 11 20 31 22 17 24 19 26
REMARK SMILES IDX 28 27 20 28 26 29 21 30 24 31 29 32 27 34 22 36 23 37 25 39
REMARK H PARENT 9 19 11 21 31 23 17 25 29 33 27 35 23 38 25 40
REMARK Flexibility Score: inf
ROOT
ATOM      1  C   UNL     1      14.323  40.866   9.479  1.00  0.00     0.138 A 
ATOM      2  C   UNL     1      14.801  42.157   9.213  1.00  0.00     0.100 A 
ATOM      3  C   UNL     1      16.111  42.490   9.558  1.00  0.00     0.197 A 
ATOM      4  O   UNL     1      16.486  43.677   9.381  1.00  0.00    -0.289 OA
ATOM      5  C   UNL     1      16.960  41.511  10.132  1.00  0.00     0.107 A 
ATOM      6  C   UNL     1      16.376  40.259  10.426  1.00  0.00     0.146 A 
ATOM      7  O   UNL     1      15.119  39.992  10.086  1.00  0.00    -0.456 OA
ATOM      8  C   UNL     1      17.102  39.286  11.099  1.00  0.00     0.094 A 
ATOM      9  C   UNL     1      18.419  39.513  11.503  1.00  0.00     0.128 A 
ATOM     10  C   UNL     1      19.073  40.727  11.155  1.00  0.00     0.068 A 
ATOM     11  C   UNL     1      18.330  41.724  10.462  1.00  0.00     0.140 A 
ENDROOT
BRANCH   1  12
ATOM     12  C   UNL     1      12.940  40.453   9.132  1.00  0.00     0.021 A 
ATOM     13  C   UNL     1      12.378  39.327   9.752  1.00  0.00     0.016 A 
ATOM     14  C   UNL     1      11.082  38.915   9.436  1.00  0.00     0.051 A 
ATOM     15  C   UNL     1      10.322  39.610   8.491  1.00  0.00     0.157 A 
ATOM     16  C   UNL     1      12.182  41.145   8.169  1.00  0.00     0.062 A 
ATOM     17  C   UNL     1      10.882  40.736   7.844  1.00  0.00     0.158 A 
BRANCH  15  18
ATOM     18  O   UNL     1       9.031  39.149   8.225  1.00  0.00    -0.504 OA
ATOM     19  H   UNL     1       8.415  38.763   8.925  1.00  0.00     0.293 HD
ENDBRANCH  15  18
BRANCH  17  20
ATOM     20  O   UNL     1      10.190  41.471   6.878  1.00  0.00    -0.504 OA
ATOM     21  H   UNL     1       9.724  41.060   6.082  1.00  0.00     0.293 HD
ENDBRANCH  17  20
ENDBRANCH   1  12
BRANCH  11  22
ATOM     22  O   UNL     1      19.000  42.899  10.101  1.00  0.00    -0.506 OA
ATOM     23  H   UNL     1      18.598  43.824  10.157  1.00  0.00     0.293 HD
ENDBRANCH  11  22
BRANCH   9  24
ATOM     24  O   UNL     1      19.047  38.520  12.249  1.00  0.00    -0.507 OA
ATOM     25  H   UNL     1      19.793  38.727  12.902  1.00  0.00     0.293 HD
ENDBRANCH   9  24
BRANCH  10  26
ATOM     26  C   UNL     1      20.545  41.059  11.487  1.00  0.00     0.188 C 
ATOM     27  C   UNL     1      21.402  41.942  10.536  1.00  0.00     0.179 C 
ATOM     28  O   UNL     1      20.705  41.446  12.852  1.00  0.00    -0.362 OA
ATOM     29  C   UNL     1      21.116  43.438  10.770  1.00  0.00     0.177 C 
ATOM     30  C   UNL     1      20.415  42.814  13.124  1.00  0.00     0.176 C 
ATOM     31  C   UNL     1      21.265  43.776  12.262  1.00  0.00     0.177 C 
BRANCH  27  32
ATOM     32  O   UNL     1      22.764  41.697  10.792  1.00  0.00    -0.387 OA
ATOM     33  H   UNL     1      23.033  42.287  11.545  1.00  0.00     0.211 HD
ENDBRANCH  27  32
BRANCH  29  34
ATOM     34  O   UNL     1      21.951  44.240   9.971  1.00  0.00    -0.387 OA
ATOM     35  H   UNL     1      21.520  45.129   9.864  1.00  0.00     0.211 HD
ENDBRANCH  29  34
BRANCH  30  36
ATOM     36  C   UNL     1      18.895  43.104  13.121  1.00  0.00     0.191 C 
BRANCH  36  37
ATOM     37  O   UNL     1      18.649  44.485  13.125  1.00  0.00    -0.394 OA
ATOM     38  H   UNL     1      18.088  44.673  13.923  1.00  0.00     0.210 HD
ENDBRANCH  36  37
ENDBRANCH  30  36
BRANCH  31  39
ATOM     39  O   UNL     1      20.889  45.109  12.502  1.00  0.00    -0.388 OA
ATOM     40  H   UNL     1      21.066  45.615  11.667  1.00  0.00     0.211 HD
ENDBRANCH  31  39
ENDBRANCH  10  26
TORSDOF 11
ENDMDL
