MODEL 1
REMARK VINA RESULT:    -5.052      0.000      0.000
REMARK INTER + INTRA:         -17.857
REMARK INTER:                 -13.321
REMARK INTRA:                  -4.536
REMARK UNBOUND:                -4.536
REMARK SMILES CCCCCCCCCCCCCCCCCCCCCCCCCCCCCC(=O)[O-]
REMARK SMILES IDX 16 1 17 2 18 3 19 4 20 5 21 6 22 7 23 8 24 9 25 10 26 11
REMARK SMILES IDX 27 12 28 13 29 14 30 15 31 16 32 17 15 18 14 19 13 20 12 21
REMARK SMILES IDX 11 22 10 23 9 24 8 25 7 26 6 27 5 28 4 29 3 30 2 31 1 32
REMARK H PARENT
REMARK Flexibility Score: inf
ROOT
ATOM      1  C   UNL     1      17.924  29.719  31.000  1.00  0.00     0.000 C 
ENDROOT
BRANCH   1   2
ATOM      2  C   UNL     1      18.739  31.023  30.927  1.00  0.00     0.000 C 
BRANCH   2   3
ATOM      3  C   UNL     1      18.410  31.875  29.693  1.00  0.00     0.000 C 
BRANCH   3   4
ATOM      4  C   UNL     1      18.496  31.040  28.410  1.00  0.00     0.000 C 
BRANCH   4   5
ATOM      5  C   UNL     1      19.960  30.762  28.029  1.00  0.00     0.000 C 
BRANCH   5   6
ATOM      6  C   UNL     1      20.089  29.906  26.755  1.00  0.00     0.000 C 
BRANCH   6   7
ATOM      7  C   UNL     1      20.137  28.388  27.015  1.00  0.00     0.000 C 
BRANCH   7   8
ATOM      8  C   UNL     1      18.959  27.641  26.361  1.00  0.00     0.000 C 
BRANCH   8   9
ATOM      9  C   UNL     1      17.708  27.617  27.253  1.00  0.00     0.000 C 
BRANCH   9  10
ATOM     10  C   UNL     1      17.922  26.821  28.553  1.00  0.00     0.000 C 
BRANCH  10  11
ATOM     11  C   UNL     1      18.392  25.380  28.293  1.00  0.00     0.000 C 
BRANCH  11  12
ATOM     12  C   UNL     1      19.735  25.010  28.956  1.00  0.00     0.000 C 
BRANCH  12  13
ATOM     13  C   UNL     1      19.914  23.496  29.200  1.00  0.00     0.006 C 
BRANCH  13  14
ATOM     14  C   UNL     1      18.918  22.651  28.394  1.00  0.00     0.053 C 
BRANCH  14  15
ATOM     15  C   UNL     1      18.804  21.277  28.973  1.00  0.00     0.041 C 
ATOM     16  O   UNL     1      19.144  20.273  28.293  1.00  0.00    -0.550 OA
ATOM     17  O   UNL     1      18.359  21.106  30.279  1.00  0.00    -0.550 OA
ENDBRANCH  14  15
ENDBRANCH  13  14
ENDBRANCH  12  13
ENDBRANCH  11  12
ENDBRANCH  10  11
ENDBRANCH   9  10
ENDBRANCH   8   9
ENDBRANCH   7   8
ENDBRANCH   6   7
ENDBRANCH   5   6
ENDBRANCH   4   5
ENDBRANCH   3   4
ENDBRANCH   2   3
ENDBRANCH   1   2
BRANCH   1  18
ATOM     18  C   UNL     1      18.715  28.469  31.421  1.00  0.00     0.000 C 
BRANCH  18  19
ATOM     19  C   UNL     1      20.211  28.554  31.067  1.00  0.00     0.000 C 
BRANCH  19  20
ATOM     20  C   UNL     1      20.998  27.295  31.478  1.00  0.00     0.000 C 
BRANCH  20  21
ATOM     21  C   UNL     1      20.212  26.288  32.337  1.00  0.00     0.000 C 
BRANCH  21  22
ATOM     22  C   UNL     1      20.871  26.021  33.702  1.00  0.00     0.000 C 
BRANCH  22  23
ATOM     23  C   UNL     1      21.107  27.308  34.513  1.00  0.00     0.000 C 
BRANCH  23  24
ATOM     24  C   UNL     1      19.993  27.650  35.519  1.00  0.00    -0.000 C 
BRANCH  24  25
ATOM     25  C   UNL     1      19.324  29.005  35.232  1.00  0.00    -0.000 C 
BRANCH  25  26
ATOM     26  C   UNL     1      17.899  28.855  34.674  1.00  0.00    -0.000 C 
BRANCH  26  27
ATOM     27  C   UNL     1      16.973  30.037  35.035  1.00  0.00    -0.000 C 
BRANCH  27  28
ATOM     28  C   UNL     1      17.696  31.112  35.859  1.00  0.00    -0.000 C 
BRANCH  28  29
ATOM     29  C   UNL     1      17.432  32.511  35.289  1.00  0.00    -0.000 C 
BRANCH  29  30
ATOM     30  C   UNL     1      16.945  32.433  33.837  1.00  0.00    -0.000 C 
BRANCH  30  31
ATOM     31  C   UNL     1      15.758  33.375  33.606  1.00  0.00    -0.003 C 
ATOM     32  C   UNL     1      15.740  34.502  34.633  1.00  0.00     0.004 C 
ENDBRANCH  30  31
ENDBRANCH  29  30
ENDBRANCH  28  29
ENDBRANCH  27  28
ENDBRANCH  26  27
ENDBRANCH  25  26
ENDBRANCH  24  25
ENDBRANCH  23  24
ENDBRANCH  22  23
ENDBRANCH  21  22
ENDBRANCH  20  21
ENDBRANCH  19  20
ENDBRANCH  18  19
ENDBRANCH   1  18
TORSDOF 28
ENDMDL
MODEL 2
REMARK VINA RESULT:    -5.048      1.585      4.335
REMARK INTER + INTRA:         -17.847
REMARK INTER:                 -13.370
REMARK INTRA:                  -4.477
REMARK UNBOUND:                -4.536
REMARK SMILES CCCCCCCCCCCCCCCCCCCCCCCCCCCCCC(=O)[O-]
REMARK SMILES IDX 16 1 17 2 18 3 19 4 20 5 21 6 22 7 23 8 24 9 25 10 26 11
REMARK SMILES IDX 27 12 28 13 29 14 30 15 31 16 32 17 15 18 14 19 13 20 12 21
REMARK SMILES IDX 11 22 10 23 9 24 8 25 7 26 6 27 5 28 4 29 3 30 2 31 1 32
REMARK H PARENT
REMARK Flexibility Score: inf
ROOT
ATOM      1  C   UNL     1      19.852  27.019  34.714  1.00  0.00     0.000 C 
ENDROOT
BRANCH   1   2
ATOM      2  C   UNL     1      20.613  26.309  33.581  1.00  0.00     0.000 C 
BRANCH   2   3
ATOM      3  C   UNL     1      20.314  26.891  32.193  1.00  0.00     0.000 C 
BRANCH   3   4
ATOM      4  C   UNL     1      19.073  27.790  32.230  1.00  0.00     0.000 C 
BRANCH   4   5
ATOM      5  C   UNL     1      19.337  29.126  31.514  1.00  0.00     0.000 C 
BRANCH   5   6
ATOM      6  C   UNL     1      18.147  29.581  30.648  1.00  0.00     0.000 C 
BRANCH   6   7
ATOM      7  C   UNL     1      18.307  30.989  30.045  1.00  0.00     0.000 C 
BRANCH   7   8
ATOM      8  C   UNL     1      18.533  30.955  28.521  1.00  0.00     0.000 C 
BRANCH   8   9
ATOM      9  C   UNL     1      18.313  29.557  27.924  1.00  0.00     0.000 C 
BRANCH   9  10
ATOM     10  C   UNL     1      19.597  28.965  27.314  1.00  0.00     0.000 C 
BRANCH  10  11
ATOM     11  C   UNL     1      19.965  27.602  27.924  1.00  0.00     0.000 C 
BRANCH  11  12
ATOM     12  C   UNL     1      18.760  26.716  28.299  1.00  0.00     0.000 C 
BRANCH  12  13
ATOM     13  C   UNL     1      19.153  25.341  28.882  1.00  0.00     0.006 C 
BRANCH  13  14
ATOM     14  C   UNL     1      18.732  24.178  27.973  1.00  0.00     0.053 C 
BRANCH  14  15
ATOM     15  C   UNL     1      19.185  22.873  28.545  1.00  0.00     0.041 C 
ATOM     16  O   UNL     1      19.026  21.807  27.894  1.00  0.00    -0.550 OA
ATOM     17  O   UNL     1      19.819  22.837  29.782  1.00  0.00    -0.550 OA
ENDBRANCH  14  15
ENDBRANCH  13  14
ENDBRANCH  12  13
ENDBRANCH  11  12
ENDBRANCH  10  11
ENDBRANCH   9  10
ENDBRANCH   8   9
ENDBRANCH   7   8
ENDBRANCH   6   7
ENDBRANCH   5   6
ENDBRANCH   4   5
ENDBRANCH   3   4
ENDBRANCH   2   3
ENDBRANCH   1   2
BRANCH   1  18
ATOM     18  C   UNL     1      20.726  27.559  35.860  1.00  0.00     0.000 C 
BRANCH  18  19
ATOM     19  C   UNL     1      20.325  28.974  36.311  1.00  0.00     0.000 C 
BRANCH  19  20
ATOM     20  C   UNL     1      19.682  29.804  35.182  1.00  0.00     0.000 C 
BRANCH  20  21
ATOM     21  C   UNL     1      18.286  30.367  35.504  1.00  0.00     0.000 C 
BRANCH  21  22
ATOM     22  C   UNL     1      17.150  29.570  34.836  1.00  0.00     0.000 C 
BRANCH  22  23
ATOM     23  C   UNL     1      16.447  30.358  33.715  1.00  0.00     0.000 C 
BRANCH  23  24
ATOM     24  C   UNL     1      17.042  31.749  33.433  1.00  0.00    -0.000 C 
BRANCH  24  25
ATOM     25  C   UNL     1      16.073  32.894  33.772  1.00  0.00    -0.000 C 
BRANCH  25  26
ATOM     26  C   UNL     1      16.793  34.137  34.320  1.00  0.00    -0.000 C 
BRANCH  26  27
ATOM     27  C   UNL     1      16.907  34.150  35.860  1.00  0.00    -0.000 C 
BRANCH  27  28
ATOM     28  C   UNL     1      15.635  34.687  36.532  1.00  0.00    -0.000 C 
BRANCH  28  29
ATOM     29  C   UNL     1      15.170  33.753  37.655  1.00  0.00    -0.000 C 
BRANCH  29  30
ATOM     30  C   UNL     1      15.920  32.415  37.607  1.00  0.00    -0.000 C 
BRANCH  30  31
ATOM     31  C   UNL     1      16.577  32.105  38.956  1.00  0.00    -0.003 C 
ATOM     32  C   UNL     1      17.825  32.956  39.171  1.00  0.00     0.004 C 
ENDBRANCH  30  31
ENDBRANCH  29  30
ENDBRANCH  28  29
ENDBRANCH  27  28
ENDBRANCH  26  27
ENDBRANCH  25  26
ENDBRANCH  24  25
ENDBRANCH  23  24
ENDBRANCH  22  23
ENDBRANCH  21  22
ENDBRANCH  20  21
ENDBRANCH  19  20
ENDBRANCH  18  19
ENDBRANCH   1  18
TORSDOF 28
ENDMDL
MODEL 3
REMARK VINA RESULT:    -5.023      4.232      7.686
REMARK INTER + INTRA:         -17.781
REMARK INTER:                 -12.757
REMARK INTRA:                  -5.024
REMARK UNBOUND:                -4.536
REMARK SMILES CCCCCCCCCCCCCCCCCCCCCCCCCCCCCC(=O)[O-]
REMARK SMILES IDX 16 1 17 2 18 3 19 4 20 5 21 6 22 7 23 8 24 9 25 10 26 11
REMARK SMILES IDX 27 12 28 13 29 14 30 15 31 16 32 17 15 18 14 19 13 20 12 21
REMARK SMILES IDX 11 22 10 23 9 24 8 25 7 26 6 27 5 28 4 29 3 30 2 31 1 32
REMARK H PARENT
REMARK Flexibility Score: inf
ROOT
ATOM      1  C   UNL     1      17.623  27.732  27.281  1.00  0.00     0.000 C 
ENDROOT
BRANCH   1   2
ATOM      2  C   UNL     1      17.722  27.115  28.688  1.00  0.00     0.000 C 
BRANCH   2   3
ATOM      3  C   UNL     1      18.628  25.877  28.744  1.00  0.00     0.000 C 
BRANCH   3   4
ATOM      4  C   UNL     1      19.746  26.062  29.776  1.00  0.00     0.000 C 
BRANCH   4   5
ATOM      5  C   UNL     1      19.512  27.322  30.625  1.00  0.00     0.000 C 
BRANCH   5   6
ATOM      6  C   UNL     1      20.809  27.860  31.260  1.00  0.00     0.000 C 
BRANCH   6   7
ATOM      7  C   UNL     1      20.810  27.852  32.800  1.00  0.00     0.000 C 
BRANCH   7   8
ATOM      8  C   UNL     1      19.567  27.156  33.386  1.00  0.00     0.000 C 
BRANCH   8   9
ATOM      9  C   UNL     1      19.106  27.789  34.708  1.00  0.00     0.000 C 
BRANCH   9  10
ATOM     10  C   UNL     1      20.280  28.112  35.652  1.00  0.00     0.000 C 
BRANCH  10  11
ATOM     11  C   UNL     1      19.995  29.324  36.554  1.00  0.00     0.000 C 
BRANCH  11  12
ATOM     12  C   UNL     1      18.825  30.215  36.087  1.00  0.00     0.000 C 
BRANCH  12  13
ATOM     13  C   UNL     1      18.806  31.614  36.741  1.00  0.00     0.006 C 
BRANCH  13  14
ATOM     14  C   UNL     1      17.615  31.799  37.692  1.00  0.00     0.053 C 
BRANCH  14  15
ATOM     15  C   UNL     1      17.228  33.241  37.775  1.00  0.00     0.041 C 
ATOM     16  O   UNL     1      16.127  33.572  38.289  1.00  0.00    -0.550 OA
ATOM     17  O   UNL     1      18.099  34.224  37.321  1.00  0.00    -0.550 OA
ENDBRANCH  14  15
ENDBRANCH  13  14
ENDBRANCH  12  13
ENDBRANCH  11  12
ENDBRANCH  10  11
ENDBRANCH   9  10
ENDBRANCH   8   9
ENDBRANCH   7   8
ENDBRANCH   6   7
ENDBRANCH   5   6
ENDBRANCH   4   5
ENDBRANCH   3   4
ENDBRANCH   2   3
ENDBRANCH   1   2
BRANCH   1  18
ATOM     18  C   UNL     1      18.712  27.287  26.288  1.00  0.00     0.000 C 
BRANCH  18  19
ATOM     19  C   UNL     1      19.751  28.385  26.000  1.00  0.00     0.000 C 
BRANCH  19  20
ATOM     20  C   UNL     1      20.794  28.535  27.123  1.00  0.00     0.000 C 
BRANCH  20  21
ATOM     21  C   UNL     1      20.630  29.790  28.000  1.00  0.00     0.000 C 
BRANCH  21  22
ATOM     22  C   UNL     1      19.906  30.939  27.274  1.00  0.00     0.000 C 
BRANCH  22  23
ATOM     23  C   UNL     1      18.671  31.445  28.042  1.00  0.00     0.000 C 
BRANCH  23  24
ATOM     24  C   UNL     1      18.403  30.730  29.379  1.00  0.00    -0.000 C 
BRANCH  24  25
ATOM     25  C   UNL     1      18.652  31.632  30.599  1.00  0.00    -0.000 C 
BRANCH  25  26
ATOM     26  C   UNL     1      18.795  30.835  31.905  1.00  0.00    -0.000 C 
BRANCH  26  27
ATOM     27  C   UNL     1      17.539  30.010  32.260  1.00  0.00    -0.000 C 
BRANCH  27  28
ATOM     28  C   UNL     1      16.667  30.704  33.317  1.00  0.00    -0.000 C 
BRANCH  28  29
ATOM     29  C   UNL     1      16.861  32.224  33.277  1.00  0.00    -0.000 C 
BRANCH  29  30
ATOM     30  C   UNL     1      16.088  32.909  34.411  1.00  0.00    -0.000 C 
BRANCH  30  31
ATOM     31  C   UNL     1      15.548  34.271  33.962  1.00  0.00    -0.003 C 
ATOM     32  C   UNL     1      15.333  35.200  35.153  1.00  0.00     0.004 C 
ENDBRANCH  30  31
ENDBRANCH  29  30
ENDBRANCH  28  29
ENDBRANCH  27  28
ENDBRANCH  26  27
ENDBRANCH  25  26
ENDBRANCH  24  25
ENDBRANCH  23  24
ENDBRANCH  22  23
ENDBRANCH  21  22
ENDBRANCH  20  21
ENDBRANCH  19  20
ENDBRANCH  18  19
ENDBRANCH   1  18
TORSDOF 28
ENDMDL
MODEL 4
REMARK VINA RESULT:    -5.011      1.428      3.773
REMARK INTER + INTRA:         -17.750
REMARK INTER:                 -12.984
REMARK INTRA:                  -4.766
REMARK UNBOUND:                -4.536
REMARK SMILES CCCCCCCCCCCCCCCCCCCCCCCCCCCCCC(=O)[O-]
REMARK SMILES IDX 16 1 17 2 18 3 19 4 20 5 21 6 22 7 23 8 24 9 25 10 26 11
REMARK SMILES IDX 27 12 28 13 29 14 30 15 31 16 32 17 15 18 14 19 13 20 12 21
REMARK SMILES IDX 11 22 10 23 9 24 8 25 7 26 6 27 5 28 4 29 3 30 2 31 1 32
REMARK H PARENT
REMARK Flexibility Score: inf
ROOT
ATOM      1  C   UNL     1      20.293  26.331  32.436  1.00  0.00     0.000 C 
ENDROOT
BRANCH   1   2
ATOM      2  C   UNL     1      21.097  27.521  31.882  1.00  0.00     0.000 C 
BRANCH   2   3
ATOM      3  C   UNL     1      20.237  28.766  31.623  1.00  0.00     0.000 C 
BRANCH   3   4
ATOM      4  C   UNL     1      18.752  28.397  31.525  1.00  0.00     0.000 C 
BRANCH   4   5
ATOM      5  C   UNL     1      17.987  29.410  30.658  1.00  0.00     0.000 C 
BRANCH   5   6
ATOM      6  C   UNL     1      18.744  30.741  30.492  1.00  0.00     0.000 C 
BRANCH   6   7
ATOM      7  C   UNL     1      18.421  31.494  29.187  1.00  0.00     0.000 C 
BRANCH   7   8
ATOM      8  C   UNL     1      18.438  30.571  27.955  1.00  0.00     0.000 C 
BRANCH   8   9
ATOM      9  C   UNL     1      19.862  30.280  27.456  1.00  0.00     0.000 C 
BRANCH   9  10
ATOM     10  C   UNL     1      19.892  29.231  26.329  1.00  0.00     0.000 C 
BRANCH  10  11
ATOM     11  C   UNL     1      19.906  27.789  26.865  1.00  0.00     0.000 C 
BRANCH  11  12
ATOM     12  C   UNL     1      18.541  27.072  26.821  1.00  0.00     0.000 C 
BRANCH  12  13
ATOM     13  C   UNL     1      18.089  26.506  28.185  1.00  0.00     0.006 C 
BRANCH  13  14
ATOM     14  C   UNL     1      19.251  25.892  28.977  1.00  0.00     0.053 C 
BRANCH  14  15
ATOM     15  C   UNL     1      19.671  24.590  28.371  1.00  0.00     0.041 C 
ATOM     16  O   UNL     1      20.894  24.326  28.223  1.00  0.00    -0.550 OA
ATOM     17  O   UNL     1      18.714  23.651  28.004  1.00  0.00    -0.550 OA
ENDBRANCH  14  15
ENDBRANCH  13  14
ENDBRANCH  12  13
ENDBRANCH  11  12
ENDBRANCH  10  11
ENDBRANCH   9  10
ENDBRANCH   8   9
ENDBRANCH   7   8
ENDBRANCH   6   7
ENDBRANCH   5   6
ENDBRANCH   4   5
ENDBRANCH   3   4
ENDBRANCH   2   3
ENDBRANCH   1   2
BRANCH   1  18
ATOM     18  C   UNL     1      20.688  25.870  33.850  1.00  0.00     0.000 C 
BRANCH  18  19
ATOM     19  C   UNL     1      19.986  26.667  34.963  1.00  0.00     0.000 C 
BRANCH  19  20
ATOM     20  C   UNL     1      20.974  27.392  35.897  1.00  0.00     0.000 C 
BRANCH  20  21
ATOM     21  C   UNL     1      20.463  28.723  36.478  1.00  0.00     0.000 C 
BRANCH  21  22
ATOM     22  C   UNL     1      19.944  29.689  35.397  1.00  0.00     0.000 C 
BRANCH  22  23
ATOM     23  C   UNL     1      18.540  30.239  35.713  1.00  0.00     0.000 C 
BRANCH  23  24
ATOM     24  C   UNL     1      17.411  29.667  34.837  1.00  0.00    -0.000 C 
BRANCH  24  25
ATOM     25  C   UNL     1      16.830  30.702  33.860  1.00  0.00    -0.000 C 
BRANCH  25  26
ATOM     26  C   UNL     1      17.805  31.855  33.570  1.00  0.00    -0.000 C 
BRANCH  26  27
ATOM     27  C   UNL     1      17.099  33.167  33.167  1.00  0.00    -0.000 C 
BRANCH  27  28
ATOM     28  C   UNL     1      15.760  33.355  33.896  1.00  0.00    -0.000 C 
BRANCH  28  29
ATOM     29  C   UNL     1      15.805  34.577  34.820  1.00  0.00    -0.000 C 
BRANCH  29  30
ATOM     30  C   UNL     1      16.129  34.167  36.262  1.00  0.00    -0.000 C 
BRANCH  30  31
ATOM     31  C   UNL     1      15.612  32.756  36.560  1.00  0.00    -0.003 C 
ATOM     32  C   UNL     1      16.059  32.284  37.941  1.00  0.00     0.004 C 
ENDBRANCH  30  31
ENDBRANCH  29  30
ENDBRANCH  28  29
ENDBRANCH  27  28
ENDBRANCH  26  27
ENDBRANCH  25  26
ENDBRANCH  24  25
ENDBRANCH  23  24
ENDBRANCH  22  23
ENDBRANCH  21  22
ENDBRANCH  20  21
ENDBRANCH  19  20
ENDBRANCH  18  19
ENDBRANCH   1  18
TORSDOF 28
ENDMDL
MODEL 5
REMARK VINA RESULT:    -5.008      4.044      8.972
REMARK INTER + INTRA:         -17.741
REMARK INTER:                 -12.273
REMARK INTRA:                  -5.468
REMARK UNBOUND:                -4.536
REMARK SMILES CCCCCCCCCCCCCCCCCCCCCCCCCCCCCC(=O)[O-]
REMARK SMILES IDX 16 1 17 2 18 3 19 4 20 5 21 6 22 7 23 8 24 9 25 10 26 11
REMARK SMILES IDX 27 12 28 13 29 14 30 15 31 16 32 17 15 18 14 19 13 20 12 21
REMARK SMILES IDX 11 22 10 23 9 24 8 25 7 26 6 27 5 28 4 29 3 30 2 31 1 32
REMARK H PARENT
REMARK Flexibility Score: inf
ROOT
ATOM      1  C   UNL     1      17.844  29.339  31.187  1.00  0.00     0.000 C 
ENDROOT
BRANCH   1   2
ATOM      2  C   UNL     1      18.777  28.160  31.515  1.00  0.00     0.000 C 
BRANCH   2   3
ATOM      3  C   UNL     1      20.264  28.495  31.333  1.00  0.00     0.000 C 
BRANCH   3   4
ATOM      4  C   UNL     1      21.147  27.295  31.696  1.00  0.00     0.000 C 
BRANCH   4   5
ATOM      5  C   UNL     1      20.366  26.268  32.533  1.00  0.00     0.000 C 
BRANCH   5   6
ATOM      6  C   UNL     1      20.782  26.272  34.016  1.00  0.00     0.000 C 
BRANCH   6   7
ATOM      7  C   UNL     1      19.789  26.990  34.949  1.00  0.00     0.000 C 
BRANCH   7   8
ATOM      8  C   UNL     1      20.259  28.406  35.332  1.00  0.00     0.000 C 
BRANCH   8   9
ATOM      9  C   UNL     1      19.091  29.390  35.498  1.00  0.00     0.000 C 
BRANCH   9  10
ATOM     10  C   UNL     1      17.775  28.854  34.903  1.00  0.00     0.000 C 
BRANCH  10  11
ATOM     11  C   UNL     1      16.735  29.964  34.679  1.00  0.00     0.000 C 
BRANCH  11  12
ATOM     12  C   UNL     1      17.328  31.373  34.475  1.00  0.00     0.000 C 
BRANCH  12  13
ATOM     13  C   UNL     1      16.426  32.318  33.652  1.00  0.00     0.006 C 
BRANCH  13  14
ATOM     14  C   UNL     1      17.103  33.663  33.356  1.00  0.00     0.053 C 
BRANCH  14  15
ATOM     15  C   UNL     1      16.084  34.698  33.000  1.00  0.00     0.041 C 
ATOM     16  O   UNL     1      16.286  35.480  32.033  1.00  0.00    -0.550 OA
ATOM     17  O   UNL     1      14.892  34.776  33.712  1.00  0.00    -0.550 OA
ENDBRANCH  14  15
ENDBRANCH  13  14
ENDBRANCH  12  13
ENDBRANCH  11  12
ENDBRANCH  10  11
ENDBRANCH   9  10
ENDBRANCH   8   9
ENDBRANCH   7   8
ENDBRANCH   6   7
ENDBRANCH   5   6
ENDBRANCH   4   5
ENDBRANCH   3   4
ENDBRANCH   2   3
ENDBRANCH   1   2
BRANCH   1  18
ATOM     18  C   UNL     1      18.349  30.293  30.089  1.00  0.00     0.000 C 
BRANCH  18  19
ATOM     19  C   UNL     1      18.473  31.751  30.567  1.00  0.00     0.000 C 
BRANCH  19  20
ATOM     20  C   UNL     1      18.591  32.756  29.405  1.00  0.00     0.000 C 
BRANCH  20  21
ATOM     21  C   UNL     1      18.681  32.123  28.004  1.00  0.00     0.000 C 
BRANCH  21  22
ATOM     22  C   UNL     1      19.844  32.685  27.166  1.00  0.00     0.000 C 
BRANCH  22  23
ATOM     23  C   UNL     1      20.914  31.626  26.843  1.00  0.00     0.000 C 
BRANCH  23  24
ATOM     24  C   UNL     1      21.359  30.771  28.045  1.00  0.00    -0.000 C 
BRANCH  24  25
ATOM     25  C   UNL     1      21.193  29.262  27.799  1.00  0.00    -0.000 C 
BRANCH  25  26
ATOM     26  C   UNL     1      21.005  28.922  26.312  1.00  0.00    -0.000 C 
BRANCH  26  27
ATOM     27  C   UNL     1      19.606  28.357  25.985  1.00  0.00    -0.000 C 
BRANCH  27  28
ATOM     28  C   UNL     1      18.698  28.300  27.222  1.00  0.00    -0.000 C 
BRANCH  28  29
ATOM     29  C   UNL     1      17.678  27.162  27.103  1.00  0.00    -0.000 C 
BRANCH  29  30
ATOM     30  C   UNL     1      18.307  25.814  27.478  1.00  0.00    -0.000 C 
BRANCH  30  31
ATOM     31  C   UNL     1      19.160  25.941  28.744  1.00  0.00    -0.003 C 
ATOM     32  C   UNL     1      20.541  25.324  28.545  1.00  0.00     0.004 C 
ENDBRANCH  30  31
ENDBRANCH  29  30
ENDBRANCH  28  29
ENDBRANCH  27  28
ENDBRANCH  26  27
ENDBRANCH  25  26
ENDBRANCH  24  25
ENDBRANCH  23  24
ENDBRANCH  22  23
ENDBRANCH  21  22
ENDBRANCH  20  21
ENDBRANCH  19  20
ENDBRANCH  18  19
ENDBRANCH   1  18
TORSDOF 28
ENDMDL
MODEL 6
REMARK VINA RESULT:    -4.998      1.406      4.780
REMARK INTER + INTRA:         -17.715
REMARK INTER:                 -14.126
REMARK INTRA:                  -3.589
REMARK UNBOUND:                -4.536
REMARK SMILES CCCCCCCCCCCCCCCCCCCCCCCCCCCCCC(=O)[O-]
REMARK SMILES IDX 16 1 17 2 18 3 19 4 20 5 21 6 22 7 23 8 24 9 25 10 26 11
REMARK SMILES IDX 27 12 28 13 29 14 30 15 31 16 32 17 15 18 14 19 13 20 12 21
REMARK SMILES IDX 11 22 10 23 9 24 8 25 7 26 6 27 5 28 4 29 3 30 2 31 1 32
REMARK H PARENT
REMARK Flexibility Score: inf
ROOT
ATOM      1  C   UNL     1      20.057  28.157  35.393  1.00  0.00     0.000 C 
ENDROOT
BRANCH   1   2
ATOM      2  C   UNL     1      20.149  26.730  34.824  1.00  0.00     0.000 C 
BRANCH   2   3
ATOM      3  C   UNL     1      19.936  26.669  33.305  1.00  0.00     0.000 C 
BRANCH   3   4
ATOM      4  C   UNL     1      19.129  27.876  32.814  1.00  0.00     0.000 C 
BRANCH   4   5
ATOM      5  C   UNL     1      19.182  27.990  31.282  1.00  0.00     0.000 C 
BRANCH   5   6
ATOM      6  C   UNL     1      17.987  28.772  30.703  1.00  0.00     0.000 C 
BRANCH   6   7
ATOM      7  C   UNL     1      18.382  29.930  29.768  1.00  0.00     0.000 C 
BRANCH   7   8
ATOM      8  C   UNL     1      19.016  29.438  28.454  1.00  0.00     0.000 C 
BRANCH   8   9
ATOM      9  C   UNL     1      18.010  28.710  27.551  1.00  0.00     0.000 C 
BRANCH   9  10
ATOM     10  C   UNL     1      18.477  27.295  27.162  1.00  0.00     0.000 C 
BRANCH  10  11
ATOM     11  C   UNL     1      18.025  26.226  28.170  1.00  0.00     0.000 C 
BRANCH  11  12
ATOM     12  C   UNL     1      19.130  25.240  28.604  1.00  0.00     0.000 C 
BRANCH  12  13
ATOM     13  C   UNL     1      18.784  23.759  28.341  1.00  0.00     0.006 C 
BRANCH  13  14
ATOM     14  C   UNL     1      19.524  22.807  29.291  1.00  0.00     0.053 C 
BRANCH  14  15
ATOM     15  C   UNL     1      18.906  21.445  29.258  1.00  0.00     0.041 C 
ATOM     16  O   UNL     1      18.245  21.026  30.244  1.00  0.00    -0.550 OA
ATOM     17  O   UNL     1      19.028  20.653  28.122  1.00  0.00    -0.550 OA
ENDBRANCH  14  15
ENDBRANCH  13  14
ENDBRANCH  12  13
ENDBRANCH  11  12
ENDBRANCH  10  11
ENDBRANCH   9  10
ENDBRANCH   8   9
ENDBRANCH   7   8
ENDBRANCH   6   7
ENDBRANCH   5   6
ENDBRANCH   4   5
ENDBRANCH   3   4
ENDBRANCH   2   3
ENDBRANCH   1   2
BRANCH   1  18
ATOM     18  C   UNL     1      20.979  28.451  36.590  1.00  0.00     0.000 C 
BRANCH  18  19
ATOM     19  C   UNL     1      20.636  29.770  37.306  1.00  0.00     0.000 C 
BRANCH  19  20
ATOM     20  C   UNL     1      19.395  30.468  36.717  1.00  0.00     0.000 C 
BRANCH  20  21
ATOM     21  C   UNL     1      18.612  31.348  37.708  1.00  0.00     0.000 C 
BRANCH  21  22
ATOM     22  C   UNL     1      17.739  32.406  37.010  1.00  0.00     0.000 C 
BRANCH  22  23
ATOM     23  C   UNL     1      16.269  32.363  37.467  1.00  0.00     0.000 C 
BRANCH  23  24
ATOM     24  C   UNL     1      15.494  33.680  37.276  1.00  0.00    -0.000 C 
BRANCH  24  25
ATOM     25  C   UNL     1      16.185  34.642  36.295  1.00  0.00    -0.000 C 
BRANCH  25  26
ATOM     26  C   UNL     1      15.229  35.178  35.218  1.00  0.00    -0.000 C 
BRANCH  26  27
ATOM     27  C   UNL     1      15.422  34.510  33.840  1.00  0.00    -0.000 C 
BRANCH  27  28
ATOM     28  C   UNL     1      16.889  34.528  33.385  1.00  0.00    -0.000 C 
BRANCH  28  29
ATOM     29  C   UNL     1      17.467  33.109  33.339  1.00  0.00    -0.000 C 
BRANCH  29  30
ATOM     30  C   UNL     1      16.374  32.059  33.573  1.00  0.00    -0.000 C 
BRANCH  30  31
ATOM     31  C   UNL     1      16.950  30.641  33.496  1.00  0.00    -0.003 C 
ATOM     32  C   UNL     1      16.537  29.810  34.707  1.00  0.00     0.004 C 
ENDBRANCH  30  31
ENDBRANCH  29  30
ENDBRANCH  28  29
ENDBRANCH  27  28
ENDBRANCH  26  27
ENDBRANCH  25  26
ENDBRANCH  24  25
ENDBRANCH  23  24
ENDBRANCH  22  23
ENDBRANCH  21  22
ENDBRANCH  20  21
ENDBRANCH  19  20
ENDBRANCH  18  19
ENDBRANCH   1  18
TORSDOF 28
ENDMDL
MODEL 7
REMARK VINA RESULT:    -4.979      3.892      9.534
REMARK INTER + INTRA:         -17.664
REMARK INTER:                 -12.779
REMARK INTRA:                  -4.885
REMARK UNBOUND:                -4.536
REMARK SMILES CCCCCCCCCCCCCCCCCCCCCCCCCCCCCC(=O)[O-]
REMARK SMILES IDX 16 1 17 2 18 3 19 4 20 5 21 6 22 7 23 8 24 9 25 10 26 11
REMARK SMILES IDX 27 12 28 13 29 14 30 15 31 16 32 17 15 18 14 19 13 20 12 21
REMARK SMILES IDX 11 22 10 23 9 24 8 25 7 26 6 27 5 28 4 29 3 30 2 31 1 32
REMARK H PARENT
REMARK Flexibility Score: inf
ROOT
ATOM      1  C   UNL     1      20.541  26.239  32.588  1.00  0.00     0.000 C 
ENDROOT
BRANCH   1   2
ATOM      2  C   UNL     1      20.302  26.149  34.106  1.00  0.00     0.000 C 
BRANCH   2   3
ATOM      3  C   UNL     1      21.383  26.861  34.932  1.00  0.00     0.000 C 
BRANCH   3   4
ATOM      4  C   UNL     1      20.755  27.712  36.041  1.00  0.00     0.000 C 
BRANCH   4   5
ATOM      5  C   UNL     1      19.515  28.463  35.527  1.00  0.00     0.000 C 
BRANCH   5   6
ATOM      6  C   UNL     1      19.434  29.907  36.057  1.00  0.00     0.000 C 
BRANCH   6   7
ATOM      7  C   UNL     1      18.054  30.568  35.880  1.00  0.00     0.000 C 
BRANCH   7   8
ATOM      8  C   UNL     1      17.202  29.876  34.800  1.00  0.00     0.000 C 
BRANCH   8   9
ATOM      9  C   UNL     1      16.672  30.860  33.747  1.00  0.00     0.000 C 
BRANCH   9  10
ATOM     10  C   UNL     1      17.713  31.925  33.354  1.00  0.00     0.000 C 
BRANCH  10  11
ATOM     11  C   UNL     1      17.223  33.357  33.625  1.00  0.00     0.000 C 
BRANCH  11  12
ATOM     12  C   UNL     1      15.836  33.449  34.293  1.00  0.00     0.000 C 
BRANCH  12  13
ATOM     13  C   UNL     1      15.874  33.988  35.740  1.00  0.00     0.006 C 
BRANCH  13  14
ATOM     14  C   UNL     1      15.489  32.919  36.772  1.00  0.00     0.053 C 
BRANCH  14  15
ATOM     15  C   UNL     1      16.190  33.166  38.070  1.00  0.00     0.041 C 
ATOM     16  O   UNL     1      16.657  32.201  38.731  1.00  0.00    -0.550 OA
ATOM     17  O   UNL     1      16.363  34.465  38.533  1.00  0.00    -0.550 OA
ENDBRANCH  14  15
ENDBRANCH  13  14
ENDBRANCH  12  13
ENDBRANCH  11  12
ENDBRANCH  10  11
ENDBRANCH   9  10
ENDBRANCH   8   9
ENDBRANCH   7   8
ENDBRANCH   6   7
ENDBRANCH   5   6
ENDBRANCH   4   5
ENDBRANCH   3   4
ENDBRANCH   2   3
ENDBRANCH   1   2
BRANCH   1  18
ATOM     18  C   UNL     1      21.172  27.553  32.096  1.00  0.00     0.000 C 
BRANCH  18  19
ATOM     19  C   UNL     1      20.160  28.709  31.999  1.00  0.00     0.000 C 
BRANCH  19  20
ATOM     20  C   UNL     1      18.771  28.252  31.513  1.00  0.00     0.000 C 
BRANCH  20  21
ATOM     21  C   UNL     1      17.976  29.310  30.727  1.00  0.00     0.000 C 
BRANCH  21  22
ATOM     22  C   UNL     1      18.865  30.438  30.171  1.00  0.00     0.000 C 
BRANCH  22  23
ATOM     23  C   UNL     1      18.394  30.947  28.796  1.00  0.00     0.000 C 
BRANCH  23  24
ATOM     24  C   UNL     1      18.519  29.925  27.652  1.00  0.00    -0.000 C 
BRANCH  24  25
ATOM     25  C   UNL     1      19.911  29.275  27.581  1.00  0.00    -0.000 C 
BRANCH  25  26
ATOM     26  C   UNL     1      19.844  27.755  27.359  1.00  0.00    -0.000 C 
BRANCH  26  27
ATOM     27  C   UNL     1      18.412  27.185  27.451  1.00  0.00    -0.000 C 
BRANCH  27  28
ATOM     28  C   UNL     1      18.282  26.111  28.540  1.00  0.00    -0.000 C 
BRANCH  28  29
ATOM     29  C   UNL     1      19.661  25.684  29.058  1.00  0.00    -0.000 C 
BRANCH  29  30
ATOM     30  C   UNL     1      19.775  24.156  29.129  1.00  0.00    -0.000 C 
BRANCH  30  31
ATOM     31  C   UNL     1      19.002  23.494  27.984  1.00  0.00    -0.003 C 
ATOM     32  C   UNL     1      19.043  21.973  28.095  1.00  0.00     0.004 C 
ENDBRANCH  30  31
ENDBRANCH  29  30
ENDBRANCH  28  29
ENDBRANCH  27  28
ENDBRANCH  26  27
ENDBRANCH  25  26
ENDBRANCH  24  25
ENDBRANCH  23  24
ENDBRANCH  22  23
ENDBRANCH  21  22
ENDBRANCH  20  21
ENDBRANCH  19  20
ENDBRANCH  18  19
ENDBRANCH   1  18
TORSDOF 28
ENDMDL
MODEL 8
REMARK VINA RESULT:    -4.922      4.157      9.887
REMARK INTER + INTRA:         -17.516
REMARK INTER:                 -13.337
REMARK INTRA:                  -4.178
REMARK UNBOUND:                -4.536
REMARK SMILES CCCCCCCCCCCCCCCCCCCCCCCCCCCCCC(=O)[O-]
REMARK SMILES IDX 16 1 17 2 18 3 19 4 20 5 21 6 22 7 23 8 24 9 25 10 26 11
REMARK SMILES IDX 27 12 28 13 29 14 30 15 31 16 32 17 15 18 14 19 13 20 12 21
REMARK SMILES IDX 11 22 10 23 9 24 8 25 7 26 6 27 5 28 4 29 3 30 2 31 1 32
REMARK H PARENT
REMARK Flexibility Score: inf
ROOT
ATOM      1  C   UNL     1      20.720  27.003  33.207  1.00  0.00     0.000 C 
ENDROOT
BRANCH   1   2
ATOM      2  C   UNL     1      19.840  26.954  34.468  1.00  0.00     0.000 C 
BRANCH   2   3
ATOM      3  C   UNL     1      19.544  28.342  35.054  1.00  0.00     0.000 C 
BRANCH   3   4
ATOM      4  C   UNL     1      18.081  28.737  34.819  1.00  0.00     0.000 C 
BRANCH   4   5
ATOM      5  C   UNL     1      17.795  30.147  35.363  1.00  0.00     0.000 C 
BRANCH   5   6
ATOM      6  C   UNL     1      16.745  30.903  34.528  1.00  0.00     0.000 C 
BRANCH   6   7
ATOM      7  C   UNL     1      16.874  32.437  34.589  1.00  0.00     0.000 C 
BRANCH   7   8
ATOM      8  C   UNL     1      15.878  33.150  33.655  1.00  0.00     0.000 C 
BRANCH   8   9
ATOM      9  C   UNL     1      15.976  34.680  33.747  1.00  0.00     0.000 C 
BRANCH   9  10
ATOM     10  C   UNL     1      16.331  35.167  35.165  1.00  0.00     0.000 C 
BRANCH  10  11
ATOM     11  C   UNL     1      15.085  35.465  36.015  1.00  0.00     0.000 C 
BRANCH  11  12
ATOM     12  C   UNL     1      15.202  35.055  37.497  1.00  0.00     0.000 C 
BRANCH  12  13
ATOM     13  C   UNL     1      15.377  33.537  37.714  1.00  0.00     0.006 C 
BRANCH  13  14
ATOM     14  C   UNL     1      16.815  33.162  38.098  1.00  0.00     0.053 C 
BRANCH  14  15
ATOM     15  C   UNL     1      16.948  33.042  39.583  1.00  0.00     0.041 C 
ATOM     16  O   UNL     1      17.239  34.052  40.277  1.00  0.00    -0.550 OA
ATOM     17  O   UNL     1      16.713  31.822  40.207  1.00  0.00    -0.550 OA
ENDBRANCH  14  15
ENDBRANCH  13  14
ENDBRANCH  12  13
ENDBRANCH  11  12
ENDBRANCH  10  11
ENDBRANCH   9  10
ENDBRANCH   8   9
ENDBRANCH   7   8
ENDBRANCH   6   7
ENDBRANCH   5   6
ENDBRANCH   4   5
ENDBRANCH   3   4
ENDBRANCH   2   3
ENDBRANCH   1   2
BRANCH   1  18
ATOM     18  C   UNL     1      19.967  26.871  31.871  1.00  0.00     0.000 C 
BRANCH  18  19
ATOM     19  C   UNL     1      19.636  28.230  31.228  1.00  0.00     0.000 C 
BRANCH  19  20
ATOM     20  C   UNL     1      18.124  28.444  31.020  1.00  0.00     0.000 C 
BRANCH  20  21
ATOM     21  C   UNL     1      17.611  29.851  31.375  1.00  0.00     0.000 C 
BRANCH  21  22
ATOM     22  C   UNL     1      18.741  30.892  31.480  1.00  0.00     0.000 C 
BRANCH  22  23
ATOM     23  C   UNL     1      18.562  32.068  30.502  1.00  0.00     0.000 C 
BRANCH  23  24
ATOM     24  C   UNL     1      18.459  31.663  29.020  1.00  0.00    -0.000 C 
BRANCH  24  25
ATOM     25  C   UNL     1      19.811  31.245  28.419  1.00  0.00    -0.000 C 
BRANCH  25  26
ATOM     26  C   UNL     1      19.659  30.285  27.229  1.00  0.00    -0.000 C 
BRANCH  26  27
ATOM     27  C   UNL     1      18.762  29.066  27.535  1.00  0.00    -0.000 C 
BRANCH  27  28
ATOM     28  C   UNL     1      19.039  27.888  26.590  1.00  0.00    -0.000 C 
BRANCH  28  29
ATOM     29  C   UNL     1      18.008  26.770  26.788  1.00  0.00    -0.000 C 
BRANCH  29  30
ATOM     30  C   UNL     1      18.044  26.236  28.225  1.00  0.00    -0.000 C 
BRANCH  30  31
ATOM     31  C   UNL     1      19.265  25.337  28.446  1.00  0.00    -0.003 C 
ATOM     32  C   UNL     1      18.987  23.906  27.997  1.00  0.00     0.004 C 
ENDBRANCH  30  31
ENDBRANCH  29  30
ENDBRANCH  28  29
ENDBRANCH  27  28
ENDBRANCH  26  27
ENDBRANCH  25  26
ENDBRANCH  24  25
ENDBRANCH  23  24
ENDBRANCH  22  23
ENDBRANCH  21  22
ENDBRANCH  20  21
ENDBRANCH  19  20
ENDBRANCH  18  19
ENDBRANCH   1  18
TORSDOF 28
ENDMDL
MODEL 9
REMARK VINA RESULT:    -4.859      1.242      3.406
REMARK INTER + INTRA:         -17.348
REMARK INTER:                 -13.173
REMARK INTRA:                  -4.175
REMARK UNBOUND:                -4.536
REMARK SMILES CCCCCCCCCCCCCCCCCCCCCCCCCCCCCC(=O)[O-]
REMARK SMILES IDX 16 1 17 2 18 3 19 4 20 5 21 6 22 7 23 8 24 9 25 10 26 11
REMARK SMILES IDX 27 12 28 13 29 14 30 15 31 16 32 17 15 18 14 19 13 20 12 21
REMARK SMILES IDX 11 22 10 23 9 24 8 25 7 26 6 27 5 28 4 29 3 30 2 31 1 32
REMARK H PARENT
REMARK Flexibility Score: inf
ROOT
ATOM      1  C   UNL     1      20.122  26.636  32.383  1.00  0.00     0.000 C 
ENDROOT
BRANCH   1   2
ATOM      2  C   UNL     1      21.025  27.544  31.528  1.00  0.00     0.000 C 
BRANCH   2   3
ATOM      3  C   UNL     1      20.306  28.798  31.010  1.00  0.00     0.000 C 
BRANCH   3   4
ATOM      4  C   UNL     1      18.821  28.776  31.389  1.00  0.00     0.000 C 
BRANCH   4   5
ATOM      5  C   UNL     1      17.931  28.778  30.135  1.00  0.00     0.000 C 
BRANCH   5   6
ATOM      6  C   UNL     1      18.391  29.804  29.082  1.00  0.00     0.000 C 
BRANCH   6   7
ATOM      7  C   UNL     1      18.439  29.255  27.643  1.00  0.00     0.000 C 
BRANCH   7   8
ATOM      8  C   UNL     1      17.550  28.012  27.457  1.00  0.00     0.000 C 
BRANCH   8   9
ATOM      9  C   UNL     1      18.327  26.810  26.899  1.00  0.00     0.000 C 
BRANCH   9  10
ATOM     10  C   UNL     1      19.671  26.588  27.617  1.00  0.00     0.000 C 
BRANCH  10  11
ATOM     11  C   UNL     1      19.541  25.662  28.839  1.00  0.00     0.000 C 
BRANCH  11  12
ATOM     12  C   UNL     1      19.919  24.190  28.576  1.00  0.00     0.000 C 
BRANCH  12  13
ATOM     13  C   UNL     1      18.712  23.228  28.564  1.00  0.00     0.006 C 
BRANCH  13  14
ATOM     14  C   UNL     1      19.100  21.808  28.129  1.00  0.00     0.053 C 
BRANCH  14  15
ATOM     15  C   UNL     1      19.341  20.940  29.323  1.00  0.00     0.041 C 
ATOM     16  O   UNL     1      20.483  20.450  29.529  1.00  0.00    -0.550 OA
ATOM     17  O   UNL     1      18.315  20.703  30.230  1.00  0.00    -0.550 OA
ENDBRANCH  14  15
ENDBRANCH  13  14
ENDBRANCH  12  13
ENDBRANCH  11  12
ENDBRANCH  10  11
ENDBRANCH   9  10
ENDBRANCH   8   9
ENDBRANCH   7   8
ENDBRANCH   6   7
ENDBRANCH   5   6
ENDBRANCH   4   5
ENDBRANCH   3   4
ENDBRANCH   2   3
ENDBRANCH   1   2
BRANCH   1  18
ATOM     18  C   UNL     1      20.662  26.300  33.784  1.00  0.00     0.000 C 
BRANCH  18  19
ATOM     19  C   UNL     1      19.841  26.940  34.917  1.00  0.00     0.000 C 
BRANCH  19  20
ATOM     20  C   UNL     1      20.155  28.435  35.116  1.00  0.00     0.000 C 
BRANCH  20  21
ATOM     21  C   UNL     1      18.953  29.303  35.531  1.00  0.00     0.000 C 
BRANCH  21  22
ATOM     22  C   UNL     1      17.641  28.876  34.849  1.00  0.00     0.000 C 
BRANCH  22  23
ATOM     23  C   UNL     1      16.610  30.017  34.770  1.00  0.00     0.000 C 
BRANCH  23  24
ATOM     24  C   UNL     1      17.042  31.325  35.458  1.00  0.00    -0.000 C 
BRANCH  24  25
ATOM     25  C   UNL     1      15.973  31.877  36.417  1.00  0.00    -0.000 C 
BRANCH  25  26
ATOM     26  C   UNL     1      16.044  33.404  36.567  1.00  0.00    -0.000 C 
BRANCH  26  27
ATOM     27  C   UNL     1      16.575  34.120  35.306  1.00  0.00    -0.000 C 
BRANCH  27  28
ATOM     28  C   UNL     1      15.451  34.472  34.321  1.00  0.00    -0.000 C 
BRANCH  28  29
ATOM     29  C   UNL     1      16.005  34.686  32.907  1.00  0.00    -0.000 C 
BRANCH  29  30
ATOM     30  C   UNL     1      17.536  34.596  32.896  1.00  0.00    -0.000 C 
BRANCH  30  31
ATOM     31  C   UNL     1      18.026  33.734  31.728  1.00  0.00    -0.003 C 
ATOM     32  C   UNL     1      18.093  32.260  32.119  1.00  0.00     0.004 C 
ENDBRANCH  30  31
ENDBRANCH  29  30
ENDBRANCH  28  29
ENDBRANCH  27  28
ENDBRANCH  26  27
ENDBRANCH  25  26
ENDBRANCH  24  25
ENDBRANCH  23  24
ENDBRANCH  22  23
ENDBRANCH  21  22
ENDBRANCH  20  21
ENDBRANCH  19  20
ENDBRANCH  18  19
ENDBRANCH   1  18
TORSDOF 28
ENDMDL
