MODEL 1
REMARK VINA RESULT:    -3.418      0.000      0.000
REMARK INTER + INTRA:         -10.867
REMARK INTER:                  -7.414
REMARK INTRA:                  -3.453
REMARK UNBOUND:                -3.453
REMARK SMILES CCCCCCCCCCCCCCCCCCCCCC(=O)[O-]
REMARK SMILES IDX 12 1 11 2 10 3 9 4 8 5 7 6 6 7 5 8 4 9 3 10 2 11 1 12 13 13
REMARK SMILES IDX 14 14 15 15 16 16 17 17 18 18 19 19 20 20 21 21 22 22 23 23
REMARK SMILES IDX 24 24
REMARK H PARENT
REMARK Flexibility Score: inf
ROOT
ATOM      1  C   UNL     1      -1.298   0.575   8.113  1.00  0.00     0.000 C 
ENDROOT
BRANCH   1   2
ATOM      2  C   UNL     1      -1.685   0.166   9.545  1.00  0.00     0.000 C 
BRANCH   2   3
ATOM      3  C   UNL     1      -1.393   1.266  10.579  1.00  0.00     0.000 C 
BRANCH   3   4
ATOM      4  C   UNL     1      -1.032   2.607   9.920  1.00  0.00    -0.000 C 
BRANCH   4   5
ATOM      5  C   UNL     1       0.269   3.205  10.484  1.00  0.00    -0.000 C 
BRANCH   5   6
ATOM      6  C   UNL     1       0.881   4.284   9.572  1.00  0.00    -0.000 C 
BRANCH   6   7
ATOM      7  C   UNL     1       0.465   4.207   8.091  1.00  0.00    -0.000 C 
BRANCH   7   8
ATOM      8  C   UNL     1       1.417   3.348   7.242  1.00  0.00    -0.000 C 
BRANCH   8   9
ATOM      9  C   UNL     1       2.902   3.607   7.560  1.00  0.00    -0.000 C 
BRANCH   9  10
ATOM     10  C   UNL     1       3.650   4.490   6.540  1.00  0.00    -0.000 C 
BRANCH  10  11
ATOM     11  C   UNL     1       4.367   5.713   7.140  1.00  0.00    -0.003 C 
ATOM     12  C   UNL     1       3.424   6.636   7.911  1.00  0.00     0.004 C 
ENDBRANCH  10  11
ENDBRANCH   9  10
ENDBRANCH   8   9
ENDBRANCH   7   8
ENDBRANCH   6   7
ENDBRANCH   5   6
ENDBRANCH   4   5
ENDBRANCH   3   4
ENDBRANCH   2   3
ENDBRANCH   1   2
BRANCH   1  13
ATOM     13  C   UNL     1      -0.013  -0.108   7.597  1.00  0.00     0.000 C 
BRANCH  13  14
ATOM     14  C   UNL     1       0.440  -1.261   8.510  1.00  0.00     0.000 C 
BRANCH  14  15
ATOM     15  C   UNL     1       1.854  -1.029   9.085  1.00  0.00     0.000 C 
BRANCH  15  16
ATOM     16  C   UNL     1       2.246   0.457   9.169  1.00  0.00     0.000 C 
BRANCH  16  17
ATOM     17  C   UNL     1       3.543   0.686   9.957  1.00  0.00     0.000 C 
BRANCH  17  18
ATOM     18  C   UNL     1       4.473  -0.529   9.852  1.00  0.00     0.000 C 
BRANCH  18  19
ATOM     19  C   UNL     1       5.819  -0.137   9.225  1.00  0.00     0.000 C 
BRANCH  19  20
ATOM     20  C   UNL     1       6.037   1.384   9.188  1.00  0.00     0.006 C 
BRANCH  20  21
ATOM     21  C   UNL     1       6.274   1.913   7.767  1.00  0.00     0.053 C 
BRANCH  21  22
ATOM     22  C   UNL     1       7.511   2.754   7.721  1.00  0.00     0.041 C 
ATOM     23  O   UNL     1       8.597   2.308   8.179  1.00  0.00    -0.550 OA
ATOM     24  O   UNL     1       7.478   4.009   7.125  1.00  0.00    -0.550 OA
ENDBRANCH  21  22
ENDBRANCH  20  21
ENDBRANCH  19  20
ENDBRANCH  18  19
ENDBRANCH  17  18
ENDBRANCH  16  17
ENDBRANCH  15  16
ENDBRANCH  14  15
ENDBRANCH  13  14
ENDBRANCH   1  13
TORSDOF 20
ENDMDL
MODEL 2
REMARK VINA RESULT:    -3.380      3.265      6.389
REMARK INTER + INTRA:         -10.784
REMARK INTER:                  -7.814
REMARK INTRA:                  -2.971
REMARK UNBOUND:                -3.453
REMARK SMILES CCCCCCCCCCCCCCCCCCCCCC(=O)[O-]
REMARK SMILES IDX 12 1 11 2 10 3 9 4 8 5 7 6 6 7 5 8 4 9 3 10 2 11 1 12 13 13
REMARK SMILES IDX 14 14 15 15 16 16 17 17 18 18 19 19 20 20 21 21 22 22 23 23
REMARK SMILES IDX 24 24
REMARK H PARENT
REMARK Flexibility Score: inf
ROOT
ATOM      1  C   UNL     1       0.908  -2.100   9.481  1.00  0.00     0.000 C 
ENDROOT
BRANCH   1   2
ATOM      2  C   UNL     1      -0.174  -1.766   8.440  1.00  0.00     0.000 C 
BRANCH   2   3
ATOM      3  C   UNL     1       0.115  -0.463   7.676  1.00  0.00     0.000 C 
BRANCH   3   4
ATOM      4  C   UNL     1      -0.829   0.679   8.090  1.00  0.00    -0.000 C 
BRANCH   4   5
ATOM      5  C   UNL     1      -0.627   1.102   9.555  1.00  0.00    -0.000 C 
BRANCH   5   6
ATOM      6  C   UNL     1      -1.212   2.492   9.866  1.00  0.00    -0.000 C 
BRANCH   6   7
ATOM      7  C   UNL     1      -2.652   2.725   9.370  1.00  0.00    -0.000 C 
BRANCH   7   8
ATOM      8  C   UNL     1      -3.684   1.832  10.079  1.00  0.00    -0.000 C 
BRANCH   8   9
ATOM      9  C   UNL     1      -4.749   1.269   9.118  1.00  0.00    -0.000 C 
BRANCH   9  10
ATOM     10  C   UNL     1      -4.348  -0.018   8.369  1.00  0.00    -0.000 C 
BRANCH  10  11
ATOM     11  C   UNL     1      -3.823  -1.155   9.266  1.00  0.00    -0.003 C 
ATOM     12  C   UNL     1      -4.614  -2.453   9.104  1.00  0.00     0.004 C 
ENDBRANCH  10  11
ENDBRANCH   9  10
ENDBRANCH   8   9
ENDBRANCH   7   8
ENDBRANCH   6   7
ENDBRANCH   5   6
ENDBRANCH   4   5
ENDBRANCH   3   4
ENDBRANCH   2   3
ENDBRANCH   1   2
BRANCH   1  13
ATOM     13  C   UNL     1       2.312  -1.576   9.107  1.00  0.00     0.000 C 
BRANCH  13  14
ATOM     14  C   UNL     1       2.788  -0.460  10.055  1.00  0.00     0.000 C 
BRANCH  14  15
ATOM     15  C   UNL     1       3.692   0.567   9.339  1.00  0.00     0.000 C 
BRANCH  15  16
ATOM     16  C   UNL     1       2.924   1.786   8.798  1.00  0.00     0.000 C 
BRANCH  16  17
ATOM     17  C   UNL     1       3.806   2.716   7.953  1.00  0.00     0.000 C 
BRANCH  17  18
ATOM     18  C   UNL     1       2.952   3.707   7.153  1.00  0.00     0.000 C 
BRANCH  18  19
ATOM     19  C   UNL     1       1.455   3.410   7.332  1.00  0.00     0.000 C 
BRANCH  19  20
ATOM     20  C   UNL     1       0.562   4.599   6.941  1.00  0.00     0.006 C 
BRANCH  20  21
ATOM     21  C   UNL     1       0.953   5.895   7.662  1.00  0.00     0.053 C 
BRANCH  21  22
ATOM     22  C   UNL     1      -0.197   6.852   7.681  1.00  0.00     0.041 C 
ATOM     23  O   UNL     1      -0.692   7.225   8.778  1.00  0.00    -0.550 OA
ATOM     24  O   UNL     1      -0.691   7.372   6.491  1.00  0.00    -0.550 OA
ENDBRANCH  21  22
ENDBRANCH  20  21
ENDBRANCH  19  20
ENDBRANCH  18  19
ENDBRANCH  17  18
ENDBRANCH  16  17
ENDBRANCH  15  16
ENDBRANCH  14  15
ENDBRANCH  13  14
ENDBRANCH   1  13
TORSDOF 20
ENDMDL
MODEL 3
REMARK VINA RESULT:    -3.371      2.148      3.669
REMARK INTER + INTRA:         -10.767
REMARK INTER:                  -7.734
REMARK INTRA:                  -3.033
REMARK UNBOUND:                -3.453
REMARK SMILES CCCCCCCCCCCCCCCCCCCCCC(=O)[O-]
REMARK SMILES IDX 12 1 11 2 10 3 9 4 8 5 7 6 6 7 5 8 4 9 3 10 2 11 1 12 13 13
REMARK SMILES IDX 14 14 15 15 16 16 17 17 18 18 19 19 20 20 21 21 22 22 23 23
REMARK SMILES IDX 24 24
REMARK H PARENT
REMARK Flexibility Score: inf
ROOT
ATOM      1  C   UNL     1      -4.328  -1.701  10.366  1.00  0.00     0.000 C 
ENDROOT
BRANCH   1   2
ATOM      2  C   UNL     1      -4.562  -1.524   8.856  1.00  0.00     0.000 C 
BRANCH   2   3
ATOM      3  C   UNL     1      -4.275  -0.093   8.372  1.00  0.00     0.000 C 
BRANCH   3   4
ATOM      4  C   UNL     1      -3.775   0.819   9.505  1.00  0.00    -0.000 C 
BRANCH   4   5
ATOM      5  C   UNL     1      -2.336   1.310   9.269  1.00  0.00    -0.000 C 
BRANCH   5   6
ATOM      6  C   UNL     1      -1.633   0.579   8.110  1.00  0.00    -0.000 C 
BRANCH   6   7
ATOM      7  C   UNL     1      -0.215   1.081   7.779  1.00  0.00    -0.000 C 
BRANCH   7   8
ATOM      8  C   UNL     1       0.213   2.284   8.638  1.00  0.00    -0.000 C 
BRANCH   8   9
ATOM      9  C   UNL     1       0.677   3.487   7.796  1.00  0.00    -0.000 C 
BRANCH   9  10
ATOM     10  C   UNL     1       2.166   3.474   7.392  1.00  0.00    -0.000 C 
BRANCH  10  11
ATOM     11  C   UNL     1       3.135   3.008   8.495  1.00  0.00    -0.003 C 
ATOM     12  C   UNL     1       4.371   2.300   7.940  1.00  0.00     0.004 C 
ENDBRANCH  10  11
ENDBRANCH   9  10
ENDBRANCH   8   9
ENDBRANCH   7   8
ENDBRANCH   6   7
ENDBRANCH   5   6
ENDBRANCH   4   5
ENDBRANCH   3   4
ENDBRANCH   2   3
ENDBRANCH   1   2
BRANCH   1  13
ATOM     13  C   UNL     1      -3.207  -2.707  10.707  1.00  0.00     0.000 C 
BRANCH  13  14
ATOM     14  C   UNL     1      -2.225  -2.903   9.538  1.00  0.00     0.000 C 
BRANCH  14  15
ATOM     15  C   UNL     1      -0.801  -2.416   9.883  1.00  0.00     0.000 C 
BRANCH  15  16
ATOM     16  C   UNL     1       0.187  -2.533   8.709  1.00  0.00     0.000 C 
BRANCH  16  17
ATOM     17  C   UNL     1       1.654  -2.464   9.158  1.00  0.00     0.000 C 
BRANCH  17  18
ATOM     18  C   UNL     1       2.201  -1.037   9.032  1.00  0.00     0.000 C 
BRANCH  18  19
ATOM     19  C   UNL     1       2.278  -0.355  10.407  1.00  0.00     0.000 C 
BRANCH  19  20
ATOM     20  C   UNL     1       3.723  -0.142  10.885  1.00  0.00     0.006 C 
BRANCH  20  21
ATOM     21  C   UNL     1       4.731  -1.024  10.135  1.00  0.00     0.053 C 
BRANCH  21  22
ATOM     22  C   UNL     1       6.031  -0.303   9.961  1.00  0.00     0.041 C 
ATOM     23  O   UNL     1       6.419   0.521  10.832  1.00  0.00    -0.550 OA
ATOM     24  O   UNL     1       6.838  -0.579   8.865  1.00  0.00    -0.550 OA
ENDBRANCH  21  22
ENDBRANCH  20  21
ENDBRANCH  19  20
ENDBRANCH  18  19
ENDBRANCH  17  18
ENDBRANCH  16  17
ENDBRANCH  15  16
ENDBRANCH  14  15
ENDBRANCH  13  14
ENDBRANCH   1  13
TORSDOF 20
ENDMDL
MODEL 4
REMARK VINA RESULT:    -3.368      2.355      5.201
REMARK INTER + INTRA:         -10.758
REMARK INTER:                  -7.235
REMARK INTRA:                  -3.523
REMARK UNBOUND:                -3.453
REMARK SMILES CCCCCCCCCCCCCCCCCCCCCC(=O)[O-]
REMARK SMILES IDX 12 1 11 2 10 3 9 4 8 5 7 6 6 7 5 8 4 9 3 10 2 11 1 12 13 13
REMARK SMILES IDX 14 14 15 15 16 16 17 17 18 18 19 19 20 20 21 21 22 22 23 23
REMARK SMILES IDX 24 24
REMARK H PARENT
REMARK Flexibility Score: inf
ROOT
ATOM      1  C   UNL     1      -0.119  -0.207   7.594  1.00  0.00     0.000 C 
ENDROOT
BRANCH   1   2
ATOM      2  C   UNL     1      -0.832   1.004   8.221  1.00  0.00     0.000 C 
BRANCH   2   3
ATOM      3  C   UNL     1      -0.974   0.887   9.748  1.00  0.00     0.000 C 
BRANCH   3   4
ATOM      4  C   UNL     1      -0.946   2.258  10.444  1.00  0.00    -0.000 C 
BRANCH   4   5
ATOM      5  C   UNL     1      -1.348   3.403   9.498  1.00  0.00    -0.000 C 
BRANCH   5   6
ATOM      6  C   UNL     1      -2.680   4.067   9.889  1.00  0.00    -0.000 C 
BRANCH   6   7
ATOM      7  C   UNL     1      -3.720   3.128  10.530  1.00  0.00    -0.000 C 
BRANCH   7   8
ATOM      8  C   UNL     1      -4.716   2.548   9.511  1.00  0.00    -0.000 C 
BRANCH   8   9
ATOM      9  C   UNL     1      -4.883   1.022   9.637  1.00  0.00    -0.000 C 
BRANCH   9  10
ATOM     10  C   UNL     1      -4.402   0.204   8.421  1.00  0.00    -0.000 C 
BRANCH  10  11
ATOM     11  C   UNL     1      -4.334  -1.318   8.647  1.00  0.00    -0.003 C 
ATOM     12  C   UNL     1      -3.596  -1.696   9.931  1.00  0.00     0.004 C 
ENDBRANCH  10  11
ENDBRANCH   9  10
ENDBRANCH   8   9
ENDBRANCH   7   8
ENDBRANCH   6   7
ENDBRANCH   5   6
ENDBRANCH   4   5
ENDBRANCH   3   4
ENDBRANCH   2   3
ENDBRANCH   1   2
BRANCH   1  13
ATOM     13  C   UNL     1      -0.148  -1.472   8.479  1.00  0.00     0.000 C 
BRANCH  13  14
ATOM     14  C   UNL     1       1.251  -2.089   8.659  1.00  0.00     0.000 C 
BRANCH  14  15
ATOM     15  C   UNL     1       1.742  -2.007  10.120  1.00  0.00     0.000 C 
BRANCH  15  16
ATOM     16  C   UNL     1       2.358  -0.644  10.484  1.00  0.00     0.000 C 
BRANCH  16  17
ATOM     17  C   UNL     1       3.837  -0.536  10.087  1.00  0.00     0.000 C 
BRANCH  17  18
ATOM     18  C   UNL     1       4.120   0.794   9.377  1.00  0.00     0.000 C 
BRANCH  18  19
ATOM     19  C   UNL     1       2.835   1.373   8.766  1.00  0.00     0.000 C 
BRANCH  19  20
ATOM     20  C   UNL     1       2.468   2.748   9.347  1.00  0.00     0.006 C 
BRANCH  20  21
ATOM     21  C   UNL     1       3.183   3.903   8.634  1.00  0.00     0.053 C 
BRANCH  21  22
ATOM     22  C   UNL     1       2.685   4.041   7.230  1.00  0.00     0.041 C 
ATOM     23  O   UNL     1       1.467   3.847   6.968  1.00  0.00    -0.550 OA
ATOM     24  O   UNL     1       3.552   4.435   6.218  1.00  0.00    -0.550 OA
ENDBRANCH  21  22
ENDBRANCH  20  21
ENDBRANCH  19  20
ENDBRANCH  18  19
ENDBRANCH  17  18
ENDBRANCH  16  17
ENDBRANCH  15  16
ENDBRANCH  14  15
ENDBRANCH  13  14
ENDBRANCH   1  13
TORSDOF 20
ENDMDL
MODEL 5
REMARK VINA RESULT:    -3.343      4.052      6.630
REMARK INTER + INTRA:         -10.705
REMARK INTER:                  -7.129
REMARK INTRA:                  -3.575
REMARK UNBOUND:                -3.453
REMARK SMILES CCCCCCCCCCCCCCCCCCCCCC(=O)[O-]
REMARK SMILES IDX 12 1 11 2 10 3 9 4 8 5 7 6 6 7 5 8 4 9 3 10 2 11 1 12 13 13
REMARK SMILES IDX 14 14 15 15 16 16 17 17 18 18 19 19 20 20 21 21 22 22 23 23
REMARK SMILES IDX 24 24
REMARK H PARENT
REMARK Flexibility Score: inf
ROOT
ATOM      1  C   UNL     1       1.994  -2.837   9.111  1.00  0.00     0.000 C 
ENDROOT
BRANCH   1   2
ATOM      2  C   UNL     1       2.999  -1.737   9.491  1.00  0.00     0.000 C 
BRANCH   2   3
ATOM      3  C   UNL     1       2.521  -0.874  10.671  1.00  0.00     0.000 C 
BRANCH   3   4
ATOM      4  C   UNL     1       2.469   0.622  10.318  1.00  0.00    -0.000 C 
BRANCH   4   5
ATOM      5  C   UNL     1       3.067   0.917   8.931  1.00  0.00    -0.000 C 
BRANCH   5   6
ATOM      6  C   UNL     1       4.347   1.769   8.997  1.00  0.00    -0.000 C 
BRANCH   6   7
ATOM      7  C   UNL     1       4.814   2.360   7.653  1.00  0.00    -0.000 C 
BRANCH   7   8
ATOM      8  C   UNL     1       4.418   3.836   7.476  1.00  0.00    -0.000 C 
BRANCH   8   9
ATOM      9  C   UNL     1       3.120   4.016   6.668  1.00  0.00    -0.000 C 
BRANCH   9  10
ATOM     10  C   UNL     1       1.861   4.331   7.503  1.00  0.00    -0.000 C 
BRANCH  10  11
ATOM     11  C   UNL     1       2.131   5.045   8.840  1.00  0.00    -0.003 C 
ATOM     12  C   UNL     1       1.642   4.247  10.049  1.00  0.00     0.004 C 
ENDBRANCH  10  11
ENDBRANCH   9  10
ENDBRANCH   8   9
ENDBRANCH   7   8
ENDBRANCH   6   7
ENDBRANCH   5   6
ENDBRANCH   4   5
ENDBRANCH   3   4
ENDBRANCH   2   3
ENDBRANCH   1   2
BRANCH   1  13
ATOM     13  C   UNL     1       0.618  -2.686   9.797  1.00  0.00     0.000 C 
BRANCH  13  14
ATOM     14  C   UNL     1      -0.499  -2.353   8.793  1.00  0.00     0.000 C 
BRANCH  14  15
ATOM     15  C   UNL     1      -0.931  -0.873   8.871  1.00  0.00     0.000 C 
BRANCH  15  16
ATOM     16  C   UNL     1      -0.321   0.002   7.762  1.00  0.00     0.000 C 
BRANCH  16  17
ATOM     17  C   UNL     1      -0.386   1.502   8.085  1.00  0.00     0.000 C 
BRANCH  17  18
ATOM     18  C   UNL     1      -0.995   1.740   9.472  1.00  0.00     0.000 C 
BRANCH  18  19
ATOM     19  C   UNL     1      -2.325   2.501   9.364  1.00  0.00     0.000 C 
BRANCH  19  20
ATOM     20  C   UNL     1      -3.403   1.951  10.311  1.00  0.00     0.006 C 
BRANCH  20  21
ATOM     21  C   UNL     1      -4.659   1.477   9.568  1.00  0.00     0.053 C 
BRANCH  21  22
ATOM     22  C   UNL     1      -4.504   0.054   9.131  1.00  0.00     0.041 C 
ATOM     23  O   UNL     1      -4.180  -0.212   7.943  1.00  0.00    -0.550 OA
ATOM     24  O   UNL     1      -4.668  -0.977  10.048  1.00  0.00    -0.550 OA
ENDBRANCH  21  22
ENDBRANCH  20  21
ENDBRANCH  19  20
ENDBRANCH  18  19
ENDBRANCH  17  18
ENDBRANCH  16  17
ENDBRANCH  15  16
ENDBRANCH  14  15
ENDBRANCH  13  14
ENDBRANCH   1  13
TORSDOF 20
ENDMDL
MODEL 6
REMARK VINA RESULT:    -3.337      3.222      6.756
REMARK INTER + INTRA:         -10.691
REMARK INTER:                  -7.906
REMARK INTRA:                  -2.786
REMARK UNBOUND:                -3.453
REMARK SMILES CCCCCCCCCCCCCCCCCCCCCC(=O)[O-]
REMARK SMILES IDX 12 1 11 2 10 3 9 4 8 5 7 6 6 7 5 8 4 9 3 10 2 11 1 12 13 13
REMARK SMILES IDX 14 14 15 15 16 16 17 17 18 18 19 19 20 20 21 21 22 22 23 23
REMARK SMILES IDX 24 24
REMARK H PARENT
REMARK Flexibility Score: inf
ROOT
ATOM      1  C   UNL     1       0.000  -1.083   8.666  1.00  0.00     0.000 C 
ENDROOT
BRANCH   1   2
ATOM      2  C   UNL     1      -0.225   0.014   7.612  1.00  0.00     0.000 C 
BRANCH   2   3
ATOM      3  C   UNL     1      -0.803   1.307   8.211  1.00  0.00     0.000 C 
BRANCH   3   4
ATOM      4  C   UNL     1      -0.814   1.286   9.748  1.00  0.00    -0.000 C 
BRANCH   4   5
ATOM      5  C   UNL     1      -2.223   1.505  10.327  1.00  0.00    -0.000 C 
BRANCH   5   6
ATOM      6  C   UNL     1      -3.319   1.537   9.247  1.00  0.00    -0.000 C 
BRANCH   6   7
ATOM      7  C   UNL     1      -4.466   0.529   9.444  1.00  0.00    -0.000 C 
BRANCH   7   8
ATOM      8  C   UNL     1      -4.301  -0.744   8.596  1.00  0.00    -0.000 C 
BRANCH   8   9
ATOM      9  C   UNL     1      -3.404  -1.801   9.270  1.00  0.00    -0.000 C 
BRANCH   9  10
ATOM     10  C   UNL     1      -4.117  -3.106   9.680  1.00  0.00    -0.000 C 
BRANCH  10  11
ATOM     11  C   UNL     1      -5.607  -3.180   9.300  1.00  0.00    -0.003 C 
ATOM     12  C   UNL     1      -6.537  -2.882  10.476  1.00  0.00     0.004 C 
ENDBRANCH  10  11
ENDBRANCH   9  10
ENDBRANCH   8   9
ENDBRANCH   7   8
ENDBRANCH   6   7
ENDBRANCH   5   6
ENDBRANCH   4   5
ENDBRANCH   3   4
ENDBRANCH   2   3
ENDBRANCH   1   2
BRANCH   1  13
ATOM     13  C   UNL     1       1.467  -1.556   8.767  1.00  0.00     0.000 C 
BRANCH  13  14
ATOM     14  C   UNL     1       2.191  -0.952   9.984  1.00  0.00     0.000 C 
BRANCH  14  15
ATOM     15  C   UNL     1       3.394  -0.076   9.572  1.00  0.00     0.000 C 
BRANCH  15  16
ATOM     16  C   UNL     1       2.987   1.294   9.002  1.00  0.00     0.000 C 
BRANCH  16  17
ATOM     17  C   UNL     1       4.151   2.020   8.312  1.00  0.00     0.000 C 
BRANCH  17  18
ATOM     18  C   UNL     1       3.718   3.406   7.816  1.00  0.00     0.000 C 
BRANCH  18  19
ATOM     19  C   UNL     1       2.268   3.379   7.312  1.00  0.00     0.000 C 
BRANCH  19  20
ATOM     20  C   UNL     1       1.429   4.548   7.854  1.00  0.00     0.006 C 
BRANCH  20  21
ATOM     21  C   UNL     1       0.114   4.738   7.086  1.00  0.00     0.053 C 
BRANCH  21  22
ATOM     22  C   UNL     1       0.190   5.947   6.207  1.00  0.00     0.041 C 
ATOM     23  O   UNL     1      -0.680   6.137   5.316  1.00  0.00    -0.550 OA
ATOM     24  O   UNL     1       1.191   6.890   6.405  1.00  0.00    -0.550 OA
ENDBRANCH  21  22
ENDBRANCH  20  21
ENDBRANCH  19  20
ENDBRANCH  18  19
ENDBRANCH  17  18
ENDBRANCH  16  17
ENDBRANCH  15  16
ENDBRANCH  14  15
ENDBRANCH  13  14
ENDBRANCH   1  13
TORSDOF 20
ENDMDL
MODEL 7
REMARK VINA RESULT:    -3.299      1.683      5.530
REMARK INTER + INTRA:         -10.609
REMARK INTER:                  -7.594
REMARK INTRA:                  -3.015
REMARK UNBOUND:                -3.453
REMARK SMILES CCCCCCCCCCCCCCCCCCCCCC(=O)[O-]
REMARK SMILES IDX 12 1 11 2 10 3 9 4 8 5 7 6 6 7 5 8 4 9 3 10 2 11 1 12 13 13
REMARK SMILES IDX 14 14 15 15 16 16 17 17 18 18 19 19 20 20 21 21 22 22 23 23
REMARK SMILES IDX 24 24
REMARK H PARENT
REMARK Flexibility Score: inf
ROOT
ATOM      1  C   UNL     1       1.329   2.002  10.475  1.00  0.00     0.000 C 
ENDROOT
BRANCH   1   2
ATOM      2  C   UNL     1       2.748   1.415  10.392  1.00  0.00     0.000 C 
BRANCH   2   3
ATOM      3  C   UNL     1       2.932   0.464   9.198  1.00  0.00     0.000 C 
BRANCH   3   4
ATOM      4  C   UNL     1       3.021  -1.009   9.632  1.00  0.00    -0.000 C 
BRANCH   4   5
ATOM      5  C   UNL     1       1.634  -1.635   9.863  1.00  0.00    -0.000 C 
BRANCH   5   6
ATOM      6  C   UNL     1       0.967  -2.118   8.562  1.00  0.00    -0.000 C 
BRANCH   6   7
ATOM      7  C   UNL     1       0.015  -1.107   7.897  1.00  0.00    -0.000 C 
BRANCH   7   8
ATOM      8  C   UNL     1      -0.844  -0.331   8.911  1.00  0.00    -0.000 C 
BRANCH   8   9
ATOM      9  C   UNL     1      -1.828   0.645   8.240  1.00  0.00    -0.000 C 
BRANCH   9  10
ATOM     10  C   UNL     1      -3.149   0.878   9.002  1.00  0.00    -0.000 C 
BRANCH  10  11
ATOM     11  C   UNL     1      -3.750  -0.378   9.661  1.00  0.00    -0.003 C 
ATOM     12  C   UNL     1      -4.405  -1.322   8.653  1.00  0.00     0.004 C 
ENDBRANCH  10  11
ENDBRANCH   9  10
ENDBRANCH   8   9
ENDBRANCH   7   8
ENDBRANCH   6   7
ENDBRANCH   5   6
ENDBRANCH   4   5
ENDBRANCH   3   4
ENDBRANCH   2   3
ENDBRANCH   1   2
BRANCH   1  13
ATOM     13  C   UNL     1       1.290   3.545  10.417  1.00  0.00     0.000 C 
BRANCH  13  14
ATOM     14  C   UNL     1       0.488   4.063   9.210  1.00  0.00     0.000 C 
BRANCH  14  15
ATOM     15  C   UNL     1       0.735   3.219   7.940  1.00  0.00     0.000 C 
BRANCH  15  16
ATOM     16  C   UNL     1       1.428   4.001   6.811  1.00  0.00     0.000 C 
BRANCH  16  17
ATOM     17  C   UNL     1       2.818   4.517   7.212  1.00  0.00     0.000 C 
BRANCH  17  18
ATOM     18  C   UNL     1       3.832   3.368   7.278  1.00  0.00     0.000 C 
BRANCH  18  19
ATOM     19  C   UNL     1       5.214   3.882   7.711  1.00  0.00     0.000 C 
BRANCH  19  20
ATOM     20  C   UNL     1       5.929   2.923   8.676  1.00  0.00     0.006 C 
BRANCH  20  21
ATOM     21  C   UNL     1       6.180   1.540   8.060  1.00  0.00     0.053 C 
BRANCH  21  22
ATOM     22  C   UNL     1       6.633   0.573   9.108  1.00  0.00     0.041 C 
ATOM     23  O   UNL     1       6.768  -0.648   8.827  1.00  0.00    -0.550 OA
ATOM     24  O   UNL     1       6.956   1.027  10.381  1.00  0.00    -0.550 OA
ENDBRANCH  21  22
ENDBRANCH  20  21
ENDBRANCH  19  20
ENDBRANCH  18  19
ENDBRANCH  17  18
ENDBRANCH  16  17
ENDBRANCH  15  16
ENDBRANCH  14  15
ENDBRANCH  13  14
ENDBRANCH   1  13
TORSDOF 20
ENDMDL
MODEL 8
REMARK VINA RESULT:    -3.285      2.880      4.918
REMARK INTER + INTRA:         -10.580
REMARK INTER:                  -7.747
REMARK INTRA:                  -2.833
REMARK UNBOUND:                -3.453
REMARK SMILES CCCCCCCCCCCCCCCCCCCCCC(=O)[O-]
REMARK SMILES IDX 12 1 11 2 10 3 9 4 8 5 7 6 6 7 5 8 4 9 3 10 2 11 1 12 13 13
REMARK SMILES IDX 14 14 15 15 16 16 17 17 18 18 19 19 20 20 21 21 22 22 23 23
REMARK SMILES IDX 24 24
REMARK H PARENT
REMARK Flexibility Score: inf
ROOT
ATOM      1  C   UNL     1       0.507   2.638   7.850  1.00  0.00     0.000 C 
ENDROOT
BRANCH   1   2
ATOM      2  C   UNL     1       1.774   3.026   8.630  1.00  0.00     0.000 C 
BRANCH   2   3
ATOM      3  C   UNL     1       1.757   2.523  10.084  1.00  0.00     0.000 C 
BRANCH   3   4
ATOM      4  C   UNL     1       2.687   1.316  10.296  1.00  0.00    -0.000 C 
BRANCH   4   5
ATOM      5  C   UNL     1       3.698   1.148   9.148  1.00  0.00    -0.000 C 
BRANCH   5   6
ATOM      6  C   UNL     1       5.047   0.571   9.615  1.00  0.00    -0.000 C 
BRANCH   6   7
ATOM      7  C   UNL     1       6.225   0.785   8.646  1.00  0.00    -0.000 C 
BRANCH   7   8
ATOM      8  C   UNL     1       5.947   1.870   7.591  1.00  0.00    -0.000 C 
BRANCH   8   9
ATOM      9  C   UNL     1       7.030   2.964   7.556  1.00  0.00    -0.000 C 
BRANCH   9  10
ATOM     10  C   UNL     1       6.527   4.399   7.815  1.00  0.00    -0.000 C 
BRANCH  10  11
ATOM     11  C   UNL     1       5.001   4.535   7.969  1.00  0.00    -0.003 C 
ATOM     12  C   UNL     1       4.325   5.100   6.719  1.00  0.00     0.004 C 
ENDBRANCH  10  11
ENDBRANCH   9  10
ENDBRANCH   8   9
ENDBRANCH   7   8
ENDBRANCH   6   7
ENDBRANCH   5   6
ENDBRANCH   4   5
ENDBRANCH   3   4
ENDBRANCH   2   3
ENDBRANCH   1   2
BRANCH   1  13
ATOM     13  C   UNL     1      -0.645   2.134   8.746  1.00  0.00     0.000 C 
BRANCH  13  14
ATOM     14  C   UNL     1      -1.239   0.808   8.239  1.00  0.00     0.000 C 
BRANCH  14  15
ATOM     15  C   UNL     1      -0.162  -0.128   7.649  1.00  0.00     0.000 C 
BRANCH  15  16
ATOM     16  C   UNL     1       0.504  -1.034   8.699  1.00  0.00     0.000 C 
BRANCH  16  17
ATOM     17  C   UNL     1       0.461  -2.520   8.314  1.00  0.00     0.000 C 
BRANCH  17  18
ATOM     18  C   UNL     1       1.604  -3.294   8.983  1.00  0.00     0.000 C 
BRANCH  18  19
ATOM     19  C   UNL     1       2.692  -2.336   9.490  1.00  0.00     0.000 C 
BRANCH  19  20
ATOM     20  C   UNL     1       3.953  -3.071   9.973  1.00  0.00     0.006 C 
BRANCH  20  21
ATOM     21  C   UNL     1       4.006  -4.530   9.501  1.00  0.00     0.053 C 
BRANCH  21  22
ATOM     22  C   UNL     1       5.374  -4.870   8.999  1.00  0.00     0.041 C 
ATOM     23  O   UNL     1       6.312  -4.035   9.105  1.00  0.00    -0.550 OA
ATOM     24  O   UNL     1       5.627  -6.126   8.463  1.00  0.00    -0.550 OA
ENDBRANCH  21  22
ENDBRANCH  20  21
ENDBRANCH  19  20
ENDBRANCH  18  19
ENDBRANCH  17  18
ENDBRANCH  16  17
ENDBRANCH  15  16
ENDBRANCH  14  15
ENDBRANCH  13  14
ENDBRANCH   1  13
TORSDOF 20
ENDMDL
MODEL 9
REMARK VINA RESULT:    -3.278      7.627     10.573
REMARK INTER + INTRA:         -10.564
REMARK INTER:                  -8.122
REMARK INTRA:                  -2.442
REMARK UNBOUND:                -3.453
REMARK SMILES CCCCCCCCCCCCCCCCCCCCCC(=O)[O-]
REMARK SMILES IDX 12 1 11 2 10 3 9 4 8 5 7 6 6 7 5 8 4 9 3 10 2 11 1 12 13 13
REMARK SMILES IDX 14 14 15 15 16 16 17 17 18 18 19 19 20 20 21 21 22 22 23 23
REMARK SMILES IDX 24 24
REMARK H PARENT
REMARK Flexibility Score: inf
ROOT
ATOM      1  C   UNL     1      -4.339  -1.094   8.463  1.00  0.00     0.000 C 
ENDROOT
BRANCH   1   2
ATOM      2  C   UNL     1      -4.420   0.427   8.674  1.00  0.00     0.000 C 
BRANCH   2   3
ATOM      3  C   UNL     1      -3.965   0.859  10.078  1.00  0.00     0.000 C 
BRANCH   3   4
ATOM      4  C   UNL     1      -3.386   2.284  10.093  1.00  0.00    -0.000 C 
BRANCH   4   5
ATOM      5  C   UNL     1      -2.199   2.424  11.061  1.00  0.00    -0.000 C 
BRANCH   5   6
ATOM      6  C   UNL     1      -0.841   2.143  10.393  1.00  0.00    -0.000 C 
BRANCH   6   7
ATOM      7  C   UNL     1      -0.705   2.642   8.942  1.00  0.00    -0.000 C 
BRANCH   7   8
ATOM      8  C   UNL     1       0.004   1.634   8.023  1.00  0.00    -0.000 C 
BRANCH   8   9
ATOM      9  C   UNL     1      -0.774   0.314   7.867  1.00  0.00    -0.000 C 
BRANCH   9  10
ATOM     10  C   UNL     1       0.078  -0.969   7.965  1.00  0.00    -0.000 C 
BRANCH  10  11
ATOM     11  C   UNL     1      -0.508  -2.071   8.866  1.00  0.00    -0.003 C 
ATOM     12  C   UNL     1      -1.146  -1.521  10.142  1.00  0.00     0.004 C 
ENDBRANCH  10  11
ENDBRANCH   9  10
ENDBRANCH   8   9
ENDBRANCH   7   8
ENDBRANCH   6   7
ENDBRANCH   5   6
ENDBRANCH   4   5
ENDBRANCH   3   4
ENDBRANCH   2   3
ENDBRANCH   1   2
BRANCH   1  13
ATOM     13  C   UNL     1      -4.993  -1.915   9.596  1.00  0.00     0.000 C 
BRANCH  13  14
ATOM     14  C   UNL     1      -5.347  -3.345   9.150  1.00  0.00     0.000 C 
BRANCH  14  15
ATOM     15  C   UNL     1      -6.229  -4.078  10.183  1.00  0.00     0.000 C 
BRANCH  15  16
ATOM     16  C   UNL     1      -7.717  -4.121   9.797  1.00  0.00     0.000 C 
BRANCH  16  17
ATOM     17  C   UNL     1      -8.108  -5.424   9.084  1.00  0.00     0.000 C 
BRANCH  17  18
ATOM     18  C   UNL     1      -8.154  -5.227   7.564  1.00  0.00     0.000 C 
BRANCH  18  19
ATOM     19  C   UNL     1      -7.048  -6.039   6.873  1.00  0.00     0.000 C 
BRANCH  19  20
ATOM     20  C   UNL     1      -6.422  -5.296   5.682  1.00  0.00     0.006 C 
BRANCH  20  21
ATOM     21  C   UNL     1      -7.469  -4.807   4.672  1.00  0.00     0.053 C 
BRANCH  21  22
ATOM     22  C   UNL     1      -8.016  -5.957   3.886  1.00  0.00     0.041 C 
ATOM     23  O   UNL     1      -7.244  -6.856   3.458  1.00  0.00    -0.550 OA
ATOM     24  O   UNL     1      -9.384  -6.064   3.670  1.00  0.00    -0.550 OA
ENDBRANCH  21  22
ENDBRANCH  20  21
ENDBRANCH  19  20
ENDBRANCH  18  19
ENDBRANCH  17  18
ENDBRANCH  16  17
ENDBRANCH  15  16
ENDBRANCH  14  15
ENDBRANCH  13  14
ENDBRANCH   1  13
TORSDOF 20
ENDMDL
