MODEL 1
REMARK VINA RESULT:    -6.204      0.000      0.000
REMARK INTER + INTRA:         -12.343
REMARK INTER:                 -11.281
REMARK INTRA:                  -1.062
REMARK UNBOUND:                -1.062
REMARK SMILES CCCCCCCCCCCCCCCC(=O)[O-]
REMARK SMILES IDX 9 1 10 2 11 3 12 4 13 5 14 6 15 7 16 8 17 9 18 10 8 11 7 12
REMARK SMILES IDX 6 13 5 14 4 15 3 16 2 17 1 18
REMARK H PARENT
REMARK Flexibility Score: inf
ROOT
ATOM      1  C   UNL     1      93.492 123.293 122.323  1.00  0.00     0.000 C 
ENDROOT
BRANCH   1   2
ATOM      2  C   UNL     1      93.126 123.876 123.700  1.00  0.00     0.000 C 
BRANCH   2   3
ATOM      3  C   UNL     1      93.092 122.807 124.803  1.00  0.00     0.000 C 
BRANCH   3   4
ATOM      4  C   UNL     1      94.471 122.568 125.441  1.00  0.00     0.000 C 
BRANCH   4   5
ATOM      5  C   UNL     1      95.412 123.777 125.299  1.00  0.00     0.000 C 
BRANCH   5   6
ATOM      6  C   UNL     1      96.878 123.386 125.014  1.00  0.00     0.006 C 
BRANCH   6   7
ATOM      7  C   UNL     1      97.862 124.096 125.953  1.00  0.00     0.053 C 
BRANCH   7   8
ATOM      8  C   UNL     1      97.540 125.554 126.043  1.00  0.00     0.041 C 
ATOM      9  O   UNL     1      97.241 126.069 127.153  1.00  0.00    -0.550 OA
ATOM     10  O   UNL     1      97.618 126.356 124.911  1.00  0.00    -0.550 OA
ENDBRANCH   7   8
ENDBRANCH   6   7
ENDBRANCH   5   6
ENDBRANCH   4   5
ENDBRANCH   3   4
ENDBRANCH   2   3
ENDBRANCH   1   2
BRANCH   1  11
ATOM     11  C   UNL     1      92.931 121.877 122.115  1.00  0.00     0.000 C 
BRANCH  11  12
ATOM     12  C   UNL     1      93.156 121.353 120.686  1.00  0.00    -0.000 C 
BRANCH  12  13
ATOM     13  C   UNL     1      94.519 121.767 120.113  1.00  0.00    -0.000 C 
BRANCH  13  14
ATOM     14  C   UNL     1      94.392 122.680 118.880  1.00  0.00    -0.000 C 
BRANCH  14  15
ATOM     15  C   UNL     1      92.921 123.012 118.552  1.00  0.00    -0.000 C 
BRANCH  15  16
ATOM     16  C   UNL     1      92.488 122.566 117.145  1.00  0.00    -0.000 C 
BRANCH  16  17
ATOM     17  C   UNL     1      92.728 121.072 116.892  1.00  0.00    -0.003 C 
ATOM     18  C   UNL     1      92.806 120.771 115.399  1.00  0.00     0.004 C 
ENDBRANCH  16  17
ENDBRANCH  15  16
ENDBRANCH  14  15
ENDBRANCH  13  14
ENDBRANCH  12  13
ENDBRANCH  11  12
ENDBRANCH   1  11
TORSDOF 14
ENDMDL
MODEL 2
REMARK VINA RESULT:    -6.076      1.240      2.022
REMARK INTER + INTRA:         -12.111
REMARK INTER:                 -10.868
REMARK INTRA:                  -1.243
REMARK UNBOUND:                -1.062
REMARK SMILES CCCCCCCCCCCCCCCC(=O)[O-]
REMARK SMILES IDX 9 1 10 2 11 3 12 4 13 5 14 6 15 7 16 8 17 9 18 10 8 11 7 12
REMARK SMILES IDX 6 13 5 14 4 15 3 16 2 17 1 18
REMARK H PARENT
REMARK Flexibility Score: inf
ROOT
ATOM      1  C   UNL     1      93.143 122.164 121.295  1.00  0.00     0.000 C 
ENDROOT
BRANCH   1   2
ATOM      2  C   UNL     1      92.722 122.274 122.772  1.00  0.00     0.000 C 
BRANCH   2   3
ATOM      3  C   UNL     1      93.648 123.193 123.583  1.00  0.00     0.000 C 
BRANCH   3   4
ATOM      4  C   UNL     1      93.816 122.731 125.040  1.00  0.00     0.000 C 
BRANCH   4   5
ATOM      5  C   UNL     1      95.220 123.017 125.600  1.00  0.00     0.000 C 
BRANCH   5   6
ATOM      6  C   UNL     1      96.218 123.518 124.535  1.00  0.00     0.006 C 
BRANCH   6   7
ATOM      7  C   UNL     1      96.769 124.912 124.864  1.00  0.00     0.053 C 
BRANCH   7   8
ATOM      8  C   UNL     1      97.540 124.880 126.145  1.00  0.00     0.041 C 
ATOM      9  O   UNL     1      98.409 123.988 126.339  1.00  0.00    -0.550 OA
ATOM     10  O   UNL     1      97.337 125.863 127.106  1.00  0.00    -0.550 OA
ENDBRANCH   7   8
ENDBRANCH   6   7
ENDBRANCH   5   6
ENDBRANCH   4   5
ENDBRANCH   3   4
ENDBRANCH   2   3
ENDBRANCH   1   2
BRANCH   1  11
ATOM     11  C   UNL     1      94.647 122.406 121.092  1.00  0.00     0.000 C 
BRANCH  11  12
ATOM     12  C   UNL     1      95.104 122.127 119.650  1.00  0.00    -0.000 C 
BRANCH  12  13
ATOM     13  C   UNL     1      94.630 120.760 119.134  1.00  0.00    -0.000 C 
BRANCH  13  14
ATOM     14  C   UNL     1      94.066 120.830 117.703  1.00  0.00    -0.000 C 
BRANCH  14  15
ATOM     15  C   UNL     1      92.563 121.179 117.686  1.00  0.00    -0.000 C 
BRANCH  15  16
ATOM     16  C   UNL     1      92.251 122.525 117.011  1.00  0.00    -0.000 C 
BRANCH  16  17
ATOM     17  C   UNL     1      92.724 123.730 117.833  1.00  0.00    -0.003 C 
ATOM     18  C   UNL     1      93.032 124.924 116.935  1.00  0.00     0.004 C 
ENDBRANCH  16  17
ENDBRANCH  15  16
ENDBRANCH  14  15
ENDBRANCH  13  14
ENDBRANCH  12  13
ENDBRANCH  11  12
ENDBRANCH   1  11
TORSDOF 14
ENDMDL
MODEL 3
REMARK VINA RESULT:    -5.980      3.312      8.136
REMARK INTER + INTRA:         -11.937
REMARK INTER:                 -10.956
REMARK INTRA:                  -0.981
REMARK UNBOUND:                -1.062
REMARK SMILES CCCCCCCCCCCCCCCC(=O)[O-]
REMARK SMILES IDX 9 1 10 2 11 3 12 4 13 5 14 6 15 7 16 8 17 9 18 10 8 11 7 12
REMARK SMILES IDX 6 13 5 14 4 15 3 16 2 17 1 18
REMARK H PARENT
REMARK Flexibility Score: inf
ROOT
ATOM      1  C   UNL     1      93.162 122.392 121.009  1.00  0.00     0.000 C 
ENDROOT
BRANCH   1   2
ATOM      2  C   UNL     1      94.593 122.086 120.530  1.00  0.00     0.000 C 
BRANCH   2   3
ATOM      3  C   UNL     1      94.667 120.818 119.666  1.00  0.00     0.000 C 
BRANCH   3   4
ATOM      4  C   UNL     1      94.686 121.125 118.160  1.00  0.00     0.000 C 
BRANCH   4   5
ATOM      5  C   UNL     1      93.410 120.656 117.438  1.00  0.00     0.000 C 
BRANCH   5   6
ATOM      6  C   UNL     1      92.218 121.622 117.605  1.00  0.00     0.006 C 
BRANCH   6   7
ATOM      7  C   UNL     1      92.115 122.624 116.447  1.00  0.00     0.053 C 
BRANCH   7   8
ATOM      8  C   UNL     1      92.546 123.985 116.894  1.00  0.00     0.041 C 
ATOM      9  O   UNL     1      93.110 124.135 118.010  1.00  0.00    -0.550 OA
ATOM     10  O   UNL     1      92.369 125.081 116.059  1.00  0.00    -0.550 OA
ENDBRANCH   7   8
ENDBRANCH   6   7
ENDBRANCH   5   6
ENDBRANCH   4   5
ENDBRANCH   3   4
ENDBRANCH   2   3
ENDBRANCH   1   2
BRANCH   1  11
ATOM     11  C   UNL     1      92.973 122.121 122.510  1.00  0.00     0.000 C 
BRANCH  11  12
ATOM     12  C   UNL     1      93.471 123.281 123.390  1.00  0.00    -0.000 C 
BRANCH  12  13
ATOM     13  C   UNL     1      93.553 122.901 124.876  1.00  0.00    -0.000 C 
BRANCH  13  14
ATOM     14  C   UNL     1      94.996 122.910 125.411  1.00  0.00    -0.000 C 
BRANCH  14  15
ATOM     15  C   UNL     1      95.985 123.538 124.407  1.00  0.00    -0.000 C 
BRANCH  15  16
ATOM     16  C   UNL     1      96.704 124.785 124.950  1.00  0.00    -0.000 C 
BRANCH  16  17
ATOM     17  C   UNL     1      97.456 124.519 126.260  1.00  0.00    -0.003 C 
ATOM     18  C   UNL     1      98.387 123.318 126.127  1.00  0.00     0.004 C 
ENDBRANCH  16  17
ENDBRANCH  15  16
ENDBRANCH  14  15
ENDBRANCH  13  14
ENDBRANCH  12  13
ENDBRANCH  11  12
ENDBRANCH   1  11
TORSDOF 14
ENDMDL
MODEL 4
REMARK VINA RESULT:    -5.828      4.192      8.465
REMARK INTER + INTRA:         -11.660
REMARK INTER:                 -10.410
REMARK INTRA:                  -1.249
REMARK UNBOUND:                -1.062
REMARK SMILES CCCCCCCCCCCCCCCC(=O)[O-]
REMARK SMILES IDX 9 1 10 2 11 3 12 4 13 5 14 6 15 7 16 8 17 9 18 10 8 11 7 12
REMARK SMILES IDX 6 13 5 14 4 15 3 16 2 17 1 18
REMARK H PARENT
REMARK Flexibility Score: inf
ROOT
ATOM      1  C   UNL     1      92.822 121.887 122.436  1.00  0.00     0.000 C 
ENDROOT
BRANCH   1   2
ATOM      2  C   UNL     1      93.545 121.299 121.211  1.00  0.00     0.000 C 
BRANCH   2   3
ATOM      3  C   UNL     1      94.500 122.305 120.551  1.00  0.00     0.000 C 
BRANCH   3   4
ATOM      4  C   UNL     1      94.079 122.671 119.117  1.00  0.00     0.000 C 
BRANCH   4   5
ATOM      5  C   UNL     1      92.584 123.016 119.003  1.00  0.00     0.000 C 
BRANCH   5   6
ATOM      6  C   UNL     1      91.771 121.975 118.204  1.00  0.00     0.006 C 
BRANCH   6   7
ATOM      7  C   UNL     1      92.671 120.975 117.467  1.00  0.00     0.053 C 
BRANCH   7   8
ATOM      8  C   UNL     1      92.569 121.169 115.988  1.00  0.00     0.041 C 
ATOM      9  O   UNL     1      92.259 122.296 115.518  1.00  0.00    -0.550 OA
ATOM     10  O   UNL     1      92.862 120.121 115.125  1.00  0.00    -0.550 OA
ENDBRANCH   7   8
ENDBRANCH   6   7
ENDBRANCH   5   6
ENDBRANCH   4   5
ENDBRANCH   3   4
ENDBRANCH   2   3
ENDBRANCH   1   2
BRANCH   1  11
ATOM     11  C   UNL     1      93.083 123.392 122.608  1.00  0.00     0.000 C 
BRANCH  11  12
ATOM     12  C   UNL     1      93.240 123.803 124.082  1.00  0.00    -0.000 C 
BRANCH  12  13
ATOM     13  C   UNL     1      93.770 122.660 124.961  1.00  0.00    -0.000 C 
BRANCH  13  14
ATOM     14  C   UNL     1      95.116 122.999 125.626  1.00  0.00    -0.000 C 
BRANCH  14  15
ATOM     15  C   UNL     1      96.178 123.444 124.599  1.00  0.00    -0.000 C 
BRANCH  15  16
ATOM     16  C   UNL     1      96.737 124.853 124.863  1.00  0.00    -0.000 C 
BRANCH  16  17
ATOM     17  C   UNL     1      97.547 124.940 126.163  1.00  0.00    -0.003 C 
ATOM     18  C   UNL     1      98.560 123.803 126.258  1.00  0.00     0.004 C 
ENDBRANCH  16  17
ENDBRANCH  15  16
ENDBRANCH  14  15
ENDBRANCH  13  14
ENDBRANCH  12  13
ENDBRANCH  11  12
ENDBRANCH   1  11
TORSDOF 14
ENDMDL
MODEL 5
REMARK VINA RESULT:    -5.324      4.260      8.668
REMARK INTER + INTRA:         -10.743
REMARK INTER:                 -10.157
REMARK INTRA:                  -0.587
REMARK UNBOUND:                -1.062
REMARK SMILES CCCCCCCCCCCCCCCC(=O)[O-]
REMARK SMILES IDX 9 1 10 2 11 3 12 4 13 5 14 6 15 7 16 8 17 9 18 10 8 11 7 12
REMARK SMILES IDX 6 13 5 14 4 15 3 16 2 17 1 18
REMARK H PARENT
REMARK Flexibility Score: inf
ROOT
ATOM      1  C   UNL     1      93.356 122.979 124.835  1.00  0.00     0.000 C 
ENDROOT
BRANCH   1   2
ATOM      2  C   UNL     1      93.576 123.361 123.360  1.00  0.00     0.000 C 
BRANCH   2   3
ATOM      3  C   UNL     1      93.114 122.262 122.391  1.00  0.00     0.000 C 
BRANCH   3   4
ATOM      4  C   UNL     1      93.894 122.271 121.066  1.00  0.00     0.000 C 
BRANCH   4   5
ATOM      5  C   UNL     1      92.989 122.485 119.841  1.00  0.00     0.000 C 
BRANCH   5   6
ATOM      6  C   UNL     1      93.660 122.105 118.504  1.00  0.00     0.006 C 
BRANCH   6   7
ATOM      7  C   UNL     1      92.832 121.088 117.707  1.00  0.00     0.053 C 
BRANCH   7   8
ATOM      8  C   UNL     1      92.480 121.639 116.362  1.00  0.00     0.041 C 
ATOM      9  O   UNL     1      91.959 122.782 116.262  1.00  0.00    -0.550 OA
ATOM     10  O   UNL     1      92.773 120.914 115.213  1.00  0.00    -0.550 OA
ENDBRANCH   7   8
ENDBRANCH   6   7
ENDBRANCH   5   6
ENDBRANCH   4   5
ENDBRANCH   3   4
ENDBRANCH   2   3
ENDBRANCH   1   2
BRANCH   1  11
ATOM     11  C   UNL     1      94.670 122.913 125.629  1.00  0.00     0.000 C 
BRANCH  11  12
ATOM     12  C   UNL     1      95.889 123.349 124.797  1.00  0.00    -0.000 C 
BRANCH  12  13
ATOM     13  C   UNL     1      96.623 124.551 125.409  1.00  0.00    -0.000 C 
BRANCH  13  14
ATOM     14  C   UNL     1      97.983 124.169 126.018  1.00  0.00    -0.000 C 
BRANCH  14  15
ATOM     15  C   UNL     1      98.121 122.646 126.225  1.00  0.00    -0.000 C 
BRANCH  15  16
ATOM     16  C   UNL     1      99.565 122.134 126.088  1.00  0.00    -0.000 C 
BRANCH  16  17
ATOM     17  C   UNL     1      99.715 120.658 126.478  1.00  0.00    -0.003 C 
ATOM     18  C   UNL     1     101.001 120.066 125.910  1.00  0.00     0.004 C 
ENDBRANCH  16  17
ENDBRANCH  15  16
ENDBRANCH  14  15
ENDBRANCH  13  14
ENDBRANCH  12  13
ENDBRANCH  11  12
ENDBRANCH   1  11
TORSDOF 14
ENDMDL
MODEL 6
REMARK VINA RESULT:    -5.193      2.648      3.303
REMARK INTER + INTRA:         -10.504
REMARK INTER:                  -9.796
REMARK INTRA:                  -0.709
REMARK UNBOUND:                -1.062
REMARK SMILES CCCCCCCCCCCCCCCC(=O)[O-]
REMARK SMILES IDX 9 1 10 2 11 3 12 4 13 5 14 6 15 7 16 8 17 9 18 10 8 11 7 12
REMARK SMILES IDX 6 13 5 14 4 15 3 16 2 17 1 18
REMARK H PARENT
REMARK Flexibility Score: inf
ROOT
ATOM      1  C   UNL     1      93.819 123.417 124.289  1.00  0.00     0.000 C 
ENDROOT
BRANCH   1   2
ATOM      2  C   UNL     1      94.956 123.014 125.246  1.00  0.00     0.000 C 
BRANCH   2   3
ATOM      3  C   UNL     1      96.343 123.397 124.708  1.00  0.00     0.000 C 
BRANCH   3   4
ATOM      4  C   UNL     1      97.004 124.524 125.519  1.00  0.00     0.000 C 
BRANCH   4   5
ATOM      5  C   UNL     1      98.211 124.041 126.341  1.00  0.00     0.000 C 
BRANCH   5   6
ATOM      6  C   UNL     1      98.497 122.532 126.187  1.00  0.00     0.006 C 
BRANCH   6   7
ATOM      7  C   UNL     1      99.977 122.247 125.899  1.00  0.00     0.053 C 
BRANCH   7   8
ATOM      8  C   UNL     1     100.274 120.792 126.077  1.00  0.00     0.041 C 
ATOM      9  O   UNL     1     101.139 120.230 125.354  1.00  0.00    -0.550 OA
ATOM     10  O   UNL     1      99.633 120.067 127.073  1.00  0.00    -0.550 OA
ENDBRANCH   7   8
ENDBRANCH   6   7
ENDBRANCH   5   6
ENDBRANCH   4   5
ENDBRANCH   3   4
ENDBRANCH   2   3
ENDBRANCH   1   2
BRANCH   1  11
ATOM     11  C   UNL     1      94.065 122.941 122.849  1.00  0.00     0.000 C 
BRANCH  11  12
ATOM     12  C   UNL     1      92.855 122.201 122.252  1.00  0.00    -0.000 C 
BRANCH  12  13
ATOM     13  C   UNL     1      93.193 121.478 120.940  1.00  0.00    -0.000 C 
BRANCH  13  14
ATOM     14  C   UNL     1      93.993 122.360 119.966  1.00  0.00    -0.000 C 
BRANCH  14  15
ATOM     15  C   UNL     1      93.110 122.924 118.832  1.00  0.00    -0.000 C 
BRANCH  15  16
ATOM     16  C   UNL     1      92.357 121.841 118.042  1.00  0.00    -0.000 C 
BRANCH  16  17
ATOM     17  C   UNL     1      93.274 121.024 117.123  1.00  0.00    -0.003 C 
ATOM     18  C   UNL     1      92.750 121.011 115.691  1.00  0.00     0.004 C 
ENDBRANCH  16  17
ENDBRANCH  15  16
ENDBRANCH  14  15
ENDBRANCH  13  14
ENDBRANCH  12  13
ENDBRANCH  11  12
ENDBRANCH   1  11
TORSDOF 14
ENDMDL
MODEL 7
REMARK VINA RESULT:    -4.764     10.998     13.254
REMARK INTER + INTRA:          -9.724
REMARK INTER:                  -7.444
REMARK INTRA:                  -2.280
REMARK UNBOUND:                -1.062
REMARK SMILES CCCCCCCCCCCCCCCC(=O)[O-]
REMARK SMILES IDX 9 1 10 2 11 3 12 4 13 5 14 6 15 7 16 8 17 9 18 10 8 11 7 12
REMARK SMILES IDX 6 13 5 14 4 15 3 16 2 17 1 18
REMARK H PARENT
REMARK Flexibility Score: inf
ROOT
ATOM      1  C   UNL     1      85.560 126.218 130.652  1.00  0.00     0.000 C 
ENDROOT
BRANCH   1   2
ATOM      2  C   UNL     1      84.689 126.474 129.409  1.00  0.00     0.000 C 
BRANCH   2   3
ATOM      3  C   UNL     1      85.397 126.083 128.103  1.00  0.00     0.000 C 
BRANCH   3   4
ATOM      4  C   UNL     1      84.880 124.758 127.520  1.00  0.00     0.000 C 
BRANCH   4   5
ATOM      5  C   UNL     1      83.367 124.564 127.727  1.00  0.00     0.000 C 
BRANCH   5   6
ATOM      6  C   UNL     1      82.672 123.838 126.556  1.00  0.00     0.006 C 
BRANCH   6   7
ATOM      7  C   UNL     1      83.555 123.781 125.302  1.00  0.00     0.053 C 
BRANCH   7   8
ATOM      8  C   UNL     1      83.771 122.363 124.878  1.00  0.00     0.041 C 
ATOM      9  O   UNL     1      84.576 121.629 125.510  1.00  0.00    -0.550 OA
ATOM     10  O   UNL     1      83.048 121.836 123.815  1.00  0.00    -0.550 OA
ENDBRANCH   7   8
ENDBRANCH   6   7
ENDBRANCH   5   6
ENDBRANCH   4   5
ENDBRANCH   3   4
ENDBRANCH   2   3
ENDBRANCH   1   2
BRANCH   1  11
ATOM     11  C   UNL     1      85.012 125.084 131.533  1.00  0.00     0.000 C 
BRANCH  11  12
ATOM     12  C   UNL     1      86.051 123.981 131.796  1.00  0.00    -0.000 C 
BRANCH  12  13
ATOM     13  C   UNL     1      87.315 124.143 130.938  1.00  0.00    -0.000 C 
BRANCH  13  14
ATOM     14  C   UNL     1      87.399 123.105 129.805  1.00  0.00    -0.000 C 
BRANCH  14  15
ATOM     15  C   UNL     1      87.540 121.666 130.343  1.00  0.00    -0.000 C 
BRANCH  15  16
ATOM     16  C   UNL     1      86.413 120.724 129.885  1.00  0.00    -0.000 C 
BRANCH  16  17
ATOM     17  C   UNL     1      85.319 121.446 129.088  1.00  0.00    -0.003 C 
ATOM     18  C   UNL     1      84.023 121.537 129.889  1.00  0.00     0.004 C 
ENDBRANCH  16  17
ENDBRANCH  15  16
ENDBRANCH  14  15
ENDBRANCH  13  14
ENDBRANCH  12  13
ENDBRANCH  11  12
ENDBRANCH   1  11
TORSDOF 14
ENDMDL
MODEL 8
REMARK VINA RESULT:    -4.761     10.833     13.436
REMARK INTER + INTRA:          -9.720
REMARK INTER:                  -7.830
REMARK INTRA:                  -1.890
REMARK UNBOUND:                -1.062
REMARK SMILES CCCCCCCCCCCCCCCC(=O)[O-]
REMARK SMILES IDX 9 1 10 2 11 3 12 4 13 5 14 6 15 7 16 8 17 9 18 10 8 11 7 12
REMARK SMILES IDX 6 13 5 14 4 15 3 16 2 17 1 18
REMARK H PARENT
REMARK Flexibility Score: inf
ROOT
ATOM      1  C   UNL     1      84.917 124.975 127.606  1.00  0.00     0.000 C 
ENDROOT
BRANCH   1   2
ATOM      2  C   UNL     1      83.425 124.785 127.931  1.00  0.00     0.000 C 
BRANCH   2   3
ATOM      3  C   UNL     1      82.604 124.358 126.705  1.00  0.00     0.000 C 
BRANCH   3   4
ATOM      4  C   UNL     1      83.458 124.236 125.432  1.00  0.00     0.000 C 
BRANCH   4   5
ATOM      5  C   UNL     1      83.306 122.870 124.739  1.00  0.00     0.000 C 
BRANCH   5   6
ATOM      6  C   UNL     1      84.394 121.851 125.140  1.00  0.00     0.006 C 
BRANCH   6   7
ATOM      7  C   UNL     1      83.798 120.573 125.745  1.00  0.00     0.053 C 
BRANCH   7   8
ATOM      8  C   UNL     1      84.276 120.387 127.150  1.00  0.00     0.041 C 
ATOM      9  O   UNL     1      84.285 119.239 127.669  1.00  0.00    -0.550 OA
ATOM     10  O   UNL     1      84.758 121.472 127.872  1.00  0.00    -0.550 OA
ENDBRANCH   7   8
ENDBRANCH   6   7
ENDBRANCH   5   6
ENDBRANCH   4   5
ENDBRANCH   3   4
ENDBRANCH   2   3
ENDBRANCH   1   2
BRANCH   1  11
ATOM     11  C   UNL     1      85.512 126.224 128.275  1.00  0.00     0.000 C 
BRANCH  11  12
ATOM     12  C   UNL     1      84.678 126.709 129.474  1.00  0.00    -0.000 C 
BRANCH  12  13
ATOM     13  C   UNL     1      85.248 126.236 130.820  1.00  0.00    -0.000 C 
BRANCH  13  14
ATOM     14  C   UNL     1      84.516 125.000 131.371  1.00  0.00    -0.000 C 
BRANCH  14  15
ATOM     15  C   UNL     1      85.345 123.709 131.200  1.00  0.00    -0.000 C 
BRANCH  15  16
ATOM     16  C   UNL     1      86.833 123.967 130.905  1.00  0.00    -0.000 C 
BRANCH  16  17
ATOM     17  C   UNL     1      87.390 123.055 129.805  1.00  0.00    -0.003 C 
ATOM     18  C   UNL     1      87.769 121.687 130.363  1.00  0.00     0.004 C 
ENDBRANCH  16  17
ENDBRANCH  15  16
ENDBRANCH  14  15
ENDBRANCH  13  14
ENDBRANCH  12  13
ENDBRANCH  11  12
ENDBRANCH   1  11
TORSDOF 14
ENDMDL
MODEL 9
REMARK VINA RESULT:    -4.709     11.274     13.898
REMARK INTER + INTRA:          -9.625
REMARK INTER:                  -7.284
REMARK INTRA:                  -2.342
REMARK UNBOUND:                -1.062
REMARK SMILES CCCCCCCCCCCCCCCC(=O)[O-]
REMARK SMILES IDX 9 1 10 2 11 3 12 4 13 5 14 6 15 7 16 8 17 9 18 10 8 11 7 12
REMARK SMILES IDX 6 13 5 14 4 15 3 16 2 17 1 18
REMARK H PARENT
REMARK Flexibility Score: inf
ROOT
ATOM      1  C   UNL     1      85.909 126.245 128.274  1.00  0.00     0.000 C 
ENDROOT
BRANCH   1   2
ATOM      2  C   UNL     1      84.894 125.241 127.698  1.00  0.00     0.000 C 
BRANCH   2   3
ATOM      3  C   UNL     1      85.328 123.781 127.903  1.00  0.00     0.000 C 
BRANCH   3   4
ATOM      4  C   UNL     1      84.251 122.934 128.600  1.00  0.00     0.000 C 
BRANCH   4   5
ATOM      5  C   UNL     1      82.822 123.431 128.316  1.00  0.00     0.000 C 
BRANCH   5   6
ATOM      6  C   UNL     1      82.133 122.692 127.149  1.00  0.00     0.006 C 
BRANCH   6   7
ATOM      7  C   UNL     1      82.103 123.534 125.866  1.00  0.00     0.053 C 
BRANCH   7   8
ATOM      8  C   UNL     1      82.878 122.860 124.780  1.00  0.00     0.041 C 
ATOM      9  O   UNL     1      82.283 122.402 123.768  1.00  0.00    -0.550 OA
ATOM     10  O   UNL     1      84.263 122.780 124.858  1.00  0.00    -0.550 OA
ENDBRANCH   7   8
ENDBRANCH   6   7
ENDBRANCH   5   6
ENDBRANCH   4   5
ENDBRANCH   3   4
ENDBRANCH   2   3
ENDBRANCH   1   2
BRANCH   1  11
ATOM     11  C   UNL     1      85.307 127.118 129.386  1.00  0.00     0.000 C 
BRANCH  11  12
ATOM     12  C   UNL     1      83.888 126.677 129.786  1.00  0.00    -0.000 C 
BRANCH  12  13
ATOM     13  C   UNL     1      83.850 125.979 131.154  1.00  0.00    -0.000 C 
BRANCH  13  14
ATOM     14  C   UNL     1      85.255 125.659 131.696  1.00  0.00    -0.000 C 
BRANCH  14  15
ATOM     15  C   UNL     1      85.459 124.147 131.928  1.00  0.00    -0.000 C 
BRANCH  15  16
ATOM     16  C   UNL     1      86.770 123.604 131.336  1.00  0.00    -0.000 C 
BRANCH  16  17
ATOM     17  C   UNL     1      86.774 122.077 131.191  1.00  0.00    -0.003 C 
ATOM     18  C   UNL     1      87.816 121.622 130.174  1.00  0.00     0.004 C 
ENDBRANCH  16  17
ENDBRANCH  15  16
ENDBRANCH  14  15
ENDBRANCH  13  14
ENDBRANCH  12  13
ENDBRANCH  11  12
ENDBRANCH   1  11
TORSDOF 14
ENDMDL
