MODEL 1
REMARK VINA RESULT:    -3.095      0.000      0.000
REMARK INTER + INTRA:          -7.005
REMARK INTER:                  -5.267
REMARK INTRA:                  -1.739
REMARK UNBOUND:                -1.739
REMARK SMILES CCCCCCCCCCCCCC(=O)[O-]
REMARK SMILES IDX 8 1 9 2 10 3 11 4 12 5 13 6 14 7 15 8 16 9 7 10 6 11 5 12
REMARK SMILES IDX 4 13 3 14 2 15 1 16
REMARK H PARENT
REMARK Flexibility Score: inf
ROOT
ATOM      1  C   UNL     1       7.752   8.864   8.261  1.00  0.00     0.000 C 
ENDROOT
BRANCH   1   2
ATOM      2  C   UNL     1       6.764   9.525   7.283  1.00  0.00     0.000 C 
BRANCH   2   3
ATOM      3  C   UNL     1       5.283   9.455   7.703  1.00  0.00     0.000 C 
BRANCH   3   4
ATOM      4  C   UNL     1       4.620  10.812   8.012  1.00  0.00     0.000 C 
BRANCH   4   5
ATOM      5  C   UNL     1       5.461  12.052   7.649  1.00  0.00     0.006 C 
BRANCH   5   6
ATOM      6  C   UNL     1       6.134  12.727   8.857  1.00  0.00     0.053 C 
BRANCH   6   7
ATOM      7  C   UNL     1       7.626  12.789   8.731  1.00  0.00     0.041 C 
ATOM      8  O   UNL     1       8.360  12.291   9.626  1.00  0.00    -0.550 OA
ATOM      9  O   UNL     1       8.207  13.431   7.645  1.00  0.00    -0.550 OA
ENDBRANCH   6   7
ENDBRANCH   5   6
ENDBRANCH   4   5
ENDBRANCH   3   4
ENDBRANCH   2   3
ENDBRANCH   1   2
BRANCH   1  10
ATOM     10  C   UNL     1       9.220   9.154   7.912  1.00  0.00     0.000 C 
BRANCH  10  11
ATOM     11  C   UNL     1       9.321  10.155   6.754  1.00  0.00    -0.000 C 
BRANCH  11  12
ATOM     12  C   UNL     1      10.275   9.641   5.666  1.00  0.00    -0.000 C 
BRANCH  12  13
ATOM     13  C   UNL     1       9.858   8.269   5.114  1.00  0.00    -0.000 C 
BRANCH  13  14
ATOM     14  C   UNL     1       8.746   8.370   4.056  1.00  0.00    -0.000 C 
BRANCH  14  15
ATOM     15  C   UNL     1       7.823   7.140   4.053  1.00  0.00    -0.003 C 
ATOM     16  C   UNL     1       7.698   6.493   5.431  1.00  0.00     0.004 C 
ENDBRANCH  14  15
ENDBRANCH  13  14
ENDBRANCH  12  13
ENDBRANCH  11  12
ENDBRANCH  10  11
ENDBRANCH   1  10
TORSDOF 12
ENDMDL
MODEL 2
REMARK VINA RESULT:    -3.056      3.065      6.251
REMARK INTER + INTRA:          -6.939
REMARK INTER:                  -5.527
REMARK INTRA:                  -1.412
REMARK UNBOUND:                -1.739
REMARK SMILES CCCCCCCCCCCCCC(=O)[O-]
REMARK SMILES IDX 8 1 9 2 10 3 11 4 12 5 13 6 14 7 15 8 16 9 7 10 6 11 5 12
REMARK SMILES IDX 4 13 3 14 2 15 1 16
REMARK H PARENT
REMARK Flexibility Score: inf
ROOT
ATOM      1  C   UNL     1       6.160   9.821   8.466  1.00  0.00     0.000 C 
ENDROOT
BRANCH   1   2
ATOM      2  C   UNL     1       7.401   9.392   7.662  1.00  0.00     0.000 C 
BRANCH   2   3
ATOM      3  C   UNL     1       8.669  10.229   7.922  1.00  0.00     0.000 C 
BRANCH   3   4
ATOM      4  C   UNL     1       9.347  10.808   6.664  1.00  0.00     0.000 C 
BRANCH   4   5
ATOM      5  C   UNL     1       9.668   9.782   5.559  1.00  0.00     0.006 C 
BRANCH   5   6
ATOM      6  C   UNL     1      10.927   8.941   5.832  1.00  0.00     0.053 C 
BRANCH   6   7
ATOM      7  C   UNL     1      11.689   8.613   4.584  1.00  0.00     0.041 C 
ATOM      8  O   UNL     1      12.831   9.106   4.389  1.00  0.00    -0.550 OA
ATOM      9  O   UNL     1      11.122   7.792   3.617  1.00  0.00    -0.550 OA
ENDBRANCH   6   7
ENDBRANCH   5   6
ENDBRANCH   4   5
ENDBRANCH   3   4
ENDBRANCH   2   3
ENDBRANCH   1   2
BRANCH   1  10
ATOM     10  C   UNL     1       5.206  10.713   7.658  1.00  0.00     0.000 C 
BRANCH  10  11
ATOM     11  C   UNL     1       5.126  12.120   8.263  1.00  0.00    -0.000 C 
BRANCH  11  12
ATOM     12  C   UNL     1       6.077  13.084   7.538  1.00  0.00    -0.000 C 
BRANCH  12  13
ATOM     13  C   UNL     1       7.190  13.616   8.454  1.00  0.00    -0.000 C 
BRANCH  13  14
ATOM     14  C   UNL     1       6.884  13.398   9.946  1.00  0.00    -0.000 C 
BRANCH  14  15
ATOM     15  C   UNL     1       7.954  12.543  10.646  1.00  0.00    -0.003 C 
ATOM     16  C   UNL     1       8.556  13.237  11.868  1.00  0.00     0.004 C 
ENDBRANCH  14  15
ENDBRANCH  13  14
ENDBRANCH  12  13
ENDBRANCH  11  12
ENDBRANCH  10  11
ENDBRANCH   1  10
TORSDOF 12
ENDMDL
MODEL 3
REMARK VINA RESULT:    -3.038      1.778      3.075
REMARK INTER + INTRA:          -6.909
REMARK INTER:                  -5.207
REMARK INTRA:                  -1.702
REMARK UNBOUND:                -1.739
REMARK SMILES CCCCCCCCCCCCCC(=O)[O-]
REMARK SMILES IDX 8 1 9 2 10 3 11 4 12 5 13 6 14 7 15 8 16 9 7 10 6 11 5 12
REMARK SMILES IDX 4 13 3 14 2 15 1 16
REMARK H PARENT
REMARK Flexibility Score: inf
ROOT
ATOM      1  C   UNL     1       5.256  10.073   7.674  1.00  0.00     0.000 C 
ENDROOT
BRANCH   1   2
ATOM      2  C   UNL     1       4.201  11.187   7.796  1.00  0.00     0.000 C 
BRANCH   2   3
ATOM      3  C   UNL     1       4.769  12.618   7.883  1.00  0.00     0.000 C 
BRANCH   3   4
ATOM      4  C   UNL     1       6.265  12.756   7.538  1.00  0.00     0.000 C 
BRANCH   4   5
ATOM      5  C   UNL     1       7.065  13.710   8.447  1.00  0.00     0.006 C 
BRANCH   5   6
ATOM      6  C   UNL     1       6.635  13.674   9.925  1.00  0.00     0.053 C 
BRANCH   6   7
ATOM      7  C   UNL     1       7.435  12.703  10.739  1.00  0.00     0.041 C 
ATOM      8  O   UNL     1       6.866  11.961  11.583  1.00  0.00    -0.550 OA
ATOM      9  O   UNL     1       8.816  12.644  10.593  1.00  0.00    -0.550 OA
ENDBRANCH   6   7
ENDBRANCH   5   6
ENDBRANCH   4   5
ENDBRANCH   3   4
ENDBRANCH   2   3
ENDBRANCH   1   2
BRANCH   1  10
ATOM     10  C   UNL     1       5.613   9.440   9.027  1.00  0.00     0.000 C 
BRANCH  10  11
ATOM     11  C   UNL     1       7.132   9.411   9.237  1.00  0.00    -0.000 C 
BRANCH  11  12
ATOM     12  C   UNL     1       7.872   9.414   7.891  1.00  0.00    -0.000 C 
BRANCH  12  13
ATOM     13  C   UNL     1       9.078  10.365   7.882  1.00  0.00    -0.000 C 
BRANCH  13  14
ATOM     14  C   UNL     1       9.483  10.794   6.461  1.00  0.00    -0.000 C 
BRANCH  14  15
ATOM     15  C   UNL     1       9.584   9.604   5.493  1.00  0.00    -0.003 C 
ATOM     16  C   UNL     1      10.893   8.830   5.644  1.00  0.00     0.004 C 
ENDBRANCH  14  15
ENDBRANCH  13  14
ENDBRANCH  12  13
ENDBRANCH  11  12
ENDBRANCH  10  11
ENDBRANCH   1  10
TORSDOF 12
ENDMDL
MODEL 4
REMARK VINA RESULT:    -3.015      4.735      6.637
REMARK INTER + INTRA:          -6.868
REMARK INTER:                  -6.019
REMARK INTRA:                  -0.850
REMARK UNBOUND:                -1.739
REMARK SMILES CCCCCCCCCCCCCC(=O)[O-]
REMARK SMILES IDX 8 1 9 2 10 3 11 4 12 5 13 6 14 7 15 8 16 9 7 10 6 11 5 12
REMARK SMILES IDX 4 13 3 14 2 15 1 16
REMARK H PARENT
REMARK Flexibility Score: inf
ROOT
ATOM      1  C   UNL     1      11.916   6.265   8.359  1.00  0.00     0.000 C 
ENDROOT
BRANCH   1   2
ATOM      2  C   UNL     1      10.812   7.338   8.398  1.00  0.00     0.000 C 
BRANCH   2   3
ATOM      3  C   UNL     1      10.124   7.617   7.047  1.00  0.00     0.000 C 
BRANCH   3   4
ATOM      4  C   UNL     1      10.776   8.721   6.191  1.00  0.00     0.000 C 
BRANCH   4   5
ATOM      5  C   UNL     1       9.833   9.864   5.763  1.00  0.00     0.006 C 
BRANCH   5   6
ATOM      6  C   UNL     1       8.769  10.225   6.814  1.00  0.00     0.053 C 
BRANCH   6   7
ATOM      7  C   UNL     1       9.147  11.419   7.637  1.00  0.00     0.041 C 
ATOM      8  O   UNL     1       9.191  12.564   7.113  1.00  0.00    -0.550 OA
ATOM      9  O   UNL     1       9.487  11.263   8.975  1.00  0.00    -0.550 OA
ENDBRANCH   6   7
ENDBRANCH   5   6
ENDBRANCH   4   5
ENDBRANCH   3   4
ENDBRANCH   2   3
ENDBRANCH   1   2
BRANCH   1  10
ATOM     10  C   UNL     1      12.833   6.311   9.590  1.00  0.00     0.000 C 
BRANCH  10  11
ATOM     11  C   UNL     1      14.237   5.794   9.247  1.00  0.00    -0.000 C 
BRANCH  11  12
ATOM     12  C   UNL     1      15.255   6.224  10.312  1.00  0.00    -0.000 C 
BRANCH  12  13
ATOM     13  C   UNL     1      14.898   7.570  10.962  1.00  0.00    -0.000 C 
BRANCH  13  14
ATOM     14  C   UNL     1      15.226   7.607  12.465  1.00  0.00    -0.000 C 
BRANCH  14  15
ATOM     15  C   UNL     1      14.357   6.635  13.280  1.00  0.00    -0.003 C 
ATOM     16  C   UNL     1      12.867   6.957  13.189  1.00  0.00     0.004 C 
ENDBRANCH  14  15
ENDBRANCH  13  14
ENDBRANCH  12  13
ENDBRANCH  11  12
ENDBRANCH  10  11
ENDBRANCH   1  10
TORSDOF 12
ENDMDL
MODEL 5
REMARK VINA RESULT:    -3.013      2.435      5.416
REMARK INTER + INTRA:          -6.865
REMARK INTER:                  -4.668
REMARK INTRA:                  -2.196
REMARK UNBOUND:                -1.739
REMARK SMILES CCCCCCCCCCCCCC(=O)[O-]
REMARK SMILES IDX 8 1 9 2 10 3 11 4 12 5 13 6 14 7 15 8 16 9 7 10 6 11 5 12
REMARK SMILES IDX 4 13 3 14 2 15 1 16
REMARK H PARENT
REMARK Flexibility Score: inf
ROOT
ATOM      1  C   UNL     1       4.847  11.141   7.871  1.00  0.00     0.000 C 
ENDROOT
BRANCH   1   2
ATOM      2  C   UNL     1       5.215   9.646   7.890  1.00  0.00     0.000 C 
BRANCH   2   3
ATOM      3  C   UNL     1       6.602   9.308   7.309  1.00  0.00     0.000 C 
BRANCH   3   4
ATOM      4  C   UNL     1       7.646   8.822   8.334  1.00  0.00     0.000 C 
BRANCH   4   5
ATOM      5  C   UNL     1       9.107   9.201   8.015  1.00  0.00     0.006 C 
BRANCH   5   6
ATOM      6  C   UNL     1       9.255  10.211   6.864  1.00  0.00     0.053 C 
BRANCH   6   7
ATOM      7  C   UNL     1       9.812   9.595   5.617  1.00  0.00     0.041 C 
ATOM      8  O   UNL     1      11.051   9.623   5.393  1.00  0.00    -0.550 OA
ATOM      9  O   UNL     1       8.959   9.022   4.682  1.00  0.00    -0.550 OA
ENDBRANCH   6   7
ENDBRANCH   5   6
ENDBRANCH   4   5
ENDBRANCH   3   4
ENDBRANCH   2   3
ENDBRANCH   1   2
BRANCH   1  10
ATOM     10  C   UNL     1       6.061  12.050   7.633  1.00  0.00     0.000 C 
BRANCH  10  11
ATOM     11  C   UNL     1       5.889  13.394   8.353  1.00  0.00    -0.000 C 
BRANCH  11  12
ATOM     12  C   UNL     1       6.712  13.431   9.649  1.00  0.00    -0.000 C 
BRANCH  12  13
ATOM     13  C   UNL     1       7.882  12.435   9.635  1.00  0.00    -0.000 C 
BRANCH  13  14
ATOM     14  C   UNL     1       7.848  11.465  10.829  1.00  0.00    -0.000 C 
BRANCH  14  15
ATOM     15  C   UNL     1       6.447  11.349  11.452  1.00  0.00    -0.003 C 
ATOM     16  C   UNL     1       5.948   9.907  11.518  1.00  0.00     0.004 C 
ENDBRANCH  14  15
ENDBRANCH  13  14
ENDBRANCH  12  13
ENDBRANCH  11  12
ENDBRANCH  10  11
ENDBRANCH   1  10
TORSDOF 12
ENDMDL
MODEL 6
REMARK VINA RESULT:    -3.011      2.506      5.682
REMARK INTER + INTRA:          -6.861
REMARK INTER:                  -4.782
REMARK INTRA:                  -2.079
REMARK UNBOUND:                -1.739
REMARK SMILES CCCCCCCCCCCCCC(=O)[O-]
REMARK SMILES IDX 8 1 9 2 10 3 11 4 12 5 13 6 14 7 15 8 16 9 7 10 6 11 5 12
REMARK SMILES IDX 4 13 3 14 2 15 1 16
REMARK H PARENT
REMARK Flexibility Score: inf
ROOT
ATOM      1  C   UNL     1       5.520  10.858  10.138  1.00  0.00     0.000 C 
ENDROOT
BRANCH   1   2
ATOM      2  C   UNL     1       6.993  10.833  10.583  1.00  0.00     0.000 C 
BRANCH   2   3
ATOM      3  C   UNL     1       7.955  10.111   9.617  1.00  0.00     0.000 C 
BRANCH   3   4
ATOM      4  C   UNL     1       9.077  10.987   9.027  1.00  0.00     0.000 C 
BRANCH   4   5
ATOM      5  C   UNL     1       9.047  11.152   7.494  1.00  0.00     0.006 C 
BRANCH   5   6
ATOM      6  C   UNL     1       8.411   9.965   6.750  1.00  0.00     0.053 C 
BRANCH   6   7
ATOM      7  C   UNL     1       9.384   9.246   5.865  1.00  0.00     0.041 C 
ATOM      8  O   UNL     1      10.522   8.927   6.300  1.00  0.00    -0.550 OA
ATOM      9  O   UNL     1       9.047   8.961   4.548  1.00  0.00    -0.550 OA
ENDBRANCH   6   7
ENDBRANCH   5   6
ENDBRANCH   4   5
ENDBRANCH   3   4
ENDBRANCH   2   3
ENDBRANCH   1   2
BRANCH   1  10
ATOM     10  C   UNL     1       5.255   9.983   8.904  1.00  0.00     0.000 C 
BRANCH  10  11
ATOM     11  C   UNL     1       5.044  10.847   7.654  1.00  0.00    -0.000 C 
BRANCH  11  12
ATOM     12  C   UNL     1       3.957  11.905   7.895  1.00  0.00    -0.000 C 
BRANCH  12  13
ATOM     13  C   UNL     1       4.493  13.341   7.772  1.00  0.00    -0.000 C 
BRANCH  13  14
ATOM     14  C   UNL     1       5.992  13.385   7.425  1.00  0.00    -0.000 C 
BRANCH  14  15
ATOM     15  C   UNL     1       6.840  13.985   8.558  1.00  0.00    -0.003 C 
ATOM     16  C   UNL     1       5.990  14.585   9.677  1.00  0.00     0.004 C 
ENDBRANCH  14  15
ENDBRANCH  13  14
ENDBRANCH  12  13
ENDBRANCH  11  12
ENDBRANCH  10  11
ENDBRANCH   1  10
TORSDOF 12
ENDMDL
MODEL 7
REMARK VINA RESULT:    -3.004      1.925      3.799
REMARK INTER + INTRA:          -6.850
REMARK INTER:                  -5.118
REMARK INTRA:                  -1.732
REMARK UNBOUND:                -1.739
REMARK SMILES CCCCCCCCCCCCCC(=O)[O-]
REMARK SMILES IDX 8 1 9 2 10 3 11 4 12 5 13 6 14 7 15 8 16 9 7 10 6 11 5 12
REMARK SMILES IDX 4 13 3 14 2 15 1 16
REMARK H PARENT
REMARK Flexibility Score: inf
ROOT
ATOM      1  C   UNL     1       4.513  11.807   7.899  1.00  0.00     0.000 C 
ENDROOT
BRANCH   1   2
ATOM      2  C   UNL     1       5.674  12.778   7.617  1.00  0.00     0.000 C 
BRANCH   2   3
ATOM      3  C   UNL     1       5.685  14.052   8.485  1.00  0.00     0.000 C 
BRANCH   3   4
ATOM      4  C   UNL     1       6.542  13.972   9.764  1.00  0.00     0.000 C 
BRANCH   4   5
ATOM      5  C   UNL     1       7.633  12.883   9.757  1.00  0.00     0.006 C 
BRANCH   5   6
ATOM      6  C   UNL     1       7.742  12.098  11.077  1.00  0.00     0.053 C 
BRANCH   6   7
ATOM      7  C   UNL     1       9.155  11.963  11.558  1.00  0.00     0.041 C 
ATOM      8  O   UNL     1       9.800  12.980  11.927  1.00  0.00    -0.550 OA
ATOM      9  O   UNL     1       9.773  10.719  11.562  1.00  0.00    -0.550 OA
ENDBRANCH   6   7
ENDBRANCH   5   6
ENDBRANCH   4   5
ENDBRANCH   3   4
ENDBRANCH   2   3
ENDBRANCH   1   2
BRANCH   1  10
ATOM     10  C   UNL     1       4.974  10.348   8.028  1.00  0.00     0.000 C 
BRANCH  10  11
ATOM     11  C   UNL     1       6.391  10.169   7.466  1.00  0.00    -0.000 C 
BRANCH  11  12
ATOM     12  C   UNL     1       7.297   9.458   8.481  1.00  0.00    -0.000 C 
BRANCH  12  13
ATOM     13  C   UNL     1       8.791   9.669   8.188  1.00  0.00    -0.000 C 
BRANCH  13  14
ATOM     14  C   UNL     1       9.039  10.758   7.129  1.00  0.00    -0.000 C 
BRANCH  14  15
ATOM     15  C   UNL     1       9.826  10.232   5.918  1.00  0.00    -0.003 C 
ATOM     16  C   UNL     1       9.720   8.716   5.758  1.00  0.00     0.004 C 
ENDBRANCH  14  15
ENDBRANCH  13  14
ENDBRANCH  12  13
ENDBRANCH  11  12
ENDBRANCH  10  11
ENDBRANCH   1  10
TORSDOF 12
ENDMDL
MODEL 8
REMARK VINA RESULT:    -2.992      1.293      2.137
REMARK INTER + INTRA:          -6.829
REMARK INTER:                  -5.207
REMARK INTRA:                  -1.623
REMARK UNBOUND:                -1.739
REMARK SMILES CCCCCCCCCCCCCC(=O)[O-]
REMARK SMILES IDX 8 1 9 2 10 3 11 4 12 5 13 6 14 7 15 8 16 9 7 10 6 11 5 12
REMARK SMILES IDX 4 13 3 14 2 15 1 16
REMARK H PARENT
REMARK Flexibility Score: inf
ROOT
ATOM      1  C   UNL     1       6.701   9.742   7.306  1.00  0.00     0.000 C 
ENDROOT
BRANCH   1   2
ATOM      2  C   UNL     1       5.427  10.354   7.916  1.00  0.00     0.000 C 
BRANCH   2   3
ATOM      3  C   UNL     1       5.355  11.893   7.871  1.00  0.00     0.000 C 
BRANCH   3   4
ATOM      4  C   UNL     1       6.713  12.614   7.767  1.00  0.00     0.000 C 
BRANCH   4   5
ATOM      5  C   UNL     1       7.244  13.211   9.086  1.00  0.00     0.006 C 
BRANCH   5   6
ATOM      6  C   UNL     1       7.114  12.269  10.296  1.00  0.00     0.053 C 
BRANCH   6   7
ATOM      7  C   UNL     1       8.416  12.052  11.007  1.00  0.00     0.041 C 
ATOM      8  O   UNL     1       9.112  13.037  11.372  1.00  0.00    -0.550 OA
ATOM      9  O   UNL     1       8.880  10.762  11.232  1.00  0.00    -0.550 OA
ENDBRANCH   6   7
ENDBRANCH   5   6
ENDBRANCH   4   5
ENDBRANCH   3   4
ENDBRANCH   2   3
ENDBRANCH   1   2
BRANCH   1  10
ATOM     10  C   UNL     1       7.652   9.167   8.365  1.00  0.00     0.000 C 
BRANCH  10  11
ATOM     11  C   UNL     1       9.109   9.531   8.050  1.00  0.00    -0.000 C 
BRANCH  11  12
ATOM     12  C   UNL     1       9.206  10.318   6.735  1.00  0.00    -0.000 C 
BRANCH  12  13
ATOM     13  C   UNL     1      10.003   9.570   5.656  1.00  0.00    -0.000 C 
BRANCH  13  14
ATOM     14  C   UNL     1       9.096   8.869   4.629  1.00  0.00    -0.000 C 
BRANCH  14  15
ATOM     15  C   UNL     1       8.823   7.400   4.993  1.00  0.00    -0.003 C 
ATOM     16  C   UNL     1       7.355   7.012   4.817  1.00  0.00     0.004 C 
ENDBRANCH  14  15
ENDBRANCH  13  14
ENDBRANCH  12  13
ENDBRANCH  11  12
ENDBRANCH  10  11
ENDBRANCH   1  10
TORSDOF 12
ENDMDL
MODEL 9
REMARK VINA RESULT:    -2.975      2.940      5.756
REMARK INTER + INTRA:          -6.800
REMARK INTER:                  -4.983
REMARK INTRA:                  -1.817
REMARK UNBOUND:                -1.739
REMARK SMILES CCCCCCCCCCCCCC(=O)[O-]
REMARK SMILES IDX 8 1 9 2 10 3 11 4 12 5 13 6 14 7 15 8 16 9 7 10 6 11 5 12
REMARK SMILES IDX 4 13 3 14 2 15 1 16
REMARK H PARENT
REMARK Flexibility Score: inf
ROOT
ATOM      1  C   UNL     1       7.903  10.383   9.683  1.00  0.00     0.000 C 
ENDROOT
BRANCH   1   2
ATOM      2  C   UNL     1       9.155  11.006   9.039  1.00  0.00     0.000 C 
BRANCH   2   3
ATOM      3  C   UNL     1       9.089  11.170   7.508  1.00  0.00     0.000 C 
BRANCH   3   4
ATOM      4  C   UNL     1       8.433  10.001   6.747  1.00  0.00     0.000 C 
BRANCH   4   5
ATOM      5  C   UNL     1       9.248   9.446   5.562  1.00  0.00     0.006 C 
BRANCH   5   6
ATOM      6  C   UNL     1      10.653   8.950   5.947  1.00  0.00     0.053 C 
BRANCH   6   7
ATOM      7  C   UNL     1      10.666   7.513   6.373  1.00  0.00     0.041 C 
ATOM      8  O   UNL     1       9.818   6.706   5.908  1.00  0.00    -0.550 OA
ATOM      9  O   UNL     1      11.591   7.073   7.311  1.00  0.00    -0.550 OA
ENDBRANCH   6   7
ENDBRANCH   5   6
ENDBRANCH   4   5
ENDBRANCH   3   4
ENDBRANCH   2   3
ENDBRANCH   1   2
BRANCH   1  10
ATOM     10  C   UNL     1       7.354  11.218  10.849  1.00  0.00     0.000 C 
BRANCH  10  11
ATOM     11  C   UNL     1       7.662  12.708  10.648  1.00  0.00    -0.000 C 
BRANCH  11  12
ATOM     12  C   UNL     1       6.478  13.428   9.986  1.00  0.00    -0.000 C 
BRANCH  12  13
ATOM     13  C   UNL     1       6.796  13.897   8.558  1.00  0.00    -0.000 C 
BRANCH  13  14
ATOM     14  C   UNL     1       5.879  13.251   7.505  1.00  0.00    -0.000 C 
BRANCH  14  15
ATOM     15  C   UNL     1       4.807  12.347   8.134  1.00  0.00    -0.003 C 
ATOM     16  C   UNL     1       4.893  10.902   7.646  1.00  0.00     0.004 C 
ENDBRANCH  14  15
ENDBRANCH  13  14
ENDBRANCH  12  13
ENDBRANCH  11  12
ENDBRANCH  10  11
ENDBRANCH   1  10
TORSDOF 12
ENDMDL
