MODEL 1
REMARK VINA RESULT:    -2.542      0.000      0.000
REMARK INTER + INTRA:          -6.096
REMARK INTER:                  -4.920
REMARK INTRA:                  -1.175
REMARK UNBOUND:                -1.175
REMARK SMILES CCCCCCCCCCCCCCCCCC(=O)[O-]
REMARK SMILES IDX 10 1 11 2 12 3 13 4 14 5 15 6 16 7 17 8 18 9 19 10 20 11
REMARK SMILES IDX 9 12 8 13 7 14 6 15 5 16 4 17 3 18 2 19 1 20
REMARK H PARENT
REMARK Flexibility Score: inf
ROOT
ATOM      1  C   UNL     1       4.938 -35.988  21.342  1.00  0.00     0.000 C 
ENDROOT
BRANCH   1   2
ATOM      2  C   UNL     1       6.125 -35.202  21.929  1.00  0.00     0.000 C 
BRANCH   2   3
ATOM      3  C   UNL     1       6.035 -34.912  23.439  1.00  0.00     0.000 C 
BRANCH   3   4
ATOM      4  C   UNL     1       5.044 -35.839  24.167  1.00  0.00     0.000 C 
BRANCH   4   5
ATOM      5  C   UNL     1       5.743 -36.834  25.107  1.00  0.00     0.000 C 
BRANCH   5   6
ATOM      6  C   UNL     1       5.060 -38.212  25.138  1.00  0.00     0.000 C 
BRANCH   6   7
ATOM      7  C   UNL     1       5.571 -39.099  23.998  1.00  0.00     0.006 C 
BRANCH   7   8
ATOM      8  C   UNL     1       5.331 -40.582  24.300  1.00  0.00     0.053 C 
BRANCH   8   9
ATOM      9  C   UNL     1       5.638 -41.419  23.098  1.00  0.00     0.041 C 
ATOM     10  O   UNL     1       5.782 -42.666  23.214  1.00  0.00    -0.550 OA
ATOM     11  O   UNL     1       5.717 -40.831  21.841  1.00  0.00    -0.550 OA
ENDBRANCH   8   9
ENDBRANCH   7   8
ENDBRANCH   6   7
ENDBRANCH   5   6
ENDBRANCH   4   5
ENDBRANCH   3   4
ENDBRANCH   2   3
ENDBRANCH   1   2
BRANCH   1  12
ATOM     12  C   UNL     1       5.344 -37.365  20.794  1.00  0.00     0.000 C 
BRANCH  12  13
ATOM     13  C   UNL     1       4.714 -37.616  19.414  1.00  0.00    -0.000 C 
BRANCH  13  14
ATOM     14  C   UNL     1       3.181 -37.491  19.436  1.00  0.00    -0.000 C 
BRANCH  14  15
ATOM     15  C   UNL     1       2.560 -37.632  18.033  1.00  0.00    -0.000 C 
BRANCH  15  16
ATOM     16  C   UNL     1       3.159 -36.642  17.021  1.00  0.00    -0.000 C 
BRANCH  16  17
ATOM     17  C   UNL     1       2.133 -36.160  15.979  1.00  0.00    -0.000 C 
BRANCH  17  18
ATOM     18  C   UNL     1       2.348 -36.794  14.593  1.00  0.00    -0.000 C 
BRANCH  18  19
ATOM     19  C   UNL     1       3.811 -37.139  14.263  1.00  0.00    -0.003 C 
ATOM     20  C   UNL     1       4.107 -38.635  14.354  1.00  0.00     0.004 C 
ENDBRANCH  18  19
ENDBRANCH  17  18
ENDBRANCH  16  17
ENDBRANCH  15  16
ENDBRANCH  14  15
ENDBRANCH  13  14
ENDBRANCH  12  13
ENDBRANCH   1  12
TORSDOF 16
ENDMDL
MODEL 2
REMARK VINA RESULT:    -2.319      2.478      4.719
REMARK INTER + INTRA:          -5.663
REMARK INTER:                  -5.426
REMARK INTRA:                  -0.237
REMARK UNBOUND:                -1.175
REMARK SMILES CCCCCCCCCCCCCCCCCC(=O)[O-]
REMARK SMILES IDX 10 1 11 2 12 3 13 4 14 5 15 6 16 7 17 8 18 9 19 10 20 11
REMARK SMILES IDX 9 12 8 13 7 14 6 15 5 16 4 17 3 18 2 19 1 20
REMARK H PARENT
REMARK Flexibility Score: inf
ROOT
ATOM      1  C   UNL     1       1.899 -37.653  18.874  1.00  0.00     0.000 C 
ENDROOT
BRANCH   1   2
ATOM      2  C   UNL     1       2.944 -38.082  19.920  1.00  0.00     0.000 C 
BRANCH   2   3
ATOM      3  C   UNL     1       3.749 -36.931  20.551  1.00  0.00     0.000 C 
BRANCH   3   4
ATOM      4  C   UNL     1       5.233 -36.942  20.137  1.00  0.00     0.000 C 
BRANCH   4   5
ATOM      5  C   UNL     1       5.797 -35.529  19.916  1.00  0.00     0.000 C 
BRANCH   5   6
ATOM      6  C   UNL     1       6.105 -34.794  21.231  1.00  0.00     0.000 C 
BRANCH   6   7
ATOM      7  C   UNL     1       5.048 -35.116  22.295  1.00  0.00     0.006 C 
BRANCH   7   8
ATOM      8  C   UNL     1       5.555 -34.775  23.700  1.00  0.00     0.053 C 
BRANCH   8   9
ATOM      9  C   UNL     1       5.829 -36.024  24.477  1.00  0.00     0.041 C 
ATOM     10  O   UNL     1       6.125 -35.957  25.700  1.00  0.00    -0.550 OA
ATOM     11  O   UNL     1       5.711 -37.266  23.864  1.00  0.00    -0.550 OA
ENDBRANCH   8   9
ENDBRANCH   7   8
ENDBRANCH   6   7
ENDBRANCH   5   6
ENDBRANCH   4   5
ENDBRANCH   3   4
ENDBRANCH   2   3
ENDBRANCH   1   2
BRANCH   1  12
ATOM     12  C   UNL     1       2.519 -37.346  17.501  1.00  0.00     0.000 C 
BRANCH  12  13
ATOM     13  C   UNL     1       1.466 -36.768  16.540  1.00  0.00    -0.000 C 
BRANCH  13  14
ATOM     14  C   UNL     1       1.982 -36.664  15.095  1.00  0.00    -0.000 C 
BRANCH  14  15
ATOM     15  C   UNL     1       3.476 -37.022  14.978  1.00  0.00    -0.000 C 
BRANCH  15  16
ATOM     16  C   UNL     1       3.750 -38.058  13.875  1.00  0.00    -0.000 C 
BRANCH  16  17
ATOM     17  C   UNL     1       4.919 -38.998  14.219  1.00  0.00    -0.000 C 
BRANCH  17  18
ATOM     18  C   UNL     1       4.601 -40.476  13.926  1.00  0.00    -0.000 C 
BRANCH  18  19
ATOM     19  C   UNL     1       5.828 -41.405  13.890  1.00  0.00    -0.003 C 
ATOM     20  C   UNL     1       5.765 -42.517  14.934  1.00  0.00     0.004 C 
ENDBRANCH  18  19
ENDBRANCH  17  18
ENDBRANCH  16  17
ENDBRANCH  15  16
ENDBRANCH  14  15
ENDBRANCH  13  14
ENDBRANCH  12  13
ENDBRANCH   1  12
TORSDOF 16
ENDMDL
MODEL 3
REMARK VINA RESULT:    -2.236      1.965      3.271
REMARK INTER + INTRA:          -5.503
REMARK INTER:                  -4.644
REMARK INTRA:                  -0.860
REMARK UNBOUND:                -1.175
REMARK SMILES CCCCCCCCCCCCCCCCCC(=O)[O-]
REMARK SMILES IDX 10 1 11 2 12 3 13 4 14 5 15 6 16 7 17 8 18 9 19 10 20 11
REMARK SMILES IDX 9 12 8 13 7 14 6 15 5 16 4 17 3 18 2 19 1 20
REMARK H PARENT
REMARK Flexibility Score: inf
ROOT
ATOM      1  C   UNL     1       2.945 -37.360  20.385  1.00  0.00     0.000 C 
ENDROOT
BRANCH   1   2
ATOM      2  C   UNL     1       3.559 -35.953  20.493  1.00  0.00     0.000 C 
BRANCH   2   3
ATOM      3  C   UNL     1       5.059 -35.866  20.157  1.00  0.00     0.000 C 
BRANCH   3   4
ATOM      4  C   UNL     1       5.921 -35.463  21.369  1.00  0.00     0.000 C 
BRANCH   4   5
ATOM      5  C   UNL     1       5.086 -34.894  22.527  1.00  0.00     0.000 C 
BRANCH   5   6
ATOM      6  C   UNL     1       5.949 -34.314  23.660  1.00  0.00     0.000 C 
BRANCH   6   7
ATOM      7  C   UNL     1       6.125 -35.336  24.789  1.00  0.00     0.006 C 
BRANCH   7   8
ATOM      8  C   UNL     1       6.026 -36.770  24.258  1.00  0.00     0.053 C 
BRANCH   8   9
ATOM      9  C   UNL     1       5.182 -37.609  25.165  1.00  0.00     0.041 C 
ATOM     10  O   UNL     1       4.430 -37.063  26.015  1.00  0.00    -0.550 OA
ATOM     11  O   UNL     1       5.189 -38.994  25.040  1.00  0.00    -0.550 OA
ENDBRANCH   8   9
ENDBRANCH   7   8
ENDBRANCH   6   7
ENDBRANCH   5   6
ENDBRANCH   4   5
ENDBRANCH   3   4
ENDBRANCH   2   3
ENDBRANCH   1   2
BRANCH   1  12
ATOM     12  C   UNL     1       1.480 -37.340  19.920  1.00  0.00     0.000 C 
BRANCH  12  13
ATOM     13  C   UNL     1       1.358 -37.819  18.464  1.00  0.00    -0.000 C 
BRANCH  13  14
ATOM     14  C   UNL     1       2.673 -37.661  17.681  1.00  0.00    -0.000 C 
BRANCH  14  15
ATOM     15  C   UNL     1       2.807 -36.270  17.033  1.00  0.00    -0.000 C 
BRANCH  15  16
ATOM     16  C   UNL     1       1.762 -36.029  15.932  1.00  0.00    -0.000 C 
BRANCH  16  17
ATOM     17  C   UNL     1       2.151 -36.674  14.589  1.00  0.00    -0.000 C 
BRANCH  17  18
ATOM     18  C   UNL     1       3.674 -36.742  14.380  1.00  0.00    -0.000 C 
BRANCH  18  19
ATOM     19  C   UNL     1       4.197 -38.101  13.881  1.00  0.00    -0.003 C 
ATOM     20  C   UNL     1       4.106 -39.200  14.938  1.00  0.00     0.004 C 
ENDBRANCH  18  19
ENDBRANCH  17  18
ENDBRANCH  16  17
ENDBRANCH  15  16
ENDBRANCH  14  15
ENDBRANCH  13  14
ENDBRANCH  12  13
ENDBRANCH   1  12
TORSDOF 16
ENDMDL
MODEL 4
REMARK VINA RESULT:    -2.047      3.086      7.789
REMARK INTER + INTRA:          -5.138
REMARK INTER:                  -4.042
REMARK INTRA:                  -1.096
REMARK UNBOUND:                -1.175
REMARK SMILES CCCCCCCCCCCCCCCCCC(=O)[O-]
REMARK SMILES IDX 10 1 11 2 12 3 13 4 14 5 15 6 16 7 17 8 18 9 19 10 20 11
REMARK SMILES IDX 9 12 8 13 7 14 6 15 5 16 4 17 3 18 2 19 1 20
REMARK H PARENT
REMARK Flexibility Score: inf
ROOT
ATOM      1  C   UNL     1       5.895 -35.255  21.811  1.00  0.00     0.000 C 
ENDROOT
BRANCH   1   2
ATOM      2  C   UNL     1       5.696 -36.645  21.178  1.00  0.00     0.000 C 
BRANCH   2   3
ATOM      3  C   UNL     1       5.029 -36.642  19.790  1.00  0.00     0.000 C 
BRANCH   3   4
ATOM      4  C   UNL     1       3.495 -36.762  19.863  1.00  0.00     0.000 C 
BRANCH   4   5
ATOM      5  C   UNL     1       2.934 -37.796  18.874  1.00  0.00     0.000 C 
BRANCH   5   6
ATOM      6  C   UNL     1       1.680 -37.299  18.135  1.00  0.00     0.000 C 
BRANCH   6   7
ATOM      7  C   UNL     1       2.008 -36.959  16.676  1.00  0.00     0.006 C 
BRANCH   7   8
ATOM      8  C   UNL     1       3.170 -37.813  16.156  1.00  0.00     0.053 C 
BRANCH   8   9
ATOM      9  C   UNL     1       3.476 -37.472  14.732  1.00  0.00     0.041 C 
ATOM     10  O   UNL     1       4.288 -38.175  14.073  1.00  0.00    -0.550 OA
ATOM     11  O   UNL     1       2.829 -36.407  14.116  1.00  0.00    -0.550 OA
ENDBRANCH   8   9
ENDBRANCH   7   8
ENDBRANCH   6   7
ENDBRANCH   5   6
ENDBRANCH   4   5
ENDBRANCH   3   4
ENDBRANCH   2   3
ENDBRANCH   1   2
BRANCH   1  12
ATOM     12  C   UNL     1       5.107 -35.074  23.118  1.00  0.00     0.000 C 
BRANCH  12  13
ATOM     13  C   UNL     1       6.030 -35.213  24.340  1.00  0.00    -0.000 C 
BRANCH  13  14
ATOM     14  C   UNL     1       6.125 -36.663  24.844  1.00  0.00    -0.000 C 
BRANCH  14  15
ATOM     15  C   UNL     1       4.814 -37.148  25.490  1.00  0.00    -0.000 C 
BRANCH  15  16
ATOM     16  C   UNL     1       4.644 -38.674  25.409  1.00  0.00    -0.000 C 
BRANCH  16  17
ATOM     17  C   UNL     1       5.569 -39.321  24.362  1.00  0.00    -0.000 C 
BRANCH  17  18
ATOM     18  C   UNL     1       4.916 -40.519  23.650  1.00  0.00    -0.000 C 
BRANCH  18  19
ATOM     19  C   UNL     1       5.906 -41.571  23.117  1.00  0.00    -0.003 C 
ATOM     20  C   UNL     1       5.832 -42.896  23.872  1.00  0.00     0.004 C 
ENDBRANCH  18  19
ENDBRANCH  17  18
ENDBRANCH  16  17
ENDBRANCH  15  16
ENDBRANCH  14  15
ENDBRANCH  13  14
ENDBRANCH  12  13
ENDBRANCH   1  12
TORSDOF 16
ENDMDL
MODEL 5
REMARK VINA RESULT:    -1.038      2.393      7.405
REMARK INTER + INTRA:          -3.184
REMARK INTER:                  -1.990
REMARK INTRA:                  -1.194
REMARK UNBOUND:                -1.175
REMARK SMILES CCCCCCCCCCCCCCCCCC(=O)[O-]
REMARK SMILES IDX 10 1 11 2 12 3 13 4 14 5 15 6 16 7 17 8 18 9 19 10 20 11
REMARK SMILES IDX 9 12 8 13 7 14 6 15 5 16 4 17 3 18 2 19 1 20
REMARK H PARENT
REMARK Flexibility Score: inf
ROOT
ATOM      1  C   UNL     1       4.777 -36.040  21.630  1.00  0.00     0.000 C 
ENDROOT
BRANCH   1   2
ATOM      2  C   UNL     1       5.928 -36.052  20.607  1.00  0.00     0.000 C 
BRANCH   2   3
ATOM      3  C   UNL     1       5.951 -34.858  19.635  1.00  0.00     0.000 C 
BRANCH   3   4
ATOM      4  C   UNL     1       4.711 -34.806  18.723  1.00  0.00     0.000 C 
BRANCH   4   5
ATOM      5  C   UNL     1       4.733 -35.885  17.629  1.00  0.00     0.000 C 
BRANCH   5   6
ATOM      6  C   UNL     1       3.499 -35.837  16.713  1.00  0.00     0.000 C 
BRANCH   6   7
ATOM      7  C   UNL     1       2.789 -37.196  16.682  1.00  0.00     0.006 C 
BRANCH   7   8
ATOM      8  C   UNL     1       1.397 -37.107  17.318  1.00  0.00     0.053 C 
BRANCH   8   9
ATOM      9  C   UNL     1       1.394 -37.755  18.667  1.00  0.00     0.041 C 
ATOM     10  O   UNL     1       0.342 -38.286  19.112  1.00  0.00    -0.550 OA
ATOM     11  O   UNL     1       2.565 -37.814  19.413  1.00  0.00    -0.550 OA
ENDBRANCH   8   9
ENDBRANCH   7   8
ENDBRANCH   6   7
ENDBRANCH   5   6
ENDBRANCH   4   5
ENDBRANCH   3   4
ENDBRANCH   2   3
ENDBRANCH   1   2
BRANCH   1  12
ATOM     12  C   UNL     1       4.913 -34.917  22.670  1.00  0.00     0.000 C 
BRANCH  12  13
ATOM     13  C   UNL     1       6.027 -35.236  23.682  1.00  0.00    -0.000 C 
BRANCH  13  14
ATOM     14  C   UNL     1       6.125 -36.739  23.995  1.00  0.00    -0.000 C 
BRANCH  14  15
ATOM     15  C   UNL     1       5.552 -37.088  25.382  1.00  0.00    -0.000 C 
BRANCH  15  16
ATOM     16  C   UNL     1       4.751 -38.399  25.376  1.00  0.00    -0.000 C 
BRANCH  16  17
ATOM     17  C   UNL     1       5.043 -39.271  24.141  1.00  0.00    -0.000 C 
BRANCH  17  18
ATOM     18  C   UNL     1       5.524 -40.686  24.511  1.00  0.00    -0.000 C 
BRANCH  18  19
ATOM     19  C   UNL     1       5.729 -41.631  23.313  1.00  0.00    -0.003 C 
ATOM     20  C   UNL     1       5.878 -43.094  23.726  1.00  0.00     0.004 C 
ENDBRANCH  18  19
ENDBRANCH  17  18
ENDBRANCH  16  17
ENDBRANCH  15  16
ENDBRANCH  14  15
ENDBRANCH  13  14
ENDBRANCH  12  13
ENDBRANCH   1  12
TORSDOF 16
ENDMDL
MODEL 6
REMARK VINA RESULT:    -0.928      2.980      7.745
REMARK INTER + INTRA:          -2.971
REMARK INTER:                  -1.592
REMARK INTRA:                  -1.378
REMARK UNBOUND:                -1.175
REMARK SMILES CCCCCCCCCCCCCCCCCC(=O)[O-]
REMARK SMILES IDX 10 1 11 2 12 3 13 4 14 5 15 6 16 7 17 8 18 9 19 10 20 11
REMARK SMILES IDX 9 12 8 13 7 14 6 15 5 16 4 17 3 18 2 19 1 20
REMARK H PARENT
REMARK Flexibility Score: inf
ROOT
ATOM      1  C   UNL     1       5.691 -39.603  22.117  1.00  0.00     0.000 C 
ENDROOT
BRANCH   1   2
ATOM      2  C   UNL     1       5.882 -39.919  20.622  1.00  0.00     0.000 C 
BRANCH   2   3
ATOM      3  C   UNL     1       5.393 -38.824  19.655  1.00  0.00     0.000 C 
BRANCH   3   4
ATOM      4  C   UNL     1       5.226 -37.454  20.338  1.00  0.00     0.000 C 
BRANCH   4   5
ATOM      5  C   UNL     1       3.949 -36.723  19.896  1.00  0.00     0.000 C 
BRANCH   5   6
ATOM      6  C   UNL     1       3.252 -37.400  18.704  1.00  0.00     0.000 C 
BRANCH   6   7
ATOM      7  C   UNL     1       3.469 -36.595  17.417  1.00  0.00     0.006 C 
BRANCH   7   8
ATOM      8  C   UNL     1       2.306 -36.790  16.439  1.00  0.00     0.053 C 
BRANCH   8   9
ATOM      9  C   UNL     1       2.819 -37.124  15.073  1.00  0.00     0.041 C 
ATOM     10  O   UNL     1       3.887 -37.780  14.941  1.00  0.00    -0.550 OA
ATOM     11  O   UNL     1       2.093 -36.754  13.947  1.00  0.00    -0.550 OA
ENDBRANCH   8   9
ENDBRANCH   7   8
ENDBRANCH   6   7
ENDBRANCH   5   6
ENDBRANCH   4   5
ENDBRANCH   3   4
ENDBRANCH   2   3
ENDBRANCH   1   2
BRANCH   1  12
ATOM     12  C   UNL     1       5.720 -40.859  23.002  1.00  0.00     0.000 C 
BRANCH  12  13
ATOM     13  C   UNL     1       5.316 -40.523  24.447  1.00  0.00    -0.000 C 
BRANCH  13  14
ATOM     14  C   UNL     1       4.599 -39.166  24.557  1.00  0.00    -0.000 C 
BRANCH  14  15
ATOM     15  C   UNL     1       4.750 -38.534  25.954  1.00  0.00    -0.000 C 
BRANCH  15  16
ATOM     16  C   UNL     1       4.924 -37.008  25.895  1.00  0.00    -0.000 C 
BRANCH  16  17
ATOM     17  C   UNL     1       6.125 -36.577  25.034  1.00  0.00    -0.000 C 
BRANCH  17  18
ATOM     18  C   UNL     1       6.049 -35.102  24.600  1.00  0.00    -0.000 C 
BRANCH  18  19
ATOM     19  C   UNL     1       5.728 -34.883  23.111  1.00  0.00    -0.003 C 
ATOM     20  C   UNL     1       4.229 -34.896  22.815  1.00  0.00     0.004 C 
ENDBRANCH  18  19
ENDBRANCH  17  18
ENDBRANCH  16  17
ENDBRANCH  15  16
ENDBRANCH  14  15
ENDBRANCH  13  14
ENDBRANCH  12  13
ENDBRANCH   1  12
TORSDOF 16
ENDMDL
MODEL 7
REMARK VINA RESULT:    -0.812      3.296      7.381
REMARK INTER + INTRA:          -2.747
REMARK INTER:                  -1.340
REMARK INTRA:                  -1.406
REMARK UNBOUND:                -1.175
REMARK SMILES CCCCCCCCCCCCCCCCCC(=O)[O-]
REMARK SMILES IDX 10 1 11 2 12 3 13 4 14 5 15 6 16 7 17 8 18 9 19 10 20 11
REMARK SMILES IDX 9 12 8 13 7 14 6 15 5 16 4 17 3 18 2 19 1 20
REMARK H PARENT
REMARK Flexibility Score: inf
ROOT
ATOM      1  C   UNL     1       5.192 -34.924  22.908  1.00  0.00     0.000 C 
ENDROOT
BRANCH   1   2
ATOM      2  C   UNL     1       6.075 -35.107  21.660  1.00  0.00     0.000 C 
BRANCH   2   3
ATOM      3  C   UNL     1       5.335 -35.601  20.403  1.00  0.00     0.000 C 
BRANCH   3   4
ATOM      4  C   UNL     1       3.851 -35.916  20.667  1.00  0.00     0.000 C 
BRANCH   4   5
ATOM      5  C   UNL     1       3.453 -37.327  20.205  1.00  0.00     0.000 C 
BRANCH   5   6
ATOM      6  C   UNL     1       3.906 -37.638  18.769  1.00  0.00     0.000 C 
BRANCH   6   7
ATOM      7  C   UNL     1       2.818 -37.253  17.759  1.00  0.00     0.006 C 
BRANCH   7   8
ATOM      8  C   UNL     1       3.321 -37.400  16.319  1.00  0.00     0.053 C 
BRANCH   8   9
ATOM      9  C   UNL     1       2.388 -36.723  15.365  1.00  0.00     0.041 C 
ATOM     10  O   UNL     1       1.243 -36.362  15.748  1.00  0.00    -0.550 OA
ATOM     11  O   UNL     1       2.800 -36.446  14.067  1.00  0.00    -0.550 OA
ENDBRANCH   8   9
ENDBRANCH   7   8
ENDBRANCH   6   7
ENDBRANCH   5   6
ENDBRANCH   4   5
ENDBRANCH   3   4
ENDBRANCH   2   3
ENDBRANCH   1   2
BRANCH   1  12
ATOM     12  C   UNL     1       5.868 -35.418  24.197  1.00  0.00     0.000 C 
BRANCH  12  13
ATOM     13  C   UNL     1       4.975 -36.431  24.933  1.00  0.00    -0.000 C 
BRANCH  13  14
ATOM     14  C   UNL     1       5.638 -37.812  25.067  1.00  0.00    -0.000 C 
BRANCH  14  15
ATOM     15  C   UNL     1       6.125 -38.364  23.714  1.00  0.00    -0.000 C 
BRANCH  15  16
ATOM     16  C   UNL     1       4.984 -38.964  22.876  1.00  0.00    -0.000 C 
BRANCH  16  17
ATOM     17  C   UNL     1       5.485 -39.964  21.818  1.00  0.00    -0.000 C 
BRANCH  17  18
ATOM     18  C   UNL     1       6.065 -41.248  22.439  1.00  0.00    -0.000 C 
BRANCH  18  19
ATOM     19  C   UNL     1       5.629 -41.516  23.891  1.00  0.00    -0.003 C 
ATOM     20  C   UNL     1       5.926 -42.942  24.349  1.00  0.00     0.004 C 
ENDBRANCH  18  19
ENDBRANCH  17  18
ENDBRANCH  16  17
ENDBRANCH  15  16
ENDBRANCH  14  15
ENDBRANCH  13  14
ENDBRANCH  12  13
ENDBRANCH   1  12
TORSDOF 16
ENDMDL
