MODEL 1
REMARK VINA RESULT:    -3.477      0.000      0.000
REMARK INTER + INTRA:          -7.004
REMARK INTER:                  -5.510
REMARK INTRA:                  -1.494
REMARK UNBOUND:                -1.494
REMARK SMILES CCCCCCCCCCCC(=O)[O-]
REMARK SMILES IDX 7 1 8 2 9 3 10 4 11 5 12 6 13 7 14 8 6 9 5 10 4 11 3 12 2 13
REMARK SMILES IDX 1 14
REMARK H PARENT
REMARK Flexibility Score: inf
ROOT
ATOM      1  C   UNL     1     -13.161   7.758 -21.234  1.00  0.00     0.000 C 
ENDROOT
BRANCH   1   2
ATOM      2  C   UNL     1     -12.574   8.347 -19.943  1.00  0.00     0.000 C 
BRANCH   2   3
ATOM      3  C   UNL     1     -11.523   9.437 -20.212  1.00  0.00     0.000 C 
BRANCH   3   4
ATOM      4  C   UNL     1     -10.106   9.008 -19.794  1.00  0.00     0.006 C 
BRANCH   4   5
ATOM      5  C   UNL     1     -10.103   8.230 -18.471  1.00  0.00     0.053 C 
BRANCH   5   6
ATOM      6  C   UNL     1      -8.958   8.627 -17.592  1.00  0.00     0.041 C 
ATOM      7  O   UNL     1      -9.168   9.277 -16.533  1.00  0.00    -0.550 OA
ATOM      8  O   UNL     1      -7.662   8.256 -17.925  1.00  0.00    -0.550 OA
ENDBRANCH   5   6
ENDBRANCH   4   5
ENDBRANCH   3   4
ENDBRANCH   2   3
ENDBRANCH   1   2
BRANCH   1   9
ATOM      9  C   UNL     1     -12.374   6.520 -21.680  1.00  0.00     0.000 C 
BRANCH   9  10
ATOM     10  C   UNL     1     -11.940   5.678 -20.471  1.00  0.00    -0.000 C 
BRANCH  10  11
ATOM     11  C   UNL     1     -10.657   4.867 -20.733  1.00  0.00    -0.000 C 
BRANCH  11  12
ATOM     12  C   UNL     1      -9.571   5.610 -21.534  1.00  0.00    -0.000 C 
BRANCH  12  13
ATOM     13  C   UNL     1      -8.309   5.897 -20.708  1.00  0.00    -0.003 C 
ATOM     14  C   UNL     1      -8.287   5.061 -19.432  1.00  0.00     0.004 C 
ENDBRANCH  12  13
ENDBRANCH  11  12
ENDBRANCH  10  11
ENDBRANCH   9  10
ENDBRANCH   1   9
TORSDOF 10
ENDMDL
MODEL 2
REMARK VINA RESULT:    -3.413      2.198      3.418
REMARK INTER + INTRA:          -6.902
REMARK INTER:                  -5.264
REMARK INTRA:                  -1.638
REMARK UNBOUND:                -1.494
REMARK SMILES CCCCCCCCCCCC(=O)[O-]
REMARK SMILES IDX 7 1 8 2 9 3 10 4 11 5 12 6 13 7 14 8 6 9 5 10 4 11 3 12 2 13
REMARK SMILES IDX 1 14
REMARK H PARENT
REMARK Flexibility Score: inf
ROOT
ATOM      1  C   UNL     1     -12.935   8.344 -20.010  1.00  0.00     0.000 C 
ENDROOT
BRANCH   1   2
ATOM      2  C   UNL     1     -11.877   7.494 -19.292  1.00  0.00     0.000 C 
BRANCH   2   3
ATOM      3  C   UNL     1     -10.659   8.318 -18.844  1.00  0.00     0.000 C 
BRANCH   3   4
ATOM      4  C   UNL     1      -9.457   7.436 -18.463  1.00  0.00     0.006 C 
BRANCH   4   5
ATOM      5  C   UNL     1      -8.759   6.845 -19.695  1.00  0.00     0.053 C 
BRANCH   5   6
ATOM      6  C   UNL     1      -8.806   5.348 -19.699  1.00  0.00     0.041 C 
ATOM      7  O   UNL     1      -7.898   4.684 -19.132  1.00  0.00    -0.550 OA
ATOM      8  O   UNL     1      -9.869   4.687 -20.301  1.00  0.00    -0.550 OA
ENDBRANCH   5   6
ENDBRANCH   4   5
ENDBRANCH   3   4
ENDBRANCH   2   3
ENDBRANCH   1   2
BRANCH   1   9
ATOM      9  C   UNL     1     -13.054   7.941 -21.486  1.00  0.00     0.000 C 
BRANCH   9  10
ATOM     10  C   UNL     1     -12.208   6.696 -21.786  1.00  0.00    -0.000 C 
BRANCH  10  11
ATOM     11  C   UNL     1     -11.066   6.972 -22.782  1.00  0.00    -0.000 C 
BRANCH  11  12
ATOM     12  C   UNL     1     -10.859   8.456 -23.138  1.00  0.00    -0.000 C 
BRANCH  12  13
ATOM     13  C   UNL     1      -9.647   9.078 -22.430  1.00  0.00    -0.003 C 
ATOM     14  C   UNL     1     -10.016  10.404 -21.772  1.00  0.00     0.004 C 
ENDBRANCH  12  13
ENDBRANCH  11  12
ENDBRANCH  10  11
ENDBRANCH   9  10
ENDBRANCH   1   9
TORSDOF 10
ENDMDL
MODEL 3
REMARK VINA RESULT:    -3.398      2.368      3.914
REMARK INTER + INTRA:          -6.879
REMARK INTER:                  -5.390
REMARK INTRA:                  -1.489
REMARK UNBOUND:                -1.494
REMARK SMILES CCCCCCCCCCCC(=O)[O-]
REMARK SMILES IDX 7 1 8 2 9 3 10 4 11 5 12 6 13 7 14 8 6 9 5 10 4 11 3 12 2 13
REMARK SMILES IDX 1 14
REMARK H PARENT
REMARK Flexibility Score: inf
ROOT
ATOM      1  C   UNL     1     -11.085   9.251 -19.159  1.00  0.00     0.000 C 
ENDROOT
BRANCH   1   2
ATOM      2  C   UNL     1      -9.892   8.699 -18.365  1.00  0.00     0.000 C 
BRANCH   2   3
ATOM      3  C   UNL     1      -9.750   7.174 -18.493  1.00  0.00     0.000 C 
BRANCH   3   4
ATOM      4  C   UNL     1      -8.513   6.761 -19.310  1.00  0.00     0.006 C 
BRANCH   4   5
ATOM      5  C   UNL     1      -8.437   5.243 -19.519  1.00  0.00     0.053 C 
BRANCH   5   6
ATOM      6  C   UNL     1      -7.457   4.875 -20.589  1.00  0.00     0.041 C 
ATOM      7  O   UNL     1      -7.266   5.647 -21.566  1.00  0.00    -0.550 OA
ATOM      8  O   UNL     1      -6.732   3.694 -20.494  1.00  0.00    -0.550 OA
ENDBRANCH   5   6
ENDBRANCH   4   5
ENDBRANCH   3   4
ENDBRANCH   2   3
ENDBRANCH   1   2
BRANCH   1   9
ATOM      9  C   UNL     1     -12.200   8.204 -19.275  1.00  0.00     0.000 C 
BRANCH   9  10
ATOM     10  C   UNL     1     -13.104   8.493 -20.482  1.00  0.00    -0.000 C 
BRANCH  10  11
ATOM     11  C   UNL     1     -13.065   7.377 -21.543  1.00  0.00    -0.000 C 
BRANCH  11  12
ATOM     12  C   UNL     1     -11.950   6.333 -21.346  1.00  0.00    -0.000 C 
BRANCH  12  13
ATOM     13  C   UNL     1     -10.920   6.336 -22.485  1.00  0.00    -0.003 C 
ATOM     14  C   UNL     1     -10.103   7.625 -22.484  1.00  0.00     0.004 C 
ENDBRANCH  12  13
ENDBRANCH  11  12
ENDBRANCH  10  11
ENDBRANCH   9  10
ENDBRANCH   1   9
TORSDOF 10
ENDMDL
MODEL 4
REMARK VINA RESULT:    -3.392      1.921      2.786
REMARK INTER + INTRA:          -6.868
REMARK INTER:                  -5.747
REMARK INTRA:                  -1.121
REMARK UNBOUND:                -1.494
REMARK SMILES CCCCCCCCCCCC(=O)[O-]
REMARK SMILES IDX 7 1 8 2 9 3 10 4 11 5 12 6 13 7 14 8 6 9 5 10 4 11 3 12 2 13
REMARK SMILES IDX 1 14
REMARK H PARENT
REMARK Flexibility Score: inf
ROOT
ATOM      1  C   UNL     1     -12.115   8.514 -19.502  1.00  0.00     0.000 C 
ENDROOT
BRANCH   1   2
ATOM      2  C   UNL     1     -10.898   9.246 -18.916  1.00  0.00     0.000 C 
BRANCH   2   3
ATOM      3  C   UNL     1      -9.807   8.282 -18.423  1.00  0.00     0.000 C 
BRANCH   3   4
ATOM      4  C   UNL     1      -9.044   8.827 -17.203  1.00  0.00     0.006 C 
BRANCH   4   5
ATOM      5  C   UNL     1      -9.013  10.361 -17.177  1.00  0.00     0.053 C 
BRANCH   5   6
ATOM      6  C   UNL     1      -8.201  10.884 -16.033  1.00  0.00     0.041 C 
ATOM      7  O   UNL     1      -8.390  10.443 -14.869  1.00  0.00    -0.550 OA
ATOM      8  O   UNL     1      -7.215  11.836 -16.257  1.00  0.00    -0.550 OA
ENDBRANCH   5   6
ENDBRANCH   4   5
ENDBRANCH   3   4
ENDBRANCH   2   3
ENDBRANCH   1   2
BRANCH   1   9
ATOM      9  C   UNL     1     -12.027   7.005 -19.238  1.00  0.00     0.000 C 
BRANCH   9  10
ATOM     10  C   UNL     1     -12.182   6.208 -20.542  1.00  0.00    -0.000 C 
BRANCH  10  11
ATOM     11  C   UNL     1     -12.496   7.101 -21.757  1.00  0.00    -0.000 C 
BRANCH  11  12
ATOM     12  C   UNL     1     -11.405   7.125 -22.844  1.00  0.00    -0.000 C 
BRANCH  12  13
ATOM     13  C   UNL     1      -9.996   6.883 -22.284  1.00  0.00    -0.003 C 
ATOM     14  C   UNL     1      -9.219   8.190 -22.168  1.00  0.00     0.004 C 
ENDBRANCH  12  13
ENDBRANCH  11  12
ENDBRANCH  10  11
ENDBRANCH   9  10
ENDBRANCH   1   9
TORSDOF 10
ENDMDL
MODEL 5
REMARK VINA RESULT:    -3.345      2.482      4.225
REMARK INTER + INTRA:          -6.794
REMARK INTER:                  -5.749
REMARK INTRA:                  -1.045
REMARK UNBOUND:                -1.494
REMARK SMILES CCCCCCCCCCCC(=O)[O-]
REMARK SMILES IDX 7 1 8 2 9 3 10 4 11 5 12 6 13 7 14 8 6 9 5 10 4 11 3 12 2 13
REMARK SMILES IDX 1 14
REMARK H PARENT
REMARK Flexibility Score: inf
ROOT
ATOM      1  C   UNL     1     -10.207   7.992 -18.410  1.00  0.00     0.000 C 
ENDROOT
BRANCH   1   2
ATOM      2  C   UNL     1     -10.881   9.239 -19.001  1.00  0.00     0.000 C 
BRANCH   2   3
ATOM      3  C   UNL     1     -11.418   9.005 -20.422  1.00  0.00     0.000 C 
BRANCH   3   4
ATOM      4  C   UNL     1     -12.846   8.431 -20.427  1.00  0.00     0.006 C 
BRANCH   4   5
ATOM      5  C   UNL     1     -13.041   7.375 -21.524  1.00  0.00     0.053 C 
BRANCH   5   6
ATOM      6  C   UNL     1     -12.153   6.186 -21.318  1.00  0.00     0.041 C 
ATOM      7  O   UNL     1     -12.298   5.456 -20.302  1.00  0.00    -0.550 OA
ATOM      8  O   UNL     1     -11.187   5.867 -22.263  1.00  0.00    -0.550 OA
ENDBRANCH   5   6
ENDBRANCH   4   5
ENDBRANCH   3   4
ENDBRANCH   2   3
ENDBRANCH   1   2
BRANCH   1   9
ATOM      9  C   UNL     1      -9.038   8.380 -17.496  1.00  0.00     0.000 C 
BRANCH   9  10
ATOM     10  C   UNL     1      -7.760   8.626 -18.312  1.00  0.00    -0.000 C 
BRANCH  10  11
ATOM     11  C   UNL     1      -7.063   7.323 -18.743  1.00  0.00    -0.000 C 
BRANCH  11  12
ATOM     12  C   UNL     1      -7.088   7.043 -20.257  1.00  0.00    -0.000 C 
BRANCH  12  13
ATOM     13  C   UNL     1      -7.908   5.797 -20.621  1.00  0.00    -0.003 C 
ATOM     14  C   UNL     1      -8.288   5.005 -19.374  1.00  0.00     0.004 C 
ENDBRANCH  12  13
ENDBRANCH  11  12
ENDBRANCH  10  11
ENDBRANCH   9  10
ENDBRANCH   1   9
TORSDOF 10
ENDMDL
MODEL 6
REMARK VINA RESULT:    -3.314      1.742      3.744
REMARK INTER + INTRA:          -6.745
REMARK INTER:                  -5.654
REMARK INTRA:                  -1.091
REMARK UNBOUND:                -1.494
REMARK SMILES CCCCCCCCCCCC(=O)[O-]
REMARK SMILES IDX 7 1 8 2 9 3 10 4 11 5 12 6 13 7 14 8 6 9 5 10 4 11 3 12 2 13
REMARK SMILES IDX 1 14
REMARK H PARENT
REMARK Flexibility Score: inf
ROOT
ATOM      1  C   UNL     1      -8.152   6.806 -19.810  1.00  0.00     0.000 C 
ENDROOT
BRANCH   1   2
ATOM      2  C   UNL     1      -8.256   8.196 -19.164  1.00  0.00     0.000 C 
BRANCH   2   3
ATOM      3  C   UNL     1      -9.177   8.211 -17.934  1.00  0.00     0.000 C 
BRANCH   3   4
ATOM      4  C   UNL     1      -9.409   9.630 -17.386  1.00  0.00     0.006 C 
BRANCH   4   5
ATOM      5  C   UNL     1      -8.095  10.398 -17.193  1.00  0.00     0.053 C 
BRANCH   5   6
ATOM      6  C   UNL     1      -7.987  10.983 -15.818  1.00  0.00     0.041 C 
ATOM      7  O   UNL     1      -8.484  10.377 -14.832  1.00  0.00    -0.550 OA
ATOM      8  O   UNL     1      -7.313  12.181 -15.622  1.00  0.00    -0.550 OA
ENDBRANCH   5   6
ENDBRANCH   4   5
ENDBRANCH   3   4
ENDBRANCH   2   3
ENDBRANCH   1   2
BRANCH   1   9
ATOM      9  C   UNL     1      -9.282   5.889 -19.325  1.00  0.00     0.000 C 
BRANCH   9  10
ATOM     10  C   UNL     1      -9.886   5.095 -20.493  1.00  0.00    -0.000 C 
BRANCH  10  11
ATOM     11  C   UNL     1     -11.332   5.513 -20.818  1.00  0.00    -0.000 C 
BRANCH  11  12
ATOM     12  C   UNL     1     -11.987   6.448 -19.785  1.00  0.00    -0.000 C 
BRANCH  12  13
ATOM     13  C   UNL     1     -12.469   7.771 -20.397  1.00  0.00    -0.003 C 
ATOM     14  C   UNL     1     -12.630   8.845 -19.325  1.00  0.00     0.004 C 
ENDBRANCH  12  13
ENDBRANCH  11  12
ENDBRANCH  10  11
ENDBRANCH   9  10
ENDBRANCH   1   9
TORSDOF 10
ENDMDL
MODEL 7
REMARK VINA RESULT:    -3.300      2.265      3.951
REMARK INTER + INTRA:          -6.723
REMARK INTER:                  -5.400
REMARK INTRA:                  -1.323
REMARK UNBOUND:                -1.494
REMARK SMILES CCCCCCCCCCCC(=O)[O-]
REMARK SMILES IDX 7 1 8 2 9 3 10 4 11 5 12 6 13 7 14 8 6 9 5 10 4 11 3 12 2 13
REMARK SMILES IDX 1 14
REMARK H PARENT
REMARK Flexibility Score: inf
ROOT
ATOM      1  C   UNL     1     -12.911   8.492 -20.459  1.00  0.00     0.000 C 
ENDROOT
BRANCH   1   2
ATOM      2  C   UNL     1     -13.110   7.385 -21.505  1.00  0.00     0.000 C 
BRANCH   2   3
ATOM      3  C   UNL     1     -12.331   6.103 -21.167  1.00  0.00     0.000 C 
BRANCH   3   4
ATOM      4  C   UNL     1     -11.547   5.552 -22.371  1.00  0.00     0.006 C 
BRANCH   4   5
ATOM      5  C   UNL     1     -10.915   6.671 -23.210  1.00  0.00     0.053 C 
BRANCH   5   6
ATOM      6  C   UNL     1      -9.637   7.166 -22.608  1.00  0.00     0.041 C 
ATOM      7  O   UNL     1      -8.607   6.442 -22.624  1.00  0.00    -0.550 OA
ATOM      8  O   UNL     1      -9.574   8.439 -22.056  1.00  0.00    -0.550 OA
ENDBRANCH   5   6
ENDBRANCH   4   5
ENDBRANCH   3   4
ENDBRANCH   2   3
ENDBRANCH   1   2
BRANCH   1   9
ATOM      9  C   UNL     1     -12.071   7.989 -19.279  1.00  0.00     0.000 C 
BRANCH   9  10
ATOM     10  C   UNL     1     -10.976   9.001 -18.910  1.00  0.00    -0.000 C 
BRANCH  10  11
ATOM     11  C   UNL     1      -9.681   8.331 -18.415  1.00  0.00    -0.000 C 
BRANCH  11  12
ATOM     12  C   UNL     1      -9.491   6.872 -18.868  1.00  0.00    -0.000 C 
BRANCH  12  13
ATOM     13  C   UNL     1      -8.026   6.527 -19.175  1.00  0.00    -0.003 C 
ATOM     14  C   UNL     1      -7.089   7.629 -18.688  1.00  0.00     0.004 C 
ENDBRANCH  12  13
ENDBRANCH  11  12
ENDBRANCH  10  11
ENDBRANCH   9  10
ENDBRANCH   1   9
TORSDOF 10
ENDMDL
MODEL 8
REMARK VINA RESULT:    -3.299      2.626      5.096
REMARK INTER + INTRA:          -6.721
REMARK INTER:                  -5.321
REMARK INTRA:                  -1.400
REMARK UNBOUND:                -1.494
REMARK SMILES CCCCCCCCCCCC(=O)[O-]
REMARK SMILES IDX 7 1 8 2 9 3 10 4 11 5 12 6 13 7 14 8 6 9 5 10 4 11 3 12 2 13
REMARK SMILES IDX 1 14
REMARK H PARENT
REMARK Flexibility Score: inf
ROOT
ATOM      1  C   UNL     1      -9.251   8.517 -17.794  1.00  0.00     0.000 C 
ENDROOT
BRANCH   1   2
ATOM      2  C   UNL     1      -7.792   8.205 -18.158  1.00  0.00     0.000 C 
BRANCH   2   3
ATOM      3  C   UNL     1      -7.665   7.028 -19.139  1.00  0.00     0.000 C 
BRANCH   3   4
ATOM      4  C   UNL     1      -8.935   6.163 -19.193  1.00  0.00     0.006 C 
BRANCH   4   5
ATOM      5  C   UNL     1      -8.838   5.056 -20.252  1.00  0.00     0.053 C 
BRANCH   5   6
ATOM      6  C   UNL     1     -10.092   4.948 -21.063  1.00  0.00     0.041 C 
ATOM      7  O   UNL     1     -10.137   5.432 -22.226  1.00  0.00    -0.550 OA
ATOM      8  O   UNL     1     -11.199   4.287 -20.549  1.00  0.00    -0.550 OA
ENDBRANCH   5   6
ENDBRANCH   4   5
ENDBRANCH   3   4
ENDBRANCH   2   3
ENDBRANCH   1   2
BRANCH   1   9
ATOM      9  C   UNL     1      -9.622   9.952 -18.188  1.00  0.00     0.000 C 
BRANCH   9  10
ATOM     10  C   UNL     1      -9.549  10.141 -19.710  1.00  0.00    -0.000 C 
BRANCH  10  11
ATOM     11  C   UNL     1     -10.916   9.980 -20.401  1.00  0.00    -0.000 C 
BRANCH  11  12
ATOM     12  C   UNL     1     -11.225   8.559 -20.908  1.00  0.00    -0.000 C 
BRANCH  12  13
ATOM     13  C   UNL     1     -12.223   7.809 -20.013  1.00  0.00    -0.003 C 
ATOM     14  C   UNL     1     -13.173   8.780 -19.317  1.00  0.00     0.004 C 
ENDBRANCH  12  13
ENDBRANCH  11  12
ENDBRANCH  10  11
ENDBRANCH   9  10
ENDBRANCH   1   9
TORSDOF 10
ENDMDL
MODEL 9
REMARK VINA RESULT:    -3.295      2.878      4.397
REMARK INTER + INTRA:          -6.714
REMARK INTER:                  -5.099
REMARK INTRA:                  -1.616
REMARK UNBOUND:                -1.494
REMARK SMILES CCCCCCCCCCCC(=O)[O-]
REMARK SMILES IDX 7 1 8 2 9 3 10 4 11 5 12 6 13 7 14 8 6 9 5 10 4 11 3 12 2 13
REMARK SMILES IDX 1 14
REMARK H PARENT
REMARK Flexibility Score: inf
ROOT
ATOM      1  C   UNL     1      -8.436   8.818 -18.446  1.00  0.00     0.000 C 
ENDROOT
BRANCH   1   2
ATOM      2  C   UNL     1      -9.871   8.273 -18.392  1.00  0.00     0.000 C 
BRANCH   2   3
ATOM      3  C   UNL     1     -10.913   9.299 -18.866  1.00  0.00     0.000 C 
BRANCH   3   4
ATOM      4  C   UNL     1     -12.176   8.636 -19.442  1.00  0.00     0.006 C 
BRANCH   4   5
ATOM      5  C   UNL     1     -12.028   7.113 -19.561  1.00  0.00     0.053 C 
BRANCH   5   6
ATOM      6  C   UNL     1     -12.507   6.607 -20.886  1.00  0.00     0.041 C 
ATOM      7  O   UNL     1     -13.248   7.326 -21.608  1.00  0.00    -0.550 OA
ATOM      8  O   UNL     1     -12.112   5.355 -21.338  1.00  0.00    -0.550 OA
ENDBRANCH   5   6
ENDBRANCH   4   5
ENDBRANCH   3   4
ENDBRANCH   2   3
ENDBRANCH   1   2
BRANCH   1   9
ATOM      9  C   UNL     1      -7.416   7.674 -18.511  1.00  0.00     0.000 C 
BRANCH   9  10
ATOM     10  C   UNL     1      -7.995   6.462 -19.255  1.00  0.00    -0.000 C 
BRANCH  10  11
ATOM     11  C   UNL     1      -7.685   6.481 -20.764  1.00  0.00    -0.000 C 
BRANCH  11  12
ATOM     12  C   UNL     1      -8.868   6.883 -21.665  1.00  0.00    -0.000 C 
BRANCH  12  13
ATOM     13  C   UNL     1      -8.799   8.346 -22.124  1.00  0.00    -0.003 C 
ATOM     14  C   UNL     1     -10.159   8.832 -22.615  1.00  0.00     0.004 C 
ENDBRANCH  12  13
ENDBRANCH  11  12
ENDBRANCH  10  11
ENDBRANCH   9  10
ENDBRANCH   1   9
TORSDOF 10
ENDMDL
