MODEL 1
REMARK VINA RESULT:     0.319      0.000      0.000
REMARK INTER + INTRA:          -0.543
REMARK INTER:                   0.841
REMARK INTRA:                  -1.384
REMARK UNBOUND:                -1.384
REMARK SMILES CCCCCCCCCCCCCCCCCCCCCCCCCCCCCC(=O)[O-]
REMARK SMILES IDX 16 1 17 2 18 3 19 4 20 5 21 6 22 7 23 8 24 9 25 10 26 11
REMARK SMILES IDX 27 12 28 13 29 14 30 15 31 16 32 17 15 18 14 19 13 20 12 21
REMARK SMILES IDX 11 22 10 23 9 24 8 25 7 26 6 27 5 28 4 29 3 30 2 31 1 32
REMARK H PARENT
REMARK Flexibility Score: inf
ROOT
ATOM      1  C   UNL     1     -11.958 -10.247   4.984  1.00  0.00     0.000 C 
ENDROOT
BRANCH   1   2
ATOM      2  C   UNL     1     -12.120  -9.966   3.480  1.00  0.00     0.000 C 
BRANCH   2   3
ATOM      3  C   UNL     1     -11.331 -10.952   2.601  1.00  0.00     0.000 C 
BRANCH   3   4
ATOM      4  C   UNL     1     -11.895 -11.043   1.172  1.00  0.00     0.000 C 
BRANCH   4   5
ATOM      5  C   UNL     1     -11.912  -9.682   0.455  1.00  0.00     0.000 C 
BRANCH   5   6
ATOM      6  C   UNL     1     -11.804  -9.816  -1.072  1.00  0.00     0.000 C 
BRANCH   6   7
ATOM      7  C   UNL     1     -10.957 -11.035  -1.461  1.00  0.00     0.000 C 
BRANCH   7   8
ATOM      8  C   UNL     1     -11.765 -12.018  -2.316  1.00  0.00     0.000 C 
BRANCH   8   9
ATOM      9  C   UNL     1     -11.590 -11.718  -3.812  1.00  0.00     0.000 C 
BRANCH   9  10
ATOM     10  C   UNL     1     -10.126 -11.453  -4.200  1.00  0.00     0.000 C 
BRANCH  10  11
ATOM     11  C   UNL     1      -9.750  -9.965  -4.335  1.00  0.00     0.000 C 
BRANCH  11  12
ATOM     12  C   UNL     1      -9.625  -9.485  -5.797  1.00  0.00     0.000 C 
BRANCH  12  13
ATOM     13  C   UNL     1      -8.347  -8.661  -6.032  1.00  0.00     0.006 C 
BRANCH  13  14
ATOM     14  C   UNL     1      -7.261  -8.966  -4.993  1.00  0.00     0.053 C 
BRANCH  14  15
ATOM     15  C   UNL     1      -6.321 -10.029  -5.475  1.00  0.00     0.041 C 
ATOM     16  O   UNL     1      -5.079  -9.897  -5.317  1.00  0.00    -0.550 OA
ATOM     17  O   UNL     1      -6.816 -11.152  -6.124  1.00  0.00    -0.550 OA
ENDBRANCH  14  15
ENDBRANCH  13  14
ENDBRANCH  12  13
ENDBRANCH  11  12
ENDBRANCH  10  11
ENDBRANCH   9  10
ENDBRANCH   8   9
ENDBRANCH   7   8
ENDBRANCH   6   7
ENDBRANCH   5   6
ENDBRANCH   4   5
ENDBRANCH   3   4
ENDBRANCH   2   3
ENDBRANCH   1   2
BRANCH   1  18
ATOM     18  C   UNL     1     -11.989 -11.747   5.318  1.00  0.00     0.000 C 
BRANCH  18  19
ATOM     19  C   UNL     1     -12.096 -12.090   6.816  1.00  0.00     0.000 C 
BRANCH  19  20
ATOM     20  C   UNL     1     -12.021 -10.867   7.754  1.00  0.00     0.000 C 
BRANCH  20  21
ATOM     21  C   UNL     1     -11.074 -11.085   8.949  1.00  0.00     0.000 C 
BRANCH  21  22
ATOM     22  C   UNL     1     -11.662 -12.030  10.008  1.00  0.00     0.000 C 
BRANCH  22  23
ATOM     23  C   UNL     1     -11.083 -11.792  11.410  1.00  0.00     0.000 C 
BRANCH  23  24
ATOM     24  C   UNL     1     -12.121 -12.118  12.494  1.00  0.00    -0.000 C 
BRANCH  24  25
ATOM     25  C   UNL     1     -11.728 -11.563  13.872  1.00  0.00    -0.000 C 
BRANCH  25  26
ATOM     26  C   UNL     1     -10.698 -10.422  13.772  1.00  0.00    -0.000 C 
BRANCH  26  27
ATOM     27  C   UNL     1     -11.326  -9.041  14.018  1.00  0.00    -0.000 C 
BRANCH  27  28
ATOM     28  C   UNL     1     -10.725  -7.951  13.120  1.00  0.00    -0.000 C 
BRANCH  28  29
ATOM     29  C   UNL     1     -10.984  -8.259  11.637  1.00  0.00    -0.000 C 
BRANCH  29  30
ATOM     30  C   UNL     1      -9.691  -8.529  10.847  1.00  0.00    -0.000 C 
BRANCH  30  31
ATOM     31  C   UNL     1      -9.852  -8.492   9.317  1.00  0.00    -0.003 C 
ATOM     32  C   UNL     1      -9.408  -7.166   8.700  1.00  0.00     0.004 C 
ENDBRANCH  30  31
ENDBRANCH  29  30
ENDBRANCH  28  29
ENDBRANCH  27  28
ENDBRANCH  26  27
ENDBRANCH  25  26
ENDBRANCH  24  25
ENDBRANCH  23  24
ENDBRANCH  22  23
ENDBRANCH  21  22
ENDBRANCH  20  21
ENDBRANCH  19  20
ENDBRANCH  18  19
ENDBRANCH   1  18
TORSDOF 28
ENDMDL
MODEL 2
REMARK VINA RESULT:     1.127      3.913     13.893
REMARK INTER + INTRA:           1.588
REMARK INTER:                   2.032
REMARK INTRA:                  -0.444
REMARK UNBOUND:                -1.384
REMARK SMILES CCCCCCCCCCCCCCCCCCCCCCCCCCCCCC(=O)[O-]
REMARK SMILES IDX 16 1 17 2 18 3 19 4 20 5 21 6 22 7 23 8 24 9 25 10 26 11
REMARK SMILES IDX 27 12 28 13 29 14 30 15 31 16 32 17 15 18 14 19 13 20 12 21
REMARK SMILES IDX 11 22 10 23 9 24 8 25 7 26 6 27 5 28 4 29 3 30 2 31 1 32
REMARK H PARENT
REMARK Flexibility Score: inf
ROOT
ATOM      1  C   UNL     1     -11.932  -9.350   4.458  1.00  0.00     0.000 C 
ENDROOT
BRANCH   1   2
ATOM      2  C   UNL     1     -12.109 -10.477   5.491  1.00  0.00     0.000 C 
BRANCH   2   3
ATOM      3  C   UNL     1     -10.959 -11.497   5.463  1.00  0.00     0.000 C 
BRANCH   3   4
ATOM      4  C   UNL     1      -9.942 -11.264   6.595  1.00  0.00     0.000 C 
BRANCH   4   5
ATOM      5  C   UNL     1     -10.334 -11.980   7.898  1.00  0.00     0.000 C 
BRANCH   5   6
ATOM      6  C   UNL     1     -11.826 -11.826   8.233  1.00  0.00     0.000 C 
BRANCH   6   7
ATOM      7  C   UNL     1     -12.019 -11.229   9.634  1.00  0.00     0.000 C 
BRANCH   7   8
ATOM      8  C   UNL     1     -11.387 -12.124  10.707  1.00  0.00     0.000 C 
BRANCH   8   9
ATOM      9  C   UNL     1     -12.026 -11.871  12.080  1.00  0.00     0.000 C 
BRANCH   9  10
ATOM     10  C   UNL     1     -11.007 -11.419  13.138  1.00  0.00     0.000 C 
BRANCH  10  11
ATOM     11  C   UNL     1     -10.734  -9.903  13.170  1.00  0.00     0.000 C 
BRANCH  11  12
ATOM     12  C   UNL     1     -11.435  -9.121  12.038  1.00  0.00     0.000 C 
BRANCH  12  13
ATOM     13  C   UNL     1     -10.449  -8.263  11.226  1.00  0.00     0.006 C 
BRANCH  13  14
ATOM     14  C   UNL     1     -10.098  -8.902   9.877  1.00  0.00     0.053 C 
BRANCH  14  15
ATOM     15  C   UNL     1     -10.487  -8.019   8.731  1.00  0.00     0.041 C 
ATOM     16  O   UNL     1     -11.541  -8.250   8.082  1.00  0.00    -0.550 OA
ATOM     17  O   UNL     1      -9.670  -6.959   8.362  1.00  0.00    -0.550 OA
ENDBRANCH  14  15
ENDBRANCH  13  14
ENDBRANCH  12  13
ENDBRANCH  11  12
ENDBRANCH  10  11
ENDBRANCH   9  10
ENDBRANCH   8   9
ENDBRANCH   7   8
ENDBRANCH   6   7
ENDBRANCH   5   6
ENDBRANCH   4   5
ENDBRANCH   3   4
ENDBRANCH   2   3
ENDBRANCH   1   2
BRANCH   1  18
ATOM     18  C   UNL     1     -12.116  -9.834   3.011  1.00  0.00     0.000 C 
BRANCH  18  19
ATOM     19  C   UNL     1     -11.364 -11.127   2.643  1.00  0.00     0.000 C 
BRANCH  19  20
ATOM     20  C   UNL     1     -11.746 -11.713   1.267  1.00  0.00     0.000 C 
BRANCH  20  21
ATOM     21  C   UNL     1     -12.111 -10.629   0.235  1.00  0.00     0.000 C 
BRANCH  21  22
ATOM     22  C   UNL     1     -11.726 -11.022  -1.200  1.00  0.00     0.000 C 
BRANCH  22  23
ATOM     23  C   UNL     1     -12.028  -9.918  -2.224  1.00  0.00     0.000 C 
BRANCH  23  24
ATOM     24  C   UNL     1     -11.727 -10.398  -3.651  1.00  0.00    -0.000 C 
BRANCH  24  25
ATOM     25  C   UNL     1     -11.904  -9.284  -4.696  1.00  0.00    -0.000 C 
BRANCH  25  26
ATOM     26  C   UNL     1     -11.270  -9.646  -6.052  1.00  0.00    -0.000 C 
BRANCH  26  27
ATOM     27  C   UNL     1     -10.483 -10.965  -5.998  1.00  0.00    -0.000 C 
BRANCH  27  28
ATOM     28  C   UNL     1      -8.968 -10.754  -6.125  1.00  0.00    -0.000 C 
BRANCH  28  29
ATOM     29  C   UNL     1      -8.302 -10.726  -4.741  1.00  0.00    -0.000 C 
BRANCH  29  30
ATOM     30  C   UNL     1      -6.980  -9.937  -4.728  1.00  0.00    -0.000 C 
BRANCH  30  31
ATOM     31  C   UNL     1      -5.995 -10.310  -5.850  1.00  0.00    -0.003 C 
ATOM     32  C   UNL     1      -4.957  -9.222  -6.120  1.00  0.00     0.004 C 
ENDBRANCH  30  31
ENDBRANCH  29  30
ENDBRANCH  28  29
ENDBRANCH  27  28
ENDBRANCH  26  27
ENDBRANCH  25  26
ENDBRANCH  24  25
ENDBRANCH  23  24
ENDBRANCH  22  23
ENDBRANCH  21  22
ENDBRANCH  20  21
ENDBRANCH  19  20
ENDBRANCH  18  19
ENDBRANCH   1  18
TORSDOF 28
ENDMDL
MODEL 3
REMARK VINA RESULT:     1.941      2.234      3.310
REMARK INTER + INTRA:           3.734
REMARK INTER:                   2.124
REMARK INTRA:                   1.610
REMARK UNBOUND:                -1.384
REMARK SMILES CCCCCCCCCCCCCCCCCCCCCCCCCCCCCC(=O)[O-]
REMARK SMILES IDX 16 1 17 2 18 3 19 4 20 5 21 6 22 7 23 8 24 9 25 10 26 11
REMARK SMILES IDX 27 12 28 13 29 14 30 15 31 16 32 17 15 18 14 19 13 20 12 21
REMARK SMILES IDX 11 22 10 23 9 24 8 25 7 26 6 27 5 28 4 29 3 30 2 31 1 32
REMARK H PARENT
REMARK Flexibility Score: inf
ROOT
ATOM      1  C   UNL     1      -7.737 -11.232   5.568  1.00  0.00     0.000 C 
ENDROOT
BRANCH   1   2
ATOM      2  C   UNL     1      -6.967 -12.031   4.502  1.00  0.00     0.000 C 
BRANCH   2   3
ATOM      3  C   UNL     1      -6.812 -11.262   3.179  1.00  0.00     0.000 C 
BRANCH   3   4
ATOM      4  C   UNL     1      -7.596 -11.917   2.027  1.00  0.00     0.000 C 
BRANCH   4   5
ATOM      5  C   UNL     1      -9.092 -12.074   2.345  1.00  0.00     0.000 C 
BRANCH   5   6
ATOM      6  C   UNL     1      -9.979 -11.156   1.488  1.00  0.00     0.000 C 
BRANCH   6   7
ATOM      7  C   UNL     1     -10.747 -11.962   0.431  1.00  0.00     0.000 C 
BRANCH   7   8
ATOM      8  C   UNL     1     -11.115 -11.084  -0.771  1.00  0.00     0.000 C 
BRANCH   8   9
ATOM      9  C   UNL     1     -10.982 -11.868  -2.085  1.00  0.00     0.000 C 
BRANCH   9  10
ATOM     10  C   UNL     1     -11.515 -11.090  -3.300  1.00  0.00     0.000 C 
BRANCH  10  11
ATOM     11  C   UNL     1     -10.883 -11.483  -4.649  1.00  0.00     0.000 C 
BRANCH  11  12
ATOM     12  C   UNL     1      -9.352 -11.669  -4.588  1.00  0.00     0.000 C 
BRANCH  12  13
ATOM     13  C   UNL     1      -8.632 -10.950  -5.743  1.00  0.00     0.006 C 
BRANCH  13  14
ATOM     14  C   UNL     1      -7.107 -10.971  -5.578  1.00  0.00     0.053 C 
BRANCH  14  15
ATOM     15  C   UNL     1      -6.521  -9.597  -5.696  1.00  0.00     0.041 C 
ATOM     16  O   UNL     1      -5.284  -9.421  -5.543  1.00  0.00    -0.550 OA
ATOM     17  O   UNL     1      -7.345  -8.509  -5.947  1.00  0.00    -0.550 OA
ENDBRANCH  14  15
ENDBRANCH  13  14
ENDBRANCH  12  13
ENDBRANCH  11  12
ENDBRANCH  10  11
ENDBRANCH   9  10
ENDBRANCH   8   9
ENDBRANCH   7   8
ENDBRANCH   6   7
ENDBRANCH   5   6
ENDBRANCH   4   5
ENDBRANCH   3   4
ENDBRANCH   2   3
ENDBRANCH   1   2
BRANCH   1  18
ATOM     18  C   UNL     1      -8.271 -12.116   6.707  1.00  0.00     0.000 C 
BRANCH  18  19
ATOM     19  C   UNL     1      -7.516 -12.002   8.045  1.00  0.00     0.000 C 
BRANCH  19  20
ATOM     20  C   UNL     1      -8.421 -12.079   9.293  1.00  0.00     0.000 C 
BRANCH  20  21
ATOM     21  C   UNL     1      -9.920 -11.973   8.953  1.00  0.00     0.000 C 
BRANCH  21  22
ATOM     22  C   UNL     1     -10.354 -10.536   8.625  1.00  0.00     0.000 C 
BRANCH  22  23
ATOM     23  C   UNL     1     -11.829 -10.266   8.959  1.00  0.00     0.000 C 
BRANCH  23  24
ATOM     24  C   UNL     1     -12.108 -10.521  10.447  1.00  0.00    -0.000 C 
BRANCH  24  25
ATOM     25  C   UNL     1     -11.802 -11.969  10.863  1.00  0.00    -0.000 C 
BRANCH  25  26
ATOM     26  C   UNL     1     -10.402 -12.115  11.487  1.00  0.00    -0.000 C 
BRANCH  26  27
ATOM     27  C   UNL     1     -10.210 -11.212  12.717  1.00  0.00    -0.000 C 
BRANCH  27  28
ATOM     28  C   UNL     1     -11.342 -11.364  13.743  1.00  0.00    -0.000 C 
BRANCH  28  29
ATOM     29  C   UNL     1     -11.931  -9.995  14.115  1.00  0.00    -0.000 C 
BRANCH  29  30
ATOM     30  C   UNL     1     -11.629  -8.908  13.069  1.00  0.00    -0.000 C 
BRANCH  30  31
ATOM     31  C   UNL     1     -10.843  -7.698  13.605  1.00  0.00    -0.003 C 
ATOM     32  C   UNL     1     -11.726  -6.478  13.864  1.00  0.00     0.004 C 
ENDBRANCH  30  31
ENDBRANCH  29  30
ENDBRANCH  28  29
ENDBRANCH  27  28
ENDBRANCH  26  27
ENDBRANCH  25  26
ENDBRANCH  24  25
ENDBRANCH  23  24
ENDBRANCH  22  23
ENDBRANCH  21  22
ENDBRANCH  20  21
ENDBRANCH  19  20
ENDBRANCH  18  19
ENDBRANCH   1  18
TORSDOF 28
ENDMDL
MODEL 4
REMARK VINA RESULT:     2.441      3.107      4.198
REMARK INTER + INTRA:           5.053
REMARK INTER:                   5.729
REMARK INTRA:                  -0.676
REMARK UNBOUND:                -1.384
REMARK SMILES CCCCCCCCCCCCCCCCCCCCCCCCCCCCCC(=O)[O-]
REMARK SMILES IDX 16 1 17 2 18 3 19 4 20 5 21 6 22 7 23 8 24 9 25 10 26 11
REMARK SMILES IDX 27 12 28 13 29 14 30 15 31 16 32 17 15 18 14 19 13 20 12 21
REMARK SMILES IDX 11 22 10 23 9 24 8 25 7 26 6 27 5 28 4 29 3 30 2 31 1 32
REMARK H PARENT
REMARK Flexibility Score: inf
ROOT
ATOM      1  C   UNL     1      -5.919 -10.117   4.171  1.00  0.00     0.000 C 
ENDROOT
BRANCH   1   2
ATOM      2  C   UNL     1      -5.166 -10.529   2.895  1.00  0.00     0.000 C 
BRANCH   2   3
ATOM      3  C   UNL     1      -5.513 -11.954   2.433  1.00  0.00     0.000 C 
BRANCH   3   4
ATOM      4  C   UNL     1      -6.516 -11.963   1.266  1.00  0.00     0.000 C 
BRANCH   4   5
ATOM      5  C   UNL     1      -7.938 -11.574   1.704  1.00  0.00     0.000 C 
BRANCH   5   6
ATOM      6  C   UNL     1      -9.012 -12.026   0.703  1.00  0.00     0.000 C 
BRANCH   6   7
ATOM      7  C   UNL     1      -9.798 -10.826   0.156  1.00  0.00     0.000 C 
BRANCH   7   8
ATOM      8  C   UNL     1     -10.323 -11.108  -1.256  1.00  0.00     0.000 C 
BRANCH   8   9
ATOM      9  C   UNL     1     -11.567 -10.260  -1.559  1.00  0.00     0.000 C 
BRANCH   9  10
ATOM     10  C   UNL     1     -11.882 -10.180  -3.062  1.00  0.00     0.000 C 
BRANCH  10  11
ATOM     11  C   UNL     1     -10.781 -10.734  -3.986  1.00  0.00     0.000 C 
BRANCH  11  12
ATOM     12  C   UNL     1      -9.568  -9.792  -4.143  1.00  0.00     0.000 C 
BRANCH  12  13
ATOM     13  C   UNL     1      -8.761 -10.089  -5.419  1.00  0.00     0.006 C 
BRANCH  13  14
ATOM     14  C   UNL     1      -7.751  -8.980  -5.738  1.00  0.00     0.053 C 
BRANCH  14  15
ATOM     15  C   UNL     1      -6.359  -9.522  -5.861  1.00  0.00     0.041 C 
ATOM     16  O   UNL     1      -5.376  -8.737  -5.916  1.00  0.00    -0.550 OA
ATOM     17  O   UNL     1      -6.151 -10.892  -5.943  1.00  0.00    -0.550 OA
ENDBRANCH  14  15
ENDBRANCH  13  14
ENDBRANCH  12  13
ENDBRANCH  11  12
ENDBRANCH  10  11
ENDBRANCH   9  10
ENDBRANCH   8   9
ENDBRANCH   7   8
ENDBRANCH   6   7
ENDBRANCH   5   6
ENDBRANCH   4   5
ENDBRANCH   3   4
ENDBRANCH   2   3
ENDBRANCH   1   2
BRANCH   1  18
ATOM     18  C   UNL     1      -6.288 -11.315   5.060  1.00  0.00     0.000 C 
BRANCH  18  19
ATOM     19  C   UNL     1      -5.289 -11.636   6.189  1.00  0.00     0.000 C 
BRANCH  19  20
ATOM     20  C   UNL     1      -5.947 -12.113   7.501  1.00  0.00     0.000 C 
BRANCH  20  21
ATOM     21  C   UNL     1      -7.481 -11.971   7.489  1.00  0.00     0.000 C 
BRANCH  21  22
ATOM     22  C   UNL     1      -7.943 -10.510   7.593  1.00  0.00     0.000 C 
BRANCH  22  23
ATOM     23  C   UNL     1      -9.462 -10.373   7.768  1.00  0.00     0.000 C 
BRANCH  23  24
ATOM     24  C   UNL     1     -10.047 -11.614   8.458  1.00  0.00    -0.000 C 
BRANCH  24  25
ATOM     25  C   UNL     1     -11.583 -11.582   8.522  1.00  0.00    -0.000 C 
BRANCH  25  26
ATOM     26  C   UNL     1     -12.124 -12.106   9.865  1.00  0.00    -0.000 C 
BRANCH  26  27
ATOM     27  C   UNL     1     -11.943 -11.093  11.007  1.00  0.00    -0.000 C 
BRANCH  27  28
ATOM     28  C   UNL     1     -10.567 -11.201  11.678  1.00  0.00    -0.000 C 
BRANCH  28  29
ATOM     29  C   UNL     1     -10.709 -11.291  13.206  1.00  0.00    -0.000 C 
BRANCH  29  30
ATOM     30  C   UNL     1     -10.667  -9.914  13.894  1.00  0.00    -0.000 C 
BRANCH  30  31
ATOM     31  C   UNL     1     -11.294  -8.768  13.080  1.00  0.00    -0.003 C 
ATOM     32  C   UNL     1     -11.955  -7.705  13.956  1.00  0.00     0.004 C 
ENDBRANCH  30  31
ENDBRANCH  29  30
ENDBRANCH  28  29
ENDBRANCH  27  28
ENDBRANCH  26  27
ENDBRANCH  25  26
ENDBRANCH  24  25
ENDBRANCH  23  24
ENDBRANCH  22  23
ENDBRANCH  21  22
ENDBRANCH  20  21
ENDBRANCH  19  20
ENDBRANCH  18  19
ENDBRANCH   1  18
TORSDOF 28
ENDMDL
MODEL 5
REMARK VINA RESULT:     2.744      5.853     13.443
REMARK INTER + INTRA:           5.851
REMARK INTER:                   7.043
REMARK INTRA:                  -1.192
REMARK UNBOUND:                -1.384
REMARK SMILES CCCCCCCCCCCCCCCCCCCCCCCCCCCCCC(=O)[O-]
REMARK SMILES IDX 16 1 17 2 18 3 19 4 20 5 21 6 22 7 23 8 24 9 25 10 26 11
REMARK SMILES IDX 27 12 28 13 29 14 30 15 31 16 32 17 15 18 14 19 13 20 12 21
REMARK SMILES IDX 11 22 10 23 9 24 8 25 7 26 6 27 5 28 4 29 3 30 2 31 1 32
REMARK H PARENT
REMARK Flexibility Score: inf
ROOT
ATOM      1  C   UNL     1      -5.803 -10.190   2.317  1.00  0.00     0.000 C 
ENDROOT
BRANCH   1   2
ATOM      2  C   UNL     1      -5.528  -9.803   3.780  1.00  0.00     0.000 C 
BRANCH   2   3
ATOM      3  C   UNL     1      -4.974 -10.972   4.611  1.00  0.00     0.000 C 
BRANCH   3   4
ATOM      4  C   UNL     1      -6.041 -11.596   5.528  1.00  0.00     0.000 C 
BRANCH   4   5
ATOM      5  C   UNL     1      -7.382 -11.816   4.809  1.00  0.00     0.000 C 
BRANCH   5   6
ATOM      6  C   UNL     1      -8.532 -12.123   5.782  1.00  0.00     0.000 C 
BRANCH   6   7
ATOM      7  C   UNL     1      -9.871 -11.613   5.232  1.00  0.00     0.000 C 
BRANCH   7   8
ATOM      8  C   UNL     1     -10.597 -10.744   6.265  1.00  0.00     0.000 C 
BRANCH   8   9
ATOM      9  C   UNL     1     -12.008 -11.284   6.543  1.00  0.00     0.000 C 
BRANCH   9  10
ATOM     10  C   UNL     1     -12.104 -12.044   7.876  1.00  0.00     0.000 C 
BRANCH  10  11
ATOM     11  C   UNL     1     -11.283 -11.436   9.030  1.00  0.00     0.000 C 
BRANCH  11  12
ATOM     12  C   UNL     1     -11.691 -11.955  10.425  1.00  0.00     0.000 C 
BRANCH  12  13
ATOM     13  C   UNL     1     -11.046 -11.142  11.561  1.00  0.00     0.006 C 
BRANCH  13  14
ATOM     14  C   UNL     1     -12.092 -10.476  12.464  1.00  0.00     0.053 C 
BRANCH  14  15
ATOM     15  C   UNL     1     -11.467  -9.474  13.385  1.00  0.00     0.041 C 
ATOM     16  O   UNL     1     -12.111  -8.453  13.742  1.00  0.00    -0.550 OA
ATOM     17  O   UNL     1     -10.163  -9.653  13.826  1.00  0.00    -0.550 OA
ENDBRANCH  14  15
ENDBRANCH  13  14
ENDBRANCH  12  13
ENDBRANCH  11  12
ENDBRANCH  10  11
ENDBRANCH   9  10
ENDBRANCH   8   9
ENDBRANCH   7   8
ENDBRANCH   6   7
ENDBRANCH   5   6
ENDBRANCH   4   5
ENDBRANCH   3   4
ENDBRANCH   2   3
ENDBRANCH   1   2
BRANCH   1  18
ATOM     18  C   UNL     1      -6.013 -11.702   2.129  1.00  0.00     0.000 C 
BRANCH  18  19
ATOM     19  C   UNL     1      -6.627 -12.123   0.780  1.00  0.00     0.000 C 
BRANCH  19  20
ATOM     20  C   UNL     1      -7.483 -11.031   0.104  1.00  0.00     0.000 C 
BRANCH  20  21
ATOM     21  C   UNL     1      -8.851 -10.834   0.784  1.00  0.00     0.000 C 
BRANCH  21  22
ATOM     22  C   UNL     1      -9.716 -12.104   0.757  1.00  0.00     0.000 C 
BRANCH  22  23
ATOM     23  C   UNL     1     -11.206 -11.817   0.989  1.00  0.00     0.000 C 
BRANCH  23  24
ATOM     24  C   UNL     1     -11.849 -11.209  -0.266  1.00  0.00    -0.000 C 
BRANCH  24  25
ATOM     25  C   UNL     1     -11.057 -11.527  -1.545  1.00  0.00    -0.000 C 
BRANCH  25  26
ATOM     26  C   UNL     1     -11.975 -11.865  -2.734  1.00  0.00    -0.000 C 
BRANCH  26  27
ATOM     27  C   UNL     1     -11.219 -11.888  -4.072  1.00  0.00    -0.000 C 
BRANCH  27  28
ATOM     28  C   UNL     1      -9.701 -11.747  -3.894  1.00  0.00    -0.000 C 
BRANCH  28  29
ATOM     29  C   UNL     1      -8.996 -11.650  -5.256  1.00  0.00    -0.000 C 
BRANCH  29  30
ATOM     30  C   UNL     1      -8.729 -10.198  -5.691  1.00  0.00    -0.000 C 
BRANCH  30  31
ATOM     31  C   UNL     1      -7.245  -9.853  -5.907  1.00  0.00    -0.003 C 
ATOM     32  C   UNL     1      -6.452  -9.781  -4.602  1.00  0.00     0.004 C 
ENDBRANCH  30  31
ENDBRANCH  29  30
ENDBRANCH  28  29
ENDBRANCH  27  28
ENDBRANCH  26  27
ENDBRANCH  25  26
ENDBRANCH  24  25
ENDBRANCH  23  24
ENDBRANCH  22  23
ENDBRANCH  21  22
ENDBRANCH  20  21
ENDBRANCH  19  20
ENDBRANCH  18  19
ENDBRANCH   1  18
TORSDOF 28
ENDMDL
