MODEL 1
REMARK VINA RESULT:    -5.675      0.000      0.000
REMARK INTER + INTRA:          -8.744
REMARK INTER:                  -7.665
REMARK INTRA:                  -1.079
REMARK UNBOUND:                -1.079
REMARK SMILES C=C[C@@](C)(CCC=C(C)C)OC(C)=O
REMARK SMILES IDX 3 1 4 2 5 3 6 4 7 5 9 6 8 7 10 8 2 9 1 10 11 11 12 12 14 13
REMARK SMILES IDX 13 14
REMARK H PARENT
REMARK Flexibility Score: inf
ROOT
ATOM      1  C   UNL     1      37.505   0.158  16.396  1.00  0.00     0.127 C 
ATOM      2  C   UNL     1      38.852  -0.503  16.014  1.00  0.00     0.061 C 
ENDROOT
BRANCH   1   3
ATOM      3  C   UNL     1      36.383  -0.195  15.375  1.00  0.00     0.057 C 
BRANCH   3   4
ATOM      4  C   UNL     1      35.315   0.889  15.156  1.00  0.00     0.032 C 
BRANCH   4   5
ATOM      5  C   UNL     1      33.996   0.455  15.745  1.00  0.00    -0.028 C 
ATOM      6  C   UNL     1      32.195   0.321  17.413  1.00  0.00     0.039 C 
ATOM      7  C   UNL     1      33.511   0.878  16.934  1.00  0.00    -0.080 C 
ATOM      8  C   UNL     1      34.238   1.898  17.779  1.00  0.00     0.039 C 
ENDBRANCH   4   5
ENDBRANCH   3   4
ENDBRANCH   1   3
BRANCH   1   9
ATOM      9  C   UNL     1      37.091  -0.409  17.745  1.00  0.00     0.013 C 
ATOM     10  C   UNL     1      36.306  -1.487  17.854  1.00  0.00     0.008 C 
ENDBRANCH   1   9
BRANCH   1  11
ATOM     11  O   UNL     1      37.616   1.584  16.563  1.00  0.00    -0.455 OA
BRANCH  11  12
ATOM     12  C   UNL     1      38.767   2.380  16.441  1.00  0.00     0.303 C 
ATOM     13  O   UNL     1      39.520   2.608  17.423  1.00  0.00    -0.253 OA
ATOM     14  C   UNL     1      39.075   3.008  15.126  1.00  0.00     0.139 C 
ENDBRANCH  11  12
ENDBRANCH   1  11
TORSDOF 6
ENDMDL
MODEL 2
REMARK VINA RESULT:    -5.633      1.550      1.984
REMARK INTER + INTRA:          -8.688
REMARK INTER:                  -7.768
REMARK INTRA:                  -0.920
REMARK UNBOUND:                -1.079
REMARK SMILES C=C[C@@](C)(CCC=C(C)C)OC(C)=O
REMARK SMILES IDX 3 1 4 2 5 3 6 4 7 5 9 6 8 7 10 8 2 9 1 10 11 11 12 12 14 13
REMARK SMILES IDX 13 14
REMARK H PARENT
REMARK Flexibility Score: inf
ROOT
ATOM      1  C   UNL     1      37.818   0.077  16.634  1.00  0.00     0.127 C 
ATOM      2  C   UNL     1      39.237  -0.126  17.217  1.00  0.00     0.061 C 
ENDROOT
BRANCH   1   3
ATOM      3  C   UNL     1      37.165  -1.278  16.228  1.00  0.00     0.057 C 
BRANCH   3   4
ATOM      4  C   UNL     1      35.920  -1.176  15.331  1.00  0.00     0.032 C 
BRANCH   4   5
ATOM      5  C   UNL     1      34.670  -1.431  16.135  1.00  0.00    -0.028 C 
ATOM      6  C   UNL     1      32.517  -0.908  17.201  1.00  0.00     0.039 C 
ATOM      7  C   UNL     1      33.689  -0.522  16.336  1.00  0.00    -0.080 C 
ATOM      8  C   UNL     1      33.729   0.852  15.708  1.00  0.00     0.039 C 
ENDBRANCH   4   5
ENDBRANCH   3   4
ENDBRANCH   1   3
BRANCH   1   9
ATOM      9  C   UNL     1      36.962   0.687  17.732  1.00  0.00     0.013 C 
ATOM     10  C   UNL     1      36.547   1.959  17.689  1.00  0.00     0.008 C 
ENDBRANCH   1   9
BRANCH   1  11
ATOM     11  O   UNL     1      37.800   1.005  15.532  1.00  0.00    -0.455 OA
BRANCH  11  12
ATOM     12  C   UNL     1      38.897   1.570  14.862  1.00  0.00     0.303 C 
ATOM     13  O   UNL     1      39.574   0.912  14.028  1.00  0.00    -0.253 OA
ATOM     14  C   UNL     1      39.297   2.969  15.182  1.00  0.00     0.139 C 
ENDBRANCH  11  12
ENDBRANCH   1  11
TORSDOF 6
ENDMDL
MODEL 3
REMARK VINA RESULT:    -5.619      1.579      2.554
REMARK INTER + INTRA:          -8.668
REMARK INTER:                  -7.625
REMARK INTRA:                  -1.043
REMARK UNBOUND:                -1.079
REMARK SMILES C=C[C@@](C)(CCC=C(C)C)OC(C)=O
REMARK SMILES IDX 3 1 4 2 5 3 6 4 7 5 9 6 8 7 10 8 2 9 1 10 11 11 12 12 14 13
REMARK SMILES IDX 13 14
REMARK H PARENT
REMARK Flexibility Score: inf
ROOT
ATOM      1  C   UNL     1      37.095   0.667  16.568  1.00  0.00     0.127 C 
ATOM      2  C   UNL     1      36.658   1.879  17.426  1.00  0.00     0.061 C 
ENDROOT
BRANCH   1   3
ATOM      3  C   UNL     1      36.804  -0.682  17.291  1.00  0.00     0.057 C 
BRANCH   3   4
ATOM      4  C   UNL     1      35.881  -0.597  18.518  1.00  0.00     0.032 C 
BRANCH   4   5
ATOM      5  C   UNL     1      34.638  -1.423  18.299  1.00  0.00    -0.028 C 
ATOM      6  C   UNL     1      32.276  -1.867  17.784  1.00  0.00     0.039 C 
ATOM      7  C   UNL     1      33.441  -0.921  17.919  1.00  0.00    -0.080 C 
ATOM      8  C   UNL     1      33.247   0.546  17.614  1.00  0.00     0.039 C 
ENDBRANCH   4   5
ENDBRANCH   3   4
ENDBRANCH   1   3
BRANCH   1   9
ATOM      9  C   UNL     1      36.266   0.692  15.295  1.00  0.00     0.013 C 
ATOM     10  C   UNL     1      35.743  -0.419  14.762  1.00  0.00     0.008 C 
ENDBRANCH   1   9
BRANCH   1  11
ATOM     11  O   UNL     1      38.476   0.744  16.165  1.00  0.00    -0.455 OA
BRANCH  11  12
ATOM     12  C   UNL     1      39.016   1.424  15.062  1.00  0.00     0.303 C 
ATOM     13  O   UNL     1      39.453   0.809  14.054  1.00  0.00    -0.253 OA
ATOM     14  C   UNL     1      39.115   2.910  15.107  1.00  0.00     0.139 C 
ENDBRANCH  11  12
ENDBRANCH   1  11
TORSDOF 6
ENDMDL
MODEL 4
REMARK VINA RESULT:    -5.585      2.187      4.644
REMARK INTER + INTRA:          -8.622
REMARK INTER:                  -7.572
REMARK INTRA:                  -1.050
REMARK UNBOUND:                -1.079
REMARK SMILES C=C[C@@](C)(CCC=C(C)C)OC(C)=O
REMARK SMILES IDX 3 1 4 2 5 3 6 4 7 5 9 6 8 7 10 8 2 9 1 10 11 11 12 12 14 13
REMARK SMILES IDX 13 14
REMARK H PARENT
REMARK Flexibility Score: inf
ROOT
ATOM      1  C   UNL     1      35.555  -0.597  17.465  1.00  0.00     0.127 C 
ATOM      2  C   UNL     1      35.118  -1.672  18.489  1.00  0.00     0.061 C 
ENDROOT
BRANCH   1   3
ATOM      3  C   UNL     1      36.583   0.398  18.080  1.00  0.00     0.057 C 
BRANCH   3   4
ATOM      4  C   UNL     1      37.989   0.374  17.460  1.00  0.00     0.032 C 
BRANCH   4   5
ATOM      5  C   UNL     1      38.305   1.704  16.820  1.00  0.00    -0.028 C 
ATOM      6  C   UNL     1      39.200   3.248  15.131  1.00  0.00     0.039 C 
ATOM      7  C   UNL     1      38.910   1.853  15.620  1.00  0.00    -0.080 C 
ATOM      8  C   UNL     1      39.285   0.670  14.759  1.00  0.00     0.039 C 
ENDBRANCH   4   5
ENDBRANCH   3   4
ENDBRANCH   1   3
BRANCH   1   9
ATOM      9  C   UNL     1      36.245  -1.319  16.319  1.00  0.00     0.013 C 
ATOM     10  C   UNL     1      35.804  -1.240  15.058  1.00  0.00     0.008 C 
ENDBRANCH   1   9
BRANCH   1  11
ATOM     11  O   UNL     1      34.436   0.109  16.895  1.00  0.00    -0.455 OA
BRANCH  11  12
ATOM     12  C   UNL     1      34.194   1.493  16.903  1.00  0.00     0.303 C 
ATOM     13  O   UNL     1      33.533   2.044  17.822  1.00  0.00    -0.253 OA
ATOM     14  C   UNL     1      34.694   2.320  15.769  1.00  0.00     0.139 C 
ENDBRANCH  11  12
ENDBRANCH   1  11
TORSDOF 6
ENDMDL
MODEL 5
REMARK VINA RESULT:    -5.582      1.652      2.244
REMARK INTER + INTRA:          -8.618
REMARK INTER:                  -7.542
REMARK INTRA:                  -1.076
REMARK UNBOUND:                -1.079
REMARK SMILES C=C[C@@](C)(CCC=C(C)C)OC(C)=O
REMARK SMILES IDX 3 1 4 2 5 3 6 4 7 5 9 6 8 7 10 8 2 9 1 10 11 11 12 12 14 13
REMARK SMILES IDX 13 14
REMARK H PARENT
REMARK Flexibility Score: inf
ROOT
ATOM      1  C   UNL     1      37.711   0.677  15.919  1.00  0.00     0.127 C 
ATOM      2  C   UNL     1      38.740   0.904  14.785  1.00  0.00     0.061 C 
ENDROOT
BRANCH   1   3
ATOM      3  C   UNL     1      36.735   1.883  16.058  1.00  0.00     0.057 C 
BRANCH   3   4
ATOM      4  C   UNL     1      36.077   2.054  17.437  1.00  0.00     0.032 C 
BRANCH   4   5
ATOM      5  C   UNL     1      34.604   1.737  17.360  1.00  0.00    -0.028 C 
ATOM      6  C   UNL     1      32.553   0.416  17.660  1.00  0.00     0.039 C 
ATOM      7  C   UNL     1      34.034   0.614  17.852  1.00  0.00    -0.080 C 
ATOM      8  C   UNL     1      34.834  -0.430  18.596  1.00  0.00     0.039 C 
ENDBRANCH   4   5
ENDBRANCH   3   4
ENDBRANCH   1   3
BRANCH   1   9
ATOM      9  C   UNL     1      36.883  -0.540  15.540  1.00  0.00     0.013 C 
ATOM     10  C   UNL     1      35.850  -0.464  14.691  1.00  0.00     0.008 C 
ENDBRANCH   1   9
BRANCH   1  11
ATOM     11  O   UNL     1      38.336   0.376  17.181  1.00  0.00    -0.455 OA
BRANCH  11  12
ATOM     12  C   UNL     1      39.630   0.718  17.606  1.00  0.00     0.303 C 
ATOM     13  O   UNL     1      40.550  -0.138  17.681  1.00  0.00    -0.253 OA
ATOM     14  C   UNL     1      39.906   2.122  18.023  1.00  0.00     0.139 C 
ENDBRANCH  11  12
ENDBRANCH   1  11
TORSDOF 6
ENDMDL
MODEL 6
REMARK VINA RESULT:    -5.569      1.623      3.583
REMARK INTER + INTRA:          -8.601
REMARK INTER:                  -7.554
REMARK INTRA:                  -1.047
REMARK UNBOUND:                -1.079
REMARK SMILES C=C[C@@](C)(CCC=C(C)C)OC(C)=O
REMARK SMILES IDX 3 1 4 2 5 3 6 4 7 5 9 6 8 7 10 8 2 9 1 10 11 11 12 12 14 13
REMARK SMILES IDX 13 14
REMARK H PARENT
REMARK Flexibility Score: inf
ROOT
ATOM      1  C   UNL     1      37.577   1.241  16.467  1.00  0.00     0.127 C 
ATOM      2  C   UNL     1      38.150  -0.119  15.998  1.00  0.00     0.061 C 
ENDROOT
BRANCH   1   3
ATOM      3  C   UNL     1      36.912   1.130  17.871  1.00  0.00     0.057 C 
BRANCH   3   4
ATOM      4  C   UNL     1      36.573  -0.295  18.338  1.00  0.00     0.032 C 
BRANCH   4   5
ATOM      5  C   UNL     1      35.079  -0.503  18.350  1.00  0.00    -0.028 C 
ATOM      6  C   UNL     1      32.918  -1.445  17.654  1.00  0.00     0.039 C 
ATOM      7  C   UNL     1      34.420  -1.381  17.560  1.00  0.00    -0.080 C 
ATOM      8  C   UNL     1      35.145  -2.300  16.606  1.00  0.00     0.039 C 
ENDBRANCH   4   5
ENDBRANCH   3   4
ENDBRANCH   1   3
BRANCH   1   9
ATOM      9  C   UNL     1      38.746   2.204  16.589  1.00  0.00     0.013 C 
ATOM     10  C   UNL     1      39.122   3.001  15.581  1.00  0.00     0.008 C 
ENDBRANCH   1   9
BRANCH   1  11
ATOM     11  O   UNL     1      36.665   1.816  15.512  1.00  0.00    -0.455 OA
BRANCH  11  12
ATOM     12  C   UNL     1      35.353   1.409  15.218  1.00  0.00     0.303 C 
ATOM     13  O   UNL     1      35.117   0.408  14.492  1.00  0.00    -0.253 OA
ATOM     14  C   UNL     1      34.213   2.213  15.743  1.00  0.00     0.139 C 
ENDBRANCH  11  12
ENDBRANCH   1  11
TORSDOF 6
ENDMDL
MODEL 7
REMARK VINA RESULT:    -5.566      1.661      4.308
REMARK INTER + INTRA:          -8.596
REMARK INTER:                  -7.758
REMARK INTRA:                  -0.839
REMARK UNBOUND:                -1.079
REMARK SMILES C=C[C@@](C)(CCC=C(C)C)OC(C)=O
REMARK SMILES IDX 3 1 4 2 5 3 6 4 7 5 9 6 8 7 10 8 2 9 1 10 11 11 12 12 14 13
REMARK SMILES IDX 13 14
REMARK H PARENT
REMARK Flexibility Score: inf
ROOT
ATOM      1  C   UNL     1      35.909  -0.841  16.916  1.00  0.00     0.127 C 
ATOM      2  C   UNL     1      36.386  -0.742  18.386  1.00  0.00     0.061 C 
ENDROOT
BRANCH   1   3
ATOM      3  C   UNL     1      37.072  -1.246  15.962  1.00  0.00     0.057 C 
BRANCH   3   4
ATOM      4  C   UNL     1      38.443  -0.627  16.281  1.00  0.00     0.032 C 
BRANCH   4   5
ATOM      5  C   UNL     1      38.625   0.666  15.526  1.00  0.00    -0.028 C 
ATOM      6  C   UNL     1      39.132   3.050  15.208  1.00  0.00     0.039 C 
ATOM      7  C   UNL     1      39.040   1.827  16.083  1.00  0.00    -0.080 C 
ATOM      8  C   UNL     1      39.426   1.924  17.540  1.00  0.00     0.039 C 
ENDBRANCH   4   5
ENDBRANCH   3   4
ENDBRANCH   1   3
BRANCH   1   9
ATOM      9  C   UNL     1      34.863  -1.942  16.855  1.00  0.00     0.013 C 
ATOM     10  C   UNL     1      34.031  -2.192  17.874  1.00  0.00     0.008 C 
ENDBRANCH   1   9
BRANCH   1  11
ATOM     11  O   UNL     1      35.269   0.365  16.460  1.00  0.00    -0.455 OA
BRANCH  11  12
ATOM     12  C   UNL     1      34.994   1.528  17.197  1.00  0.00     0.303 C 
ATOM     13  O   UNL     1      35.885   2.382  17.444  1.00  0.00    -0.253 OA
ATOM     14  C   UNL     1      33.621   1.731  17.740  1.00  0.00     0.139 C 
ENDBRANCH  11  12
ENDBRANCH   1  11
TORSDOF 6
ENDMDL
MODEL 8
REMARK VINA RESULT:    -5.550      1.636      2.971
REMARK INTER + INTRA:          -8.575
REMARK INTER:                  -7.740
REMARK INTRA:                  -0.836
REMARK UNBOUND:                -1.079
REMARK SMILES C=C[C@@](C)(CCC=C(C)C)OC(C)=O
REMARK SMILES IDX 3 1 4 2 5 3 6 4 7 5 9 6 8 7 10 8 2 9 1 10 11 11 12 12 14 13
REMARK SMILES IDX 13 14
REMARK H PARENT
REMARK Flexibility Score: inf
ROOT
ATOM      1  C   UNL     1      37.549   1.188  16.733  1.00  0.00     0.127 C 
ATOM      2  C   UNL     1      36.545   1.815  17.730  1.00  0.00     0.061 C 
ENDROOT
BRANCH   1   3
ATOM      3  C   UNL     1      36.845   0.730  15.421  1.00  0.00     0.057 C 
BRANCH   3   4
ATOM      4  C   UNL     1      36.340  -0.722  15.406  1.00  0.00     0.032 C 
BRANCH   4   5
ATOM      5  C   UNL     1      34.893  -0.780  15.831  1.00  0.00    -0.028 C 
ATOM      6  C   UNL     1      32.978  -1.309  17.277  1.00  0.00     0.039 C 
ATOM      7  C   UNL     1      34.461  -1.278  17.012  1.00  0.00    -0.080 C 
ATOM      8  C   UNL     1      35.416  -1.784  18.067  1.00  0.00     0.039 C 
ENDBRANCH   4   5
ENDBRANCH   3   4
ENDBRANCH   1   3
BRANCH   1   9
ATOM      9  C   UNL     1      38.550   2.270  16.361  1.00  0.00     0.013 C 
ATOM     10  C   UNL     1      38.748   2.654  15.094  1.00  0.00     0.008 C 
ENDBRANCH   1   9
BRANCH   1  11
ATOM     11  O   UNL     1      38.303   0.108  17.313  1.00  0.00    -0.455 OA
BRANCH  11  12
ATOM     12  C   UNL     1      39.646  -0.230  17.080  1.00  0.00     0.303 C 
ATOM     13  O   UNL     1      40.559   0.088  17.887  1.00  0.00    -0.253 OA
ATOM     14  C   UNL     1      40.003  -0.944  15.822  1.00  0.00     0.139 C 
ENDBRANCH  11  12
ENDBRANCH   1  11
TORSDOF 6
ENDMDL
MODEL 9
REMARK VINA RESULT:    -5.536      2.452      5.212
REMARK INTER + INTRA:          -8.556
REMARK INTER:                  -7.440
REMARK INTRA:                  -1.116
REMARK UNBOUND:                -1.079
REMARK SMILES C=C[C@@](C)(CCC=C(C)C)OC(C)=O
REMARK SMILES IDX 3 1 4 2 5 3 6 4 7 5 9 6 8 7 10 8 2 9 1 10 11 11 12 12 14 13
REMARK SMILES IDX 13 14
REMARK H PARENT
REMARK Flexibility Score: inf
ROOT
ATOM      1  C   UNL     1      35.584  -0.473  16.158  1.00  0.00     0.127 C 
ATOM      2  C   UNL     1      36.467  -1.531  15.453  1.00  0.00     0.061 C 
ENDROOT
BRANCH   1   3
ATOM      3  C   UNL     1      36.349   0.231  17.319  1.00  0.00     0.057 C 
BRANCH   3   4
ATOM      4  C   UNL     1      37.882   0.239  17.200  1.00  0.00     0.032 C 
BRANCH   4   5
ATOM      5  C   UNL     1      38.370   1.603  16.780  1.00  0.00    -0.028 C 
ATOM      6  C   UNL     1      39.417   3.284  15.323  1.00  0.00     0.039 C 
ATOM      7  C   UNL     1      38.937   1.880  15.584  1.00  0.00    -0.080 C 
ATOM      8  C   UNL     1      39.087   0.831  14.507  1.00  0.00     0.039 C 
ENDBRANCH   4   5
ENDBRANCH   3   4
ENDBRANCH   1   3
BRANCH   1   9
ATOM      9  C   UNL     1      35.242   0.589  15.125  1.00  0.00     0.013 C 
ATOM     10  C   UNL     1      34.947   1.849  15.469  1.00  0.00     0.008 C 
ENDBRANCH   1   9
BRANCH   1  11
ATOM     11  O   UNL     1      34.335  -1.016  16.623  1.00  0.00    -0.455 OA
BRANCH  11  12
ATOM     12  C   UNL     1      33.960  -1.311  17.944  1.00  0.00     0.303 C 
ATOM     13  O   UNL     1      34.349  -2.358  18.525  1.00  0.00    -0.253 OA
ATOM     14  C   UNL     1      33.040  -0.382  18.659  1.00  0.00     0.139 C 
ENDBRANCH  11  12
ENDBRANCH   1  11
TORSDOF 6
ENDMDL
