MODEL 1
REMARK VINA RESULT:     3.879      0.000      0.000
REMARK INTER + INTRA:           8.543
REMARK INTER:                  10.228
REMARK INTRA:                  -1.685
REMARK UNBOUND:                -1.685
REMARK SMILES CCCCCCCCCCCCCCCCCCCCCCCCCCCCCC(=O)[O-]
REMARK SMILES IDX 16 1 17 2 18 3 19 4 20 5 21 6 22 7 23 8 24 9 25 10 26 11
REMARK SMILES IDX 27 12 28 13 29 14 30 15 31 16 32 17 15 18 14 19 13 20 12 21
REMARK SMILES IDX 11 22 10 23 9 24 8 25 7 26 6 27 5 28 4 29 3 30 2 31 1 32
REMARK H PARENT
REMARK Flexibility Score: inf
ROOT
ATOM      1  C   UNL     1      25.176   5.277  -2.263  1.00  0.00     0.000 C 
ENDROOT
BRANCH   1   2
ATOM      2  C   UNL     1      23.646   5.228  -2.427  1.00  0.00     0.000 C 
BRANCH   2   3
ATOM      3  C   UNL     1      23.139   3.853  -2.886  1.00  0.00     0.000 C 
BRANCH   3   4
ATOM      4  C   UNL     1      24.265   2.814  -2.841  1.00  0.00     0.000 C 
BRANCH   4   5
ATOM      5  C   UNL     1      23.795   1.515  -2.171  1.00  0.00     0.000 C 
BRANCH   5   6
ATOM      6  C   UNL     1      23.397   0.438  -3.195  1.00  0.00     0.000 C 
BRANCH   6   7
ATOM      7  C   UNL     1      22.917  -0.862  -2.530  1.00  0.00     0.000 C 
BRANCH   7   8
ATOM      8  C   UNL     1      23.927  -1.998  -2.742  1.00  0.00     0.000 C 
BRANCH   8   9
ATOM      9  C   UNL     1      25.361  -1.524  -2.468  1.00  0.00     0.000 C 
BRANCH   9  10
ATOM     10  C   UNL     1      26.428  -2.558  -2.868  1.00  0.00     0.000 C 
BRANCH  10  11
ATOM     11  C   UNL     1      25.966  -3.557  -3.950  1.00  0.00     0.000 C 
BRANCH  11  12
ATOM     12  C   UNL     1      25.724  -4.972  -3.393  1.00  0.00     0.000 C 
BRANCH  12  13
ATOM     13  C   UNL     1      27.011  -5.810  -3.336  1.00  0.00     0.006 C 
BRANCH  13  14
ATOM     14  C   UNL     1      28.131  -5.127  -2.538  1.00  0.00     0.053 C 
BRANCH  14  15
ATOM     15  C   UNL     1      27.827  -5.166  -1.073  1.00  0.00     0.041 C 
ATOM     16  O   UNL     1      28.699  -4.812  -0.235  1.00  0.00    -0.550 OA
ATOM     17  O   UNL     1      26.599  -5.642  -0.627  1.00  0.00    -0.550 OA
ENDBRANCH  14  15
ENDBRANCH  13  14
ENDBRANCH  12  13
ENDBRANCH  11  12
ENDBRANCH  10  11
ENDBRANCH   9  10
ENDBRANCH   8   9
ENDBRANCH   7   8
ENDBRANCH   6   7
ENDBRANCH   5   6
ENDBRANCH   4   5
ENDBRANCH   3   4
ENDBRANCH   2   3
ENDBRANCH   1   2
BRANCH   1  18
ATOM     18  C   UNL     1      25.899   6.244  -3.217  1.00  0.00     0.000 C 
BRANCH  18  19
ATOM     19  C   UNL     1      25.196   7.609  -3.329  1.00  0.00     0.000 C 
BRANCH  19  20
ATOM     20  C   UNL     1      26.079   8.674  -4.010  1.00  0.00     0.000 C 
BRANCH  20  21
ATOM     21  C   UNL     1      27.555   8.609  -3.580  1.00  0.00     0.000 C 
BRANCH  21  22
ATOM     22  C   UNL     1      28.341   9.894  -3.930  1.00  0.00     0.000 C 
BRANCH  22  23
ATOM     23  C   UNL     1      28.427  10.874  -2.750  1.00  0.00     0.000 C 
BRANCH  23  24
ATOM     24  C   UNL     1      28.797  10.163  -1.438  1.00  0.00    -0.000 C 
BRANCH  24  25
ATOM     25  C   UNL     1      27.557   9.805  -0.587  1.00  0.00    -0.000 C 
BRANCH  25  26
ATOM     26  C   UNL     1      27.720   8.500   0.212  1.00  0.00    -0.000 C 
BRANCH  26  27
ATOM     27  C   UNL     1      29.107   7.841   0.087  1.00  0.00    -0.000 C 
BRANCH  27  28
ATOM     28  C   UNL     1      29.125   6.590  -0.819  1.00  0.00    -0.000 C 
BRANCH  28  29
ATOM     29  C   UNL     1      29.050   5.278  -0.025  1.00  0.00    -0.000 C 
BRANCH  29  30
ATOM     30  C   UNL     1      27.638   4.677  -0.080  1.00  0.00    -0.000 C 
BRANCH  30  31
ATOM     31  C   UNL     1      27.595   3.345  -0.843  1.00  0.00    -0.003 C 
ATOM     32  C   UNL     1      28.978   2.877  -1.292  1.00  0.00     0.004 C 
ENDBRANCH  30  31
ENDBRANCH  29  30
ENDBRANCH  28  29
ENDBRANCH  27  28
ENDBRANCH  26  27
ENDBRANCH  25  26
ENDBRANCH  24  25
ENDBRANCH  23  24
ENDBRANCH  22  23
ENDBRANCH  21  22
ENDBRANCH  20  21
ENDBRANCH  19  20
ENDBRANCH  18  19
ENDBRANCH   1  18
TORSDOF 28
ENDMDL
MODEL 2
REMARK VINA RESULT:     4.032      2.377      9.847
REMARK INTER + INTRA:           8.946
REMARK INTER:                   7.827
REMARK INTRA:                   1.119
REMARK UNBOUND:                -1.685
REMARK SMILES CCCCCCCCCCCCCCCCCCCCCCCCCCCCCC(=O)[O-]
REMARK SMILES IDX 16 1 17 2 18 3 19 4 20 5 21 6 22 7 23 8 24 9 25 10 26 11
REMARK SMILES IDX 27 12 28 13 29 14 30 15 31 16 32 17 15 18 14 19 13 20 12 21
REMARK SMILES IDX 11 22 10 23 9 24 8 25 7 26 6 27 5 28 4 29 3 30 2 31 1 32
REMARK H PARENT
REMARK Flexibility Score: inf
ROOT
ATOM      1  C   UNL     1      25.272   6.435  -2.100  1.00  0.00     0.000 C 
ENDROOT
BRANCH   1   2
ATOM      2  C   UNL     1      25.197   7.643  -3.051  1.00  0.00     0.000 C 
BRANCH   2   3
ATOM      3  C   UNL     1      26.331   8.653  -2.823  1.00  0.00     0.000 C 
BRANCH   3   4
ATOM      4  C   UNL     1      27.132   8.874  -4.113  1.00  0.00     0.000 C 
BRANCH   4   5
ATOM      5  C   UNL     1      28.638   8.716  -3.865  1.00  0.00     0.000 C 
BRANCH   5   6
ATOM      6  C   UNL     1      29.025   8.999  -2.403  1.00  0.00     0.000 C 
BRANCH   6   7
ATOM      7  C   UNL     1      28.527  10.368  -1.914  1.00  0.00     0.000 C 
BRANCH   7   8
ATOM      8  C   UNL     1      27.601  10.220  -0.700  1.00  0.00     0.000 C 
BRANCH   8   9
ATOM      9  C   UNL     1      28.365   9.681   0.518  1.00  0.00     0.000 C 
BRANCH   9  10
ATOM     10  C   UNL     1      29.114   8.369   0.230  1.00  0.00     0.000 C 
BRANCH  10  11
ATOM     11  C   UNL     1      28.253   7.285  -0.453  1.00  0.00     0.000 C 
BRANCH  11  12
ATOM     12  C   UNL     1      29.043   5.998  -0.756  1.00  0.00     0.000 C 
BRANCH  12  13
ATOM     13  C   UNL     1      29.125   5.058   0.457  1.00  0.00     0.006 C 
BRANCH  13  14
ATOM     14  C   UNL     1      28.768   3.605   0.109  1.00  0.00     0.053 C 
BRANCH  14  15
ATOM     15  C   UNL     1      27.441   3.544  -0.579  1.00  0.00     0.041 C 
ATOM     16  O   UNL     1      26.414   4.016  -0.020  1.00  0.00    -0.550 OA
ATOM     17  O   UNL     1      27.325   2.921  -1.817  1.00  0.00    -0.550 OA
ENDBRANCH  14  15
ENDBRANCH  13  14
ENDBRANCH  12  13
ENDBRANCH  11  12
ENDBRANCH  10  11
ENDBRANCH   9  10
ENDBRANCH   8   9
ENDBRANCH   7   8
ENDBRANCH   6   7
ENDBRANCH   5   6
ENDBRANCH   4   5
ENDBRANCH   3   4
ENDBRANCH   2   3
ENDBRANCH   1   2
BRANCH   1  18
ATOM     18  C   UNL     1      24.113   5.431  -2.238  1.00  0.00     0.000 C 
BRANCH  18  19
ATOM     19  C   UNL     1      24.483   4.205  -3.093  1.00  0.00     0.000 C 
BRANCH  19  20
ATOM     20  C   UNL     1      24.206   2.874  -2.367  1.00  0.00     0.000 C 
BRANCH  20  21
ATOM     21  C   UNL     1      23.234   1.954  -3.126  1.00  0.00     0.000 C 
BRANCH  21  22
ATOM     22  C   UNL     1      22.623   0.853  -2.229  1.00  0.00     0.000 C 
BRANCH  22  23
ATOM     23  C   UNL     1      23.092  -0.557  -2.620  1.00  0.00     0.000 C 
BRANCH  23  24
ATOM     24  C   UNL     1      24.369  -0.522  -3.475  1.00  0.00    -0.000 C 
BRANCH  24  25
ATOM     25  C   UNL     1      24.724  -1.904  -4.068  1.00  0.00    -0.000 C 
BRANCH  25  26
ATOM     26  C   UNL     1      25.327  -2.875  -3.038  1.00  0.00    -0.000 C 
BRANCH  26  27
ATOM     27  C   UNL     1      25.978  -4.132  -3.648  1.00  0.00    -0.000 C 
BRANCH  27  28
ATOM     28  C   UNL     1      27.513  -4.186  -3.476  1.00  0.00    -0.000 C 
BRANCH  28  29
ATOM     29  C   UNL     1      28.030  -5.603  -3.190  1.00  0.00    -0.000 C 
BRANCH  29  30
ATOM     30  C   UNL     1      28.349  -5.786  -1.699  1.00  0.00    -0.000 C 
BRANCH  30  31
ATOM     31  C   UNL     1      27.606  -4.776  -0.811  1.00  0.00    -0.003 C 
ATOM     32  C   UNL     1      28.346  -4.479   0.493  1.00  0.00     0.004 C 
ENDBRANCH  30  31
ENDBRANCH  29  30
ENDBRANCH  28  29
ENDBRANCH  27  28
ENDBRANCH  26  27
ENDBRANCH  25  26
ENDBRANCH  24  25
ENDBRANCH  23  24
ENDBRANCH  22  23
ENDBRANCH  21  22
ENDBRANCH  20  21
ENDBRANCH  19  20
ENDBRANCH  18  19
ENDBRANCH   1  18
TORSDOF 28
ENDMDL
MODEL 3
REMARK VINA RESULT:     4.135      2.487      3.473
REMARK INTER + INTRA:           9.219
REMARK INTER:                  10.420
REMARK INTRA:                  -1.200
REMARK UNBOUND:                -1.685
REMARK SMILES CCCCCCCCCCCCCCCCCCCCCCCCCCCCCC(=O)[O-]
REMARK SMILES IDX 16 1 17 2 18 3 19 4 20 5 21 6 22 7 23 8 24 9 25 10 26 11
REMARK SMILES IDX 27 12 28 13 29 14 30 15 31 16 32 17 15 18 14 19 13 20 12 21
REMARK SMILES IDX 11 22 10 23 9 24 8 25 7 26 6 27 5 28 4 29 3 30 2 31 1 32
REMARK H PARENT
REMARK Flexibility Score: inf
ROOT
ATOM      1  C   UNL     1      25.992   6.396  -2.400  1.00  0.00     0.000 C 
ENDROOT
BRANCH   1   2
ATOM      2  C   UNL     1      26.138   5.579  -1.103  1.00  0.00     0.000 C 
BRANCH   2   3
ATOM      3  C   UNL     1      26.738   4.186  -1.339  1.00  0.00     0.000 C 
BRANCH   3   4
ATOM      4  C   UNL     1      25.809   3.332  -2.210  1.00  0.00     0.000 C 
BRANCH   4   5
ATOM      5  C   UNL     1      24.402   3.944  -2.285  1.00  0.00     0.000 C 
BRANCH   5   6
ATOM      6  C   UNL     1      23.299   2.918  -1.973  1.00  0.00     0.000 C 
BRANCH   6   7
ATOM      7  C   UNL     1      23.734   1.474  -2.265  1.00  0.00     0.000 C 
BRANCH   7   8
ATOM      8  C   UNL     1      22.533   0.601  -2.654  1.00  0.00     0.000 C 
BRANCH   8   9
ATOM      9  C   UNL     1      22.987  -0.684  -3.360  1.00  0.00     0.000 C 
BRANCH   9  10
ATOM     10  C   UNL     1      24.335  -1.216  -2.842  1.00  0.00     0.000 C 
BRANCH  10  11
ATOM     11  C   UNL     1      24.749  -2.579  -3.436  1.00  0.00     0.000 C 
BRANCH  11  12
ATOM     12  C   UNL     1      26.274  -2.732  -3.576  1.00  0.00     0.000 C 
BRANCH  12  13
ATOM     13  C   UNL     1      26.755  -4.157  -3.258  1.00  0.00     0.006 C 
BRANCH  13  14
ATOM     14  C   UNL     1      26.281  -4.653  -1.884  1.00  0.00     0.053 C 
BRANCH  14  15
ATOM     15  C   UNL     1      27.426  -4.696  -0.922  1.00  0.00     0.041 C 
ATOM     16  O   UNL     1      28.565  -5.072  -1.308  1.00  0.00    -0.550 OA
ATOM     17  O   UNL     1      27.227  -4.371   0.415  1.00  0.00    -0.550 OA
ENDBRANCH  14  15
ENDBRANCH  13  14
ENDBRANCH  12  13
ENDBRANCH  11  12
ENDBRANCH  10  11
ENDBRANCH   9  10
ENDBRANCH   8   9
ENDBRANCH   7   8
ENDBRANCH   6   7
ENDBRANCH   5   6
ENDBRANCH   4   5
ENDBRANCH   3   4
ENDBRANCH   2   3
ENDBRANCH   1   2
BRANCH   1  18
ATOM     18  C   UNL     1      26.493   7.849  -2.309  1.00  0.00     0.000 C 
BRANCH  18  19
ATOM     19  C   UNL     1      26.398   8.598  -3.651  1.00  0.00     0.000 C 
BRANCH  19  20
ATOM     20  C   UNL     1      27.730   9.265  -4.049  1.00  0.00     0.000 C 
BRANCH  20  21
ATOM     21  C   UNL     1      27.670  10.803  -4.038  1.00  0.00     0.000 C 
BRANCH  21  22
ATOM     22  C   UNL     1      28.519  11.429  -2.907  1.00  0.00     0.000 C 
BRANCH  22  23
ATOM     23  C   UNL     1      29.122  10.374  -1.967  1.00  0.00     0.000 C 
BRANCH  23  24
ATOM     24  C   UNL     1      29.092  10.828  -0.498  1.00  0.00    -0.000 C 
BRANCH  24  25
ATOM     25  C   UNL     1      28.434   9.783   0.431  1.00  0.00    -0.000 C 
BRANCH  25  26
ATOM     26  C   UNL     1      28.467  10.180   1.918  1.00  0.00    -0.000 C 
BRANCH  26  27
ATOM     27  C   UNL     1      29.124   9.137   2.844  1.00  0.00    -0.000 C 
BRANCH  27  28
ATOM     28  C   UNL     1      29.049   9.500   4.344  1.00  0.00    -0.000 C 
BRANCH  28  29
ATOM     29  C   UNL     1      27.642   9.322   4.930  1.00  0.00    -0.000 C 
BRANCH  29  30
ATOM     30  C   UNL     1      27.601   8.159   5.932  1.00  0.00    -0.000 C 
BRANCH  30  31
ATOM     31  C   UNL     1      28.990   7.553   6.185  1.00  0.00    -0.003 C 
ATOM     32  C   UNL     1      29.033   6.047   5.933  1.00  0.00     0.004 C 
ENDBRANCH  30  31
ENDBRANCH  29  30
ENDBRANCH  28  29
ENDBRANCH  27  28
ENDBRANCH  26  27
ENDBRANCH  25  26
ENDBRANCH  24  25
ENDBRANCH  23  24
ENDBRANCH  22  23
ENDBRANCH  21  22
ENDBRANCH  20  21
ENDBRANCH  19  20
ENDBRANCH  18  19
ENDBRANCH   1  18
TORSDOF 28
ENDMDL
MODEL 4
REMARK VINA RESULT:     4.443      4.574      6.127
REMARK INTER + INTRA:          10.032
REMARK INTER:                  11.396
REMARK INTRA:                  -1.365
REMARK UNBOUND:                -1.685
REMARK SMILES CCCCCCCCCCCCCCCCCCCCCCCCCCCCCC(=O)[O-]
REMARK SMILES IDX 16 1 17 2 18 3 19 4 20 5 21 6 22 7 23 8 24 9 25 10 26 11
REMARK SMILES IDX 27 12 28 13 29 14 30 15 31 16 32 17 15 18 14 19 13 20 12 21
REMARK SMILES IDX 11 22 10 23 9 24 8 25 7 26 6 27 5 28 4 29 3 30 2 31 1 32
REMARK H PARENT
REMARK Flexibility Score: inf
ROOT
ATOM      1  C   UNL     1      28.378   5.642   0.149  1.00  0.00     0.000 C 
ENDROOT
BRANCH   1   2
ATOM      2  C   UNL     1      28.667   4.188  -0.265  1.00  0.00     0.000 C 
BRANCH   2   3
ATOM      3  C   UNL     1      27.708   3.673  -1.348  1.00  0.00     0.000 C 
BRANCH   3   4
ATOM      4  C   UNL     1      26.321   4.312  -1.195  1.00  0.00     0.000 C 
BRANCH   4   5
ATOM      5  C   UNL     1      25.214   3.249  -1.234  1.00  0.00     0.000 C 
BRANCH   5   6
ATOM      6  C   UNL     1      24.237   3.461  -2.402  1.00  0.00     0.000 C 
BRANCH   6   7
ATOM      7  C   UNL     1      23.274   2.279  -2.592  1.00  0.00     0.000 C 
BRANCH   7   8
ATOM      8  C   UNL     1      24.033   1.000  -2.967  1.00  0.00     0.000 C 
BRANCH   8   9
ATOM      9  C   UNL     1      23.238  -0.253  -2.573  1.00  0.00     0.000 C 
BRANCH   9  10
ATOM     10  C   UNL     1      23.732  -1.530  -3.275  1.00  0.00     0.000 C 
BRANCH  10  11
ATOM     11  C   UNL     1      25.262  -1.732  -3.218  1.00  0.00     0.000 C 
BRANCH  11  12
ATOM     12  C   UNL     1      25.715  -3.051  -3.871  1.00  0.00     0.000 C 
BRANCH  12  13
ATOM     13  C   UNL     1      25.998  -4.152  -2.837  1.00  0.00     0.006 C 
BRANCH  13  14
ATOM     14  C   UNL     1      27.243  -3.864  -1.986  1.00  0.00     0.053 C 
BRANCH  14  15
ATOM     15  C   UNL     1      27.566  -5.041  -1.120  1.00  0.00     0.041 C 
ATOM     16  O   UNL     1      28.293  -5.972  -1.560  1.00  0.00    -0.550 OA
ATOM     17  O   UNL     1      27.025  -5.138   0.157  1.00  0.00    -0.550 OA
ENDBRANCH  14  15
ENDBRANCH  13  14
ENDBRANCH  12  13
ENDBRANCH  11  12
ENDBRANCH  10  11
ENDBRANCH   9  10
ENDBRANCH   8   9
ENDBRANCH   7   8
ENDBRANCH   6   7
ENDBRANCH   5   6
ENDBRANCH   4   5
ENDBRANCH   3   4
ENDBRANCH   2   3
ENDBRANCH   1   2
BRANCH   1  18
ATOM     18  C   UNL     1      29.085   6.711  -0.705  1.00  0.00     0.000 C 
BRANCH  18  19
ATOM     19  C   UNL     1      28.099   7.598  -1.487  1.00  0.00     0.000 C 
BRANCH  19  20
ATOM     20  C   UNL     1      26.946   8.118  -0.605  1.00  0.00     0.000 C 
BRANCH  20  21
ATOM     21  C   UNL     1      27.271   9.442   0.108  1.00  0.00     0.000 C 
BRANCH  21  22
ATOM     22  C   UNL     1      28.444   9.314   1.109  1.00  0.00     0.000 C 
BRANCH  22  23
ATOM     23  C   UNL     1      28.277  10.225   2.334  1.00  0.00     0.000 C 
BRANCH  23  24
ATOM     24  C   UNL     1      29.123   9.747   3.526  1.00  0.00    -0.000 C 
BRANCH  24  25
ATOM     25  C   UNL     1      28.516   8.510   4.225  1.00  0.00    -0.000 C 
BRANCH  25  26
ATOM     26  C   UNL     1      28.796   8.464   5.738  1.00  0.00    -0.000 C 
BRANCH  26  27
ATOM     27  C   UNL     1      28.479   9.773   6.488  1.00  0.00    -0.000 C 
BRANCH  27  28
ATOM     28  C   UNL     1      28.328   9.597   8.015  1.00  0.00    -0.000 C 
BRANCH  28  29
ATOM     29  C   UNL     1      29.124  10.637   8.816  1.00  0.00    -0.000 C 
BRANCH  29  30
ATOM     30  C   UNL     1      28.676  10.668  10.284  1.00  0.00    -0.000 C 
BRANCH  30  31
ATOM     31  C   UNL     1      28.328  12.086  10.763  1.00  0.00    -0.003 C 
ATOM     32  C   UNL     1      27.617  12.097  12.115  1.00  0.00     0.004 C 
ENDBRANCH  30  31
ENDBRANCH  29  30
ENDBRANCH  28  29
ENDBRANCH  27  28
ENDBRANCH  26  27
ENDBRANCH  25  26
ENDBRANCH  24  25
ENDBRANCH  23  24
ENDBRANCH  22  23
ENDBRANCH  21  22
ENDBRANCH  20  21
ENDBRANCH  19  20
ENDBRANCH  18  19
ENDBRANCH   1  18
TORSDOF 28
ENDMDL
MODEL 5
REMARK VINA RESULT:     4.704      4.111     11.116
REMARK INTER + INTRA:          10.720
REMARK INTER:                  11.828
REMARK INTRA:                  -1.107
REMARK UNBOUND:                -1.685
REMARK SMILES CCCCCCCCCCCCCCCCCCCCCCCCCCCCCC(=O)[O-]
REMARK SMILES IDX 16 1 17 2 18 3 19 4 20 5 21 6 22 7 23 8 24 9 25 10 26 11
REMARK SMILES IDX 27 12 28 13 29 14 30 15 31 16 32 17 15 18 14 19 13 20 12 21
REMARK SMILES IDX 11 22 10 23 9 24 8 25 7 26 6 27 5 28 4 29 3 30 2 31 1 32
REMARK H PARENT
REMARK Flexibility Score: inf
ROOT
ATOM      1  C   UNL     1      21.842   2.024  -2.535  1.00  0.00     0.000 C 
ENDROOT
BRANCH   1   2
ATOM      2  C   UNL     1      22.986   2.836  -3.168  1.00  0.00     0.000 C 
BRANCH   2   3
ATOM      3  C   UNL     1      23.269   4.149  -2.425  1.00  0.00     0.000 C 
BRANCH   3   4
ATOM      4  C   UNL     1      24.254   5.021  -3.214  1.00  0.00     0.000 C 
BRANCH   4   5
ATOM      5  C   UNL     1      25.298   5.658  -2.285  1.00  0.00     0.000 C 
BRANCH   5   6
ATOM      6  C   UNL     1      26.165   4.607  -1.569  1.00  0.00     0.000 C 
BRANCH   6   7
ATOM      7  C   UNL     1      27.077   5.224  -0.497  1.00  0.00     0.000 C 
BRANCH   7   8
ATOM      8  C   UNL     1      27.019   6.757  -0.535  1.00  0.00     0.000 C 
BRANCH   8   9
ATOM      9  C   UNL     1      28.233   7.338  -1.275  1.00  0.00     0.000 C 
BRANCH   9  10
ATOM     10  C   UNL     1      29.116   8.229  -0.383  1.00  0.00     0.000 C 
BRANCH  10  11
ATOM     11  C   UNL     1      28.511   9.615  -0.075  1.00  0.00     0.000 C 
BRANCH  11  12
ATOM     12  C   UNL     1      27.991  10.333  -1.333  1.00  0.00     0.000 C 
BRANCH  12  13
ATOM     13  C   UNL     1      29.118  10.693  -2.314  1.00  0.00     0.006 C 
BRANCH  13  14
ATOM     14  C   UNL     1      28.766  10.364  -3.772  1.00  0.00     0.053 C 
BRANCH  14  15
ATOM     15  C   UNL     1      27.352   9.884  -3.872  1.00  0.00     0.041 C 
ATOM     16  O   UNL     1      27.091   8.655  -3.775  1.00  0.00    -0.550 OA
ATOM     17  O   UNL     1      26.325  10.787  -4.124  1.00  0.00    -0.550 OA
ENDBRANCH  14  15
ENDBRANCH  13  14
ENDBRANCH  12  13
ENDBRANCH  11  12
ENDBRANCH  10  11
ENDBRANCH   9  10
ENDBRANCH   8   9
ENDBRANCH   7   8
ENDBRANCH   6   7
ENDBRANCH   5   6
ENDBRANCH   4   5
ENDBRANCH   3   4
ENDBRANCH   2   3
ENDBRANCH   1   2
BRANCH   1  18
ATOM     18  C   UNL     1      20.749   2.868  -1.855  1.00  0.00     0.000 C 
BRANCH  18  19
ATOM     19  C   UNL     1      19.586   2.016  -1.315  1.00  0.00     0.000 C 
BRANCH  19  20
ATOM     20  C   UNL     1      19.838   0.503  -1.478  1.00  0.00     0.000 C 
BRANCH  20  21
ATOM     21  C   UNL     1      20.766  -0.081  -0.397  1.00  0.00     0.000 C 
BRANCH  21  22
ATOM     22  C   UNL     1      21.622  -1.261  -0.914  1.00  0.00     0.000 C 
BRANCH  22  23
ATOM     23  C   UNL     1      23.064  -0.845  -1.244  1.00  0.00     0.000 C 
BRANCH  23  24
ATOM     24  C   UNL     1      23.486  -1.300  -2.650  1.00  0.00    -0.000 C 
BRANCH  24  25
ATOM     25  C   UNL     1      24.580  -2.391  -2.617  1.00  0.00    -0.000 C 
BRANCH  25  26
ATOM     26  C   UNL     1      25.489  -2.385  -3.859  1.00  0.00    -0.000 C 
BRANCH  26  27
ATOM     27  C   UNL     1      26.486  -3.558  -3.928  1.00  0.00    -0.000 C 
BRANCH  27  28
ATOM     28  C   UNL     1      25.860  -4.931  -3.595  1.00  0.00    -0.000 C 
BRANCH  28  29
ATOM     29  C   UNL     1      26.893  -5.952  -3.099  1.00  0.00    -0.000 C 
BRANCH  29  30
ATOM     30  C   UNL     1      27.938  -5.286  -2.192  1.00  0.00    -0.000 C 
BRANCH  30  31
ATOM     31  C   UNL     1      27.301  -4.540  -1.010  1.00  0.00    -0.003 C 
ATOM     32  C   UNL     1      27.994  -4.836   0.319  1.00  0.00     0.004 C 
ENDBRANCH  30  31
ENDBRANCH  29  30
ENDBRANCH  28  29
ENDBRANCH  27  28
ENDBRANCH  26  27
ENDBRANCH  25  26
ENDBRANCH  24  25
ENDBRANCH  23  24
ENDBRANCH  22  23
ENDBRANCH  21  22
ENDBRANCH  20  21
ENDBRANCH  19  20
ENDBRANCH  18  19
ENDBRANCH   1  18
TORSDOF 28
ENDMDL
MODEL 6
REMARK VINA RESULT:     6.618      1.142      2.398
REMARK INTER + INTRA:          15.767
REMARK INTER:                  15.340
REMARK INTRA:                   0.427
REMARK UNBOUND:                -1.685
REMARK SMILES CCCCCCCCCCCCCCCCCCCCCCCCCCCCCC(=O)[O-]
REMARK SMILES IDX 16 1 17 2 18 3 19 4 20 5 21 6 22 7 23 8 24 9 25 10 26 11
REMARK SMILES IDX 27 12 28 13 29 14 30 15 31 16 32 17 15 18 14 19 13 20 12 21
REMARK SMILES IDX 11 22 10 23 9 24 8 25 7 26 6 27 5 28 4 29 3 30 2 31 1 32
REMARK H PARENT
REMARK Flexibility Score: inf
ROOT
ATOM      1  C   UNL     1      26.025   7.945  -4.075  1.00  0.00     0.000 C 
ENDROOT
BRANCH   1   2
ATOM      2  C   UNL     1      25.710   6.892  -2.997  1.00  0.00     0.000 C 
BRANCH   2   3
ATOM      3  C   UNL     1      24.326   6.252  -3.173  1.00  0.00     0.000 C 
BRANCH   3   4
ATOM      4  C   UNL     1      24.453   4.758  -3.495  1.00  0.00     0.000 C 
BRANCH   4   5
ATOM      5  C   UNL     1      25.379   4.051  -2.495  1.00  0.00     0.000 C 
BRANCH   5   6
ATOM      6  C   UNL     1      24.726   2.807  -1.869  1.00  0.00     0.000 C 
BRANCH   6   7
ATOM      7  C   UNL     1      23.329   2.521  -2.441  1.00  0.00     0.000 C 
BRANCH   7   8
ATOM      8  C   UNL     1      23.216   1.069  -2.926  1.00  0.00     0.000 C 
BRANCH   8   9
ATOM      9  C   UNL     1      23.767   0.090  -1.880  1.00  0.00     0.000 C 
BRANCH   9  10
ATOM     10  C   UNL     1      23.757  -1.373  -2.355  1.00  0.00     0.000 C 
BRANCH  10  11
ATOM     11  C   UNL     1      24.352  -1.586  -3.763  1.00  0.00     0.000 C 
BRANCH  11  12
ATOM     12  C   UNL     1      25.731  -2.269  -3.732  1.00  0.00     0.000 C 
BRANCH  12  13
ATOM     13  C   UNL     1      25.800  -3.412  -2.707  1.00  0.00     0.006 C 
BRANCH  13  14
ATOM     14  C   UNL     1      27.239  -3.775  -2.315  1.00  0.00     0.053 C 
BRANCH  14  15
ATOM     15  C   UNL     1      27.241  -4.821  -1.246  1.00  0.00     0.041 C 
ATOM     16  O   UNL     1      27.886  -4.636  -0.178  1.00  0.00    -0.550 OA
ATOM     17  O   UNL     1      26.574  -6.025  -1.445  1.00  0.00    -0.550 OA
ENDBRANCH  14  15
ENDBRANCH  13  14
ENDBRANCH  12  13
ENDBRANCH  11  12
ENDBRANCH  10  11
ENDBRANCH   9  10
ENDBRANCH   8   9
ENDBRANCH   7   8
ENDBRANCH   6   7
ENDBRANCH   5   6
ENDBRANCH   4   5
ENDBRANCH   3   4
ENDBRANCH   2   3
ENDBRANCH   1   2
BRANCH   1  18
ATOM     18  C   UNL     1      27.466   8.485  -4.051  1.00  0.00     0.000 C 
BRANCH  18  19
ATOM     19  C   UNL     1      27.529  10.022  -4.124  1.00  0.00     0.000 C 
BRANCH  19  20
ATOM     20  C   UNL     1      28.949  10.567  -3.875  1.00  0.00     0.000 C 
BRANCH  20  21
ATOM     21  C   UNL     1      29.049  12.097  -4.010  1.00  0.00     0.000 C 
BRANCH  21  22
ATOM     22  C   UNL     1      28.497  12.847  -2.775  1.00  0.00     0.000 C 
BRANCH  22  23
ATOM     23  C   UNL     1      29.044  12.290  -1.452  1.00  0.00     0.000 C 
BRANCH  23  24
ATOM     24  C   UNL     1      29.122  10.754  -1.463  1.00  0.00    -0.000 C 
BRANCH  24  25
ATOM     25  C   UNL     1      27.787  10.090  -1.059  1.00  0.00    -0.000 C 
BRANCH  25  26
ATOM     26  C   UNL     1      27.892   9.228   0.212  1.00  0.00    -0.000 C 
BRANCH  26  27
ATOM     27  C   UNL     1      28.964   8.122   0.148  1.00  0.00    -0.000 C 
BRANCH  27  28
ATOM     28  C   UNL     1      28.417   6.747  -0.294  1.00  0.00    -0.000 C 
BRANCH  28  29
ATOM     29  C   UNL     1      29.117   5.574   0.407  1.00  0.00    -0.000 C 
BRANCH  29  30
ATOM     30  C   UNL     1      28.951   4.273  -0.391  1.00  0.00    -0.000 C 
BRANCH  30  31
ATOM     31  C   UNL     1      27.553   3.658  -0.228  1.00  0.00    -0.003 C 
ATOM     32  C   UNL     1      27.400   2.873   1.075  1.00  0.00     0.004 C 
ENDBRANCH  30  31
ENDBRANCH  29  30
ENDBRANCH  28  29
ENDBRANCH  27  28
ENDBRANCH  26  27
ENDBRANCH  25  26
ENDBRANCH  24  25
ENDBRANCH  23  24
ENDBRANCH  22  23
ENDBRANCH  21  22
ENDBRANCH  20  21
ENDBRANCH  19  20
ENDBRANCH  18  19
ENDBRANCH   1  18
TORSDOF 28
ENDMDL
