MODEL 1
REMARK VINA RESULT:    -5.884      0.000      0.000
REMARK INTER + INTRA:          -7.196
REMARK INTER:                  -6.916
REMARK INTRA:                  -0.280
REMARK UNBOUND:                -0.280
REMARK SMILES O=c1c(O)c(-c2ccc(O)cc2)oc2cc(O)cc(O)c12
REMARK SMILES IDX 5 1 3 2 2 3 1 4 21 5 19 6 18 7 16 8 15 9 14 10 13 11 6 12
REMARK SMILES IDX 7 13 8 14 9 15 12 16 11 17 10 18 4 20 20 22 17 24
REMARK H PARENT 10 19 4 21 20 23 17 25
REMARK Flexibility Score: inf
ROOT
ATOM      1  C   UNL     1       9.175  19.669  23.902  1.00  0.00     0.180 A 
ATOM      2  C   UNL     1      10.134  20.180  23.011  1.00  0.00     0.208 A 
ATOM      3  C   UNL     1      11.438  20.416  23.474  1.00  0.00     0.238 A 
ATOM      4  O   UNL     1      12.305  20.822  22.658  1.00  0.00    -0.285 OA
ATOM      5  C   UNL     1      11.762  20.153  24.827  1.00  0.00     0.111 A 
ATOM      6  C   UNL     1      13.041  20.393  25.415  1.00  0.00     0.134 A 
ATOM      7  C   UNL     1      13.288  19.973  26.728  1.00  0.00     0.093 A 
ATOM      8  C   UNL     1      12.281  19.382  27.496  1.00  0.00     0.123 A 
ATOM      9  C   UNL     1      11.012  19.199  26.951  1.00  0.00     0.094 A 
ATOM     10  C   UNL     1      10.747  19.574  25.632  1.00  0.00     0.146 A 
ATOM     11  O   UNL     1       9.528  19.372  25.147  1.00  0.00    -0.452 OA
ENDROOT
BRANCH   1  12
ATOM     12  C   UNL     1       7.774  19.419  23.494  1.00  0.00     0.021 A 
ATOM     13  C   UNL     1       6.808  20.421  23.689  1.00  0.00     0.016 A 
ATOM     14  C   UNL     1       5.483  20.215  23.291  1.00  0.00     0.047 A 
ATOM     15  C   UNL     1       5.111  19.013  22.681  1.00  0.00     0.115 A 
ATOM     16  C   UNL     1       7.396  18.220  22.863  1.00  0.00     0.016 A 
ATOM     17  C   UNL     1       6.071  18.017  22.465  1.00  0.00     0.047 A 
BRANCH  15  18
ATOM     18  O   UNL     1       3.787  18.821  22.291  1.00  0.00    -0.508 OA
ATOM     19  H   UNL     1       3.420  19.234  21.442  1.00  0.00     0.293 HD
ENDBRANCH  15  18
ENDBRANCH   1  12
BRANCH   2  20
ATOM     20  O   UNL     1       9.797  20.412  21.674  1.00  0.00    -0.502 OA
ATOM     21  H   UNL     1       9.011  19.958  21.224  1.00  0.00     0.293 HD
ENDBRANCH   2  20
BRANCH   6  22
ATOM     22  O   UNL     1      14.086  21.058  24.766  1.00  0.00    -0.507 OA
ATOM     23  H   UNL     1      15.064  20.947  24.989  1.00  0.00     0.293 HD
ENDBRANCH   6  22
BRANCH   8  24
ATOM     24  O   UNL     1      12.530  18.982  28.806  1.00  0.00    -0.508 OA
ATOM     25  H   UNL     1      13.454  18.697  29.107  1.00  0.00     0.293 HD
ENDBRANCH   8  24
TORSDOF 5
ENDMDL
MODEL 2
REMARK VINA RESULT:    -5.740      2.537      7.478
REMARK INTER + INTRA:          -7.027
REMARK INTER:                  -6.764
REMARK INTRA:                  -0.263
REMARK UNBOUND:                -0.280
REMARK SMILES O=c1c(O)c(-c2ccc(O)cc2)oc2cc(O)cc(O)c12
REMARK SMILES IDX 5 1 3 2 2 3 1 4 21 5 19 6 18 7 16 8 15 9 14 10 13 11 6 12
REMARK SMILES IDX 7 13 8 14 9 15 12 16 11 17 10 18 4 20 20 22 17 24
REMARK H PARENT 10 19 4 21 20 23 17 25
REMARK Flexibility Score: inf
ROOT
ATOM      1  C   UNL     1       6.985  20.167  24.721  1.00  0.00     0.180 A 
ATOM      2  C   UNL     1       6.213  21.295  25.046  1.00  0.00     0.208 A 
ATOM      3  C   UNL     1       5.116  21.627  24.234  1.00  0.00     0.238 A 
ATOM      4  O   UNL     1       4.397  22.607  24.562  1.00  0.00    -0.285 OA
ATOM      5  C   UNL     1       4.815  20.836  23.099  1.00  0.00     0.111 A 
ATOM      6  C   UNL     1       3.752  21.104  22.184  1.00  0.00     0.134 A 
ATOM      7  C   UNL     1       3.465  20.181  21.170  1.00  0.00     0.093 A 
ATOM      8  C   UNL     1       4.244  19.034  20.999  1.00  0.00     0.123 A 
ATOM      9  C   UNL     1       5.321  18.795  21.850  1.00  0.00     0.094 A 
ATOM     10  C   UNL     1       5.609  19.679  22.893  1.00  0.00     0.146 A 
ATOM     11  O   UNL     1       6.637  19.408  23.688  1.00  0.00    -0.452 OA
ENDROOT
BRANCH   1  12
ATOM     12  C   UNL     1       8.170  19.768  25.513  1.00  0.00     0.021 A 
ATOM     13  C   UNL     1       7.995  19.031  26.696  1.00  0.00     0.016 A 
ATOM     14  C   UNL     1       9.102  18.624  27.448  1.00  0.00     0.047 A 
ATOM     15  C   UNL     1      10.396  18.937  27.021  1.00  0.00     0.115 A 
ATOM     16  C   UNL     1       9.476  20.063  25.079  1.00  0.00     0.016 A 
ATOM     17  C   UNL     1      10.581  19.654  25.832  1.00  0.00     0.047 A 
BRANCH  15  18
ATOM     18  O   UNL     1      11.489  18.527  27.781  1.00  0.00    -0.508 OA
ATOM     19  H   UNL     1      12.156  17.850  27.428  1.00  0.00     0.293 HD
ENDBRANCH  15  18
ENDBRANCH   1  12
BRANCH   2  20
ATOM     20  O   UNL     1       6.515  22.050  26.184  1.00  0.00    -0.502 OA
ATOM     21  H   UNL     1       5.872  22.143  26.961  1.00  0.00     0.293 HD
ENDBRANCH   2  20
BRANCH   6  22
ATOM     22  O   UNL     1       2.973  22.264  22.211  1.00  0.00    -0.507 OA
ATOM     23  H   UNL     1       3.207  23.102  22.720  1.00  0.00     0.293 HD
ENDBRANCH   6  22
BRANCH   8  24
ATOM     24  O   UNL     1       3.961  18.130  19.979  1.00  0.00    -0.508 OA
ATOM     25  H   UNL     1       3.041  17.722  19.872  1.00  0.00     0.293 HD
ENDBRANCH   8  24
TORSDOF 5
ENDMDL
MODEL 3
REMARK VINA RESULT:    -5.428      1.317      2.945
REMARK INTER + INTRA:          -6.659
REMARK INTER:                  -6.458
REMARK INTRA:                  -0.202
REMARK UNBOUND:                -0.280
REMARK SMILES O=c1c(O)c(-c2ccc(O)cc2)oc2cc(O)cc(O)c12
REMARK SMILES IDX 5 1 3 2 2 3 1 4 21 5 19 6 18 7 16 8 15 9 14 10 13 11 6 12
REMARK SMILES IDX 7 13 8 14 9 15 12 16 11 17 10 18 4 20 20 22 17 24
REMARK H PARENT 10 19 4 21 20 23 17 25
REMARK Flexibility Score: inf
ROOT
ATOM      1  C   UNL     1       8.797  19.557  24.067  1.00  0.00     0.180 A 
ATOM      2  C   UNL     1       9.053  19.630  25.447  1.00  0.00     0.208 A 
ATOM      3  C   UNL     1      10.376  19.800  25.887  1.00  0.00     0.238 A 
ATOM      4  O   UNL     1      10.591  19.919  27.121  1.00  0.00    -0.285 OA
ATOM      5  C   UNL     1      11.427  19.877  24.942  1.00  0.00     0.111 A 
ATOM      6  C   UNL     1      12.809  20.008  25.277  1.00  0.00     0.134 A 
ATOM      7  C   UNL     1      13.750  20.207  24.260  1.00  0.00     0.093 A 
ATOM      8  C   UNL     1      13.367  20.214  22.916  1.00  0.00     0.123 A 
ATOM      9  C   UNL     1      12.029  20.027  22.577  1.00  0.00     0.094 A 
ATOM     10  C   UNL     1      11.063  19.863  23.571  1.00  0.00     0.146 A 
ATOM     11  O   UNL     1       9.797  19.698  23.205  1.00  0.00    -0.452 OA
ENDROOT
BRANCH   1  12
ATOM     12  C   UNL     1       7.433  19.353  23.528  1.00  0.00     0.021 A 
ATOM     13  C   UNL     1       6.511  20.413  23.562  1.00  0.00     0.016 A 
ATOM     14  C   UNL     1       5.225  20.250  23.037  1.00  0.00     0.047 A 
ATOM     15  C   UNL     1       4.849  19.033  22.462  1.00  0.00     0.115 A 
ATOM     16  C   UNL     1       7.055  18.137  22.930  1.00  0.00     0.016 A 
ATOM     17  C   UNL     1       5.768  17.978  22.406  1.00  0.00     0.047 A 
BRANCH  15  18
ATOM     18  O   UNL     1       3.564  18.884  21.945  1.00  0.00    -0.508 OA
ATOM     19  H   UNL     1       3.063  18.006  22.016  1.00  0.00     0.293 HD
ENDBRANCH  15  18
ENDBRANCH   1  12
BRANCH   2  20
ATOM     20  O   UNL     1       7.997  19.573  26.362  1.00  0.00    -0.502 OA
ATOM     21  H   UNL     1       8.033  19.006  27.200  1.00  0.00     0.293 HD
ENDBRANCH   2  20
BRANCH   6  22
ATOM     22  O   UNL     1      13.308  19.923  26.580  1.00  0.00    -0.507 OA
ATOM     23  H   UNL     1      13.611  19.070  27.025  1.00  0.00     0.293 HD
ENDBRANCH   6  22
BRANCH   8  24
ATOM     24  O   UNL     1      14.312  20.397  21.909  1.00  0.00    -0.508 OA
ATOM     25  H   UNL     1      14.405  19.741  21.143  1.00  0.00     0.293 HD
ENDBRANCH   8  24
TORSDOF 5
ENDMDL
MODEL 4
REMARK VINA RESULT:    -5.294      2.007      7.113
REMARK INTER + INTRA:          -6.502
REMARK INTER:                  -6.201
REMARK INTRA:                  -0.300
REMARK UNBOUND:                -0.280
REMARK SMILES O=c1c(O)c(-c2ccc(O)cc2)oc2cc(O)cc(O)c12
REMARK SMILES IDX 5 1 3 2 2 3 1 4 21 5 19 6 18 7 16 8 15 9 14 10 13 11 6 12
REMARK SMILES IDX 7 13 8 14 9 15 12 16 11 17 10 18 4 20 20 22 17 24
REMARK H PARENT 10 19 4 21 20 23 17 25
REMARK Flexibility Score: inf
ROOT
ATOM      1  C   UNL     1       8.624  20.396  25.567  1.00  0.00     0.180 A 
ATOM      2  C   UNL     1       7.782  21.418  26.040  1.00  0.00     0.208 A 
ATOM      3  C   UNL     1       6.528  21.601  25.435  1.00  0.00     0.238 A 
ATOM      4  O   UNL     1       5.757  22.482  25.898  1.00  0.00    -0.285 OA
ATOM      5  C   UNL     1       6.138  20.771  24.356  1.00  0.00     0.111 A 
ATOM      6  C   UNL     1       4.908  20.894  23.642  1.00  0.00     0.134 A 
ATOM      7  C   UNL     1       4.570  19.937  22.678  1.00  0.00     0.093 A 
ATOM      8  C   UNL     1       5.448  18.899  22.355  1.00  0.00     0.123 A 
ATOM      9  C   UNL     1       6.677  18.806  23.004  1.00  0.00     0.094 A 
ATOM     10  C   UNL     1       7.026  19.725  23.996  1.00  0.00     0.146 A 
ATOM     11  O   UNL     1       8.203  19.594  24.597  1.00  0.00    -0.452 OA
ENDROOT
BRANCH   1  12
ATOM     12  C   UNL     1       9.970  20.158  26.136  1.00  0.00     0.021 A 
ATOM     13  C   UNL     1      10.129  19.213  27.164  1.00  0.00     0.016 A 
ATOM     14  C   UNL     1      11.395  18.956  27.700  1.00  0.00     0.047 A 
ATOM     15  C   UNL     1      12.517  19.629  27.208  1.00  0.00     0.115 A 
ATOM     16  C   UNL     1      11.106  20.818  25.633  1.00  0.00     0.016 A 
ATOM     17  C   UNL     1      12.370  20.558  26.171  1.00  0.00     0.047 A 
BRANCH  15  18
ATOM     18  O   UNL     1      13.771  19.364  27.753  1.00  0.00    -0.508 OA
ATOM     19  H   UNL     1      13.933  19.401  28.753  1.00  0.00     0.293 HD
ENDBRANCH  15  18
ENDBRANCH   1  12
BRANCH   2  20
ATOM     20  O   UNL     1       8.177  22.211  27.121  1.00  0.00    -0.502 OA
ATOM     21  H   UNL     1       8.025  21.934  28.083  1.00  0.00     0.293 HD
ENDBRANCH   2  20
BRANCH   6  22
ATOM     22  O   UNL     1       4.003  21.944  23.823  1.00  0.00    -0.507 OA
ATOM     23  H   UNL     1       4.246  22.860  24.168  1.00  0.00     0.293 HD
ENDBRANCH   6  22
BRANCH   8  24
ATOM     24  O   UNL     1       5.110  17.960  21.384  1.00  0.00    -0.508 OA
ATOM     25  H   UNL     1       5.706  17.788  20.583  1.00  0.00     0.293 HD
ENDBRANCH   8  24
TORSDOF 5
ENDMDL
MODEL 5
REMARK VINA RESULT:    -5.267      1.600      6.662
REMARK INTER + INTRA:          -6.470
REMARK INTER:                  -6.266
REMARK INTRA:                  -0.204
REMARK UNBOUND:                -0.280
REMARK SMILES O=c1c(O)c(-c2ccc(O)cc2)oc2cc(O)cc(O)c12
REMARK SMILES IDX 5 1 3 2 2 3 1 4 21 5 19 6 18 7 16 8 15 9 14 10 13 11 6 12
REMARK SMILES IDX 7 13 8 14 9 15 12 16 11 17 10 18 4 20 20 22 17 24
REMARK H PARENT 10 19 4 21 20 23 17 25
REMARK Flexibility Score: inf
ROOT
ATOM      1  C   UNL     1       9.740  19.900  24.782  1.00  0.00     0.180 A 
ATOM      2  C   UNL     1       9.700  19.210  23.558  1.00  0.00     0.208 A 
ATOM      3  C   UNL     1       8.500  19.180  22.830  1.00  0.00     0.238 A 
ATOM      4  O   UNL     1       8.487  18.606  21.710  1.00  0.00    -0.285 OA
ATOM      5  C   UNL     1       7.350  19.827  23.343  1.00  0.00     0.111 A 
ATOM      6  C   UNL     1       6.070  19.826  22.709  1.00  0.00     0.134 A 
ATOM      7  C   UNL     1       5.037  20.609  23.239  1.00  0.00     0.093 A 
ATOM      8  C   UNL     1       5.218  21.339  24.417  1.00  0.00     0.123 A 
ATOM      9  C   UNL     1       6.445  21.298  25.074  1.00  0.00     0.094 A 
ATOM     10  C   UNL     1       7.506  20.556  24.550  1.00  0.00     0.146 A 
ATOM     11  O   UNL     1       8.662  20.552  25.203  1.00  0.00    -0.452 OA
ENDROOT
BRANCH   1  12
ATOM     12  C   UNL     1      10.960  19.955  25.617  1.00  0.00     0.021 A 
ATOM     13  C   UNL     1      11.035  19.175  26.784  1.00  0.00     0.016 A 
ATOM     14  C   UNL     1      12.187  19.193  27.576  1.00  0.00     0.047 A 
ATOM     15  C   UNL     1      13.283  19.980  27.206  1.00  0.00     0.115 A 
ATOM     16  C   UNL     1      12.073  20.729  25.241  1.00  0.00     0.016 A 
ATOM     17  C   UNL     1      13.224  20.745  26.034  1.00  0.00     0.047 A 
BRANCH  15  18
ATOM     18  O   UNL     1      14.423  19.990  28.006  1.00  0.00    -0.508 OA
ATOM     19  H   UNL     1      14.589  19.272  28.700  1.00  0.00     0.293 HD
ENDBRANCH  15  18
ENDBRANCH   1  12
BRANCH   2  20
ATOM     20  O   UNL     1      10.854  18.596  23.060  1.00  0.00    -0.502 OA
ATOM     21  H   UNL     1      11.540  19.095  22.508  1.00  0.00     0.293 HD
ENDBRANCH   2  20
BRANCH   6  22
ATOM     22  O   UNL     1       5.757  19.060  21.583  1.00  0.00    -0.507 OA
ATOM     23  H   UNL     1       5.890  18.063  21.511  1.00  0.00     0.293 HD
ENDBRANCH   6  22
BRANCH   8  24
ATOM     24  O   UNL     1       4.180  22.102  24.946  1.00  0.00    -0.508 OA
ATOM     25  H   UNL     1       3.362  22.338  24.397  1.00  0.00     0.293 HD
ENDBRANCH   8  24
TORSDOF 5
ENDMDL
MODEL 6
REMARK VINA RESULT:    -5.216      2.032      2.616
REMARK INTER + INTRA:          -6.410
REMARK INTER:                  -6.174
REMARK INTRA:                  -0.236
REMARK UNBOUND:                -0.280
REMARK SMILES O=c1c(O)c(-c2ccc(O)cc2)oc2cc(O)cc(O)c12
REMARK SMILES IDX 5 1 3 2 2 3 1 4 21 5 19 6 18 7 16 8 15 9 14 10 13 11 6 12
REMARK SMILES IDX 7 13 8 14 9 15 12 16 11 17 10 18 4 20 20 22 17 24
REMARK H PARENT 10 19 4 21 20 23 17 25
REMARK Flexibility Score: inf
ROOT
ATOM      1  C   UNL     1       7.156  20.086  23.355  1.00  0.00     0.180 A 
ATOM      2  C   UNL     1       8.249  19.467  22.726  1.00  0.00     0.208 A 
ATOM      3  C   UNL     1       9.475  19.391  23.408  1.00  0.00     0.238 A 
ATOM      4  O   UNL     1      10.434  18.788  22.861  1.00  0.00    -0.285 OA
ATOM      5  C   UNL     1       9.596  19.951  24.702  1.00  0.00     0.111 A 
ATOM      6  C   UNL     1      10.801  19.969  25.468  1.00  0.00     0.134 A 
ATOM      7  C   UNL     1      10.772  20.432  26.790  1.00  0.00     0.093 A 
ATOM      8  C   UNL     1       9.597  20.939  27.350  1.00  0.00     0.123 A 
ATOM      9  C   UNL     1       8.431  20.982  26.590  1.00  0.00     0.094 A 
ATOM     10  C   UNL     1       8.419  20.494  25.281  1.00  0.00     0.146 A 
ATOM     11  O   UNL     1       7.284  20.543  24.595  1.00  0.00    -0.452 OA
ENDROOT
BRANCH   1  12
ATOM     12  C   UNL     1       5.841  20.226  22.691  1.00  0.00     0.021 A 
ATOM     13  C   UNL     1       5.481  21.460  22.122  1.00  0.00     0.016 A 
ATOM     14  C   UNL     1       4.253  21.608  21.470  1.00  0.00     0.047 A 
ATOM     15  C   UNL     1       3.376  20.524  21.366  1.00  0.00     0.115 A 
ATOM     16  C   UNL     1       4.962  19.135  22.566  1.00  0.00     0.016 A 
ATOM     17  C   UNL     1       3.735  19.286  21.913  1.00  0.00     0.047 A 
BRANCH  15  18
ATOM     18  O   UNL     1       2.155  20.687  20.715  1.00  0.00    -0.508 OA
ATOM     19  H   UNL     1       1.498  19.921  20.623  1.00  0.00     0.293 HD
ENDBRANCH  15  18
ENDBRANCH   1  12
BRANCH   2  20
ATOM     20  O   UNL     1       8.102  18.901  21.456  1.00  0.00    -0.502 OA
ATOM     21  H   UNL     1       7.960  17.908  21.315  1.00  0.00     0.293 HD
ENDBRANCH   2  20
BRANCH   6  22
ATOM     22  O   UNL     1      12.046  19.570  24.973  1.00  0.00    -0.507 OA
ATOM     23  H   UNL     1      12.254  19.415  23.999  1.00  0.00     0.293 HD
ENDBRANCH   6  22
BRANCH   8  24
ATOM     24  O   UNL     1       9.582  21.412  28.660  1.00  0.00    -0.508 OA
ATOM     25  H   UNL     1      10.376  21.293  29.276  1.00  0.00     0.293 HD
ENDBRANCH   8  24
TORSDOF 5
ENDMDL
MODEL 7
REMARK VINA RESULT:    -5.192      2.533      7.430
REMARK INTER + INTRA:          -6.382
REMARK INTER:                  -6.100
REMARK INTRA:                  -0.283
REMARK UNBOUND:                -0.280
REMARK SMILES O=c1c(O)c(-c2ccc(O)cc2)oc2cc(O)cc(O)c12
REMARK SMILES IDX 5 1 3 2 2 3 1 4 21 5 19 6 18 7 16 8 15 9 14 10 13 11 6 12
REMARK SMILES IDX 7 13 8 14 9 15 12 16 11 17 10 18 4 20 20 22 17 24
REMARK H PARENT 10 19 4 21 20 23 17 25
REMARK Flexibility Score: inf
ROOT
ATOM      1  C   UNL     1       6.894  19.929  23.881  1.00  0.00     0.180 A 
ATOM      2  C   UNL     1       6.410  18.975  22.970  1.00  0.00     0.208 A 
ATOM      3  C   UNL     1       5.358  19.327  22.109  1.00  0.00     0.238 A 
ATOM      4  O   UNL     1       4.966  18.486  21.259  1.00  0.00    -0.285 OA
ATOM      5  C   UNL     1       4.794  20.623  22.181  1.00  0.00     0.111 A 
ATOM      6  C   UNL     1       3.698  21.075  21.385  1.00  0.00     0.134 A 
ATOM      7  C   UNL     1       3.306  22.418  21.447  1.00  0.00     0.093 A 
ATOM      8  C   UNL     1       3.928  23.309  22.326  1.00  0.00     0.123 A 
ATOM      9  C   UNL     1       4.958  22.863  23.150  1.00  0.00     0.094 A 
ATOM     10  C   UNL     1       5.395  21.538  23.083  1.00  0.00     0.146 A 
ATOM     11  O   UNL     1       6.387  21.156  23.879  1.00  0.00    -0.452 OA
ENDROOT
BRANCH   1  12
ATOM     12  C   UNL     1       7.982  19.624  24.837  1.00  0.00     0.021 A 
ATOM     13  C   UNL     1       9.319  19.786  24.438  1.00  0.00     0.016 A 
ATOM     14  C   UNL     1      10.363  19.526  25.332  1.00  0.00     0.047 A 
ATOM     15  C   UNL     1      10.083  19.114  26.639  1.00  0.00     0.115 A 
ATOM     16  C   UNL     1       7.707  19.228  26.159  1.00  0.00     0.016 A 
ATOM     17  C   UNL     1       8.752  18.969  27.052  1.00  0.00     0.047 A 
BRANCH  15  18
ATOM     18  O   UNL     1      11.132  18.856  27.519  1.00  0.00    -0.508 OA
ATOM     19  H   UNL     1      11.747  18.062  27.390  1.00  0.00     0.293 HD
ENDBRANCH  15  18
ENDBRANCH   1  12
BRANCH   2  20
ATOM     20  O   UNL     1       6.996  17.707  22.901  1.00  0.00    -0.502 OA
ATOM     21  H   UNL     1       6.453  16.863  22.763  1.00  0.00     0.293 HD
ENDBRANCH   2  20
BRANCH   6  22
ATOM     22  O   UNL     1       2.950  20.246  20.544  1.00  0.00    -0.507 OA
ATOM     23  H   UNL     1       2.915  20.328  19.539  1.00  0.00     0.293 HD
ENDBRANCH   6  22
BRANCH   8  24
ATOM     24  O   UNL     1       3.522  24.640  22.392  1.00  0.00    -0.508 OA
ATOM     25  H   UNL     1       3.909  25.279  23.076  1.00  0.00     0.293 HD
ENDBRANCH   8  24
TORSDOF 5
ENDMDL
MODEL 8
REMARK VINA RESULT:    -5.172      1.473      3.390
REMARK INTER + INTRA:          -6.359
REMARK INTER:                  -6.511
REMARK INTRA:                   0.152
REMARK UNBOUND:                -0.280
REMARK SMILES O=c1c(O)c(-c2ccc(O)cc2)oc2cc(O)cc(O)c12
REMARK SMILES IDX 5 1 3 2 2 3 1 4 21 5 19 6 18 7 16 8 15 9 14 10 13 11 6 12
REMARK SMILES IDX 7 13 8 14 9 15 12 16 11 17 10 18 4 20 20 22 17 24
REMARK H PARENT 10 19 4 21 20 23 17 25
REMARK Flexibility Score: inf
ROOT
ATOM      1  C   UNL     1      10.411  19.649  24.791  1.00  0.00     0.180 A 
ATOM      2  C   UNL     1      10.525  19.350  26.160  1.00  0.00     0.208 A 
ATOM      3  C   UNL     1      11.744  19.599  26.813  1.00  0.00     0.238 A 
ATOM      4  O   UNL     1      11.822  19.380  28.050  1.00  0.00    -0.285 OA
ATOM      5  C   UNL     1      12.837  20.127  26.085  1.00  0.00     0.111 A 
ATOM      6  C   UNL     1      14.130  20.379  26.636  1.00  0.00     0.134 A 
ATOM      7  C   UNL     1      15.098  21.025  25.857  1.00  0.00     0.093 A 
ATOM      8  C   UNL     1      14.841  21.367  24.526  1.00  0.00     0.123 A 
ATOM      9  C   UNL     1      13.603  21.070  23.963  1.00  0.00     0.094 A 
ATOM     10  C   UNL     1      12.605  20.460  24.726  1.00  0.00     0.146 A 
ATOM     11  O   UNL     1      11.435  20.204  24.153  1.00  0.00    -0.452 OA
ENDROOT
BRANCH   1  12
ATOM     12  C   UNL     1       9.169  19.391  24.030  1.00  0.00     0.021 A 
ATOM     13  C   UNL     1       9.247  18.789  22.762  1.00  0.00     0.016 A 
ATOM     14  C   UNL     1       8.084  18.516  22.035  1.00  0.00     0.047 A 
ATOM     15  C   UNL     1       6.830  18.827  22.569  1.00  0.00     0.115 A 
ATOM     16  C   UNL     1       7.903  19.685  24.569  1.00  0.00     0.016 A 
ATOM     17  C   UNL     1       6.742  19.410  23.840  1.00  0.00     0.047 A 
BRANCH  15  18
ATOM     18  O   UNL     1       5.681  18.552  21.832  1.00  0.00    -0.508 OA
ATOM     19  H   UNL     1       5.292  17.617  21.787  1.00  0.00     0.293 HD
ENDBRANCH  15  18
ENDBRANCH   1  12
BRANCH   2  20
ATOM     20  O   UNL     1       9.426  18.850  26.864  1.00  0.00    -0.502 OA
ATOM     21  H   UNL     1       8.992  19.355  27.627  1.00  0.00     0.293 HD
ENDBRANCH   2  20
BRANCH   6  22
ATOM     22  O   UNL     1      14.520  19.995  27.922  1.00  0.00    -0.507 OA
ATOM     23  H   UNL     1      14.471  20.586  28.738  1.00  0.00     0.293 HD
ENDBRANCH   6  22
BRANCH   8  24
ATOM     24  O   UNL     1      15.815  21.995  23.754  1.00  0.00    -0.508 OA
ATOM     25  H   UNL     1      15.576  22.511  22.916  1.00  0.00     0.293 HD
ENDBRANCH   8  24
TORSDOF 5
ENDMDL
MODEL 9
REMARK VINA RESULT:    -5.098      2.154      3.775
REMARK INTER + INTRA:          -6.272
REMARK INTER:                  -5.985
REMARK INTRA:                  -0.287
REMARK UNBOUND:                -0.280
REMARK SMILES O=c1c(O)c(-c2ccc(O)cc2)oc2cc(O)cc(O)c12
REMARK SMILES IDX 5 1 3 2 2 3 1 4 21 5 19 6 18 7 16 8 15 9 14 10 13 11 6 12
REMARK SMILES IDX 7 13 8 14 9 15 12 16 11 17 10 18 4 20 20 22 17 24
REMARK H PARENT 10 19 4 21 20 23 17 25
REMARK Flexibility Score: inf
ROOT
ATOM      1  C   UNL     1       6.620  20.367  23.738  1.00  0.00     0.180 A 
ATOM      2  C   UNL     1       6.700  20.828  25.063  1.00  0.00     0.208 A 
ATOM      3  C   UNL     1       7.899  20.658  25.773  1.00  0.00     0.238 A 
ATOM      4  O   UNL     1       7.981  21.122  26.941  1.00  0.00    -0.285 OA
ATOM      5  C   UNL     1       8.998  20.015  25.155  1.00  0.00     0.111 A 
ATOM      6  C   UNL     1      10.248  19.753  25.793  1.00  0.00     0.134 A 
ATOM      7  C   UNL     1      11.310  19.229  25.046  1.00  0.00     0.093 A 
ATOM      8  C   UNL     1      11.145  18.895  23.699  1.00  0.00     0.123 A 
ATOM      9  C   UNL     1       9.912  19.092  23.083  1.00  0.00     0.094 A 
ATOM     10  C   UNL     1       8.845  19.647  23.793  1.00  0.00     0.146 A 
ATOM     11  O   UNL     1       7.689  19.827  23.165  1.00  0.00    -0.452 OA
ENDROOT
BRANCH   1  12
ATOM     12  C   UNL     1       5.383  20.487  22.935  1.00  0.00     0.021 A 
ATOM     13  C   UNL     1       5.155  21.655  22.186  1.00  0.00     0.016 A 
ATOM     14  C   UNL     1       4.003  21.780  21.403  1.00  0.00     0.047 A 
ATOM     15  C   UNL     1       3.074  20.737  21.346  1.00  0.00     0.115 A 
ATOM     16  C   UNL     1       4.453  19.434  22.858  1.00  0.00     0.016 A 
ATOM     17  C   UNL     1       3.303  19.562  22.073  1.00  0.00     0.047 A 
BRANCH  15  18
ATOM     18  O   UNL     1       1.930  20.877  20.563  1.00  0.00    -0.508 OA
ATOM     19  H   UNL     1       1.968  20.805  19.553  1.00  0.00     0.293 HD
ENDBRANCH  15  18
ENDBRANCH   1  12
BRANCH   2  20
ATOM     20  O   UNL     1       5.609  21.480  25.648  1.00  0.00    -0.502 OA
ATOM     21  H   UNL     1       4.771  21.711  25.128  1.00  0.00     0.293 HD
ENDBRANCH   2  20
BRANCH   6  22
ATOM     22  O   UNL     1      10.488  19.963  27.154  1.00  0.00    -0.507 OA
ATOM     23  H   UNL     1      10.262  20.810  27.654  1.00  0.00     0.293 HD
ENDBRANCH   6  22
BRANCH   8  24
ATOM     24  O   UNL     1      12.202  18.360  22.966  1.00  0.00    -0.508 OA
ATOM     25  H   UNL     1      12.131  17.455  22.517  1.00  0.00     0.293 HD
ENDBRANCH   8  24
TORSDOF 5
ENDMDL
