MODEL 1
REMARK VINA RESULT:    -6.141      0.000      0.000
REMARK INTER + INTRA:         -10.050
REMARK INTER:                  -8.654
REMARK INTRA:                  -1.396
REMARK UNBOUND:                -1.396
REMARK SMILES O=c1cc(-c2ccc(O)c(O)c2)oc2cc(O)c([C@@H]3O[C@H](CO)[C@@H](O)[C@H](O)[C@H]3O)c(O)c12
REMARK SMILES IDX 4 1 3 2 2 3 1 4 32 5 14 6 13 7 15 8 16 9 18 10 30 11 5 12
REMARK SMILES IDX 6 13 7 14 8 15 12 16 10 17 9 18 11 20 31 22 17 24 19 26
REMARK SMILES IDX 28 27 20 28 26 29 21 30 24 31 29 32 27 34 22 36 23 37 25 39
REMARK H PARENT 9 19 11 21 31 23 17 25 29 33 27 35 23 38 25 40
REMARK Flexibility Score: inf
ROOT
ATOM      1  C   UNL     1      -2.788  -0.949  11.343  1.00  0.00     0.138 A 
ATOM      2  C   UNL     1      -2.373  -2.285  11.204  1.00  0.00     0.100 A 
ATOM      3  C   UNL     1      -3.202  -3.314  11.653  1.00  0.00     0.197 A 
ATOM      4  O   UNL     1      -2.824  -4.509  11.538  1.00  0.00    -0.289 OA
ATOM      5  C   UNL     1      -4.477  -3.001  12.154  1.00  0.00     0.107 A 
ATOM      6  C   UNL     1      -4.827  -1.643  12.280  1.00  0.00     0.146 A 
ATOM      7  O   UNL     1      -3.972  -0.693  11.909  1.00  0.00    -0.456 OA
ATOM      8  C   UNL     1      -6.104  -1.290  12.723  1.00  0.00     0.094 A 
ATOM      9  C   UNL     1      -7.110  -2.259  12.768  1.00  0.00     0.128 A 
ATOM     10  C   UNL     1      -6.819  -3.598  12.434  1.00  0.00     0.068 A 
ATOM     11  C   UNL     1      -5.459  -3.981  12.396  1.00  0.00     0.140 A 
ENDROOT
BRANCH   1  12
ATOM     12  C   UNL     1      -2.008   0.195  10.760  1.00  0.00     0.021 A 
ATOM     13  C   UNL     1      -0.851  -0.081  10.005  1.00  0.00     0.016 A 
ATOM     14  C   UNL     1       0.065   0.933   9.703  1.00  0.00     0.051 A 
ATOM     15  C   UNL     1      -0.146   2.229  10.192  1.00  0.00     0.157 A 
ATOM     16  C   UNL     1      -2.275   1.541  11.108  1.00  0.00     0.062 A 
ATOM     17  C   UNL     1      -1.322   2.533  10.890  1.00  0.00     0.158 A 
BRANCH  15  18
ATOM     18  O   UNL     1       0.818   3.216  10.013  1.00  0.00    -0.504 OA
ATOM     19  H   UNL     1       0.957   3.949  10.698  1.00  0.00     0.293 HD
ENDBRANCH  15  18
BRANCH  17  20
ATOM     20  O   UNL     1      -1.559   3.816  11.386  1.00  0.00    -0.504 OA
ATOM     21  H   UNL     1      -2.489   4.226  11.403  1.00  0.00     0.293 HD
ENDBRANCH  17  20
ENDBRANCH   1  12
BRANCH  11  22
ATOM     22  O   UNL     1      -5.073  -5.317  12.591  1.00  0.00    -0.506 OA
ATOM     23  H   UNL     1      -4.201  -5.687  12.247  1.00  0.00     0.293 HD
ENDBRANCH  11  22
BRANCH   9  24
ATOM     24  O   UNL     1      -8.414  -1.887  13.068  1.00  0.00    -0.507 OA
ATOM     25  H   UNL     1      -8.623  -1.079  13.645  1.00  0.00     0.293 HD
ENDBRANCH   9  24
BRANCH  10  26
ATOM     26  C   UNL     1      -7.865  -4.410  11.638  1.00  0.00     0.188 C 
ATOM     27  C   UNL     1      -8.771  -5.195  12.663  1.00  0.00     0.179 C 
ATOM     28  O   UNL     1      -8.558  -3.525  10.757  1.00  0.00    -0.362 OA
ATOM     29  C   UNL     1     -10.137  -5.680  12.123  1.00  0.00     0.177 C 
ATOM     30  C   UNL     1      -9.925  -3.776  10.473  1.00  0.00     0.176 C 
ATOM     31  C   UNL     1     -10.374  -5.237  10.680  1.00  0.00     0.177 C 
BRANCH  27  32
ATOM     32  O   UNL     1      -8.062  -6.336  13.105  1.00  0.00    -0.387 OA
ATOM     33  H   UNL     1      -7.279  -6.445  12.500  1.00  0.00     0.211 HD
ENDBRANCH  27  32
BRANCH  29  34
ATOM     34  O   UNL     1     -11.166  -5.206  12.961  1.00  0.00    -0.387 OA
ATOM     35  H   UNL     1     -10.761  -4.980  13.840  1.00  0.00     0.211 HD
ENDBRANCH  29  34
BRANCH  30  36
ATOM     36  C   UNL     1     -10.823  -2.747  11.190  1.00  0.00     0.191 C 
BRANCH  36  37
ATOM     37  O   UNL     1     -10.396  -1.427  10.954  1.00  0.00    -0.394 OA
ATOM     38  H   UNL     1      -9.447  -1.366  11.253  1.00  0.00     0.210 HD
ENDBRANCH  36  37
ENDBRANCH  30  36
BRANCH  31  39
ATOM     39  O   UNL     1      -9.672  -6.066   9.786  1.00  0.00    -0.388 OA
ATOM     40  H   UNL     1      -8.708  -5.868   9.908  1.00  0.00     0.211 HD
ENDBRANCH  31  39
ENDBRANCH  10  26
TORSDOF 11
ENDMDL
MODEL 2
REMARK VINA RESULT:    -5.554      3.144      5.267
REMARK INTER + INTRA:          -9.223
REMARK INTER:                  -7.781
REMARK INTRA:                  -1.442
REMARK UNBOUND:                -1.396
REMARK SMILES O=c1cc(-c2ccc(O)c(O)c2)oc2cc(O)c([C@@H]3O[C@H](CO)[C@@H](O)[C@H](O)[C@H]3O)c(O)c12
REMARK SMILES IDX 4 1 3 2 2 3 1 4 32 5 14 6 13 7 15 8 16 9 18 10 30 11 5 12
REMARK SMILES IDX 6 13 7 14 8 15 12 16 10 17 9 18 11 20 31 22 17 24 19 26
REMARK SMILES IDX 28 27 20 28 26 29 21 30 24 31 29 32 27 34 22 36 23 37 25 39
REMARK H PARENT 9 19 11 21 31 23 17 25 29 33 27 35 23 38 25 40
REMARK Flexibility Score: inf
ROOT
ATOM      1  C   UNL     1      -1.400   0.558  10.255  1.00  0.00     0.138 A 
ATOM      2  C   UNL     1      -2.083  -0.577  10.726  1.00  0.00     0.100 A 
ATOM      3  C   UNL     1      -3.356  -0.433  11.278  1.00  0.00     0.197 A 
ATOM      4  O   UNL     1      -3.963  -1.449  11.709  1.00  0.00    -0.289 OA
ATOM      5  C   UNL     1      -3.971   0.831  11.273  1.00  0.00     0.107 A 
ATOM      6  C   UNL     1      -3.228   1.930  10.801  1.00  0.00     0.146 A 
ATOM      7  O   UNL     1      -1.986   1.757  10.352  1.00  0.00    -0.456 OA
ATOM      8  C   UNL     1      -3.819   3.192  10.729  1.00  0.00     0.094 A 
ATOM      9  C   UNL     1      -5.206   3.312  10.853  1.00  0.00     0.128 A 
ATOM     10  C   UNL     1      -5.994   2.173  11.116  1.00  0.00     0.068 A 
ATOM     11  C   UNL     1      -5.333   1.014  11.583  1.00  0.00     0.140 A 
ENDROOT
BRANCH   1  12
ATOM     12  C   UNL     1      -0.088   0.458   9.528  1.00  0.00     0.021 A 
ATOM     13  C   UNL     1       0.681  -0.714   9.666  1.00  0.00     0.016 A 
ATOM     14  C   UNL     1       2.022  -0.740   9.267  1.00  0.00     0.051 A 
ATOM     15  C   UNL     1       2.621   0.423   8.764  1.00  0.00     0.157 A 
ATOM     16  C   UNL     1       0.495   1.569   8.874  1.00  0.00     0.062 A 
ATOM     17  C   UNL     1       1.852   1.577   8.562  1.00  0.00     0.158 A 
BRANCH  15  18
ATOM     18  O   UNL     1       3.984   0.450   8.486  1.00  0.00    -0.504 OA
ATOM     19  H   UNL     1       4.670   0.204   9.189  1.00  0.00     0.293 HD
ENDBRANCH  15  18
BRANCH  17  20
ATOM     20  O   UNL     1       2.422   2.747   8.060  1.00  0.00    -0.504 OA
ATOM     21  H   UNL     1       2.910   2.772   7.168  1.00  0.00     0.293 HD
ENDBRANCH  17  20
ENDBRANCH   1  12
BRANCH  11  22
ATOM     22  O   UNL     1      -6.008   0.046  12.344  1.00  0.00    -0.506 OA
ATOM     23  H   UNL     1      -5.890  -0.943  12.194  1.00  0.00     0.293 HD
ENDBRANCH  11  22
BRANCH   9  24
ATOM     24  O   UNL     1      -5.815   4.542  10.638  1.00  0.00    -0.507 OA
ATOM     25  H   UNL     1      -6.822   4.635  10.557  1.00  0.00     0.293 HD
ENDBRANCH   9  24
BRANCH  10  26
ATOM     26  C   UNL     1      -7.367   2.040  10.421  1.00  0.00     0.188 C 
ATOM     27  C   UNL     1      -7.128   1.603   8.925  1.00  0.00     0.179 C 
ATOM     28  O   UNL     1      -8.189   1.164  11.194  1.00  0.00    -0.362 OA
ATOM     29  C   UNL     1      -8.343   0.972   8.203  1.00  0.00     0.177 C 
ATOM     30  C   UNL     1      -9.123   0.334  10.521  1.00  0.00     0.176 C 
ATOM     31  C   UNL     1      -9.552   0.834   9.128  1.00  0.00     0.177 C 
BRANCH  27  32
ATOM     32  O   UNL     1      -6.741   2.742   8.181  1.00  0.00    -0.387 OA
ATOM     33  H   UNL     1      -7.553   3.072   7.710  1.00  0.00     0.211 HD
ENDBRANCH  27  32
BRANCH  29  34
ATOM     34  O   UNL     1      -7.975  -0.285   7.681  1.00  0.00    -0.387 OA
ATOM     35  H   UNL     1      -7.030  -0.455   7.939  1.00  0.00     0.211 HD
ENDBRANCH  29  34
BRANCH  30  36
ATOM     36  C   UNL     1      -8.646  -1.133  10.532  1.00  0.00     0.191 C 
BRANCH  36  37
ATOM     37  O   UNL     1      -9.475  -1.958   9.750  1.00  0.00    -0.394 OA
ATOM     38  H   UNL     1     -10.182  -2.321  10.351  1.00  0.00     0.210 HD
ENDBRANCH  36  37
ENDBRANCH  30  36
BRANCH  31  39
ATOM     39  O   UNL     1     -10.213   2.068   9.263  1.00  0.00    -0.388 OA
ATOM     40  H   UNL     1     -11.139   1.866   9.554  1.00  0.00     0.211 HD
ENDBRANCH  31  39
ENDBRANCH  10  26
TORSDOF 11
ENDMDL
MODEL 3
REMARK VINA RESULT:    -5.345      3.523      5.775
REMARK INTER + INTRA:          -8.928
REMARK INTER:                  -7.517
REMARK INTRA:                  -1.411
REMARK UNBOUND:                -1.396
REMARK SMILES O=c1cc(-c2ccc(O)c(O)c2)oc2cc(O)c([C@@H]3O[C@H](CO)[C@@H](O)[C@H](O)[C@H]3O)c(O)c12
REMARK SMILES IDX 4 1 3 2 2 3 1 4 32 5 14 6 13 7 15 8 16 9 18 10 30 11 5 12
REMARK SMILES IDX 6 13 7 14 8 15 12 16 10 17 9 18 11 20 31 22 17 24 19 26
REMARK SMILES IDX 28 27 20 28 26 29 21 30 24 31 29 32 27 34 22 36 23 37 25 39
REMARK H PARENT 9 19 11 21 31 23 17 25 29 33 27 35 23 38 25 40
REMARK Flexibility Score: inf
ROOT
ATOM      1  C   UNL     1      -1.883   2.980  11.175  1.00  0.00     0.138 A 
ATOM      2  C   UNL     1      -2.299   1.814  11.840  1.00  0.00     0.100 A 
ATOM      3  C   UNL     1      -3.648   1.647  12.157  1.00  0.00     0.197 A 
ATOM      4  O   UNL     1      -4.017   0.606  12.762  1.00  0.00    -0.289 OA
ATOM      5  C   UNL     1      -4.580   2.607  11.728  1.00  0.00     0.107 A 
ATOM      6  C   UNL     1      -4.097   3.759  11.079  1.00  0.00     0.146 A 
ATOM      7  O   UNL     1      -2.792   3.911  10.865  1.00  0.00    -0.456 OA
ATOM      8  C   UNL     1      -4.994   4.711  10.590  1.00  0.00     0.094 A 
ATOM      9  C   UNL     1      -6.351   4.392  10.490  1.00  0.00     0.128 A 
ATOM     10  C   UNL     1      -6.820   3.143  10.944  1.00  0.00     0.068 A 
ATOM     11  C   UNL     1      -5.971   2.395  11.792  1.00  0.00     0.140 A 
ENDROOT
BRANCH   1  12
ATOM     12  C   UNL     1      -0.474   3.162  10.684  1.00  0.00     0.021 A 
ATOM     13  C   UNL     1       0.028   4.467  10.515  1.00  0.00     0.016 A 
ATOM     14  C   UNL     1       1.201   4.694   9.787  1.00  0.00     0.051 A 
ATOM     15  C   UNL     1       1.864   3.617   9.182  1.00  0.00     0.157 A 
ATOM     16  C   UNL     1       0.297   2.080  10.197  1.00  0.00     0.062 A 
ATOM     17  C   UNL     1       1.412   2.307   9.394  1.00  0.00     0.158 A 
BRANCH  15  18
ATOM     18  O   UNL     1       2.954   3.839   8.348  1.00  0.00    -0.504 OA
ATOM     19  H   UNL     1       3.158   4.760   7.981  1.00  0.00     0.293 HD
ENDBRANCH  15  18
BRANCH  17  20
ATOM     20  O   UNL     1       2.054   1.217   8.806  1.00  0.00    -0.504 OA
ATOM     21  H   UNL     1       2.540   0.514   9.357  1.00  0.00     0.293 HD
ENDBRANCH  17  20
ENDBRANCH   1  12
BRANCH  11  22
ATOM     22  O   UNL     1      -6.489   1.447  12.689  1.00  0.00    -0.506 OA
ATOM     23  H   UNL     1      -6.703   1.667  13.648  1.00  0.00     0.293 HD
ENDBRANCH  11  22
BRANCH   9  24
ATOM     24  O   UNL     1      -7.224   5.278   9.871  1.00  0.00    -0.507 OA
ATOM     25  H   UNL     1      -7.971   4.958   9.264  1.00  0.00     0.293 HD
ENDBRANCH   9  24
BRANCH  10  26
ATOM     26  C   UNL     1      -7.919   2.421  10.134  1.00  0.00     0.188 C 
ATOM     27  C   UNL     1      -7.255   1.779   8.855  1.00  0.00     0.179 C 
ATOM     28  O   UNL     1      -8.599   1.508  10.997  1.00  0.00    -0.362 OA
ATOM     29  C   UNL     1      -8.058   0.645   8.174  1.00  0.00     0.177 C 
ATOM     30  C   UNL     1      -9.093   0.294  10.454  1.00  0.00     0.176 C 
ATOM     31  C   UNL     1      -9.343   0.317   8.933  1.00  0.00     0.177 C 
BRANCH  27  32
ATOM     32  O   UNL     1      -7.063   2.797   7.892  1.00  0.00    -0.387 OA
ATOM     33  H   UNL     1      -7.805   2.718   7.233  1.00  0.00     0.211 HD
ENDBRANCH  27  32
BRANCH  29  34
ATOM     34  O   UNL     1      -7.244  -0.501   8.062  1.00  0.00    -0.387 OA
ATOM     35  H   UNL     1      -7.539  -1.150   8.754  1.00  0.00     0.211 HD
ENDBRANCH  29  34
BRANCH  30  36
ATOM     36  C   UNL     1      -8.230  -0.896  10.920  1.00  0.00     0.191 C 
BRANCH  36  37
ATOM     37  O   UNL     1      -8.633  -2.103  10.320  1.00  0.00    -0.394 OA
ATOM     38  H   UNL     1      -8.103  -2.834  10.741  1.00  0.00     0.210 HD
ENDBRANCH  36  37
ENDBRANCH  30  36
BRANCH  31  39
ATOM     39  O   UNL     1     -10.343   1.262   8.643  1.00  0.00    -0.388 OA
ATOM     40  H   UNL     1      -9.916   2.156   8.695  1.00  0.00     0.211 HD
ENDBRANCH  31  39
ENDBRANCH  10  26
TORSDOF 11
ENDMDL
MODEL 4
REMARK VINA RESULT:    -5.241      5.566      9.960
REMARK INTER + INTRA:          -8.782
REMARK INTER:                  -7.515
REMARK INTRA:                  -1.266
REMARK UNBOUND:                -1.396
REMARK SMILES O=c1cc(-c2ccc(O)c(O)c2)oc2cc(O)c([C@@H]3O[C@H](CO)[C@@H](O)[C@H](O)[C@H]3O)c(O)c12
REMARK SMILES IDX 4 1 3 2 2 3 1 4 32 5 14 6 13 7 15 8 16 9 18 10 30 11 5 12
REMARK SMILES IDX 6 13 7 14 8 15 12 16 10 17 9 18 11 20 31 22 17 24 19 26
REMARK SMILES IDX 28 27 20 28 26 29 21 30 24 31 29 32 27 34 22 36 23 37 25 39
REMARK H PARENT 9 19 11 21 31 23 17 25 29 33 27 35 23 38 25 40
REMARK Flexibility Score: inf
ROOT
ATOM      1  C   UNL     1      -7.134   4.919   7.942  1.00  0.00     0.138 A 
ATOM      2  C   UNL     1      -6.108   5.875   8.049  1.00  0.00     0.100 A 
ATOM      3  C   UNL     1      -5.217   5.811   9.121  1.00  0.00     0.197 A 
ATOM      4  O   UNL     1      -4.306   6.674   9.220  1.00  0.00    -0.289 OA
ATOM      5  C   UNL     1      -5.305   4.740  10.027  1.00  0.00     0.107 A 
ATOM      6  C   UNL     1      -6.363   3.824   9.873  1.00  0.00     0.146 A 
ATOM      7  O   UNL     1      -7.235   3.968   8.878  1.00  0.00    -0.456 OA
ATOM      8  C   UNL     1      -6.455   2.717  10.718  1.00  0.00     0.094 A 
ATOM      9  C   UNL     1      -5.363   2.367  11.517  1.00  0.00     0.128 A 
ATOM     10  C   UNL     1      -4.201   3.166  11.518  1.00  0.00     0.068 A 
ATOM     11  C   UNL     1      -4.305   4.470  10.981  1.00  0.00     0.140 A 
ENDROOT
BRANCH   1  12
ATOM     12  C   UNL     1      -8.040   4.848   6.746  1.00  0.00     0.021 A 
ATOM     13  C   UNL     1      -7.741   5.634   5.615  1.00  0.00     0.016 A 
ATOM     14  C   UNL     1      -8.696   5.836   4.612  1.00  0.00     0.051 A 
ATOM     15  C   UNL     1      -9.978   5.288   4.751  1.00  0.00     0.157 A 
ATOM     16  C   UNL     1      -9.287   4.179   6.786  1.00  0.00     0.062 A 
ATOM     17  C   UNL     1     -10.270   4.453   5.838  1.00  0.00     0.158 A 
BRANCH  15  18
ATOM     18  O   UNL     1     -10.976   5.587   3.830  1.00  0.00    -0.504 OA
ATOM     19  H   UNL     1     -10.841   5.436   2.838  1.00  0.00     0.293 HD
ENDBRANCH  15  18
BRANCH  17  20
ATOM     20  O   UNL     1     -11.537   3.892   6.000  1.00  0.00    -0.504 OA
ATOM     21  H   UNL     1     -12.320   4.423   6.372  1.00  0.00     0.293 HD
ENDBRANCH  17  20
ENDBRANCH   1  12
BRANCH  11  22
ATOM     22  O   UNL     1      -3.430   5.494  11.379  1.00  0.00    -0.506 OA
ATOM     23  H   UNL     1      -3.049   6.166  10.732  1.00  0.00     0.293 HD
ENDBRANCH  11  22
BRANCH   9  24
ATOM     24  O   UNL     1      -5.393   1.187  12.250  1.00  0.00    -0.507 OA
ATOM     25  H   UNL     1      -5.572   0.289  11.814  1.00  0.00     0.293 HD
ENDBRANCH   9  24
BRANCH  10  26
ATOM     26  C   UNL     1      -2.822   2.475  11.585  1.00  0.00     0.188 C 
ATOM     27  C   UNL     1      -2.623   1.632  10.267  1.00  0.00     0.179 C 
ATOM     28  O   UNL     1      -1.825   3.467  11.837  1.00  0.00    -0.362 OA
ATOM     29  C   UNL     1      -1.163   1.253   9.922  1.00  0.00     0.177 C 
ATOM     30  C   UNL     1      -0.534   3.297  11.271  1.00  0.00     0.176 C 
ATOM     31  C   UNL     1      -0.166   1.842  10.919  1.00  0.00     0.177 C 
BRANCH  27  32
ATOM     32  O   UNL     1      -3.352   0.427  10.392  1.00  0.00    -0.387 OA
ATOM     33  H   UNL     1      -2.909  -0.244   9.805  1.00  0.00     0.211 HD
ENDBRANCH  27  32
BRANCH  29  34
ATOM     34  O   UNL     1      -0.866   1.685   8.613  1.00  0.00    -0.387 OA
ATOM     35  H   UNL     1      -1.297   2.571   8.481  1.00  0.00     0.211 HD
ENDBRANCH  29  34
BRANCH  30  36
ATOM     36  C   UNL     1      -0.322   4.287  10.108  1.00  0.00     0.191 C 
BRANCH  36  37
ATOM     37  O   UNL     1       0.917   4.087   9.470  1.00  0.00    -0.394 OA
ATOM     38  H   UNL     1       0.814   4.384   8.525  1.00  0.00     0.210 HD
ENDBRANCH  36  37
ENDBRANCH  30  36
BRANCH  31  39
ATOM     39  O   UNL     1      -0.135   1.075  12.098  1.00  0.00    -0.388 OA
ATOM     40  H   UNL     1       0.182   0.170  11.843  1.00  0.00     0.211 HD
ENDBRANCH  31  39
ENDBRANCH  10  26
TORSDOF 11
ENDMDL
MODEL 5
REMARK VINA RESULT:    -5.164      5.826     11.365
REMARK INTER + INTRA:          -8.674
REMARK INTER:                  -7.536
REMARK INTRA:                  -1.138
REMARK UNBOUND:                -1.396
REMARK SMILES O=c1cc(-c2ccc(O)c(O)c2)oc2cc(O)c([C@@H]3O[C@H](CO)[C@@H](O)[C@H](O)[C@H]3O)c(O)c12
REMARK SMILES IDX 4 1 3 2 2 3 1 4 32 5 14 6 13 7 15 8 16 9 18 10 30 11 5 12
REMARK SMILES IDX 6 13 7 14 8 15 12 16 10 17 9 18 11 20 31 22 17 24 19 26
REMARK SMILES IDX 28 27 20 28 26 29 21 30 24 31 29 32 27 34 22 36 23 37 25 39
REMARK H PARENT 9 19 11 21 31 23 17 25 29 33 27 35 23 38 25 40
REMARK Flexibility Score: inf
ROOT
ATOM      1  C   UNL     1     -11.142  -8.307   4.548  1.00  0.00     0.138 A 
ATOM      2  C   UNL     1     -11.050  -7.022   3.986  1.00  0.00     0.100 A 
ATOM      3  C   UNL     1     -11.310  -5.903   4.779  1.00  0.00     0.197 A 
ATOM      4  O   UNL     1     -11.237  -4.753   4.272  1.00  0.00    -0.289 OA
ATOM      5  C   UNL     1     -11.573  -6.077   6.149  1.00  0.00     0.107 A 
ATOM      6  C   UNL     1     -11.666  -7.391   6.647  1.00  0.00     0.146 A 
ATOM      7  O   UNL     1     -11.484  -8.430   5.836  1.00  0.00    -0.456 OA
ATOM      8  C   UNL     1     -11.872  -7.606   8.011  1.00  0.00     0.094 A 
ATOM      9  C   UNL     1     -11.704  -6.549   8.909  1.00  0.00     0.128 A 
ATOM     10  C   UNL     1     -11.396  -5.258   8.433  1.00  0.00     0.068 A 
ATOM     11  C   UNL     1     -11.602  -5.002   7.058  1.00  0.00     0.140 A 
ENDROOT
BRANCH   1  12
ATOM     12  C   UNL     1     -10.745  -9.542   3.790  1.00  0.00     0.021 A 
ATOM     13  C   UNL     1     -10.097  -9.402   2.547  1.00  0.00     0.016 A 
ATOM     14  C   UNL     1      -9.980 -10.489   1.674  1.00  0.00     0.051 A 
ATOM     15  C   UNL     1     -10.551 -11.722   2.018  1.00  0.00     0.157 A 
ATOM     16  C   UNL     1     -11.173 -10.834   4.179  1.00  0.00     0.062 A 
ATOM     17  C   UNL     1     -11.142 -11.894   3.277  1.00  0.00     0.158 A 
BRANCH  15  18
ATOM     18  O   UNL     1     -10.559 -12.773   1.108  1.00  0.00    -0.504 OA
ATOM     19  H   UNL     1     -10.190 -12.663   0.171  1.00  0.00     0.293 HD
ENDBRANCH  15  18
BRANCH  17  20
ATOM     20  O   UNL     1     -11.716 -13.111   3.647  1.00  0.00    -0.504 OA
ATOM     21  H   UNL     1     -11.154 -13.928   3.868  1.00  0.00     0.293 HD
ENDBRANCH  17  20
ENDBRANCH   1  12
BRANCH  11  22
ATOM     22  O   UNL     1     -11.832  -3.699   6.586  1.00  0.00    -0.506 OA
ATOM     23  H   UNL     1     -12.752  -3.360   6.354  1.00  0.00     0.293 HD
ENDBRANCH  11  22
BRANCH   9  24
ATOM     24  O   UNL     1     -11.766  -6.787  10.276  1.00  0.00    -0.507 OA
ATOM     25  H   UNL     1     -11.116  -6.357  10.926  1.00  0.00     0.293 HD
ENDBRANCH   9  24
BRANCH  10  26
ATOM     26  C   UNL     1     -10.399  -4.389   9.231  1.00  0.00     0.188 C 
ATOM     27  C   UNL     1     -11.221  -3.418  10.164  1.00  0.00     0.179 C 
ATOM     28  O   UNL     1      -9.476  -5.249   9.900  1.00  0.00    -0.362 OA
ATOM     29  C   UNL     1     -10.445  -2.811  11.357  1.00  0.00     0.177 C 
ATOM     30  C   UNL     1      -8.967  -4.853  11.165  1.00  0.00     0.176 C 
ATOM     31  C   UNL     1      -9.012  -3.336  11.437  1.00  0.00     0.177 C 
BRANCH  27  32
ATOM     32  O   UNL     1     -11.698  -2.341   9.380  1.00  0.00    -0.387 OA
ATOM     33  H   UNL     1     -11.451  -2.536   8.436  1.00  0.00     0.211 HD
ENDBRANCH  27  32
BRANCH  29  34
ATOM     34  O   UNL     1     -11.139  -3.086  12.553  1.00  0.00    -0.387 OA
ATOM     35  H   UNL     1     -12.111  -2.973  12.373  1.00  0.00     0.211 HD
ENDBRANCH  29  34
BRANCH  30  36
ATOM     36  C   UNL     1      -9.596  -5.702  12.288  1.00  0.00     0.191 C 
BRANCH  36  37
ATOM     37  O   UNL     1      -8.619  -6.374  13.045  1.00  0.00    -0.394 OA
ATOM     38  H   UNL     1      -7.934  -6.716  12.407  1.00  0.00     0.210 HD
ENDBRANCH  36  37
ENDBRANCH  30  36
BRANCH  31  39
ATOM     39  O   UNL     1      -8.191  -2.675  10.507  1.00  0.00    -0.388 OA
ATOM     40  H   UNL     1      -8.640  -1.818  10.287  1.00  0.00     0.211 HD
ENDBRANCH  31  39
ENDBRANCH  10  26
TORSDOF 11
ENDMDL
MODEL 6
REMARK VINA RESULT:    -5.142      3.320      4.547
REMARK INTER + INTRA:          -8.642
REMARK INTER:                  -7.262
REMARK INTRA:                  -1.380
REMARK UNBOUND:                -1.396
REMARK SMILES O=c1cc(-c2ccc(O)c(O)c2)oc2cc(O)c([C@@H]3O[C@H](CO)[C@@H](O)[C@H](O)[C@H]3O)c(O)c12
REMARK SMILES IDX 4 1 3 2 2 3 1 4 32 5 14 6 13 7 15 8 16 9 18 10 30 11 5 12
REMARK SMILES IDX 6 13 7 14 8 15 12 16 10 17 9 18 11 20 31 22 17 24 19 26
REMARK SMILES IDX 28 27 20 28 26 29 21 30 24 31 29 32 27 34 22 36 23 37 25 39
REMARK H PARENT 9 19 11 21 31 23 17 25 29 33 27 35 23 38 25 40
REMARK Flexibility Score: inf
ROOT
ATOM      1  C   UNL     1      -2.343   0.640  10.648  1.00  0.00     0.138 A 
ATOM      2  C   UNL     1      -2.665  -0.711  10.870  1.00  0.00     0.100 A 
ATOM      3  C   UNL     1      -4.001  -1.082  11.032  1.00  0.00     0.197 A 
ATOM      4  O   UNL     1      -4.287  -2.291  11.240  1.00  0.00    -0.289 OA
ATOM      5  C   UNL     1      -5.008  -0.114  10.882  1.00  0.00     0.107 A 
ATOM      6  C   UNL     1      -4.619   1.224  10.675  1.00  0.00     0.146 A 
ATOM      7  O   UNL     1      -3.329   1.543  10.602  1.00  0.00    -0.456 OA
ATOM      8  C   UNL     1      -5.588   2.207  10.467  1.00  0.00     0.094 A 
ATOM      9  C   UNL     1      -6.903   1.830  10.186  1.00  0.00     0.128 A 
ATOM     10  C   UNL     1      -7.263   0.467  10.178  1.00  0.00     0.068 A 
ATOM     11  C   UNL     1      -6.373  -0.447  10.787  1.00  0.00     0.140 A 
ENDROOT
BRANCH   1  12
ATOM     12  C   UNL     1      -0.944   1.087  10.332  1.00  0.00     0.021 A 
ATOM     13  C   UNL     1      -0.554   2.399  10.664  1.00  0.00     0.016 A 
ATOM     14  C   UNL     1       0.613   2.956  10.129  1.00  0.00     0.051 A 
ATOM     15  C   UNL     1       1.381   2.219   9.219  1.00  0.00     0.157 A 
ATOM     16  C   UNL     1      -0.069   0.310   9.535  1.00  0.00     0.062 A 
ATOM     17  C   UNL     1       1.041   0.891   8.927  1.00  0.00     0.158 A 
BRANCH  15  18
ATOM     18  O   UNL     1       2.469   2.804   8.579  1.00  0.00    -0.504 OA
ATOM     19  H   UNL     1       2.632   2.672   7.588  1.00  0.00     0.293 HD
ENDBRANCH  15  18
BRANCH  17  20
ATOM     20  O   UNL     1       1.790   0.133   8.026  1.00  0.00    -0.504 OA
ATOM     21  H   UNL     1       2.294  -0.703   8.311  1.00  0.00     0.293 HD
ENDBRANCH  17  20
ENDBRANCH   1  12
BRANCH  11  22
ATOM     22  O   UNL     1      -6.824  -1.677  11.292  1.00  0.00    -0.506 OA
ATOM     23  H   UNL     1      -6.393  -2.131  12.081  1.00  0.00     0.293 HD
ENDBRANCH  11  22
BRANCH   9  24
ATOM     24  O   UNL     1      -7.839   2.796   9.836  1.00  0.00    -0.507 OA
ATOM     25  H   UNL     1      -7.827   3.726  10.241  1.00  0.00     0.293 HD
ENDBRANCH   9  24
BRANCH  10  26
ATOM     26  C   UNL     1      -8.261  -0.034   9.111  1.00  0.00     0.188 C 
ATOM     27  C   UNL     1      -9.695  -0.107   9.765  1.00  0.00     0.179 C 
ATOM     28  O   UNL     1      -8.154   0.801   7.956  1.00  0.00    -0.362 OA
ATOM     29  C   UNL     1     -10.886  -0.128   8.778  1.00  0.00     0.177 C 
ATOM     30  C   UNL     1      -9.318   1.052   7.185  1.00  0.00     0.176 C 
ATOM     31  C   UNL     1     -10.431  -0.006   7.324  1.00  0.00     0.177 C 
BRANCH  27  32
ATOM     32  O   UNL     1      -9.772  -1.284  10.544  1.00  0.00    -0.387 OA
ATOM     33  H   UNL     1      -9.666  -1.011  11.495  1.00  0.00     0.211 HD
ENDBRANCH  27  32
BRANCH  29  34
ATOM     34  O   UNL     1     -11.781   0.912   9.104  1.00  0.00    -0.387 OA
ATOM     35  H   UNL     1     -11.569   1.688   8.520  1.00  0.00     0.211 HD
ENDBRANCH  29  34
BRANCH  30  36
ATOM     36  C   UNL     1      -9.808   2.498   7.404  1.00  0.00     0.191 C 
BRANCH  36  37
ATOM     37  O   UNL     1      -8.780   3.436   7.197  1.00  0.00    -0.394 OA
ATOM     38  H   UNL     1      -7.974   2.930   6.900  1.00  0.00     0.210 HD
ENDBRANCH  36  37
ENDBRANCH  30  36
BRANCH  31  39
ATOM     39  O   UNL     1      -9.956  -1.242   6.850  1.00  0.00    -0.388 OA
ATOM     40  H   UNL     1     -10.163  -1.915   7.548  1.00  0.00     0.211 HD
ENDBRANCH  31  39
ENDBRANCH  10  26
TORSDOF 11
ENDMDL
MODEL 7
REMARK VINA RESULT:    -5.129      4.304      6.916
REMARK INTER + INTRA:          -8.624
REMARK INTER:                  -7.440
REMARK INTRA:                  -1.184
REMARK UNBOUND:                -1.396
REMARK SMILES O=c1cc(-c2ccc(O)c(O)c2)oc2cc(O)c([C@@H]3O[C@H](CO)[C@@H](O)[C@H](O)[C@H]3O)c(O)c12
REMARK SMILES IDX 4 1 3 2 2 3 1 4 32 5 14 6 13 7 15 8 16 9 18 10 30 11 5 12
REMARK SMILES IDX 6 13 7 14 8 15 12 16 10 17 9 18 11 20 31 22 17 24 19 26
REMARK SMILES IDX 28 27 20 28 26 29 21 30 24 31 29 32 27 34 22 36 23 37 25 39
REMARK H PARENT 9 19 11 21 31 23 17 25 29 33 27 35 23 38 25 40
REMARK Flexibility Score: inf
ROOT
ATOM      1  C   UNL     1      -9.235   0.589   8.247  1.00  0.00     0.138 A 
ATOM      2  C   UNL     1      -7.831   0.508   8.271  1.00  0.00     0.100 A 
ATOM      3  C   UNL     1      -7.197  -0.140   9.332  1.00  0.00     0.197 A 
ATOM      4  O   UNL     1      -5.939  -0.203   9.357  1.00  0.00    -0.289 OA
ATOM      5  C   UNL     1      -7.975  -0.778  10.313  1.00  0.00     0.107 A 
ATOM      6  C   UNL     1      -9.375  -0.648  10.240  1.00  0.00     0.146 A 
ATOM      7  O   UNL     1      -9.933   0.045   9.250  1.00  0.00    -0.456 OA
ATOM      8  C   UNL     1     -10.186  -1.310  11.163  1.00  0.00     0.094 A 
ATOM      9  C   UNL     1      -9.637  -2.311  11.969  1.00  0.00     0.128 A 
ATOM     10  C   UNL     1      -8.260  -2.603  11.897  1.00  0.00     0.068 A 
ATOM     11  C   UNL     1      -7.423  -1.652  11.270  1.00  0.00     0.140 A 
ENDROOT
BRANCH   1  12
ATOM     12  C   UNL     1      -9.983   1.151   7.072  1.00  0.00     0.021 A 
ATOM     13  C   UNL     1     -10.182   0.340   5.937  1.00  0.00     0.016 A 
ATOM     14  C   UNL     1     -10.596   0.899   4.723  1.00  0.00     0.051 A 
ATOM     15  C   UNL     1     -10.773   2.285   4.619  1.00  0.00     0.157 A 
ATOM     16  C   UNL     1     -10.320   2.523   6.982  1.00  0.00     0.062 A 
ATOM     17  C   UNL     1     -10.641   3.096   5.754  1.00  0.00     0.158 A 
BRANCH  15  18
ATOM     18  O   UNL     1     -11.056   2.869   3.389  1.00  0.00    -0.504 OA
ATOM     19  H   UNL     1     -11.738   3.612   3.302  1.00  0.00     0.293 HD
ENDBRANCH  15  18
BRANCH  17  20
ATOM     20  O   UNL     1     -10.815   4.478   5.680  1.00  0.00    -0.504 OA
ATOM     21  H   UNL     1     -10.079   5.130   5.938  1.00  0.00     0.293 HD
ENDBRANCH  17  20
ENDBRANCH   1  12
BRANCH  11  22
ATOM     22  O   UNL     1      -6.056  -1.566  11.582  1.00  0.00    -0.506 OA
ATOM     23  H   UNL     1      -5.494  -2.376  11.788  1.00  0.00     0.293 HD
ENDBRANCH  11  22
BRANCH   9  24
ATOM     24  O   UNL     1     -10.465  -3.073  12.785  1.00  0.00    -0.507 OA
ATOM     25  H   UNL     1     -11.087  -3.780  12.408  1.00  0.00     0.293 HD
ENDBRANCH   9  24
BRANCH  10  26
ATOM     26  C   UNL     1      -7.804  -4.076  11.993  1.00  0.00     0.188 C 
ATOM     27  C   UNL     1      -7.605  -4.632  10.531  1.00  0.00     0.179 C 
ATOM     28  O   UNL     1      -6.655  -4.145  12.839  1.00  0.00    -0.362 OA
ATOM     29  C   UNL     1      -6.723  -5.897  10.404  1.00  0.00     0.177 C 
ATOM     30  C   UNL     1      -5.660  -5.118  12.562  1.00  0.00     0.176 C 
ATOM     31  C   UNL     1      -6.150  -6.335  11.751  1.00  0.00     0.177 C 
BRANCH  27  32
ATOM     32  O   UNL     1      -8.874  -4.948   9.994  1.00  0.00    -0.387 OA
ATOM     33  H   UNL     1      -8.804  -4.855   9.006  1.00  0.00     0.211 HD
ENDBRANCH  27  32
BRANCH  29  34
ATOM     34  O   UNL     1      -5.685  -5.652   9.482  1.00  0.00    -0.387 OA
ATOM     35  H   UNL     1      -6.032  -5.023   8.795  1.00  0.00     0.211 HD
ENDBRANCH  29  34
BRANCH  30  36
ATOM     36  C   UNL     1      -4.402  -4.449  11.973  1.00  0.00     0.191 C 
BRANCH  36  37
ATOM     37  O   UNL     1      -3.335  -4.444  12.890  1.00  0.00    -0.394 OA
ATOM     38  H   UNL     1      -3.709  -4.689  13.780  1.00  0.00     0.210 HD
ENDBRANCH  36  37
ENDBRANCH  30  36
BRANCH  31  39
ATOM     39  O   UNL     1      -7.119  -7.028  12.498  1.00  0.00    -0.388 OA
ATOM     40  H   UNL     1      -7.667  -6.344  12.961  1.00  0.00     0.211 HD
ENDBRANCH  31  39
ENDBRANCH  10  26
TORSDOF 11
ENDMDL
MODEL 8
REMARK VINA RESULT:    -4.986      2.564      4.171
REMARK INTER + INTRA:          -8.422
REMARK INTER:                  -7.003
REMARK INTRA:                  -1.419
REMARK UNBOUND:                -1.396
REMARK SMILES O=c1cc(-c2ccc(O)c(O)c2)oc2cc(O)c([C@@H]3O[C@H](CO)[C@@H](O)[C@H](O)[C@H]3O)c(O)c12
REMARK SMILES IDX 4 1 3 2 2 3 1 4 32 5 14 6 13 7 15 8 16 9 18 10 30 11 5 12
REMARK SMILES IDX 6 13 7 14 8 15 12 16 10 17 9 18 11 20 31 22 17 24 19 26
REMARK SMILES IDX 28 27 20 28 26 29 21 30 24 31 29 32 27 34 22 36 23 37 25 39
REMARK H PARENT 9 19 11 21 31 23 17 25 29 33 27 35 23 38 25 40
REMARK Flexibility Score: inf
ROOT
ATOM      1  C   UNL     1      -3.175   0.267  11.350  1.00  0.00     0.138 A 
ATOM      2  C   UNL     1      -3.604  -0.985  10.874  1.00  0.00     0.100 A 
ATOM      3  C   UNL     1      -4.926  -1.383  11.079  1.00  0.00     0.197 A 
ATOM      4  O   UNL     1      -5.306  -2.508  10.661  1.00  0.00    -0.289 OA
ATOM      5  C   UNL     1      -5.829  -0.488  11.679  1.00  0.00     0.107 A 
ATOM      6  C   UNL     1      -5.333   0.744  12.147  1.00  0.00     0.146 A 
ATOM      7  O   UNL     1      -4.046   1.049  11.997  1.00  0.00    -0.456 OA
ATOM      8  C   UNL     1      -6.206   1.682  12.700  1.00  0.00     0.094 A 
ATOM      9  C   UNL     1      -7.584   1.523  12.534  1.00  0.00     0.128 A 
ATOM     10  C   UNL     1      -8.091   0.386  11.871  1.00  0.00     0.068 A 
ATOM     11  C   UNL     1      -7.219  -0.713  11.700  1.00  0.00     0.140 A 
ENDROOT
BRANCH   1  12
ATOM     12  C   UNL     1      -1.808   0.812  11.046  1.00  0.00     0.021 A 
ATOM     13  C   UNL     1      -1.335   1.919  11.778  1.00  0.00     0.016 A 
ATOM     14  C   UNL     1      -0.221   2.643  11.339  1.00  0.00     0.051 A 
ATOM     15  C   UNL     1       0.408   2.293  10.137  1.00  0.00     0.157 A 
ATOM     16  C   UNL     1      -1.061   0.384   9.922  1.00  0.00     0.062 A 
ATOM     17  C   UNL     1      -0.011   1.156   9.432  1.00  0.00     0.158 A 
BRANCH  15  18
ATOM     18  O   UNL     1       1.432   3.080   9.622  1.00  0.00    -0.504 OA
ATOM     19  H   UNL     1       1.997   3.669  10.221  1.00  0.00     0.293 HD
ENDBRANCH  15  18
BRANCH  17  20
ATOM     20  O   UNL     1       0.599   0.783   8.234  1.00  0.00    -0.504 OA
ATOM     21  H   UNL     1       0.084   0.727   7.359  1.00  0.00     0.293 HD
ENDBRANCH  17  20
ENDBRANCH   1  12
BRANCH  11  22
ATOM     22  O   UNL     1      -7.713  -2.019  11.548  1.00  0.00    -0.506 OA
ATOM     23  H   UNL     1      -7.448  -2.775  12.158  1.00  0.00     0.293 HD
ENDBRANCH  11  22
BRANCH   9  24
ATOM     24  O   UNL     1      -8.451   2.524  12.955  1.00  0.00    -0.507 OA
ATOM     25  H   UNL     1      -8.131   3.317  13.500  1.00  0.00     0.293 HD
ENDBRANCH   9  24
BRANCH  10  26
ATOM     26  C   UNL     1      -9.305   0.552  10.931  1.00  0.00     0.188 C 
ATOM     27  C   UNL     1      -8.781   0.586   9.443  1.00  0.00     0.179 C 
ATOM     28  O   UNL     1     -10.256  -0.472  11.225  1.00  0.00    -0.362 OA
ATOM     29  C   UNL     1      -9.832   0.277   8.350  1.00  0.00     0.177 C 
ATOM     30  C   UNL     1     -11.040  -1.000  10.166  1.00  0.00     0.176 C 
ATOM     31  C   UNL     1     -11.195  -0.071   8.946  1.00  0.00     0.177 C 
BRANCH  27  32
ATOM     32  O   UNL     1      -8.264   1.875   9.179  1.00  0.00    -0.387 OA
ATOM     33  H   UNL     1      -8.185   1.961   8.190  1.00  0.00     0.211 HD
ENDBRANCH  27  32
BRANCH  29  34
ATOM     34  O   UNL     1      -9.365  -0.775   7.537  1.00  0.00    -0.387 OA
ATOM     35  H   UNL     1      -9.857  -0.732   6.674  1.00  0.00     0.211 HD
ENDBRANCH  29  34
BRANCH  30  36
ATOM     36  C   UNL     1     -10.567  -2.423   9.803  1.00  0.00     0.191 C 
BRANCH  36  37
ATOM     37  O   UNL     1     -11.086  -2.847   8.567  1.00  0.00    -0.394 OA
ATOM     38  H   UNL     1     -12.044  -3.081   8.713  1.00  0.00     0.210 HD
ENDBRANCH  36  37
ENDBRANCH  30  36
BRANCH  31  39
ATOM     39  O   UNL     1     -11.876   1.096   9.338  1.00  0.00    -0.388 OA
ATOM     40  H   UNL     1     -12.540   1.293   8.628  1.00  0.00     0.211 HD
ENDBRANCH  31  39
ENDBRANCH  10  26
TORSDOF 11
ENDMDL
MODEL 9
REMARK VINA RESULT:    -4.926      4.206      6.262
REMARK INTER + INTRA:          -8.339
REMARK INTER:                  -7.149
REMARK INTRA:                  -1.190
REMARK UNBOUND:                -1.396
REMARK SMILES O=c1cc(-c2ccc(O)c(O)c2)oc2cc(O)c([C@@H]3O[C@H](CO)[C@@H](O)[C@H](O)[C@H]3O)c(O)c12
REMARK SMILES IDX 4 1 3 2 2 3 1 4 32 5 14 6 13 7 15 8 16 9 18 10 30 11 5 12
REMARK SMILES IDX 6 13 7 14 8 15 12 16 10 17 9 18 11 20 31 22 17 24 19 26
REMARK SMILES IDX 28 27 20 28 26 29 21 30 24 31 29 32 27 34 22 36 23 37 25 39
REMARK H PARENT 9 19 11 21 31 23 17 25 29 33 27 35 23 38 25 40
REMARK Flexibility Score: inf
ROOT
ATOM      1  C   UNL     1      -8.004   1.589   9.272  1.00  0.00     0.138 A 
ATOM      2  C   UNL     1      -6.661   1.415   9.651  1.00  0.00     0.100 A 
ATOM      3  C   UNL     1      -6.349   0.559  10.707  1.00  0.00     0.197 A 
ATOM      4  O   UNL     1      -5.147   0.411  11.051  1.00  0.00    -0.289 OA
ATOM      5  C   UNL     1      -7.374  -0.184  11.318  1.00  0.00     0.107 A 
ATOM      6  C   UNL     1      -8.700   0.048  10.903  1.00  0.00     0.146 A 
ATOM      7  O   UNL     1      -8.957   0.931   9.941  1.00  0.00    -0.456 OA
ATOM      8  C   UNL     1      -9.742  -0.707  11.445  1.00  0.00     0.094 A 
ATOM      9  C   UNL     1      -9.449  -1.862  12.174  1.00  0.00     0.128 A 
ATOM     10  C   UNL     1      -8.108  -2.226  12.417  1.00  0.00     0.068 A 
ATOM     11  C   UNL     1      -7.117  -1.239  12.214  1.00  0.00     0.140 A 
ENDROOT
BRANCH   1  12
ATOM     12  C   UNL     1      -8.397   2.388   8.062  1.00  0.00     0.021 A 
ATOM     13  C   UNL     1      -7.752   3.616   7.814  1.00  0.00     0.016 A 
ATOM     14  C   UNL     1      -8.278   4.527   6.892  1.00  0.00     0.051 A 
ATOM     15  C   UNL     1      -9.483   4.237   6.237  1.00  0.00     0.157 A 
ATOM     16  C   UNL     1      -9.524   2.053   7.274  1.00  0.00     0.062 A 
ATOM     17  C   UNL     1     -10.102   2.994   6.426  1.00  0.00     0.158 A 
BRANCH  15  18
ATOM     18  O   UNL     1     -10.086   5.186   5.419  1.00  0.00    -0.504 OA
ATOM     19  H   UNL     1     -11.050   5.091   5.123  1.00  0.00     0.293 HD
ENDBRANCH  15  18
BRANCH  17  20
ATOM     20  O   UNL     1     -11.301   2.679   5.785  1.00  0.00    -0.504 OA
ATOM     21  H   UNL     1     -12.160   2.506   6.300  1.00  0.00     0.293 HD
ENDBRANCH  17  20
ENDBRANCH   1  12
BRANCH  11  22
ATOM     22  O   UNL     1      -5.885  -1.295  12.885  1.00  0.00    -0.506 OA
ATOM     23  H   UNL     1      -5.804  -1.190  13.883  1.00  0.00     0.293 HD
ENDBRANCH  11  22
BRANCH   9  24
ATOM     24  O   UNL     1     -10.480  -2.695  12.593  1.00  0.00    -0.507 OA
ATOM     25  H   UNL     1     -11.201  -2.376  13.231  1.00  0.00     0.293 HD
ENDBRANCH   9  24
BRANCH  10  26
ATOM     26  C   UNL     1      -7.721  -3.720  12.365  1.00  0.00     0.188 C 
ATOM     27  C   UNL     1      -7.675  -4.170  10.854  1.00  0.00     0.179 C 
ATOM     28  O   UNL     1      -6.510  -3.905  13.098  1.00  0.00    -0.362 OA
ATOM     29  C   UNL     1      -6.872  -5.459  10.557  1.00  0.00     0.177 C 
ATOM     30  C   UNL     1      -5.592  -4.897  12.663  1.00  0.00     0.176 C 
ATOM     31  C   UNL     1      -6.210  -6.025  11.813  1.00  0.00     0.177 C 
BRANCH  27  32
ATOM     32  O   UNL     1      -9.001  -4.388  10.410  1.00  0.00    -0.387 OA
ATOM     33  H   UNL     1      -9.091  -3.933   9.530  1.00  0.00     0.211 HD
ENDBRANCH  27  32
BRANCH  29  34
ATOM     34  O   UNL     1      -5.906  -5.190   9.567  1.00  0.00    -0.387 OA
ATOM     35  H   UNL     1      -5.063  -5.644   9.835  1.00  0.00     0.211 HD
ENDBRANCH  29  34
BRANCH  30  36
ATOM     36  C   UNL     1      -4.356  -4.240  12.016  1.00  0.00     0.191 C 
BRANCH  36  37
ATOM     37  O   UNL     1      -3.173  -4.552  12.711  1.00  0.00    -0.394 OA
ATOM     38  H   UNL     1      -3.366  -4.448  13.683  1.00  0.00     0.210 HD
ENDBRANCH  36  37
ENDBRANCH  30  36
BRANCH  31  39
ATOM     39  O   UNL     1      -7.146  -6.730  12.590  1.00  0.00    -0.388 OA
ATOM     40  H   UNL     1      -7.139  -6.317  13.492  1.00  0.00     0.211 HD
ENDBRANCH  31  39
ENDBRANCH  10  26
TORSDOF 11
ENDMDL
