MODEL 1
REMARK VINA RESULT:    27.694      0.000      0.000
REMARK INTER + INTRA:          31.165
REMARK INTER:                  30.123
REMARK INTRA:                   1.042
REMARK UNBOUND:                 1.042
REMARK SMILES CC1(C)CC[C@]2(C(=O)[O-])CC[C@@]3(C)C(=CC[C@H]4[C@]5(C)CC[C@@H](O)C(C)(C)[C@H]5CC[C@]43C)[C@@H]2C1
REMARK SMILES IDX 6 1 5 2 10 3 32 4 4 5 11 6 14 7 33 8 2 9 12 10 15 11 1 12
REMARK SMILES IDX 3 13 13 14 30 15 16 16 17 17 29 18 31 19 18 20 28 21 27 22
REMARK SMILES IDX 20 23 19 24 24 25 21 26 22 27 25 28 26 29 7 30 8 31 9 32
REMARK SMILES IDX 23 33
REMARK H PARENT 23 34
REMARK Flexibility Score: inf
ROOT
ATOM      1  C   UNL     1      23.037  53.481  38.205  1.00  0.00     0.017 C 
ATOM      2  C   UNL     1      23.129  52.453  37.018  1.00  0.00     0.014 C 
ATOM      3  C   UNL     1      24.094  53.036  39.291  1.00  0.00     0.014 C 
ATOM      4  C   UNL     1      21.576  53.535  38.817  1.00  0.00     0.028 C 
ATOM      5  C   UNL     1      21.824  52.376  36.222  1.00  0.00     0.007 C 
ATOM      6  C   UNL     1      23.823  53.353  40.795  1.00  0.00     0.013 C 
ATOM      7  C   UNL     1      21.521  54.016  40.289  1.00  0.00    -0.064 C 
ATOM      8  C   UNL     1      20.903  52.136  38.610  1.00  0.00     0.015 C 
ATOM      9  C   UNL     1      20.674  51.803  37.101  1.00  0.00    -0.035 C 
ATOM     10  C   UNL     1      22.771  54.455  41.082  1.00  0.00    -0.006 C 
ATOM     11  C   UNL     1      20.426  53.685  40.985  1.00  0.00    -0.027 C 
ATOM     12  C   UNL     1      19.331  52.400  36.623  1.00  0.00     0.011 C 
ATOM     13  C   UNL     1      20.601  50.269  36.938  1.00  0.00     0.011 C 
ATOM     14  C   UNL     1      23.341  55.794  40.509  1.00  0.00     0.017 C 
ATOM     15  C   UNL     1      22.443  54.678  42.689  1.00  0.00    -0.020 C 
ATOM     16  C   UNL     1      20.642  52.848  42.197  1.00  0.00     0.032 C 
ATOM     17  C   UNL     1      21.329  53.680  43.287  1.00  0.00     0.006 C 
ATOM     18  C   UNL     1      23.767  54.600  43.519  1.00  0.00     0.008 C 
ATOM     19  C   UNL     1      21.864  56.125  42.907  1.00  0.00     0.012 C 
ATOM     20  C   UNL     1      21.683  52.889  44.627  1.00  0.00    -0.025 C 
ATOM     21  C   UNL     1      23.618  54.636  45.044  1.00  0.00     0.005 C 
ATOM     22  C   UNL     1      22.357  53.926  45.608  1.00  0.00     0.003 C 
ATOM     23  C   UNL     1      20.355  52.328  45.285  1.00  0.00     0.010 C 
ATOM     24  C   UNL     1      22.604  51.661  44.347  1.00  0.00     0.012 C 
ATOM     25  C   UNL     1      22.442  53.519  47.145  1.00  0.00    -0.006 C 
ATOM     26  C   UNL     1      19.947  53.000  46.600  1.00  0.00     0.033 C 
ATOM     27  C   UNL     1      21.069  52.905  47.646  1.00  0.00     0.120 C 
ATOM     28  C   UNL     1      22.713  54.808  47.969  1.00  0.00     0.014 C 
ATOM     29  C   UNL     1      23.619  52.554  47.473  1.00  0.00     0.014 C 
ENDROOT
BRANCH   1  30
ATOM     30  C   UNL     1      23.417  54.825  37.572  1.00  0.00     0.048 C 
ATOM     31  O   UNL     1      23.046  55.918  38.078  1.00  0.00    -0.550 OA
ATOM     32  O   UNL     1      24.125  54.856  36.375  1.00  0.00    -0.550 OA
ENDBRANCH   1  30
BRANCH  27  33
ATOM     33  O   UNL     1      21.208  51.561  48.050  1.00  0.00    -0.393 OA
ATOM     34  H   UNL     1      21.713  51.089  47.335  1.00  0.00     0.210 HD
ENDBRANCH  27  33
TORSDOF 2
ENDMDL
