MODEL 1
REMARK VINA RESULT:    -4.315      0.000      0.000
REMARK INTER + INTRA:         -10.247
REMARK INTER:                  -8.099
REMARK INTRA:                  -2.147
REMARK UNBOUND:                -2.147
REMARK SMILES CCCCCCCCC=CCCCCCCCC(=O)[O-]
REMARK SMILES IDX 10 1 9 2 11 3 12 4 13 5 14 6 15 7 16 8 17 9 18 10 19 11
REMARK SMILES IDX 20 12 8 13 7 14 6 15 5 16 4 17 3 18 2 19 1 20
REMARK H PARENT
REMARK Flexibility Score: inf
ROOT
ATOM      1  C   UNL     1     124.396 119.149 131.140  1.00  0.00    -0.031 C 
ATOM      2  C   UNL     1     125.172 119.724 130.201  1.00  0.00    -0.031 C 
ENDROOT
BRANCH   1   3
ATOM      3  C   UNL     1     123.689 119.891 132.244  1.00  0.00     0.027 C 
BRANCH   3   4
ATOM      4  C   UNL     1     122.448 120.623 131.710  1.00  0.00     0.004 C 
BRANCH   4   5
ATOM      5  C   UNL     1     122.330 122.057 132.252  1.00  0.00     0.000 C 
BRANCH   5   6
ATOM      6  C   UNL     1     123.602 122.518 132.980  1.00  0.00     0.000 C 
BRANCH   6   7
ATOM      7  C   UNL     1     123.261 123.116 134.354  1.00  0.00     0.000 C 
BRANCH   7   8
ATOM      8  C   UNL     1     124.439 123.045 135.339  1.00  0.00     0.006 C 
BRANCH   8   9
ATOM      9  C   UNL     1     125.797 123.242 134.654  1.00  0.00     0.053 C 
BRANCH   9  10
ATOM     10  C   UNL     1     126.259 124.656 134.807  1.00  0.00     0.041 C 
ATOM     11  O   UNL     1     126.946 124.996 135.806  1.00  0.00    -0.550 OA
ATOM     12  O   UNL     1     125.962 125.593 133.824  1.00  0.00    -0.550 OA
ENDBRANCH   9  10
ENDBRANCH   8   9
ENDBRANCH   7   8
ENDBRANCH   6   7
ENDBRANCH   5   6
ENDBRANCH   4   5
ENDBRANCH   3   4
ENDBRANCH   1   3
BRANCH   2  13
ATOM     13  C   UNL     1     125.498 121.198 130.126  1.00  0.00     0.027 C 
BRANCH  13  14
ATOM     14  C   UNL     1     124.773 121.871 128.954  1.00  0.00     0.004 C 
BRANCH  14  15
ATOM     15  C   UNL     1     124.497 123.360 129.224  1.00  0.00     0.000 C 
BRANCH  15  16
ATOM     16  C   UNL     1     125.783 124.201 129.267  1.00  0.00     0.000 C 
BRANCH  16  17
ATOM     17  C   UNL     1     126.116 124.843 127.913  1.00  0.00    -0.000 C 
BRANCH  17  18
ATOM     18  C   UNL     1     127.145 124.004 127.146  1.00  0.00    -0.000 C 
BRANCH  18  19
ATOM     19  C   UNL     1     128.255 123.507 128.078  1.00  0.00    -0.003 C 
ATOM     20  C   UNL     1     128.441 121.998 127.959  1.00  0.00     0.004 C 
ENDBRANCH  18  19
ENDBRANCH  17  18
ENDBRANCH  16  17
ENDBRANCH  15  16
ENDBRANCH  14  15
ENDBRANCH  13  14
ENDBRANCH   2  13
TORSDOF 15
ENDMDL
MODEL 2
REMARK VINA RESULT:    -4.193     11.136     14.498
REMARK INTER + INTRA:         -10.018
REMARK INTER:                  -8.518
REMARK INTRA:                  -1.500
REMARK UNBOUND:                -2.147
REMARK SMILES CCCCCCCCC=CCCCCCCCC(=O)[O-]
REMARK SMILES IDX 10 1 9 2 11 3 12 4 13 5 14 6 15 7 16 8 17 9 18 10 19 11
REMARK SMILES IDX 20 12 8 13 7 14 6 15 5 16 4 17 3 18 2 19 1 20
REMARK H PARENT
REMARK Flexibility Score: inf
ROOT
ATOM      1  C   UNL     1     129.889 134.702 130.130  1.00  0.00    -0.031 C 
ATOM      2  C   UNL     1     129.857 136.006 130.465  1.00  0.00    -0.031 C 
ENDROOT
BRANCH   1   3
ATOM      3  C   UNL     1     131.082 133.996 129.538  1.00  0.00     0.027 C 
BRANCH   3   4
ATOM      4  C   UNL     1     130.706 133.275 128.234  1.00  0.00     0.004 C 
BRANCH   4   5
ATOM      5  C   UNL     1     130.392 131.787 128.453  1.00  0.00     0.000 C 
BRANCH   5   6
ATOM      6  C   UNL     1     128.892 131.477 128.346  1.00  0.00     0.000 C 
BRANCH   6   7
ATOM      7  C   UNL     1     128.380 131.724 126.918  1.00  0.00     0.000 C 
BRANCH   7   8
ATOM      8  C   UNL     1     129.145 130.907 125.865  1.00  0.00     0.006 C 
BRANCH   8   9
ATOM      9  C   UNL     1     128.397 130.816 124.528  1.00  0.00     0.053 C 
BRANCH   9  10
ATOM     10  C   UNL     1     129.294 130.265 123.465  1.00  0.00     0.041 C 
ATOM     11  O   UNL     1     130.511 130.586 123.431  1.00  0.00    -0.550 OA
ATOM     12  O   UNL     1     128.792 129.365 122.532  1.00  0.00    -0.550 OA
ENDBRANCH   9  10
ENDBRANCH   8   9
ENDBRANCH   7   8
ENDBRANCH   6   7
ENDBRANCH   5   6
ENDBRANCH   4   5
ENDBRANCH   3   4
ENDBRANCH   1   3
BRANCH   2  13
ATOM     13  C   UNL     1     130.990 136.985 130.260  1.00  0.00     0.027 C 
BRANCH  13  14
ATOM     14  C   UNL     1     131.203 137.859 131.502  1.00  0.00     0.004 C 
BRANCH  14  15
ATOM     15  C   UNL     1     132.650 137.783 132.020  1.00  0.00     0.000 C 
BRANCH  15  16
ATOM     16  C   UNL     1     132.754 137.079 133.382  1.00  0.00     0.000 C 
BRANCH  16  17
ATOM     17  C   UNL     1     133.887 136.044 133.428  1.00  0.00    -0.000 C 
BRANCH  17  18
ATOM     18  C   UNL     1     133.372 134.686 133.919  1.00  0.00    -0.000 C 
BRANCH  18  19
ATOM     19  C   UNL     1     132.642 133.937 132.799  1.00  0.00    -0.003 C 
ATOM     20  C   UNL     1     131.353 133.300 133.310  1.00  0.00     0.004 C 
ENDBRANCH  18  19
ENDBRANCH  17  18
ENDBRANCH  16  17
ENDBRANCH  15  16
ENDBRANCH  14  15
ENDBRANCH  13  14
ENDBRANCH   2  13
TORSDOF 15
ENDMDL
MODEL 3
REMARK VINA RESULT:    -4.178      2.386      5.897
REMARK INTER + INTRA:          -9.989
REMARK INTER:                  -8.277
REMARK INTRA:                  -1.712
REMARK UNBOUND:                -2.147
REMARK SMILES CCCCCCCCC=CCCCCCCCC(=O)[O-]
REMARK SMILES IDX 10 1 9 2 11 3 12 4 13 5 14 6 15 7 16 8 17 9 18 10 19 11
REMARK SMILES IDX 20 12 8 13 7 14 6 15 5 16 4 17 3 18 2 19 1 20
REMARK H PARENT
REMARK Flexibility Score: inf
ROOT
ATOM      1  C   UNL     1     122.557 119.809 131.936  1.00  0.00    -0.031 C 
ATOM      2  C   UNL     1     122.335 120.773 132.849  1.00  0.00    -0.031 C 
ENDROOT
BRANCH   1   3
ATOM      3  C   UNL     1     123.673 118.798 132.006  1.00  0.00     0.027 C 
BRANCH   3   4
ATOM      4  C   UNL     1     124.621 118.937 130.806  1.00  0.00     0.004 C 
BRANCH   4   5
ATOM      5  C   UNL     1     125.490 120.203 130.884  1.00  0.00     0.000 C 
BRANCH   5   6
ATOM      6  C   UNL     1     125.229 121.171 129.721  1.00  0.00     0.000 C 
BRANCH   6   7
ATOM      7  C   UNL     1     124.496 122.431 130.207  1.00  0.00     0.000 C 
BRANCH   7   8
ATOM      8  C   UNL     1     124.672 123.624 129.254  1.00  0.00     0.006 C 
BRANCH   8   9
ATOM      9  C   UNL     1     125.480 123.266 128.001  1.00  0.00     0.053 C 
BRANCH   9  10
ATOM     10  C   UNL     1     126.591 124.247 127.798  1.00  0.00     0.041 C 
ATOM     11  O   UNL     1     127.600 123.932 127.114  1.00  0.00    -0.550 OA
ATOM     12  O   UNL     1     126.495 125.524 128.336  1.00  0.00    -0.550 OA
ENDBRANCH   9  10
ENDBRANCH   8   9
ENDBRANCH   7   8
ENDBRANCH   6   7
ENDBRANCH   5   6
ENDBRANCH   4   5
ENDBRANCH   3   4
ENDBRANCH   1   3
BRANCH   2  13
ATOM     13  C   UNL     1     123.191 121.030 134.068  1.00  0.00     0.027 C 
BRANCH  13  14
ATOM     14  C   UNL     1     124.092 122.255 133.868  1.00  0.00     0.004 C 
BRANCH  14  15
ATOM     15  C   UNL     1     124.170 123.127 135.134  1.00  0.00     0.000 C 
BRANCH  15  16
ATOM     16  C   UNL     1     125.289 122.682 136.089  1.00  0.00     0.000 C 
BRANCH  16  17
ATOM     17  C   UNL     1     126.311 123.795 136.361  1.00  0.00    -0.000 C 
BRANCH  17  18
ATOM     18  C   UNL     1     126.852 124.376 135.050  1.00  0.00    -0.000 C 
BRANCH  18  19
ATOM     19  C   UNL     1     126.654 125.895 134.998  1.00  0.00    -0.003 C 
ATOM     20  C   UNL     1     126.209 126.347 133.611  1.00  0.00     0.004 C 
ENDBRANCH  18  19
ENDBRANCH  17  18
ENDBRANCH  16  17
ENDBRANCH  15  16
ENDBRANCH  14  15
ENDBRANCH  13  14
ENDBRANCH   2  13
TORSDOF 15
ENDMDL
MODEL 4
REMARK VINA RESULT:    -4.100      1.410      2.542
REMARK INTER + INTRA:          -9.842
REMARK INTER:                  -8.357
REMARK INTRA:                  -1.484
REMARK UNBOUND:                -2.147
REMARK SMILES CCCCCCCCC=CCCCCCCCC(=O)[O-]
REMARK SMILES IDX 10 1 9 2 11 3 12 4 13 5 14 6 15 7 16 8 17 9 18 10 19 11
REMARK SMILES IDX 20 12 8 13 7 14 6 15 5 16 4 17 3 18 2 19 1 20
REMARK H PARENT
REMARK Flexibility Score: inf
ROOT
ATOM      1  C   UNL     1     122.308 120.571 132.800  1.00  0.00    -0.031 C 
ATOM      2  C   UNL     1     122.825 120.419 131.565  1.00  0.00    -0.031 C 
ENDROOT
BRANCH   1   3
ATOM      3  C   UNL     1     123.109 120.538 134.076  1.00  0.00     0.027 C 
BRANCH   3   4
ATOM      4  C   UNL     1     123.479 121.958 134.532  1.00  0.00     0.004 C 
BRANCH   4   5
ATOM      5  C   UNL     1     124.119 121.980 135.929  1.00  0.00     0.000 C 
BRANCH   5   6
ATOM      6  C   UNL     1     125.439 122.765 135.961  1.00  0.00     0.000 C 
BRANCH   6   7
ATOM      7  C   UNL     1     125.663 123.519 134.641  1.00  0.00     0.000 C 
BRANCH   7   8
ATOM      8  C   UNL     1     126.509 124.790 134.820  1.00  0.00     0.006 C 
BRANCH   8   9
ATOM      9  C   UNL     1     125.755 126.065 134.421  1.00  0.00     0.053 C 
BRANCH   9  10
ATOM     10  C   UNL     1     126.691 127.052 133.800  1.00  0.00     0.041 C 
ATOM     11  O   UNL     1     126.855 127.073 132.552  1.00  0.00    -0.550 OA
ATOM     12  O   UNL     1     127.355 127.976 134.598  1.00  0.00    -0.550 OA
ENDBRANCH   9  10
ENDBRANCH   8   9
ENDBRANCH   7   8
ENDBRANCH   6   7
ENDBRANCH   5   6
ENDBRANCH   4   5
ENDBRANCH   3   4
ENDBRANCH   1   3
BRANCH   2  13
ATOM     13  C   UNL     1     124.279 120.146 131.258  1.00  0.00     0.027 C 
BRANCH  13  14
ATOM     14  C   UNL     1     124.818 121.119 130.202  1.00  0.00     0.004 C 
BRANCH  14  15
ATOM     15  C   UNL     1     124.543 122.586 130.575  1.00  0.00     0.000 C 
BRANCH  15  16
ATOM     16  C   UNL     1     124.467 123.505 129.345  1.00  0.00     0.000 C 
BRANCH  16  17
ATOM     17  C   UNL     1     125.373 123.033 128.199  1.00  0.00    -0.000 C 
BRANCH  17  18
ATOM     18  C   UNL     1     126.355 124.136 127.786  1.00  0.00    -0.000 C 
BRANCH  18  19
ATOM     19  C   UNL     1     127.736 123.552 127.467  1.00  0.00    -0.003 C 
ATOM     20  C   UNL     1     127.969 122.246 128.220  1.00  0.00     0.004 C 
ENDBRANCH  18  19
ENDBRANCH  17  18
ENDBRANCH  16  17
ENDBRANCH  15  16
ENDBRANCH  14  15
ENDBRANCH  13  14
ENDBRANCH   2  13
TORSDOF 15
ENDMDL
MODEL 5
REMARK VINA RESULT:    -4.055      8.949     11.725
REMARK INTER + INTRA:          -9.759
REMARK INTER:                  -8.231
REMARK INTRA:                  -1.528
REMARK UNBOUND:                -2.147
REMARK SMILES CCCCCCCCC=CCCCCCCCC(=O)[O-]
REMARK SMILES IDX 10 1 9 2 11 3 12 4 13 5 14 6 15 7 16 8 17 9 18 10 19 11
REMARK SMILES IDX 20 12 8 13 7 14 6 15 5 16 4 17 3 18 2 19 1 20
REMARK H PARENT
REMARK Flexibility Score: inf
ROOT
ATOM      1  C   UNL     1     132.699 134.781 134.109  1.00  0.00    -0.031 C 
ATOM      2  C   UNL     1     132.902 135.657 133.106  1.00  0.00    -0.031 C 
ENDROOT
BRANCH   1   3
ATOM      3  C   UNL     1     132.391 133.318 133.923  1.00  0.00     0.027 C 
BRANCH   3   4
ATOM      4  C   UNL     1     130.875 133.067 133.933  1.00  0.00     0.004 C 
BRANCH   4   5
ATOM      5  C   UNL     1     130.433 132.175 135.104  1.00  0.00     0.000 C 
BRANCH   5   6
ATOM      6  C   UNL     1     128.977 131.705 134.971  1.00  0.00     0.000 C 
BRANCH   6   7
ATOM      7  C   UNL     1     128.490 131.049 136.273  1.00  0.00     0.000 C 
BRANCH   7   8
ATOM      8  C   UNL     1     127.860 129.667 136.040  1.00  0.00     0.006 C 
BRANCH   8   9
ATOM      9  C   UNL     1     128.822 128.685 135.359  1.00  0.00     0.053 C 
BRANCH   9  10
ATOM     10  C   UNL     1     128.226 128.169 134.087  1.00  0.00     0.041 C 
ATOM     11  O   UNL     1     127.098 127.610 134.095  1.00  0.00    -0.550 OA
ATOM     12  O   UNL     1     128.903 128.341 132.885  1.00  0.00    -0.550 OA
ENDBRANCH   9  10
ENDBRANCH   8   9
ENDBRANCH   7   8
ENDBRANCH   6   7
ENDBRANCH   5   6
ENDBRANCH   4   5
ENDBRANCH   3   4
ENDBRANCH   1   3
BRANCH   2  13
ATOM     13  C   UNL     1     132.809 135.330 131.634  1.00  0.00     0.027 C 
BRANCH  13  14
ATOM     14  C   UNL     1     131.434 135.703 131.066  1.00  0.00     0.004 C 
BRANCH  14  15
ATOM     15  C   UNL     1     130.691 134.480 130.502  1.00  0.00     0.000 C 
BRANCH  15  16
ATOM     16  C   UNL     1     131.625 133.287 130.245  1.00  0.00     0.000 C 
BRANCH  16  17
ATOM     17  C   UNL     1     130.954 132.176 129.426  1.00  0.00    -0.000 C 
BRANCH  17  18
ATOM     18  C   UNL     1     130.419 132.720 128.096  1.00  0.00    -0.000 C 
BRANCH  18  19
ATOM     19  C   UNL     1     129.266 131.858 127.572  1.00  0.00    -0.003 C 
ATOM     20  C   UNL     1     129.091 130.599 128.416  1.00  0.00     0.004 C 
ENDBRANCH  18  19
ENDBRANCH  17  18
ENDBRANCH  16  17
ENDBRANCH  15  16
ENDBRANCH  14  15
ENDBRANCH  13  14
ENDBRANCH   2  13
TORSDOF 15
ENDMDL
MODEL 6
REMARK VINA RESULT:    -4.014      9.160     11.943
REMARK INTER + INTRA:          -9.680
REMARK INTER:                  -8.239
REMARK INTRA:                  -1.441
REMARK UNBOUND:                -2.147
REMARK SMILES CCCCCCCCC=CCCCCCCCC(=O)[O-]
REMARK SMILES IDX 10 1 9 2 11 3 12 4 13 5 14 6 15 7 16 8 17 9 18 10 19 11
REMARK SMILES IDX 20 12 8 13 7 14 6 15 5 16 4 17 3 18 2 19 1 20
REMARK H PARENT
REMARK Flexibility Score: inf
ROOT
ATOM      1  C   UNL     1     132.664 134.806 134.005  1.00  0.00    -0.031 C 
ATOM      2  C   UNL     1     132.735 135.836 133.141  1.00  0.00    -0.031 C 
ENDROOT
BRANCH   1   3
ATOM      3  C   UNL     1     132.567 133.356 133.608  1.00  0.00     0.027 C 
BRANCH   3   4
ATOM      4  C   UNL     1     131.113 132.863 133.667  1.00  0.00     0.004 C 
BRANCH   4   5
ATOM      5  C   UNL     1     130.634 132.611 135.105  1.00  0.00     0.000 C 
BRANCH   5   6
ATOM      6  C   UNL     1     129.261 131.924 135.159  1.00  0.00     0.000 C 
BRANCH   6   7
ATOM      7  C   UNL     1     128.808 131.712 136.612  1.00  0.00     0.000 C 
BRANCH   7   8
ATOM      8  C   UNL     1     128.234 130.308 136.855  1.00  0.00     0.006 C 
BRANCH   8   9
ATOM      9  C   UNL     1     127.588 129.707 135.600  1.00  0.00     0.053 C 
BRANCH   9  10
ATOM     10  C   UNL     1     128.315 128.469 135.179  1.00  0.00     0.041 C 
ATOM     11  O   UNL     1     128.077 127.943 134.060  1.00  0.00    -0.550 OA
ATOM     12  O   UNL     1     129.284 127.919 136.009  1.00  0.00    -0.550 OA
ENDBRANCH   9  10
ENDBRANCH   8   9
ENDBRANCH   7   8
ENDBRANCH   6   7
ENDBRANCH   5   6
ENDBRANCH   4   5
ENDBRANCH   3   4
ENDBRANCH   1   3
BRANCH   2  13
ATOM     13  C   UNL     1     132.683 135.714 131.635  1.00  0.00     0.027 C 
BRANCH  13  14
ATOM     14  C   UNL     1     131.277 136.011 131.100  1.00  0.00     0.004 C 
BRANCH  14  15
ATOM     15  C   UNL     1     130.606 134.758 130.511  1.00  0.00     0.000 C 
BRANCH  15  16
ATOM     16  C   UNL     1     131.621 133.678 130.107  1.00  0.00     0.000 C 
BRANCH  16  17
ATOM     17  C   UNL     1     130.954 132.436 129.502  1.00  0.00    -0.000 C 
BRANCH  17  18
ATOM     18  C   UNL     1     130.376 132.743 128.115  1.00  0.00    -0.000 C 
BRANCH  18  19
ATOM     19  C   UNL     1     129.048 132.010 127.897  1.00  0.00    -0.003 C 
ATOM     20  C   UNL     1     129.159 130.539 128.287  1.00  0.00     0.004 C 
ENDBRANCH  18  19
ENDBRANCH  17  18
ENDBRANCH  16  17
ENDBRANCH  15  16
ENDBRANCH  14  15
ENDBRANCH  13  14
ENDBRANCH   2  13
TORSDOF 15
ENDMDL
MODEL 7
REMARK VINA RESULT:    -3.988     10.944     14.371
REMARK INTER + INTRA:          -9.633
REMARK INTER:                  -7.897
REMARK INTRA:                  -1.736
REMARK UNBOUND:                -2.147
REMARK SMILES CCCCCCCCC=CCCCCCCCC(=O)[O-]
REMARK SMILES IDX 10 1 9 2 11 3 12 4 13 5 14 6 15 7 16 8 17 9 18 10 19 11
REMARK SMILES IDX 20 12 8 13 7 14 6 15 5 16 4 17 3 18 2 19 1 20
REMARK H PARENT
REMARK Flexibility Score: inf
ROOT
ATOM      1  C   UNL     1     132.127 137.692 132.322  1.00  0.00    -0.031 C 
ATOM      2  C   UNL     1     133.041 136.835 132.816  1.00  0.00    -0.031 C 
ENDROOT
BRANCH   1   3
ATOM      3  C   UNL     1     131.591 137.660 130.914  1.00  0.00     0.027 C 
BRANCH   3   4
ATOM      4  C   UNL     1     130.312 136.813 130.829  1.00  0.00     0.004 C 
BRANCH   4   5
ATOM      5  C   UNL     1     130.505 135.534 129.998  1.00  0.00     0.000 C 
BRANCH   5   6
ATOM      6  C   UNL     1     130.610 134.274 130.869  1.00  0.00     0.000 C 
BRANCH   6   7
ATOM      7  C   UNL     1     131.395 133.168 130.145  1.00  0.00     0.000 C 
BRANCH   7   8
ATOM      8  C   UNL     1     131.026 133.058 128.657  1.00  0.00     0.006 C 
BRANCH   8   9
ATOM      9  C   UNL     1     130.073 131.891 128.368  1.00  0.00     0.053 C 
BRANCH   9  10
ATOM     10  C   UNL     1     128.835 132.384 127.689  1.00  0.00     0.041 C 
ATOM     11  O   UNL     1     128.281 133.448 128.072  1.00  0.00    -0.550 OA
ATOM     12  O   UNL     1     128.314 131.688 126.605  1.00  0.00    -0.550 OA
ENDBRANCH   9  10
ENDBRANCH   8   9
ENDBRANCH   7   8
ENDBRANCH   6   7
ENDBRANCH   5   6
ENDBRANCH   4   5
ENDBRANCH   3   4
ENDBRANCH   1   3
BRANCH   2  13
ATOM     13  C   UNL     1     133.713 135.733 132.031  1.00  0.00     0.027 C 
BRANCH  13  14
ATOM     14  C   UNL     1     133.944 134.491 132.900  1.00  0.00     0.004 C 
BRANCH  14  15
ATOM     15  C   UNL     1     132.958 134.419 134.079  1.00  0.00     0.000 C 
BRANCH  15  16
ATOM     16  C   UNL     1     131.727 133.553 133.769  1.00  0.00     0.000 C 
BRANCH  16  17
ATOM     17  C   UNL     1     131.645 132.304 134.657  1.00  0.00    -0.000 C 
BRANCH  17  18
ATOM     18  C   UNL     1     130.186 131.947 134.969  1.00  0.00    -0.000 C 
BRANCH  18  19
ATOM     19  C   UNL     1     130.009 130.432 135.115  1.00  0.00    -0.003 C 
ATOM     20  C   UNL     1     129.701 129.781 133.770  1.00  0.00     0.004 C 
ENDBRANCH  18  19
ENDBRANCH  17  18
ENDBRANCH  16  17
ENDBRANCH  15  16
ENDBRANCH  14  15
ENDBRANCH  13  14
ENDBRANCH   2  13
TORSDOF 15
ENDMDL
MODEL 8
REMARK VINA RESULT:    -3.980      1.426      2.508
REMARK INTER + INTRA:          -9.617
REMARK INTER:                  -7.751
REMARK INTRA:                  -1.865
REMARK UNBOUND:                -2.147
REMARK SMILES CCCCCCCCC=CCCCCCCCC(=O)[O-]
REMARK SMILES IDX 10 1 9 2 11 3 12 4 13 5 14 6 15 7 16 8 17 9 18 10 19 11
REMARK SMILES IDX 20 12 8 13 7 14 6 15 5 16 4 17 3 18 2 19 1 20
REMARK H PARENT
REMARK Flexibility Score: inf
ROOT
ATOM      1  C   UNL     1     123.202 118.662 132.616  1.00  0.00    -0.031 C 
ATOM      2  C   UNL     1     124.212 118.162 131.878  1.00  0.00    -0.031 C 
ENDROOT
BRANCH   1   3
ATOM      3  C   UNL     1     122.241 119.724 132.149  1.00  0.00     0.027 C 
BRANCH   3   4
ATOM      4  C   UNL     1     122.665 121.113 132.652  1.00  0.00     0.004 C 
BRANCH   4   5
ATOM      5  C   UNL     1     123.097 121.099 134.127  1.00  0.00     0.000 C 
BRANCH   5   6
ATOM      6  C   UNL     1     123.654 122.453 134.591  1.00  0.00     0.000 C 
BRANCH   6   7
ATOM      7  C   UNL     1     124.977 122.776 133.879  1.00  0.00     0.000 C 
BRANCH   7   8
ATOM      8  C   UNL     1     125.876 123.716 134.697  1.00  0.00     0.006 C 
BRANCH   8   9
ATOM      9  C   UNL     1     125.608 125.197 134.404  1.00  0.00     0.053 C 
BRANCH   9  10
ATOM     10  C   UNL     1     125.290 125.930 135.669  1.00  0.00     0.041 C 
ATOM     11  O   UNL     1     125.871 127.015 135.937  1.00  0.00    -0.550 OA
ATOM     12  O   UNL     1     124.324 125.434 136.534  1.00  0.00    -0.550 OA
ENDBRANCH   9  10
ENDBRANCH   8   9
ENDBRANCH   7   8
ENDBRANCH   6   7
ENDBRANCH   5   6
ENDBRANCH   4   5
ENDBRANCH   3   4
ENDBRANCH   1   3
BRANCH   2  13
ATOM     13  C   UNL     1     124.575 118.613 130.483  1.00  0.00     0.027 C 
BRANCH  13  14
ATOM     14  C   UNL     1     125.999 119.180 130.433  1.00  0.00     0.004 C 
BRANCH  14  15
ATOM     15  C   UNL     1     126.010 120.718 130.485  1.00  0.00     0.000 C 
BRANCH  15  16
ATOM     16  C   UNL     1     124.882 121.345 129.651  1.00  0.00     0.000 C 
BRANCH  16  17
ATOM     17  C   UNL     1     124.498 122.750 130.137  1.00  0.00    -0.000 C 
BRANCH  17  18
ATOM     18  C   UNL     1     124.743 123.796 129.043  1.00  0.00    -0.000 C 
BRANCH  18  19
ATOM     19  C   UNL     1     125.922 123.395 128.151  1.00  0.00    -0.003 C 
ATOM     20  C   UNL     1     126.526 124.610 127.454  1.00  0.00     0.004 C 
ENDBRANCH  18  19
ENDBRANCH  17  18
ENDBRANCH  16  17
ENDBRANCH  15  16
ENDBRANCH  14  15
ENDBRANCH  13  14
ENDBRANCH   2  13
TORSDOF 15
ENDMDL
MODEL 9
REMARK VINA RESULT:    -3.922      8.165     11.018
REMARK INTER + INTRA:          -9.509
REMARK INTER:                  -8.176
REMARK INTRA:                  -1.333
REMARK UNBOUND:                -2.147
REMARK SMILES CCCCCCCCC=CCCCCCCCC(=O)[O-]
REMARK SMILES IDX 10 1 9 2 11 3 12 4 13 5 14 6 15 7 16 8 17 9 18 10 19 11
REMARK SMILES IDX 20 12 8 13 7 14 6 15 5 16 4 17 3 18 2 19 1 20
REMARK H PARENT
REMARK Flexibility Score: inf
ROOT
ATOM      1  C   UNL     1     130.556 132.549 134.450  1.00  0.00    -0.031 C 
ATOM      2  C   UNL     1     131.147 132.904 133.293  1.00  0.00    -0.031 C 
ENDROOT
BRANCH   1   3
ATOM      3  C   UNL     1     130.777 133.236 135.773  1.00  0.00     0.027 C 
BRANCH   3   4
ATOM      4  C   UNL     1     129.868 132.642 136.861  1.00  0.00     0.004 C 
BRANCH   4   5
ATOM      5  C   UNL     1     128.881 131.604 136.303  1.00  0.00     0.000 C 
BRANCH   5   6
ATOM      6  C   UNL     1     128.333 130.667 137.390  1.00  0.00     0.000 C 
BRANCH   6   7
ATOM      7  C   UNL     1     128.985 129.278 137.299  1.00  0.00     0.000 C 
BRANCH   7   8
ATOM      8  C   UNL     1     129.766 129.075 135.991  1.00  0.00     0.006 C 
BRANCH   8   9
ATOM      9  C   UNL     1     129.382 127.778 135.268  1.00  0.00     0.053 C 
BRANCH   9  10
ATOM     10  C   UNL     1     128.452 128.069 134.133  1.00  0.00     0.041 C 
ATOM     11  O   UNL     1     128.904 128.461 133.025  1.00  0.00    -0.550 OA
ATOM     12  O   UNL     1     127.086 127.869 134.288  1.00  0.00    -0.550 OA
ENDBRANCH   9  10
ENDBRANCH   8   9
ENDBRANCH   7   8
ENDBRANCH   6   7
ENDBRANCH   5   6
ENDBRANCH   4   5
ENDBRANCH   3   4
ENDBRANCH   1   3
BRANCH   2  13
ATOM     13  C   UNL     1     132.160 134.015 133.139  1.00  0.00     0.027 C 
BRANCH  13  14
ATOM     14  C   UNL     1     132.184 134.551 131.702  1.00  0.00     0.004 C 
BRANCH  14  15
ATOM     15  C   UNL     1     131.619 133.533 130.696  1.00  0.00     0.000 C 
BRANCH  15  16
ATOM     16  C   UNL     1     130.766 134.195 129.602  1.00  0.00     0.000 C 
BRANCH  16  17
ATOM     17  C   UNL     1     130.341 133.208 128.506  1.00  0.00    -0.000 C 
BRANCH  17  18
ATOM     18  C   UNL     1     130.542 131.758 128.964  1.00  0.00    -0.000 C 
BRANCH  18  19
ATOM     19  C   UNL     1     129.447 130.846 128.400  1.00  0.00    -0.003 C 
ATOM     20  C   UNL     1     128.921 131.374 127.068  1.00  0.00     0.004 C 
ENDBRANCH  18  19
ENDBRANCH  17  18
ENDBRANCH  16  17
ENDBRANCH  15  16
ENDBRANCH  14  15
ENDBRANCH  13  14
ENDBRANCH   2  13
TORSDOF 15
ENDMDL
