MODEL 1
REMARK VINA RESULT:    -4.682      0.000      0.000
REMARK INTER + INTRA:         -11.414
REMARK INTER:                  -9.061
REMARK INTRA:                  -2.353
REMARK UNBOUND:                -2.353
REMARK SMILES CCCCCCCCCCCCCCCCCC(=O)[O-]
REMARK SMILES IDX 10 1 11 2 12 3 13 4 14 5 15 6 16 7 17 8 18 9 19 10 20 11
REMARK SMILES IDX 9 12 8 13 7 14 6 15 5 16 4 17 3 18 2 19 1 20
REMARK H PARENT
REMARK Flexibility Score: inf
ROOT
ATOM      1  C   UNL     1       9.807  13.329  14.806  1.00  0.00     0.000 C 
ENDROOT
BRANCH   1   2
ATOM      2  C   UNL     1      10.865  12.613  15.661  1.00  0.00     0.000 C 
BRANCH   2   3
ATOM      3  C   UNL     1      11.474  13.502  16.765  1.00  0.00     0.000 C 
BRANCH   3   4
ATOM      4  C   UNL     1      12.811  14.130  16.334  1.00  0.00     0.000 C 
BRANCH   4   5
ATOM      5  C   UNL     1      13.156  13.839  14.865  1.00  0.00     0.000 C 
BRANCH   5   6
ATOM      6  C   UNL     1      13.702  15.076  14.130  1.00  0.00     0.000 C 
BRANCH   6   7
ATOM      7  C   UNL     1      13.129  16.391  14.681  1.00  0.00     0.006 C 
BRANCH   7   8
ATOM      8  C   UNL     1      13.666  17.624  13.942  1.00  0.00     0.053 C 
BRANCH   8   9
ATOM      9  C   UNL     1      15.138  17.767  14.167  1.00  0.00     0.041 C 
ATOM     10  O   UNL     1      15.570  18.215  15.262  1.00  0.00    -0.550 OA
ATOM     11  O   UNL     1      16.034  17.359  13.187  1.00  0.00    -0.550 OA
ENDBRANCH   8   9
ENDBRANCH   7   8
ENDBRANCH   6   7
ENDBRANCH   5   6
ENDBRANCH   4   5
ENDBRANCH   3   4
ENDBRANCH   2   3
ENDBRANCH   1   2
BRANCH   1  12
ATOM     12  C   UNL     1       9.376  14.682  15.395  1.00  0.00     0.000 C 
BRANCH  12  13
ATOM     13  C   UNL     1       9.471  15.826  14.363  1.00  0.00    -0.000 C 
BRANCH  13  14
ATOM     14  C   UNL     1      10.073  15.394  13.012  1.00  0.00    -0.000 C 
BRANCH  14  15
ATOM     15  C   UNL     1      10.494  16.549  12.087  1.00  0.00    -0.000 C 
BRANCH  15  16
ATOM     16  C   UNL     1      11.512  16.116  11.018  1.00  0.00    -0.000 C 
BRANCH  16  17
ATOM     17  C   UNL     1      11.447  14.611  10.707  1.00  0.00    -0.000 C 
BRANCH  17  18
ATOM     18  C   UNL     1      10.622  14.237   9.461  1.00  0.00    -0.000 C 
BRANCH  18  19
ATOM     19  C   UNL     1       9.108  14.296   9.706  1.00  0.00    -0.003 C 
ATOM     20  C   UNL     1       8.408  13.076   9.113  1.00  0.00     0.004 C 
ENDBRANCH  18  19
ENDBRANCH  17  18
ENDBRANCH  16  17
ENDBRANCH  15  16
ENDBRANCH  14  15
ENDBRANCH  13  14
ENDBRANCH  12  13
ENDBRANCH   1  12
TORSDOF 16
ENDMDL
MODEL 2
REMARK VINA RESULT:    -4.580      2.838      5.929
REMARK INTER + INTRA:         -11.217
REMARK INTER:                  -8.930
REMARK INTRA:                  -2.287
REMARK UNBOUND:                -2.353
REMARK SMILES CCCCCCCCCCCCCCCCCC(=O)[O-]
REMARK SMILES IDX 10 1 11 2 12 3 13 4 14 5 15 6 16 7 17 8 18 9 19 10 20 11
REMARK SMILES IDX 9 12 8 13 7 14 6 15 5 16 4 17 3 18 2 19 1 20
REMARK H PARENT
REMARK Flexibility Score: inf
ROOT
ATOM      1  C   UNL     1      12.205  19.623  13.847  1.00  0.00     0.000 C 
ENDROOT
BRANCH   1   2
ATOM      2  C   UNL     1      10.695  19.564  13.564  1.00  0.00     0.000 C 
BRANCH   2   3
ATOM      3  C   UNL     1       9.880  18.897  14.691  1.00  0.00     0.000 C 
BRANCH   3   4
ATOM      4  C   UNL     1       8.608  18.213  14.161  1.00  0.00     0.000 C 
BRANCH   4   5
ATOM      5  C   UNL     1       8.435  16.785  14.701  1.00  0.00     0.000 C 
BRANCH   5   6
ATOM      6  C   UNL     1       9.522  15.823  14.189  1.00  0.00     0.000 C 
BRANCH   6   7
ATOM      7  C   UNL     1       9.670  15.862  12.660  1.00  0.00     0.006 C 
BRANCH   7   8
ATOM      8  C   UNL     1      10.558  14.731  12.125  1.00  0.00     0.053 C 
BRANCH   8   9
ATOM      9  C   UNL     1      10.270  14.482  10.678  1.00  0.00     0.041 C 
ATOM     10  O   UNL     1       9.094  14.578  10.240  1.00  0.00    -0.550 OA
ATOM     11  O   UNL     1      11.310  14.193   9.802  1.00  0.00    -0.550 OA
ENDBRANCH   8   9
ENDBRANCH   7   8
ENDBRANCH   6   7
ENDBRANCH   5   6
ENDBRANCH   4   5
ENDBRANCH   3   4
ENDBRANCH   2   3
ENDBRANCH   1   2
BRANCH   1  12
ATOM     12  C   UNL     1      12.533  19.648  15.349  1.00  0.00     0.000 C 
BRANCH  12  13
ATOM     13  C   UNL     1      13.488  18.506  15.757  1.00  0.00    -0.000 C 
BRANCH  13  14
ATOM     14  C   UNL     1      13.825  17.538  14.607  1.00  0.00    -0.000 C 
BRANCH  14  15
ATOM     15  C   UNL     1      12.911  16.306  14.504  1.00  0.00    -0.000 C 
BRANCH  15  16
ATOM     16  C   UNL     1      13.696  14.989  14.374  1.00  0.00    -0.000 C 
BRANCH  16  17
ATOM     17  C   UNL     1      12.910  13.771  14.892  1.00  0.00    -0.000 C 
BRANCH  17  18
ATOM     18  C   UNL     1      12.188  13.985  16.235  1.00  0.00    -0.000 C 
BRANCH  18  19
ATOM     19  C   UNL     1      11.012  13.021  16.443  1.00  0.00    -0.003 C 
ATOM     20  C   UNL     1      10.652  12.305  15.143  1.00  0.00     0.004 C 
ENDBRANCH  18  19
ENDBRANCH  17  18
ENDBRANCH  16  17
ENDBRANCH  15  16
ENDBRANCH  14  15
ENDBRANCH  13  14
ENDBRANCH  12  13
ENDBRANCH   1  12
TORSDOF 16
ENDMDL
MODEL 3
REMARK VINA RESULT:    -4.574      1.268      2.032
REMARK INTER + INTRA:         -11.205
REMARK INTER:                  -8.910
REMARK INTRA:                  -2.294
REMARK UNBOUND:                -2.353
REMARK SMILES CCCCCCCCCCCCCCCCCC(=O)[O-]
REMARK SMILES IDX 10 1 11 2 12 3 13 4 14 5 15 6 16 7 17 8 18 9 19 10 20 11
REMARK SMILES IDX 9 12 8 13 7 14 6 15 5 16 4 17 3 18 2 19 1 20
REMARK H PARENT
REMARK Flexibility Score: inf
ROOT
ATOM      1  C   UNL     1       9.520  14.597  15.381  1.00  0.00     0.000 C 
ENDROOT
BRANCH   1   2
ATOM      2  C   UNL     1      10.236  13.238  15.454  1.00  0.00     0.000 C 
BRANCH   2   3
ATOM      3  C   UNL     1      11.308  13.162  16.560  1.00  0.00     0.000 C 
BRANCH   3   4
ATOM      4  C   UNL     1      12.492  14.106  16.287  1.00  0.00     0.000 C 
BRANCH   4   5
ATOM      5  C   UNL     1      13.124  13.879  14.906  1.00  0.00     0.000 C 
BRANCH   5   6
ATOM      6  C   UNL     1      13.713  15.167  14.305  1.00  0.00     0.000 C 
BRANCH   6   7
ATOM      7  C   UNL     1      12.948  16.426  14.744  1.00  0.00     0.006 C 
BRANCH   7   8
ATOM      8  C   UNL     1      13.569  17.716  14.193  1.00  0.00     0.053 C 
BRANCH   8   9
ATOM      9  C   UNL     1      14.520  18.303  15.188  1.00  0.00     0.041 C 
ATOM     10  O   UNL     1      15.762  18.224  15.000  1.00  0.00    -0.550 OA
ATOM     11  O   UNL     1      14.033  18.981  16.298  1.00  0.00    -0.550 OA
ENDBRANCH   8   9
ENDBRANCH   7   8
ENDBRANCH   6   7
ENDBRANCH   5   6
ENDBRANCH   4   5
ENDBRANCH   3   4
ENDBRANCH   2   3
ENDBRANCH   1   2
BRANCH   1  12
ATOM     12  C   UNL     1       9.556  15.218  13.975  1.00  0.00     0.000 C 
BRANCH  12  13
ATOM     13  C   UNL     1       9.274  16.735  13.999  1.00  0.00    -0.000 C 
BRANCH  13  14
ATOM     14  C   UNL     1       9.024  17.343  12.605  1.00  0.00    -0.000 C 
BRANCH  14  15
ATOM     15  C   UNL     1       7.654  17.016  11.988  1.00  0.00    -0.000 C 
BRANCH  15  16
ATOM     16  C   UNL     1       7.733  15.923  10.907  1.00  0.00    -0.000 C 
BRANCH  16  17
ATOM     17  C   UNL     1       8.737  16.259   9.790  1.00  0.00    -0.000 C 
BRANCH  17  18
ATOM     18  C   UNL     1       9.605  15.078   9.318  1.00  0.00    -0.000 C 
BRANCH  18  19
ATOM     19  C   UNL     1      10.143  14.229  10.477  1.00  0.00    -0.003 C 
ATOM     20  C   UNL     1      11.464  14.787  11.001  1.00  0.00     0.004 C 
ENDBRANCH  18  19
ENDBRANCH  17  18
ENDBRANCH  16  17
ENDBRANCH  15  16
ENDBRANCH  14  15
ENDBRANCH  13  14
ENDBRANCH  12  13
ENDBRANCH   1  12
TORSDOF 16
ENDMDL
MODEL 4
REMARK VINA RESULT:    -4.568      3.056      6.240
REMARK INTER + INTRA:         -11.194
REMARK INTER:                  -8.778
REMARK INTRA:                  -2.417
REMARK UNBOUND:                -2.353
REMARK SMILES CCCCCCCCCCCCCCCCCC(=O)[O-]
REMARK SMILES IDX 10 1 11 2 12 3 13 4 14 5 15 6 16 7 17 8 18 9 19 10 20 11
REMARK SMILES IDX 9 12 8 13 7 14 6 15 5 16 4 17 3 18 2 19 1 20
REMARK H PARENT
REMARK Flexibility Score: inf
ROOT
ATOM      1  C   UNL     1       9.716  15.546  13.956  1.00  0.00     0.000 C 
ENDROOT
BRANCH   1   2
ATOM      2  C   UNL     1      10.393  14.702  12.863  1.00  0.00     0.000 C 
BRANCH   2   3
ATOM      3  C   UNL     1      11.188  15.539  11.839  1.00  0.00     0.000 C 
BRANCH   3   4
ATOM      4  C   UNL     1      11.200  14.890  10.444  1.00  0.00     0.000 C 
BRANCH   4   5
ATOM      5  C   UNL     1       9.924  14.087  10.153  1.00  0.00     0.000 C 
BRANCH   5   6
ATOM      6  C   UNL     1       9.034  14.755   9.090  1.00  0.00     0.000 C 
BRANCH   6   7
ATOM      7  C   UNL     1       8.454  16.097   9.565  1.00  0.00     0.006 C 
BRANCH   7   8
ATOM      8  C   UNL     1       7.628  15.961  10.850  1.00  0.00     0.053 C 
BRANCH   8   9
ATOM      9  C   UNL     1       7.352  17.308  11.439  1.00  0.00     0.041 C 
ATOM     10  O   UNL     1       7.072  17.420  12.661  1.00  0.00    -0.550 OA
ATOM     11  O   UNL     1       7.454  18.446  10.648  1.00  0.00    -0.550 OA
ENDBRANCH   8   9
ENDBRANCH   7   8
ENDBRANCH   6   7
ENDBRANCH   5   6
ENDBRANCH   4   5
ENDBRANCH   3   4
ENDBRANCH   2   3
ENDBRANCH   1   2
BRANCH   1  12
ATOM     12  C   UNL     1       9.505  14.771  15.267  1.00  0.00     0.000 C 
BRANCH  12  13
ATOM     13  C   UNL     1      10.204  13.395  15.251  1.00  0.00    -0.000 C 
BRANCH  13  14
ATOM     14  C   UNL     1      11.227  13.206  16.388  1.00  0.00    -0.000 C 
BRANCH  14  15
ATOM     15  C   UNL     1      12.462  14.119  16.311  1.00  0.00    -0.000 C 
BRANCH  15  16
ATOM     16  C   UNL     1      13.292  13.894  15.035  1.00  0.00    -0.000 C 
BRANCH  16  17
ATOM     17  C   UNL     1      13.732  15.210  14.369  1.00  0.00    -0.000 C 
BRANCH  17  18
ATOM     18  C   UNL     1      13.060  16.479  14.925  1.00  0.00    -0.000 C 
BRANCH  18  19
ATOM     19  C   UNL     1      13.655  17.772  14.352  1.00  0.00    -0.003 C 
ATOM     20  C   UNL     1      15.170  17.807  14.532  1.00  0.00     0.004 C 
ENDBRANCH  18  19
ENDBRANCH  17  18
ENDBRANCH  16  17
ENDBRANCH  15  16
ENDBRANCH  14  15
ENDBRANCH  13  14
ENDBRANCH  12  13
ENDBRANCH   1  12
TORSDOF 16
ENDMDL
MODEL 5
REMARK VINA RESULT:    -4.471      3.230      6.453
REMARK INTER + INTRA:         -11.007
REMARK INTER:                  -8.930
REMARK INTRA:                  -2.076
REMARK UNBOUND:                -2.353
REMARK SMILES CCCCCCCCCCCCCCCCCC(=O)[O-]
REMARK SMILES IDX 10 1 11 2 12 3 13 4 14 5 15 6 16 7 17 8 18 9 19 10 20 11
REMARK SMILES IDX 9 12 8 13 7 14 6 15 5 16 4 17 3 18 2 19 1 20
REMARK H PARENT
REMARK Flexibility Score: inf
ROOT
ATOM      1  C   UNL     1       9.486  16.796  13.948  1.00  0.00     0.000 C 
ENDROOT
BRANCH   1   2
ATOM      2  C   UNL     1       8.258  17.152  14.801  1.00  0.00     0.000 C 
BRANCH   2   3
ATOM      3  C   UNL     1       7.259  18.088  14.089  1.00  0.00     0.000 C 
BRANCH   3   4
ATOM      4  C   UNL     1       7.681  18.392  12.640  1.00  0.00     0.000 C 
BRANCH   4   5
ATOM      5  C   UNL     1       6.532  18.206  11.638  1.00  0.00     0.000 C 
BRANCH   5   6
ATOM      6  C   UNL     1       6.918  17.296  10.458  1.00  0.00     0.000 C 
BRANCH   6   7
ATOM      7  C   UNL     1       7.646  16.021  10.910  1.00  0.00     0.006 C 
BRANCH   7   8
ATOM      8  C   UNL     1       9.052  15.900  10.309  1.00  0.00     0.053 C 
BRANCH   8   9
ATOM      9  C   UNL     1       9.329  14.485   9.909  1.00  0.00     0.041 C 
ATOM     10  O   UNL     1       8.388  13.739   9.529  1.00  0.00    -0.550 OA
ATOM     11  O   UNL     1      10.632  14.005   9.909  1.00  0.00    -0.550 OA
ENDBRANCH   8   9
ENDBRANCH   7   8
ENDBRANCH   6   7
ENDBRANCH   5   6
ENDBRANCH   4   5
ENDBRANCH   3   4
ENDBRANCH   2   3
ENDBRANCH   1   2
BRANCH   1  12
ATOM     12  C   UNL     1       9.768  15.285  13.904  1.00  0.00     0.000 C 
BRANCH  12  13
ATOM     13  C   UNL     1       9.569  14.614  15.279  1.00  0.00    -0.000 C 
BRANCH  13  14
ATOM     14  C   UNL     1      10.243  13.233  15.399  1.00  0.00    -0.000 C 
BRANCH  14  15
ATOM     15  C   UNL     1      11.347  13.138  16.466  1.00  0.00    -0.000 C 
BRANCH  15  16
ATOM     16  C   UNL     1      12.477  14.159  16.247  1.00  0.00    -0.000 C 
BRANCH  16  17
ATOM     17  C   UNL     1      13.287  13.888  14.967  1.00  0.00    -0.000 C 
BRANCH  17  18
ATOM     18  C   UNL     1      13.237  15.009  13.914  1.00  0.00    -0.000 C 
BRANCH  18  19
ATOM     19  C   UNL     1      14.003  16.268  14.342  1.00  0.00    -0.003 C 
ATOM     20  C   UNL     1      13.045  17.379  14.763  1.00  0.00     0.004 C 
ENDBRANCH  18  19
ENDBRANCH  17  18
ENDBRANCH  16  17
ENDBRANCH  15  16
ENDBRANCH  14  15
ENDBRANCH  13  14
ENDBRANCH  12  13
ENDBRANCH   1  12
TORSDOF 16
ENDMDL
MODEL 6
REMARK VINA RESULT:    -4.469      2.097      4.682
REMARK INTER + INTRA:         -11.002
REMARK INTER:                  -8.473
REMARK INTRA:                  -2.529
REMARK UNBOUND:                -2.353
REMARK SMILES CCCCCCCCCCCCCCCCCC(=O)[O-]
REMARK SMILES IDX 10 1 11 2 12 3 13 4 14 5 15 6 16 7 17 8 18 9 19 10 20 11
REMARK SMILES IDX 9 12 8 13 7 14 6 15 5 16 4 17 3 18 2 19 1 20
REMARK H PARENT
REMARK Flexibility Score: inf
ROOT
ATOM      1  C   UNL     1       8.129  17.171  14.620  1.00  0.00     0.000 C 
ENDROOT
BRANCH   1   2
ATOM      2  C   UNL     1       8.202  18.154  13.440  1.00  0.00     0.000 C 
BRANCH   2   3
ATOM      3  C   UNL     1       8.890  19.490  13.789  1.00  0.00     0.000 C 
BRANCH   3   4
ATOM      4  C   UNL     1       9.121  19.647  15.302  1.00  0.00     0.000 C 
BRANCH   4   5
ATOM      5  C   UNL     1      10.557  20.072  15.640  1.00  0.00     0.000 C 
BRANCH   5   6
ATOM      6  C   UNL     1      11.586  19.546  14.624  1.00  0.00     0.000 C 
BRANCH   6   7
ATOM      7  C   UNL     1      13.030  19.909  15.005  1.00  0.00     0.006 C 
BRANCH   7   8
ATOM      8  C   UNL     1      13.854  18.684  15.424  1.00  0.00     0.053 C 
BRANCH   8   9
ATOM      9  C   UNL     1      14.922  18.404  14.415  1.00  0.00     0.041 C 
ATOM     10  O   UNL     1      16.136  18.483  14.740  1.00  0.00    -0.550 OA
ATOM     11  O   UNL     1      14.577  18.007  13.130  1.00  0.00    -0.550 OA
ENDBRANCH   8   9
ENDBRANCH   7   8
ENDBRANCH   6   7
ENDBRANCH   5   6
ENDBRANCH   4   5
ENDBRANCH   3   4
ENDBRANCH   2   3
ENDBRANCH   1   2
BRANCH   1  12
ATOM     12  C   UNL     1       9.043  15.948  14.439  1.00  0.00     0.000 C 
BRANCH  12  13
ATOM     13  C   UNL     1       9.574  15.824  12.995  1.00  0.00    -0.000 C 
BRANCH  13  14
ATOM     14  C   UNL     1      11.106  15.948  12.884  1.00  0.00    -0.000 C 
BRANCH  14  15
ATOM     15  C   UNL     1      11.859  15.948  14.225  1.00  0.00    -0.000 C 
BRANCH  15  16
ATOM     16  C   UNL     1      13.127  15.077  14.197  1.00  0.00    -0.000 C 
BRANCH  16  17
ATOM     17  C   UNL     1      13.003  13.815  15.069  1.00  0.00    -0.000 C 
BRANCH  17  18
ATOM     18  C   UNL     1      12.180  13.991  16.357  1.00  0.00    -0.000 C 
BRANCH  18  19
ATOM     19  C   UNL     1      11.007  13.006  16.457  1.00  0.00    -0.003 C 
ATOM     20  C   UNL     1      10.701  12.376  15.101  1.00  0.00     0.004 C 
ENDBRANCH  18  19
ENDBRANCH  17  18
ENDBRANCH  16  17
ENDBRANCH  15  16
ENDBRANCH  14  15
ENDBRANCH  13  14
ENDBRANCH  12  13
ENDBRANCH   1  12
TORSDOF 16
ENDMDL
MODEL 7
REMARK VINA RESULT:    -4.450      1.212      2.244
REMARK INTER + INTRA:         -10.965
REMARK INTER:                  -8.552
REMARK INTRA:                  -2.413
REMARK UNBOUND:                -2.353
REMARK SMILES CCCCCCCCCCCCCCCCCC(=O)[O-]
REMARK SMILES IDX 10 1 11 2 12 3 13 4 14 5 15 6 16 7 17 8 18 9 19 10 20 11
REMARK SMILES IDX 9 12 8 13 7 14 6 15 5 16 4 17 3 18 2 19 1 20
REMARK H PARENT
REMARK Flexibility Score: inf
ROOT
ATOM      1  C   UNL     1      10.277  13.333  15.310  1.00  0.00     0.000 C 
ENDROOT
BRANCH   1   2
ATOM      2  C   UNL     1      11.205  13.337  16.536  1.00  0.00     0.000 C 
BRANCH   2   3
ATOM      3  C   UNL     1      12.514  14.124  16.318  1.00  0.00     0.000 C 
BRANCH   3   4
ATOM      4  C   UNL     1      13.130  13.855  14.933  1.00  0.00     0.000 C 
BRANCH   4   5
ATOM      5  C   UNL     1      13.862  15.079  14.364  1.00  0.00     0.000 C 
BRANCH   5   6
ATOM      6  C   UNL     1      13.204  16.408  14.776  1.00  0.00     0.000 C 
BRANCH   6   7
ATOM      7  C   UNL     1      14.179  17.595  14.707  1.00  0.00     0.006 C 
BRANCH   7   8
ATOM      8  C   UNL     1      15.424  17.287  13.865  1.00  0.00     0.053 C 
BRANCH   8   9
ATOM      9  C   UNL     1      15.888  18.516  13.150  1.00  0.00     0.041 C 
ATOM     10  O   UNL     1      16.913  19.130  13.547  1.00  0.00    -0.550 OA
ATOM     11  O   UNL     1      15.217  18.955  12.016  1.00  0.00    -0.550 OA
ENDBRANCH   8   9
ENDBRANCH   7   8
ENDBRANCH   6   7
ENDBRANCH   5   6
ENDBRANCH   4   5
ENDBRANCH   3   4
ENDBRANCH   2   3
ENDBRANCH   1   2
BRANCH   1  12
ATOM     12  C   UNL     1       9.364  14.569  15.245  1.00  0.00     0.000 C 
BRANCH  12  13
ATOM     13  C   UNL     1       9.791  15.553  14.135  1.00  0.00    -0.000 C 
BRANCH  13  14
ATOM     14  C   UNL     1      10.427  14.868  12.909  1.00  0.00    -0.000 C 
BRANCH  14  15
ATOM     15  C   UNL     1       9.880  15.330  11.548  1.00  0.00    -0.000 C 
BRANCH  15  16
ATOM     16  C   UNL     1      10.164  14.324  10.419  1.00  0.00    -0.000 C 
BRANCH  16  17
ATOM     17  C   UNL     1      11.271  14.798   9.461  1.00  0.00    -0.000 C 
BRANCH  17  18
ATOM     18  C   UNL     1      12.597  14.023   9.564  1.00  0.00    -0.000 C 
BRANCH  18  19
ATOM     19  C   UNL     1      13.450  14.453  10.765  1.00  0.00    -0.003 C 
ATOM     20  C   UNL     1      13.617  15.970  10.806  1.00  0.00     0.004 C 
ENDBRANCH  18  19
ENDBRANCH  17  18
ENDBRANCH  16  17
ENDBRANCH  15  16
ENDBRANCH  14  15
ENDBRANCH  13  14
ENDBRANCH  12  13
ENDBRANCH   1  12
TORSDOF 16
ENDMDL
MODEL 8
REMARK VINA RESULT:    -4.420      2.895      5.886
REMARK INTER + INTRA:         -10.908
REMARK INTER:                  -8.635
REMARK INTRA:                  -2.273
REMARK UNBOUND:                -2.353
REMARK SMILES CCCCCCCCCCCCCCCCCC(=O)[O-]
REMARK SMILES IDX 10 1 11 2 12 3 13 4 14 5 15 6 16 7 17 8 18 9 19 10 20 11
REMARK SMILES IDX 9 12 8 13 7 14 6 15 5 16 4 17 3 18 2 19 1 20
REMARK H PARENT
REMARK Flexibility Score: inf
ROOT
ATOM      1  C   UNL     1      10.000  13.794  14.603  1.00  0.00     0.000 C 
ENDROOT
BRANCH   1   2
ATOM      2  C   UNL     1       9.182  14.842  15.376  1.00  0.00     0.000 C 
BRANCH   2   3
ATOM      3  C   UNL     1       8.930  16.139  14.581  1.00  0.00     0.000 C 
BRANCH   3   4
ATOM      4  C   UNL     1       9.206  15.962  13.078  1.00  0.00     0.000 C 
BRANCH   4   5
ATOM      5  C   UNL     1      10.197  17.000  12.531  1.00  0.00     0.000 C 
BRANCH   5   6
ATOM      6  C   UNL     1      11.253  16.378  11.601  1.00  0.00     0.000 C 
BRANCH   6   7
ATOM      7  C   UNL     1      11.070  14.862  11.431  1.00  0.00     0.006 C 
BRANCH   7   8
ATOM      8  C   UNL     1      11.035  14.433   9.958  1.00  0.00     0.053 C 
BRANCH   8   9
ATOM      9  C   UNL     1       9.727  14.806   9.336  1.00  0.00     0.041 C 
ATOM     10  O   UNL     1       9.698  15.531   8.307  1.00  0.00    -0.550 OA
ATOM     11  O   UNL     1       8.541  14.312   9.864  1.00  0.00    -0.550 OA
ENDBRANCH   8   9
ENDBRANCH   7   8
ENDBRANCH   6   7
ENDBRANCH   5   6
ENDBRANCH   4   5
ENDBRANCH   3   4
ENDBRANCH   2   3
ENDBRANCH   1   2
BRANCH   1  12
ATOM     12  C   UNL     1      10.602  12.712  15.515  1.00  0.00     0.000 C 
BRANCH  12  13
ATOM     13  C   UNL     1      11.317  13.314  16.743  1.00  0.00    -0.000 C 
BRANCH  13  14
ATOM     14  C   UNL     1      12.523  14.204  16.385  1.00  0.00    -0.000 C 
BRANCH  14  15
ATOM     15  C   UNL     1      13.213  13.861  15.054  1.00  0.00    -0.000 C 
BRANCH  15  16
ATOM     16  C   UNL     1      13.602  15.111  14.244  1.00  0.00    -0.000 C 
BRANCH  16  17
ATOM     17  C   UNL     1      13.003  16.406  14.821  1.00  0.00    -0.000 C 
BRANCH  17  18
ATOM     18  C   UNL     1      13.720  17.701  14.397  1.00  0.00    -0.000 C 
BRANCH  18  19
ATOM     19  C   UNL     1      15.248  17.590  14.471  1.00  0.00    -0.003 C 
ATOM     20  C   UNL     1      15.916  18.513  13.454  1.00  0.00     0.004 C 
ENDBRANCH  18  19
ENDBRANCH  17  18
ENDBRANCH  16  17
ENDBRANCH  15  16
ENDBRANCH  14  15
ENDBRANCH  13  14
ENDBRANCH  12  13
ENDBRANCH   1  12
TORSDOF 16
ENDMDL
MODEL 9
REMARK VINA RESULT:    -4.393      3.178      5.294
REMARK INTER + INTRA:         -10.855
REMARK INTER:                  -7.962
REMARK INTRA:                  -2.893
REMARK UNBOUND:                -2.353
REMARK SMILES CCCCCCCCCCCCCCCCCC(=O)[O-]
REMARK SMILES IDX 10 1 11 2 12 3 13 4 14 5 15 6 16 7 17 8 18 9 19 10 20 11
REMARK SMILES IDX 9 12 8 13 7 14 6 15 5 16 4 17 3 18 2 19 1 20
REMARK H PARENT
REMARK Flexibility Score: inf
ROOT
ATOM      1  C   UNL     1      12.092  13.807  16.479  1.00  0.00     0.000 C 
ENDROOT
BRANCH   1   2
ATOM      2  C   UNL     1      12.956  14.158  15.257  1.00  0.00     0.000 C 
BRANCH   2   3
ATOM      3  C   UNL     1      13.041  15.672  14.974  1.00  0.00     0.000 C 
BRANCH   3   4
ATOM      4  C   UNL     1      13.069  15.981  13.467  1.00  0.00     0.000 C 
BRANCH   4   5
ATOM      5  C   UNL     1      12.422  14.873  12.623  1.00  0.00     0.000 C 
BRANCH   5   6
ATOM      6  C   UNL     1      11.600  15.429  11.446  1.00  0.00     0.000 C 
BRANCH   6   7
ATOM      7  C   UNL     1      10.389  14.547  11.105  1.00  0.00     0.006 C 
BRANCH   7   8
ATOM      8  C   UNL     1       9.145  15.369  10.743  1.00  0.00     0.053 C 
BRANCH   8   9
ATOM      9  C   UNL     1       8.972  15.427   9.258  1.00  0.00     0.041 C 
ATOM     10  O   UNL     1       9.464  14.528   8.527  1.00  0.00    -0.550 OA
ATOM     11  O   UNL     1       8.224  16.449   8.686  1.00  0.00    -0.550 OA
ENDBRANCH   8   9
ENDBRANCH   7   8
ENDBRANCH   6   7
ENDBRANCH   5   6
ENDBRANCH   4   5
ENDBRANCH   3   4
ENDBRANCH   2   3
ENDBRANCH   1   2
BRANCH   1  12
ATOM     12  C   UNL     1      10.948  12.834  16.145  1.00  0.00     0.000 C 
BRANCH  12  13
ATOM     13  C   UNL     1      10.047  13.361  15.009  1.00  0.00    -0.000 C 
BRANCH  13  14
ATOM     14  C   UNL     1       9.231  14.611  15.392  1.00  0.00    -0.000 C 
BRANCH  14  15
ATOM     15  C   UNL     1       9.337  15.785  14.404  1.00  0.00    -0.000 C 
BRANCH  15  16
ATOM     16  C   UNL     1       8.293  16.884  14.670  1.00  0.00    -0.000 C 
BRANCH  16  17
ATOM     17  C   UNL     1       8.844  18.301  14.431  1.00  0.00    -0.000 C 
BRANCH  17  18
ATOM     18  C   UNL     1      10.341  18.368  14.079  1.00  0.00    -0.000 C 
BRANCH  18  19
ATOM     19  C   UNL     1      10.605  18.988  12.700  1.00  0.00    -0.003 C 
ATOM     20  C   UNL     1       9.375  18.876  11.803  1.00  0.00     0.004 C 
ENDBRANCH  18  19
ENDBRANCH  17  18
ENDBRANCH  16  17
ENDBRANCH  15  16
ENDBRANCH  14  15
ENDBRANCH  13  14
ENDBRANCH  12  13
ENDBRANCH   1  12
TORSDOF 16
ENDMDL
