MODEL 1
REMARK VINA RESULT:     7.813      0.000      0.000
REMARK INTER + INTRA:           8.909
REMARK INTER:                   9.183
REMARK INTRA:                  -0.273
REMARK UNBOUND:                -0.273
REMARK SMILES O=c1cc(-c2ccc(O)c(O)c2)oc2cc(O)cc(O)c12
REMARK SMILES IDX 4 1 3 2 2 3 1 4 21 5 19 6 18 7 16 8 15 9 14 10 13 11 5 12
REMARK SMILES IDX 6 13 7 14 8 15 12 16 10 17 9 18 11 20 20 22 17 24
REMARK H PARENT 9 19 11 21 20 23 17 25
REMARK Flexibility Score: inf
ROOT
ATOM      1  C   UNL     1       0.706  20.531  12.264  1.00  0.00     0.138 A 
ATOM      2  C   UNL     1      -0.589  20.708  11.756  1.00  0.00     0.100 A 
ATOM      3  C   UNL     1      -1.654  20.904  12.636  1.00  0.00     0.197 A 
ATOM      4  O   UNL     1      -2.794  21.122  12.148  1.00  0.00    -0.289 OA
ATOM      5  C   UNL     1      -1.425  20.890  14.032  1.00  0.00     0.107 A 
ATOM      6  C   UNL     1      -2.442  21.038  15.023  1.00  0.00     0.134 A 
ATOM      7  C   UNL     1      -2.080  21.125  16.374  1.00  0.00     0.093 A 
ATOM      8  C   UNL     1      -0.750  21.008  16.773  1.00  0.00     0.123 A 
ATOM      9  C   UNL     1       0.247  20.810  15.816  1.00  0.00     0.094 A 
ATOM     10  C   UNL     1      -0.077  20.753  14.459  1.00  0.00     0.146 A 
ATOM     11  O   UNL     1       0.902  20.577  13.578  1.00  0.00    -0.456 OA
ENDROOT
BRANCH   1  12
ATOM     12  C   UNL     1       1.874  20.318  11.374  1.00  0.00     0.021 A 
ATOM     13  C   UNL     1       3.016  21.124  11.528  1.00  0.00     0.016 A 
ATOM     14  C   UNL     1       4.132  20.939  10.708  1.00  0.00     0.051 A 
ATOM     15  C   UNL     1       4.133  19.942   9.728  1.00  0.00     0.157 A 
ATOM     16  C   UNL     1       1.885  19.307  10.394  1.00  0.00     0.062 A 
ATOM     17  C   UNL     1       3.006  19.119   9.571  1.00  0.00     0.158 A 
BRANCH  15  18
ATOM     18  O   UNL     1       5.261  19.783   8.924  1.00  0.00    -0.504 OA
ATOM     19  H   UNL     1       5.503  20.447   8.198  1.00  0.00     0.293 HD
ENDBRANCH  15  18
BRANCH  17  20
ATOM     20  O   UNL     1       3.004  18.116   8.603  1.00  0.00    -0.504 OA
ATOM     21  H   UNL     1       3.410  18.261   7.686  1.00  0.00     0.293 HD
ENDBRANCH  17  20
ENDBRANCH   1  12
BRANCH   6  22
ATOM     22  O   UNL     1      -3.810  21.079  14.740  1.00  0.00    -0.507 OA
ATOM     23  H   UNL     1      -4.393  20.268  14.593  1.00  0.00     0.293 HD
ENDBRANCH   6  22
BRANCH   8  24
ATOM     24  O   UNL     1      -0.429  21.085  18.126  1.00  0.00    -0.508 OA
ATOM     25  H   UNL     1      -0.509  21.954  18.642  1.00  0.00     0.293 HD
ENDBRANCH   8  24
TORSDOF 5
ENDMDL
MODEL 2
REMARK VINA RESULT:     8.646      1.725      2.409
REMARK INTER + INTRA:           9.889
REMARK INTER:                  10.185
REMARK INTRA:                  -0.297
REMARK UNBOUND:                -0.273
REMARK SMILES O=c1cc(-c2ccc(O)c(O)c2)oc2cc(O)cc(O)c12
REMARK SMILES IDX 4 1 3 2 2 3 1 4 21 5 19 6 18 7 16 8 15 9 14 10 13 11 5 12
REMARK SMILES IDX 6 13 7 14 8 15 12 16 10 17 9 18 11 20 20 22 17 24
REMARK H PARENT 9 19 11 21 20 23 17 25
REMARK Flexibility Score: inf
ROOT
ATOM      1  C   UNL     1       2.202  21.070  10.750  1.00  0.00     0.138 A 
ATOM      2  C   UNL     1       0.977  21.067  10.068  1.00  0.00     0.100 A 
ATOM      3  C   UNL     1      -0.216  21.044  10.791  1.00  0.00     0.197 A 
ATOM      4  O   UNL     1      -1.299  21.104  10.152  1.00  0.00    -0.289 OA
ATOM      5  C   UNL     1      -0.180  20.992  12.205  1.00  0.00     0.107 A 
ATOM      6  C   UNL     1      -1.333  20.925  13.044  1.00  0.00     0.134 A 
ATOM      7  C   UNL     1      -1.179  20.996  14.435  1.00  0.00     0.093 A 
ATOM      8  C   UNL     1       0.086  21.070  15.016  1.00  0.00     0.123 A 
ATOM      9  C   UNL     1       1.222  21.084  14.207  1.00  0.00     0.094 A 
ATOM     10  C   UNL     1       1.100  21.049  12.816  1.00  0.00     0.146 A 
ATOM     11  O   UNL     1       2.206  21.077  12.079  1.00  0.00    -0.456 OA
ENDROOT
BRANCH   1  12
ATOM     12  C   UNL     1       3.500  21.093  10.031  1.00  0.00     0.021 A 
ATOM     13  C   UNL     1       4.698  21.075  10.766  1.00  0.00     0.016 A 
ATOM     14  C   UNL     1       5.933  21.088  10.113  1.00  0.00     0.051 A 
ATOM     15  C   UNL     1       5.995  21.110   8.717  1.00  0.00     0.157 A 
ATOM     16  C   UNL     1       3.568  21.102   8.624  1.00  0.00     0.062 A 
ATOM     17  C   UNL     1       4.807  21.114   7.967  1.00  0.00     0.158 A 
BRANCH  15  18
ATOM     18  O   UNL     1       7.242  21.125   8.094  1.00  0.00    -0.504 OA
ATOM     19  H   UNL     1       7.896  21.890   8.215  1.00  0.00     0.293 HD
ENDBRANCH  15  18
BRANCH  17  20
ATOM     20  O   UNL     1       4.861  21.125   6.574  1.00  0.00    -0.504 OA
ATOM     21  H   UNL     1       4.858  20.266   6.036  1.00  0.00     0.293 HD
ENDBRANCH  17  20
ENDBRANCH   1  12
BRANCH   6  22
ATOM     22  O   UNL     1      -2.638  20.763  12.569  1.00  0.00    -0.507 OA
ATOM     23  H   UNL     1      -3.367  20.255  13.048  1.00  0.00     0.293 HD
ENDBRANCH   6  22
BRANCH   8  24
ATOM     24  O   UNL     1       0.201  21.125  16.404  1.00  0.00    -0.508 OA
ATOM     25  H   UNL     1       0.627  21.918  16.870  1.00  0.00     0.293 HD
ENDBRANCH   8  24
TORSDOF 5
ENDMDL
MODEL 3
REMARK VINA RESULT:     9.607      1.611      1.651
REMARK INTER + INTRA:          11.018
REMARK INTER:                  11.312
REMARK INTRA:                  -0.294
REMARK UNBOUND:                -0.273
REMARK SMILES O=c1cc(-c2ccc(O)c(O)c2)oc2cc(O)cc(O)c12
REMARK SMILES IDX 4 1 3 2 2 3 1 4 21 5 19 6 18 7 16 8 15 9 14 10 13 11 5 12
REMARK SMILES IDX 6 13 7 14 8 15 12 16 10 17 9 18 11 20 20 22 17 24
REMARK H PARENT 9 19 11 21 20 23 17 25
REMARK Flexibility Score: inf
ROOT
ATOM      1  C   UNL     1       1.161  19.507  11.841  1.00  0.00     0.138 A 
ATOM      2  C   UNL     1       0.110  18.681  11.418  1.00  0.00     0.100 A 
ATOM      3  C   UNL     1      -0.977  18.460  12.264  1.00  0.00     0.197 A 
ATOM      4  O   UNL     1      -1.933  17.764  11.832  1.00  0.00    -0.289 OA
ATOM      5  C   UNL     1      -0.996  19.044  13.552  1.00  0.00     0.107 A 
ATOM      6  C   UNL     1      -2.033  18.854  14.515  1.00  0.00     0.134 A 
ATOM      7  C   UNL     1      -2.001  19.577  15.715  1.00  0.00     0.093 A 
ATOM      8  C   UNL     1      -0.942  20.433  16.012  1.00  0.00     0.123 A 
ATOM      9  C   UNL     1       0.104  20.585  15.101  1.00  0.00     0.094 A 
ATOM     10  C   UNL     1       0.085  19.905  13.881  1.00  0.00     0.146 A 
ATOM     11  O   UNL     1       1.093  20.088  13.035  1.00  0.00    -0.456 OA
ENDROOT
BRANCH   1  12
ATOM     12  C   UNL     1       2.342  19.775  10.982  1.00  0.00     0.021 A 
ATOM     13  C   UNL     1       3.188  20.856  11.288  1.00  0.00     0.016 A 
ATOM     14  C   UNL     1       4.310  21.125  10.501  1.00  0.00     0.051 A 
ATOM     15  C   UNL     1       4.612  20.318   9.400  1.00  0.00     0.157 A 
ATOM     16  C   UNL     1       2.658  18.957   9.880  1.00  0.00     0.062 A 
ATOM     17  C   UNL     1       3.785  19.226   9.089  1.00  0.00     0.158 A 
BRANCH  15  18
ATOM     18  O   UNL     1       5.738  20.613   8.632  1.00  0.00    -0.504 OA
ATOM     19  H   UNL     1       6.669  20.326   8.909  1.00  0.00     0.293 HD
ENDBRANCH  15  18
BRANCH  17  20
ATOM     20  O   UNL     1       4.087  18.410   8.000  1.00  0.00    -0.504 OA
ATOM     21  H   UNL     1       4.429  18.794   7.127  1.00  0.00     0.293 HD
ENDBRANCH  17  20
ENDBRANCH   1  12
BRANCH   6  22
ATOM     22  O   UNL     1      -3.093  17.958  14.355  1.00  0.00    -0.507 OA
ATOM     23  H   UNL     1      -3.206  17.099  14.874  1.00  0.00     0.293 HD
ENDBRANCH   6  22
BRANCH   8  24
ATOM     24  O   UNL     1      -0.936  21.125  17.221  1.00  0.00    -0.508 OA
ATOM     25  H   UNL     1      -1.197  20.675  18.091  1.00  0.00     0.293 HD
ENDBRANCH   8  24
TORSDOF 5
ENDMDL
