MODEL 1
REMARK VINA RESULT:    -6.530      0.000      0.000
REMARK INTER + INTRA:          -7.865
REMARK INTER:                  -7.867
REMARK INTRA:                   0.002
REMARK UNBOUND:                 0.002
REMARK SMILES O=c1c(O)c(-c2ccc(O)c(O)c2)oc2cc(O)cc(O)c12
REMARK SMILES IDX 5 1 3 2 2 3 1 4 22 5 20 6 19 7 17 8 16 9 15 10 14 11 6 12
REMARK SMILES IDX 7 13 8 14 9 15 13 16 11 17 10 18 12 20 4 22 21 24 18 26
REMARK H PARENT 10 19 12 21 4 23 21 25 18 27
REMARK Flexibility Score: inf
ROOT
ATOM      1  C   UNL     1       7.114  15.542  21.679  1.00  0.00     0.180 A 
ATOM      2  C   UNL     1       8.418  15.505  21.156  1.00  0.00     0.208 A 
ATOM      3  C   UNL     1       8.915  16.635  20.487  1.00  0.00     0.238 A 
ATOM      4  O   UNL     1      10.102  16.615  20.068  1.00  0.00    -0.285 OA
ATOM      5  C   UNL     1       8.098  17.780  20.335  1.00  0.00     0.111 A 
ATOM      6  C   UNL     1       8.485  18.965  19.640  1.00  0.00     0.134 A 
ATOM      7  C   UNL     1       7.644  20.086  19.665  1.00  0.00     0.093 A 
ATOM      8  C   UNL     1       6.403  20.042  20.304  1.00  0.00     0.123 A 
ATOM      9  C   UNL     1       5.991  18.870  20.935  1.00  0.00     0.094 A 
ATOM     10  C   UNL     1       6.823  17.747  20.958  1.00  0.00     0.146 A 
ATOM     11  O   UNL     1       6.396  16.654  21.579  1.00  0.00    -0.452 OA
ENDROOT
BRANCH   1  12
ATOM     12  C   UNL     1       6.511  14.383  22.377  1.00  0.00     0.025 A 
ATOM     13  C   UNL     1       6.535  13.120  21.766  1.00  0.00     0.016 A 
ATOM     14  C   UNL     1       5.992  12.008  22.415  1.00  0.00     0.051 A 
ATOM     15  C   UNL     1       5.430  12.138  23.689  1.00  0.00     0.157 A 
ATOM     16  C   UNL     1       5.965  14.507  23.667  1.00  0.00     0.062 A 
ATOM     17  C   UNL     1       5.420  13.393  24.321  1.00  0.00     0.158 A 
BRANCH  15  18
ATOM     18  O   UNL     1       4.893  11.012  24.311  1.00  0.00    -0.504 OA
ATOM     19  H   UNL     1       4.171  10.449  23.876  1.00  0.00     0.293 HD
ENDBRANCH  15  18
BRANCH  17  20
ATOM     20  O   UNL     1       4.875  13.527  25.597  1.00  0.00    -0.504 OA
ATOM     21  H   UNL     1       5.433  13.842  26.382  1.00  0.00     0.293 HD
ENDBRANCH  17  20
ENDBRANCH   1  12
BRANCH   2  22
ATOM     22  O   UNL     1       9.215  14.372  21.337  1.00  0.00    -0.502 OA
ATOM     23  H   UNL     1       9.784  13.984  20.594  1.00  0.00     0.293 HD
ENDBRANCH   2  22
BRANCH   6  24
ATOM     24  O   UNL     1       9.661  19.084  18.893  1.00  0.00    -0.507 OA
ATOM     25  H   UNL     1      10.569  18.774  19.201  1.00  0.00     0.293 HD
ENDBRANCH   6  24
BRANCH   8  26
ATOM     26  O   UNL     1       5.567  21.155  20.311  1.00  0.00    -0.508 OA
ATOM     27  H   UNL     1       5.872  22.050  19.945  1.00  0.00     0.293 HD
ENDBRANCH   8  26
TORSDOF 6
ENDMDL
MODEL 2
REMARK VINA RESULT:    -5.496      2.501      6.721
REMARK INTER + INTRA:          -6.618
REMARK INTER:                  -6.527
REMARK INTRA:                  -0.091
REMARK UNBOUND:                 0.002
REMARK SMILES O=c1c(O)c(-c2ccc(O)c(O)c2)oc2cc(O)cc(O)c12
REMARK SMILES IDX 5 1 3 2 2 3 1 4 22 5 20 6 19 7 17 8 16 9 15 10 14 11 6 12
REMARK SMILES IDX 7 13 8 14 9 15 13 16 11 17 10 18 12 20 4 22 21 24 18 26
REMARK H PARENT 10 19 12 21 4 23 21 25 18 27
REMARK Flexibility Score: inf
ROOT
ATOM      1  C   UNL     1       7.784  16.957  21.277  1.00  0.00     0.180 A 
ATOM      2  C   UNL     1       7.051  16.792  20.089  1.00  0.00     0.208 A 
ATOM      3  C   UNL     1       6.272  15.635  19.926  1.00  0.00     0.238 A 
ATOM      4  O   UNL     1       5.576  15.518  18.885  1.00  0.00    -0.285 OA
ATOM      5  C   UNL     1       6.248  14.652  20.945  1.00  0.00     0.111 A 
ATOM      6  C   UNL     1       5.526  13.423  20.868  1.00  0.00     0.134 A 
ATOM      7  C   UNL     1       5.470  12.585  21.989  1.00  0.00     0.093 A 
ATOM      8  C   UNL     1       6.163  12.899  23.160  1.00  0.00     0.123 A 
ATOM      9  C   UNL     1       6.919  14.068  23.224  1.00  0.00     0.094 A 
ATOM     10  C   UNL     1       6.965  14.942  22.135  1.00  0.00     0.146 A 
ATOM     11  O   UNL     1       7.690  16.050  22.241  1.00  0.00    -0.452 OA
ENDROOT
BRANCH   1  12
ATOM     12  C   UNL     1       8.647  18.138  21.512  1.00  0.00     0.025 A 
ATOM     13  C   UNL     1       9.684  18.426  20.613  1.00  0.00     0.016 A 
ATOM     14  C   UNL     1      10.497  19.547  20.803  1.00  0.00     0.051 A 
ATOM     15  C   UNL     1      10.276  20.404  21.885  1.00  0.00     0.157 A 
ATOM     16  C   UNL     1       8.413  19.014  22.588  1.00  0.00     0.062 A 
ATOM     17  C   UNL     1       9.225  20.140  22.780  1.00  0.00     0.158 A 
BRANCH  15  18
ATOM     18  O   UNL     1      11.104  21.514  22.051  1.00  0.00    -0.504 OA
ATOM     19  H   UNL     1      11.585  21.701  22.924  1.00  0.00     0.293 HD
ENDBRANCH  15  18
BRANCH  17  20
ATOM     20  O   UNL     1       8.989  20.999  23.853  1.00  0.00    -0.504 OA
ATOM     21  H   UNL     1       9.158  21.995  23.783  1.00  0.00     0.293 HD
ENDBRANCH  17  20
ENDBRANCH   1  12
BRANCH   2  22
ATOM     22  O   UNL     1       7.071  17.785  19.107  1.00  0.00    -0.502 OA
ATOM     23  H   UNL     1       6.550  17.705  18.242  1.00  0.00     0.293 HD
ENDBRANCH   2  22
BRANCH   6  24
ATOM     24  O   UNL     1       4.876  12.970  19.717  1.00  0.00    -0.507 OA
ATOM     25  H   UNL     1       4.316  12.133  19.665  1.00  0.00     0.293 HD
ENDBRANCH   6  24
BRANCH   8  26
ATOM     26  O   UNL     1       6.114  12.052  24.264  1.00  0.00    -0.508 OA
ATOM     27  H   UNL     1       6.383  12.369  25.189  1.00  0.00     0.293 HD
ENDBRANCH   8  26
TORSDOF 6
ENDMDL
MODEL 3
REMARK VINA RESULT:    -5.469      2.209      6.830
REMARK INTER + INTRA:          -6.587
REMARK INTER:                  -6.256
REMARK INTRA:                  -0.331
REMARK UNBOUND:                 0.002
REMARK SMILES O=c1c(O)c(-c2ccc(O)c(O)c2)oc2cc(O)cc(O)c12
REMARK SMILES IDX 5 1 3 2 2 3 1 4 22 5 20 6 19 7 17 8 16 9 15 10 14 11 6 12
REMARK SMILES IDX 7 13 8 14 9 15 13 16 11 17 10 18 12 20 4 22 21 24 18 26
REMARK H PARENT 10 19 12 21 4 23 21 25 18 27
REMARK Flexibility Score: inf
ROOT
ATOM      1  C   UNL     1       8.374  17.913  20.924  1.00  0.00     0.180 A 
ATOM      2  C   UNL     1       8.913  17.123  19.894  1.00  0.00     0.208 A 
ATOM      3  C   UNL     1       8.572  15.762  19.830  1.00  0.00     0.238 A 
ATOM      4  O   UNL     1       9.015  15.073  18.875  1.00  0.00    -0.285 OA
ATOM      5  C   UNL     1       7.709  15.207  20.805  1.00  0.00     0.111 A 
ATOM      6  C   UNL     1       7.329  13.831  20.860  1.00  0.00     0.134 A 
ATOM      7  C   UNL     1       6.366  13.419  21.790  1.00  0.00     0.093 A 
ATOM      8  C   UNL     1       5.820  14.317  22.710  1.00  0.00     0.123 A 
ATOM      9  C   UNL     1       6.230  15.649  22.702  1.00  0.00     0.094 A 
ATOM     10  C   UNL     1       7.161  16.099  21.763  1.00  0.00     0.146 A 
ATOM     11  O   UNL     1       7.516  17.378  21.784  1.00  0.00    -0.452 OA
ENDROOT
BRANCH   1  12
ATOM     12  C   UNL     1       8.706  19.349  21.072  1.00  0.00     0.025 A 
ATOM     13  C   UNL     1       7.839  20.317  20.544  1.00  0.00     0.016 A 
ATOM     14  C   UNL     1       8.122  21.678  20.691  1.00  0.00     0.051 A 
ATOM     15  C   UNL     1       9.266  22.091  21.379  1.00  0.00     0.157 A 
ATOM     16  C   UNL     1       9.846  19.768  21.782  1.00  0.00     0.062 A 
ATOM     17  C   UNL     1      10.131  21.132  21.932  1.00  0.00     0.158 A 
BRANCH  15  18
ATOM     18  O   UNL     1       9.524  23.456  21.508  1.00  0.00    -0.504 OA
ATOM     19  H   UNL     1       9.057  24.148  20.933  1.00  0.00     0.293 HD
ENDBRANCH  15  18
BRANCH  17  20
ATOM     20  O   UNL     1      11.267  21.538  22.633  1.00  0.00    -0.504 OA
ATOM     21  H   UNL     1      11.706  20.941  23.323  1.00  0.00     0.293 HD
ENDBRANCH  17  20
ENDBRANCH   1  12
BRANCH   2  22
ATOM     22  O   UNL     1       9.746  17.698  18.930  1.00  0.00    -0.502 OA
ATOM     23  H   UNL     1      10.470  17.173  18.455  1.00  0.00     0.293 HD
ENDBRANCH   2  22
BRANCH   6  24
ATOM     24  O   UNL     1       7.881  12.835  20.049  1.00  0.00    -0.507 OA
ATOM     25  H   UNL     1       8.819  12.849  19.681  1.00  0.00     0.293 HD
ENDBRANCH   6  24
BRANCH   8  26
ATOM     26  O   UNL     1       4.875  13.895  23.641  1.00  0.00    -0.508 OA
ATOM     27  H   UNL     1       4.325  13.056  23.496  1.00  0.00     0.293 HD
ENDBRANCH   8  26
TORSDOF 6
ENDMDL
MODEL 4
REMARK VINA RESULT:    -5.267      3.278      5.476
REMARK INTER + INTRA:          -6.343
REMARK INTER:                  -6.032
REMARK INTRA:                  -0.311
REMARK UNBOUND:                 0.002
REMARK SMILES O=c1c(O)c(-c2ccc(O)c(O)c2)oc2cc(O)cc(O)c12
REMARK SMILES IDX 5 1 3 2 2 3 1 4 22 5 20 6 19 7 17 8 16 9 15 10 14 11 6 12
REMARK SMILES IDX 7 13 8 14 9 15 13 16 11 17 10 18 12 20 4 22 21 24 18 26
REMARK H PARENT 10 19 12 21 4 23 21 25 18 27
REMARK Flexibility Score: inf
ROOT
ATOM      1  C   UNL     1       8.277  19.040  21.523  1.00  0.00     0.180 A 
ATOM      2  C   UNL     1       7.186  19.613  22.199  1.00  0.00     0.208 A 
ATOM      3  C   UNL     1       7.351  20.861  22.822  1.00  0.00     0.238 A 
ATOM      4  O   UNL     1       6.356  21.393  23.379  1.00  0.00    -0.285 OA
ATOM      5  C   UNL     1       8.607  21.512  22.773  1.00  0.00     0.111 A 
ATOM      6  C   UNL     1       8.897  22.760  23.404  1.00  0.00     0.134 A 
ATOM      7  C   UNL     1      10.136  23.374  23.180  1.00  0.00     0.093 A 
ATOM      8  C   UNL     1      11.118  22.754  22.404  1.00  0.00     0.123 A 
ATOM      9  C   UNL     1      10.865  21.508  21.833  1.00  0.00     0.094 A 
ATOM     10  C   UNL     1       9.625  20.887  22.008  1.00  0.00     0.146 A 
ATOM     11  O   UNL     1       9.422  19.705  21.439  1.00  0.00    -0.452 OA
ENDROOT
BRANCH   1  12
ATOM     12  C   UNL     1       8.188  17.717  20.863  1.00  0.00     0.025 A 
ATOM     13  C   UNL     1       7.699  17.630  19.551  1.00  0.00     0.016 A 
ATOM     14  C   UNL     1       7.626  16.395  18.902  1.00  0.00     0.051 A 
ATOM     15  C   UNL     1       8.055  15.232  19.547  1.00  0.00     0.157 A 
ATOM     16  C   UNL     1       8.638  16.548  21.503  1.00  0.00     0.062 A 
ATOM     17  C   UNL     1       8.568  15.308  20.853  1.00  0.00     0.158 A 
BRANCH  15  18
ATOM     18  O   UNL     1       7.969  14.013  18.875  1.00  0.00    -0.504 OA
ATOM     19  H   UNL     1       7.488  13.213  19.271  1.00  0.00     0.293 HD
ENDBRANCH  15  18
BRANCH  17  20
ATOM     20  O   UNL     1       9.012  14.153  21.497  1.00  0.00    -0.504 OA
ATOM     21  H   UNL     1       8.515  13.763  22.289  1.00  0.00     0.293 HD
ENDBRANCH  17  20
ENDBRANCH   1  12
BRANCH   2  22
ATOM     22  O   UNL     1       5.949  18.963  22.215  1.00  0.00    -0.502 OA
ATOM     23  H   UNL     1       5.669  18.311  21.493  1.00  0.00     0.293 HD
ENDBRANCH   2  22
BRANCH   6  24
ATOM     24  O   UNL     1       8.022  23.418  24.272  1.00  0.00    -0.507 OA
ATOM     25  H   UNL     1       7.051  23.606  24.075  1.00  0.00     0.293 HD
ENDBRANCH   6  24
BRANCH   8  26
ATOM     26  O   UNL     1      12.353  23.365  22.199  1.00  0.00    -0.508 OA
ATOM     27  H   UNL     1      12.736  23.488  21.269  1.00  0.00     0.293 HD
ENDBRANCH   8  26
TORSDOF 6
ENDMDL
MODEL 5
REMARK VINA RESULT:    -5.264      6.016      8.101
REMARK INTER + INTRA:          -6.340
REMARK INTER:                  -6.017
REMARK INTRA:                  -0.323
REMARK UNBOUND:                 0.002
REMARK SMILES O=c1c(O)c(-c2ccc(O)c(O)c2)oc2cc(O)cc(O)c12
REMARK SMILES IDX 5 1 3 2 2 3 1 4 22 5 20 6 19 7 17 8 16 9 15 10 14 11 6 12
REMARK SMILES IDX 7 13 8 14 9 15 13 16 11 17 10 18 12 20 4 22 21 24 18 26
REMARK H PARENT 10 19 12 21 4 23 21 25 18 27
REMARK Flexibility Score: inf
ROOT
ATOM      1  C   UNL     1       7.483  22.124  24.925  1.00  0.00     0.180 A 
ATOM      2  C   UNL     1       6.914  21.149  24.087  1.00  0.00     0.208 A 
ATOM      3  C   UNL     1       7.564  20.819  22.887  1.00  0.00     0.238 A 
ATOM      4  O   UNL     1       7.078  19.908  22.168  1.00  0.00    -0.285 OA
ATOM      5  C   UNL     1       8.766  21.478  22.533  1.00  0.00     0.111 A 
ATOM      6  C   UNL     1       9.488  21.251  21.322  1.00  0.00     0.134 A 
ATOM      7  C   UNL     1      10.733  21.864  21.137  1.00  0.00     0.093 A 
ATOM      8  C   UNL     1      11.252  22.746  22.088  1.00  0.00     0.123 A 
ATOM      9  C   UNL     1      10.527  23.019  23.246  1.00  0.00     0.094 A 
ATOM     10  C   UNL     1       9.298  22.395  23.476  1.00  0.00     0.146 A 
ATOM     11  O   UNL     1       8.645  22.676  24.597  1.00  0.00    -0.452 OA
ENDROOT
BRANCH   1  12
ATOM     12  C   UNL     1       6.844  22.543  26.194  1.00  0.00     0.025 A 
ATOM     13  C   UNL     1       5.914  23.592  26.186  1.00  0.00     0.016 A 
ATOM     14  C   UNL     1       5.283  23.989  27.367  1.00  0.00     0.051 A 
ATOM     15  C   UNL     1       5.561  23.335  28.571  1.00  0.00     0.157 A 
ATOM     16  C   UNL     1       7.106  21.871  27.402  1.00  0.00     0.062 A 
ATOM     17  C   UNL     1       6.474  22.267  28.589  1.00  0.00     0.158 A 
BRANCH  15  18
ATOM     18  O   UNL     1       4.918  23.754  29.735  1.00  0.00    -0.504 OA
ATOM     19  H   UNL     1       3.973  24.122  29.726  1.00  0.00     0.293 HD
ENDBRANCH  15  18
BRANCH  17  20
ATOM     20  O   UNL     1       6.744  21.599  29.783  1.00  0.00    -0.504 OA
ATOM     21  H   UNL     1       7.187  20.689  29.794  1.00  0.00     0.293 HD
ENDBRANCH  17  20
ENDBRANCH   1  12
BRANCH   2  22
ATOM     22  O   UNL     1       5.738  20.496  24.467  1.00  0.00    -0.502 OA
ATOM     23  H   UNL     1       5.440  19.626  24.044  1.00  0.00     0.293 HD
ENDBRANCH   2  22
BRANCH   6  24
ATOM     24  O   UNL     1       9.017  20.462  20.269  1.00  0.00    -0.507 OA
ATOM     25  H   UNL     1       8.396  19.675  20.374  1.00  0.00     0.293 HD
ENDBRANCH   6  24
BRANCH   8  26
ATOM     26  O   UNL     1      12.485  23.362  21.888  1.00  0.00    -0.508 OA
ATOM     27  H   UNL     1      13.133  23.035  21.181  1.00  0.00     0.293 HD
ENDBRANCH   8  26
TORSDOF 6
ENDMDL
MODEL 6
REMARK VINA RESULT:    -5.262      2.308      3.849
REMARK INTER + INTRA:          -6.338
REMARK INTER:                  -6.014
REMARK INTRA:                  -0.323
REMARK UNBOUND:                 0.002
REMARK SMILES O=c1c(O)c(-c2ccc(O)c(O)c2)oc2cc(O)cc(O)c12
REMARK SMILES IDX 5 1 3 2 2 3 1 4 22 5 20 6 19 7 17 8 16 9 15 10 14 11 6 12
REMARK SMILES IDX 7 13 8 14 9 15 13 16 11 17 10 18 12 20 4 22 21 24 18 26
REMARK H PARENT 10 19 12 21 4 23 21 25 18 27
REMARK Flexibility Score: inf
ROOT
ATOM      1  C   UNL     1       7.530  17.716  21.049  1.00  0.00     0.180 A 
ATOM      2  C   UNL     1       6.839  18.431  20.055  1.00  0.00     0.208 A 
ATOM      3  C   UNL     1       7.200  19.764  19.802  1.00  0.00     0.238 A 
ATOM      4  O   UNL     1       6.614  20.382  18.875  1.00  0.00    -0.285 OA
ATOM      5  C   UNL     1       8.235  20.369  20.554  1.00  0.00     0.111 A 
ATOM      6  C   UNL     1       8.655  21.726  20.409  1.00  0.00     0.134 A 
ATOM      7  C   UNL     1       9.776  22.180  21.115  1.00  0.00     0.093 A 
ATOM      8  C   UNL     1      10.452  21.347  22.009  1.00  0.00     0.123 A 
ATOM      9  C   UNL     1      10.013  20.038  22.202  1.00  0.00     0.094 A 
ATOM     10  C   UNL     1       8.919  19.545  21.485  1.00  0.00     0.146 A 
ATOM     11  O   UNL     1       8.540  18.290  21.691  1.00  0.00    -0.452 OA
ENDROOT
BRANCH   1  12
ATOM     12  C   UNL     1       7.192  16.315  21.390  1.00  0.00     0.025 A 
ATOM     13  C   UNL     1       6.203  16.057  22.351  1.00  0.00     0.016 A 
ATOM     14  C   UNL     1       5.852  14.743  22.672  1.00  0.00     0.051 A 
ATOM     15  C   UNL     1       6.474  13.668  22.029  1.00  0.00     0.157 A 
ATOM     16  C   UNL     1       7.801  15.232  20.729  1.00  0.00     0.062 A 
ATOM     17  C   UNL     1       7.450  13.913  21.049  1.00  0.00     0.158 A 
BRANCH  15  18
ATOM     18  O   UNL     1       6.106  12.368  22.372  1.00  0.00    -0.504 OA
ATOM     19  H   UNL     1       5.826  11.686  21.676  1.00  0.00     0.293 HD
ENDBRANCH  15  18
BRANCH  17  20
ATOM     20  O   UNL     1       8.063  12.847  20.392  1.00  0.00    -0.504 OA
ATOM     21  H   UNL     1       8.437  12.055  20.901  1.00  0.00     0.293 HD
ENDBRANCH  17  20
ENDBRANCH   1  12
BRANCH   2  22
ATOM     22  O   UNL     1       5.836  17.807  19.310  1.00  0.00    -0.502 OA
ATOM     23  H   UNL     1       5.094  18.326  18.855  1.00  0.00     0.293 HD
ENDBRANCH   2  22
BRANCH   6  24
ATOM     24  O   UNL     1       7.995  22.667  19.613  1.00  0.00    -0.507 OA
ATOM     25  H   UNL     1       8.230  23.646  19.568  1.00  0.00     0.293 HD
ENDBRANCH   6  24
BRANCH   8  26
ATOM     26  O   UNL     1      11.556  21.811  22.718  1.00  0.00    -0.508 OA
ATOM     27  H   UNL     1      12.152  22.545  22.351  1.00  0.00     0.293 HD
ENDBRANCH   8  26
TORSDOF 6
ENDMDL
MODEL 7
REMARK VINA RESULT:    -5.129      3.241      4.912
REMARK INTER + INTRA:          -6.177
REMARK INTER:                  -5.875
REMARK INTRA:                  -0.302
REMARK UNBOUND:                 0.002
REMARK SMILES O=c1c(O)c(-c2ccc(O)c(O)c2)oc2cc(O)cc(O)c12
REMARK SMILES IDX 5 1 3 2 2 3 1 4 22 5 20 6 19 7 17 8 16 9 15 10 14 11 6 12
REMARK SMILES IDX 7 13 8 14 9 15 13 16 11 17 10 18 12 20 4 22 21 24 18 26
REMARK H PARENT 10 19 12 21 4 23 21 25 18 27
REMARK Flexibility Score: inf
ROOT
ATOM      1  C   UNL     1       8.370  19.091  21.070  1.00  0.00     0.180 A 
ATOM      2  C   UNL     1       9.063  19.880  20.135  1.00  0.00     0.208 A 
ATOM      3  C   UNL     1       9.466  21.174  20.502  1.00  0.00     0.238 A 
ATOM      4  O   UNL     1      10.133  21.855  19.680  1.00  0.00    -0.285 OA
ATOM      5  C   UNL     1       9.157  21.668  21.792  1.00  0.00     0.111 A 
ATOM      6  C   UNL     1       9.481  22.979  22.256  1.00  0.00     0.134 A 
ATOM      7  C   UNL     1       9.243  23.316  23.594  1.00  0.00     0.093 A 
ATOM      8  C   UNL     1       8.633  22.412  24.468  1.00  0.00     0.123 A 
ATOM      9  C   UNL     1       8.260  21.151  24.008  1.00  0.00     0.094 A 
ATOM     10  C   UNL     1       8.517  20.773  22.688  1.00  0.00     0.146 A 
ATOM     11  O   UNL     1       8.153  19.559  22.293  1.00  0.00    -0.452 OA
ENDROOT
BRANCH   1  12
ATOM     12  C   UNL     1       7.891  17.727  20.749  1.00  0.00     0.025 A 
ATOM     13  C   UNL     1       6.701  17.564  20.025  1.00  0.00     0.016 A 
ATOM     14  C   UNL     1       6.242  16.287  19.693  1.00  0.00     0.051 A 
ATOM     15  C   UNL     1       6.973  15.155  20.065  1.00  0.00     0.157 A 
ATOM     16  C   UNL     1       8.636  16.588  21.104  1.00  0.00     0.062 A 
ATOM     17  C   UNL     1       8.179  15.305  20.770  1.00  0.00     0.158 A 
BRANCH  15  18
ATOM     18  O   UNL     1       6.490  13.892  19.722  1.00  0.00    -0.504 OA
ATOM     19  H   UNL     1       5.645  13.770  19.176  1.00  0.00     0.293 HD
ENDBRANCH  15  18
BRANCH  17  20
ATOM     20  O   UNL     1       8.921  14.181  21.132  1.00  0.00    -0.504 OA
ATOM     21  H   UNL     1       9.092  13.426  20.479  1.00  0.00     0.293 HD
ENDBRANCH  17  20
ENDBRANCH   1  12
BRANCH   2  22
ATOM     22  O   UNL     1       9.376  19.364  18.875  1.00  0.00    -0.502 OA
ATOM     23  H   UNL     1      10.167  19.692  18.334  1.00  0.00     0.293 HD
ENDBRANCH   2  22
BRANCH   6  24
ATOM     24  O   UNL     1      10.008  23.987  21.443  1.00  0.00    -0.507 OA
ATOM     25  H   UNL     1      10.343  23.850  20.502  1.00  0.00     0.293 HD
ENDBRANCH   6  24
BRANCH   8  26
ATOM     26  O   UNL     1       8.387  22.761  25.793  1.00  0.00    -0.508 OA
ATOM     27  H   UNL     1       7.463  22.677  26.201  1.00  0.00     0.293 HD
ENDBRANCH   8  26
TORSDOF 6
ENDMDL
MODEL 8
REMARK VINA RESULT:    -5.047      3.308      7.505
REMARK INTER + INTRA:          -6.078
REMARK INTER:                  -5.911
REMARK INTRA:                  -0.166
REMARK UNBOUND:                 0.002
REMARK SMILES O=c1c(O)c(-c2ccc(O)c(O)c2)oc2cc(O)cc(O)c12
REMARK SMILES IDX 5 1 3 2 2 3 1 4 22 5 20 6 19 7 17 8 16 9 15 10 14 11 6 12
REMARK SMILES IDX 7 13 8 14 9 15 13 16 11 17 10 18 12 20 4 22 21 24 18 26
REMARK H PARENT 10 19 12 21 4 23 21 25 18 27
REMARK Flexibility Score: inf
ROOT
ATOM      1  C   UNL     1       8.039  19.870  21.686  1.00  0.00     0.180 A 
ATOM      2  C   UNL     1       6.815  20.114  21.040  1.00  0.00     0.208 A 
ATOM      3  C   UNL     1       6.159  19.050  20.399  1.00  0.00     0.238 A 
ATOM      4  O   UNL     1       5.038  19.264  19.869  1.00  0.00    -0.285 OA
ATOM      5  C   UNL     1       6.743  17.761  20.398  1.00  0.00     0.111 A 
ATOM      6  C   UNL     1       6.187  16.620  19.745  1.00  0.00     0.134 A 
ATOM      7  C   UNL     1       6.783  15.365  19.921  1.00  0.00     0.093 A 
ATOM      8  C   UNL     1       7.953  15.222  20.671  1.00  0.00     0.123 A 
ATOM      9  C   UNL     1       8.537  16.340  21.263  1.00  0.00     0.094 A 
ATOM     10  C   UNL     1       7.945  17.599  21.136  1.00  0.00     0.146 A 
ATOM     11  O   UNL     1       8.528  18.636  21.724  1.00  0.00    -0.452 OA
ENDROOT
BRANCH   1  12
ATOM     12  C   UNL     1       8.801  20.944  22.362  1.00  0.00     0.025 A 
ATOM     13  C   UNL     1       8.279  21.538  23.521  1.00  0.00     0.016 A 
ATOM     14  C   UNL     1       8.991  22.538  24.188  1.00  0.00     0.051 A 
ATOM     15  C   UNL     1      10.241  22.950  23.716  1.00  0.00     0.157 A 
ATOM     16  C   UNL     1      10.069  21.345  21.901  1.00  0.00     0.062 A 
ATOM     17  C   UNL     1      10.786  22.348  22.569  1.00  0.00     0.158 A 
BRANCH  15  18
ATOM     18  O   UNL     1      10.928  23.952  24.400  1.00  0.00    -0.504 OA
ATOM     19  H   UNL     1      10.499  24.483  25.150  1.00  0.00     0.293 HD
ENDBRANCH  15  18
BRANCH  17  20
ATOM     20  O   UNL     1      12.039  22.742  22.101  1.00  0.00    -0.504 OA
ATOM     21  H   UNL     1      12.636  23.360  22.638  1.00  0.00     0.293 HD
ENDBRANCH  17  20
ENDBRANCH   1  12
BRANCH   2  22
ATOM     22  O   UNL     1       6.246  21.390  21.072  1.00  0.00    -0.502 OA
ATOM     23  H   UNL     1       6.791  22.224  21.253  1.00  0.00     0.293 HD
ENDBRANCH   2  22
BRANCH   6  24
ATOM     24  O   UNL     1       5.074  16.669  18.900  1.00  0.00    -0.507 OA
ATOM     25  H   UNL     1       4.751  15.903  18.331  1.00  0.00     0.293 HD
ENDBRANCH   6  24
BRANCH   8  26
ATOM     26  O   UNL     1       8.548  13.973  20.827  1.00  0.00    -0.508 OA
ATOM     27  H   UNL     1       8.004  13.118  20.798  1.00  0.00     0.293 HD
ENDBRANCH   8  26
TORSDOF 6
ENDMDL
