MODEL 1
REMARK VINA RESULT:    -5.017      0.000      0.000
REMARK INTER + INTRA:          -9.177
REMARK INTER:                  -8.537
REMARK INTRA:                  -0.640
REMARK UNBOUND:                -0.640
REMARK SMILES CCCCCCCCCCCCCC(=O)[O-]
REMARK SMILES IDX 8 1 9 2 10 3 11 4 12 5 13 6 14 7 15 8 16 9 7 10 6 11 5 12
REMARK SMILES IDX 4 13 3 14 2 15 1 16
REMARK H PARENT
REMARK Flexibility Score: inf
ROOT
ATOM      1  C   UNL     1       6.299  42.482  43.573  1.00  0.00     0.000 C 
ENDROOT
BRANCH   1   2
ATOM      2  C   UNL     1       6.248  41.614  44.842  1.00  0.00     0.000 C 
BRANCH   2   3
ATOM      3  C   UNL     1       5.636  42.338  46.060  1.00  0.00     0.000 C 
BRANCH   3   4
ATOM      4  C   UNL     1       5.085  41.353  47.106  1.00  0.00     0.000 C 
BRANCH   4   5
ATOM      5  C   UNL     1       6.012  41.181  48.323  1.00  0.00     0.006 C 
BRANCH   5   6
ATOM      6  C   UNL     1       7.386  40.577  47.981  1.00  0.00     0.053 C 
BRANCH   6   7
ATOM      7  C   UNL     1       7.452  39.103  48.247  1.00  0.00     0.041 C 
ATOM      8  O   UNL     1       6.406  38.404  48.216  1.00  0.00    -0.550 OA
ATOM      9  O   UNL     1       8.667  38.508  48.561  1.00  0.00    -0.550 OA
ENDBRANCH   6   7
ENDBRANCH   5   6
ENDBRANCH   4   5
ENDBRANCH   3   4
ENDBRANCH   2   3
ENDBRANCH   1   2
BRANCH   1  10
ATOM     10  C   UNL     1       6.271  43.987  43.877  1.00  0.00     0.000 C 
BRANCH  10  11
ATOM     11  C   UNL     1       7.436  44.710  43.184  1.00  0.00    -0.000 C 
BRANCH  11  12
ATOM     12  C   UNL     1       7.533  44.379  41.685  1.00  0.00    -0.000 C 
BRANCH  12  13
ATOM     13  C   UNL     1       7.643  45.640  40.808  1.00  0.00    -0.000 C 
BRANCH  13  14
ATOM     14  C   UNL     1       7.242  46.918  41.561  1.00  0.00    -0.000 C 
BRANCH  14  15
ATOM     15  C   UNL     1       8.125  48.122  41.199  1.00  0.00    -0.003 C 
ATOM     16  C   UNL     1       9.588  47.852  41.539  1.00  0.00     0.004 C 
ENDBRANCH  14  15
ENDBRANCH  13  14
ENDBRANCH  12  13
ENDBRANCH  11  12
ENDBRANCH  10  11
ENDBRANCH   1  10
TORSDOF 12
ENDMDL
MODEL 2
REMARK VINA RESULT:    -4.994      3.859      7.574
REMARK INTER + INTRA:          -9.137
REMARK INTER:                  -8.276
REMARK INTRA:                  -0.861
REMARK UNBOUND:                -0.640
REMARK SMILES CCCCCCCCCCCCCC(=O)[O-]
REMARK SMILES IDX 8 1 9 2 10 3 11 4 12 5 13 6 14 7 15 8 16 9 7 10 6 11 5 12
REMARK SMILES IDX 4 13 3 14 2 15 1 16
REMARK H PARENT
REMARK Flexibility Score: inf
ROOT
ATOM      1  C   UNL     1       6.639  40.654  48.050  1.00  0.00     0.000 C 
ENDROOT
BRANCH   1   2
ATOM      2  C   UNL     1       5.570  41.758  48.133  1.00  0.00     0.000 C 
BRANCH   2   3
ATOM      3  C   UNL     1       5.007  42.176  46.757  1.00  0.00     0.000 C 
BRANCH   3   4
ATOM      4  C   UNL     1       6.015  41.937  45.620  1.00  0.00     0.000 C 
BRANCH   4   5
ATOM      5  C   UNL     1       5.519  42.448  44.255  1.00  0.00     0.006 C 
BRANCH   5   6
ATOM      6  C   UNL     1       6.611  42.494  43.171  1.00  0.00     0.053 C 
BRANCH   6   7
ATOM      7  C   UNL     1       7.053  43.891  42.855  1.00  0.00     0.041 C 
ATOM      8  O   UNL     1       7.021  44.785  43.740  1.00  0.00    -0.550 OA
ATOM      9  O   UNL     1       7.468  44.213  41.569  1.00  0.00    -0.550 OA
ENDBRANCH   6   7
ENDBRANCH   5   6
ENDBRANCH   4   5
ENDBRANCH   3   4
ENDBRANCH   2   3
ENDBRANCH   1   2
BRANCH   1  10
ATOM     10  C   UNL     1       7.842  40.918  48.966  1.00  0.00     0.000 C 
BRANCH  10  11
ATOM     11  C   UNL     1       8.960  39.896  48.714  1.00  0.00    -0.000 C 
BRANCH  11  12
ATOM     12  C   UNL     1       9.282  39.725  47.220  1.00  0.00    -0.000 C 
BRANCH  12  13
ATOM     13  C   UNL     1      10.741  40.087  46.884  1.00  0.00    -0.000 C 
BRANCH  13  14
ATOM     14  C   UNL     1      11.563  40.438  48.134  1.00  0.00    -0.000 C 
BRANCH  14  15
ATOM     15  C   UNL     1      12.728  39.465  48.370  1.00  0.00    -0.003 C 
ATOM     16  C   UNL     1      12.369  38.422  49.424  1.00  0.00     0.004 C 
ENDBRANCH  14  15
ENDBRANCH  13  14
ENDBRANCH  12  13
ENDBRANCH  11  12
ENDBRANCH  10  11
ENDBRANCH   1  10
TORSDOF 12
ENDMDL
MODEL 3
REMARK VINA RESULT:    -4.991      1.797      2.593
REMARK INTER + INTRA:          -9.132
REMARK INTER:                  -8.193
REMARK INTRA:                  -0.939
REMARK UNBOUND:                -0.640
REMARK SMILES CCCCCCCCCCCCCC(=O)[O-]
REMARK SMILES IDX 8 1 9 2 10 3 11 4 12 5 13 6 14 7 15 8 16 9 7 10 6 11 5 12
REMARK SMILES IDX 4 13 3 14 2 15 1 16
REMARK H PARENT
REMARK Flexibility Score: inf
ROOT
ATOM      1  C   UNL     1       8.597  41.463  42.858  1.00  0.00     0.000 C 
ENDROOT
BRANCH   1   2
ATOM      2  C   UNL     1       7.338  41.379  43.739  1.00  0.00     0.000 C 
BRANCH   2   3
ATOM      3  C   UNL     1       6.428  42.621  43.635  1.00  0.00     0.000 C 
BRANCH   3   4
ATOM      4  C   UNL     1       5.452  42.728  44.819  1.00  0.00     0.000 C 
BRANCH   4   5
ATOM      5  C   UNL     1       5.781  41.753  45.964  1.00  0.00     0.006 C 
BRANCH   5   6
ATOM      6  C   UNL     1       5.124  42.122  47.306  1.00  0.00     0.053 C 
BRANCH   6   7
ATOM      7  C   UNL     1       5.791  41.464  48.476  1.00  0.00     0.041 C 
ATOM      8  O   UNL     1       6.289  40.314  48.362  1.00  0.00    -0.550 OA
ATOM      9  O   UNL     1       5.833  42.111  49.705  1.00  0.00    -0.550 OA
ENDBRANCH   6   7
ENDBRANCH   5   6
ENDBRANCH   4   5
ENDBRANCH   3   4
ENDBRANCH   2   3
ENDBRANCH   1   2
BRANCH   1  10
ATOM     10  C   UNL     1       8.325  42.094  41.486  1.00  0.00     0.000 C 
BRANCH  10  11
ATOM     11  C   UNL     1       9.371  43.169  41.157  1.00  0.00    -0.000 C 
BRANCH  11  12
ATOM     12  C   UNL     1       9.514  44.219  42.272  1.00  0.00    -0.000 C 
BRANCH  12  13
ATOM     13  C   UNL     1       9.092  45.628  41.816  1.00  0.00    -0.000 C 
BRANCH  13  14
ATOM     14  C   UNL     1       7.566  45.808  41.799  1.00  0.00    -0.000 C 
BRANCH  14  15
ATOM     15  C   UNL     1       7.144  47.258  41.517  1.00  0.00    -0.003 C 
ATOM     16  C   UNL     1       8.339  48.105  41.088  1.00  0.00     0.004 C 
ENDBRANCH  14  15
ENDBRANCH  13  14
ENDBRANCH  12  13
ENDBRANCH  11  12
ENDBRANCH  10  11
ENDBRANCH   1  10
TORSDOF 12
ENDMDL
MODEL 4
REMARK VINA RESULT:    -4.980      2.934      7.166
REMARK INTER + INTRA:          -9.114
REMARK INTER:                  -8.380
REMARK INTRA:                  -0.734
REMARK UNBOUND:                -0.640
REMARK SMILES CCCCCCCCCCCCCC(=O)[O-]
REMARK SMILES IDX 8 1 9 2 10 3 11 4 12 5 13 6 14 7 15 8 16 9 7 10 6 11 5 12
REMARK SMILES IDX 4 13 3 14 2 15 1 16
REMARK H PARENT
REMARK Flexibility Score: inf
ROOT
ATOM      1  C   UNL     1       6.287  42.962  43.715  1.00  0.00     0.000 C 
ENDROOT
BRANCH   1   2
ATOM      2  C   UNL     1       6.813  44.408  43.721  1.00  0.00     0.000 C 
BRANCH   2   3
ATOM      3  C   UNL     1       7.630  44.772  42.464  1.00  0.00     0.000 C 
BRANCH   3   4
ATOM      4  C   UNL     1       8.988  44.051  42.424  1.00  0.00     0.000 C 
BRANCH   4   5
ATOM      5  C   UNL     1       9.381  43.579  41.011  1.00  0.00     0.006 C 
BRANCH   5   6
ATOM      6  C   UNL     1       9.838  42.110  40.949  1.00  0.00     0.053 C 
BRANCH   6   7
ATOM      7  C   UNL     1       8.924  41.188  41.698  1.00  0.00     0.041 C 
ATOM      8  O   UNL     1       9.318  40.621  42.751  1.00  0.00    -0.550 OA
ATOM      9  O   UNL     1       7.648  40.930  41.215  1.00  0.00    -0.550 OA
ENDBRANCH   6   7
ENDBRANCH   5   6
ENDBRANCH   4   5
ENDBRANCH   3   4
ENDBRANCH   2   3
ENDBRANCH   1   2
BRANCH   1  10
ATOM     10  C   UNL     1       5.300  42.680  44.857  1.00  0.00     0.000 C 
BRANCH  10  11
ATOM     11  C   UNL     1       5.960  41.836  45.958  1.00  0.00    -0.000 C 
BRANCH  11  12
ATOM     12  C   UNL     1       5.200  41.904  47.293  1.00  0.00    -0.000 C 
BRANCH  12  13
ATOM     13  C   UNL     1       5.708  40.872  48.316  1.00  0.00    -0.000 C 
BRANCH  13  14
ATOM     14  C   UNL     1       7.124  41.191  48.821  1.00  0.00    -0.000 C 
BRANCH  14  15
ATOM     15  C   UNL     1       8.148  40.112  48.439  1.00  0.00    -0.003 C 
ATOM     16  C   UNL     1       9.498  40.376  49.099  1.00  0.00     0.004 C 
ENDBRANCH  14  15
ENDBRANCH  13  14
ENDBRANCH  12  13
ENDBRANCH  11  12
ENDBRANCH  10  11
ENDBRANCH   1  10
TORSDOF 12
ENDMDL
MODEL 5
REMARK VINA RESULT:    -4.972      3.796      7.247
REMARK INTER + INTRA:          -9.100
REMARK INTER:                  -8.195
REMARK INTRA:                  -0.905
REMARK UNBOUND:                -0.640
REMARK SMILES CCCCCCCCCCCCCC(=O)[O-]
REMARK SMILES IDX 8 1 9 2 10 3 11 4 12 5 13 6 14 7 15 8 16 9 7 10 6 11 5 12
REMARK SMILES IDX 4 13 3 14 2 15 1 16
REMARK H PARENT
REMARK Flexibility Score: inf
ROOT
ATOM      1  C   UNL     1       7.764  39.613  48.031  1.00  0.00     0.000 C 
ENDROOT
BRANCH   1   2
ATOM      2  C   UNL     1       7.186  40.920  48.600  1.00  0.00     0.000 C 
BRANCH   2   3
ATOM      3  C   UNL     1       5.655  41.040  48.438  1.00  0.00     0.000 C 
BRANCH   3   4
ATOM      4  C   UNL     1       5.262  42.113  47.409  1.00  0.00     0.000 C 
BRANCH   4   5
ATOM      5  C   UNL     1       5.820  41.835  46.001  1.00  0.00     0.006 C 
BRANCH   5   6
ATOM      6  C   UNL     1       5.266  42.773  44.914  1.00  0.00     0.053 C 
BRANCH   6   7
ATOM      7  C   UNL     1       6.286  43.117  43.872  1.00  0.00     0.041 C 
ATOM      8  O   UNL     1       6.718  44.295  43.768  1.00  0.00    -0.550 OA
ATOM      9  O   UNL     1       6.737  42.141  42.992  1.00  0.00    -0.550 OA
ENDBRANCH   6   7
ENDBRANCH   5   6
ENDBRANCH   4   5
ENDBRANCH   3   4
ENDBRANCH   2   3
ENDBRANCH   1   2
BRANCH   1  10
ATOM     10  C   UNL     1       9.141  39.265  48.613  1.00  0.00     0.000 C 
BRANCH  10  11
ATOM     11  C   UNL     1       9.799  40.500  49.246  1.00  0.00    -0.000 C 
BRANCH  11  12
ATOM     12  C   UNL     1      11.257  40.248  49.666  1.00  0.00    -0.000 C 
BRANCH  12  13
ATOM     13  C   UNL     1      12.033  39.414  48.631  1.00  0.00    -0.000 C 
BRANCH  13  14
ATOM     14  C   UNL     1      13.066  40.248  47.857  1.00  0.00    -0.000 C 
BRANCH  14  15
ATOM     15  C   UNL     1      12.426  41.125  46.770  1.00  0.00    -0.003 C 
ATOM     16  C   UNL     1      11.488  40.307  45.887  1.00  0.00     0.004 C 
ENDBRANCH  14  15
ENDBRANCH  13  14
ENDBRANCH  12  13
ENDBRANCH  11  12
ENDBRANCH  10  11
ENDBRANCH   1  10
TORSDOF 12
ENDMDL
MODEL 6
REMARK VINA RESULT:    -4.955      2.329      4.371
REMARK INTER + INTRA:          -9.072
REMARK INTER:                  -7.860
REMARK INTRA:                  -1.212
REMARK UNBOUND:                -0.640
REMARK SMILES CCCCCCCCCCCCCC(=O)[O-]
REMARK SMILES IDX 8 1 9 2 10 3 11 4 12 5 13 6 14 7 15 8 16 9 7 10 6 11 5 12
REMARK SMILES IDX 4 13 3 14 2 15 1 16
REMARK H PARENT
REMARK Flexibility Score: inf
ROOT
ATOM      1  C   UNL     1       7.601  44.587  43.036  1.00  0.00     0.000 C 
ENDROOT
BRANCH   1   2
ATOM      2  C   UNL     1       6.457  44.017  43.892  1.00  0.00     0.000 C 
BRANCH   2   3
ATOM      3  C   UNL     1       6.131  42.541  43.581  1.00  0.00     0.000 C 
BRANCH   3   4
ATOM      4  C   UNL     1       6.225  41.649  44.831  1.00  0.00     0.000 C 
BRANCH   4   5
ATOM      5  C   UNL     1       5.522  42.254  46.060  1.00  0.00     0.006 C 
BRANCH   5   6
ATOM      6  C   UNL     1       5.156  41.222  47.141  1.00  0.00     0.053 C 
BRANCH   6   7
ATOM      7  C   UNL     1       5.856  41.473  48.442  1.00  0.00     0.041 C 
ATOM      8  O   UNL     1       6.966  40.930  48.683  1.00  0.00    -0.550 OA
ATOM      9  O   UNL     1       5.265  42.283  49.404  1.00  0.00    -0.550 OA
ENDBRANCH   6   7
ENDBRANCH   5   6
ENDBRANCH   4   5
ENDBRANCH   3   4
ENDBRANCH   2   3
ENDBRANCH   1   2
BRANCH   1  10
ATOM     10  C   UNL     1       7.582  44.069  41.591  1.00  0.00     0.000 C 
BRANCH  10  11
ATOM     11  C   UNL     1       8.923  44.337  40.892  1.00  0.00    -0.000 C 
BRANCH  11  12
ATOM     12  C   UNL     1       9.875  43.130  40.951  1.00  0.00    -0.000 C 
BRANCH  12  13
ATOM     13  C   UNL     1       9.173  41.847  41.432  1.00  0.00    -0.000 C 
BRANCH  13  14
ATOM     14  C   UNL     1       9.900  41.185  42.613  1.00  0.00    -0.000 C 
BRANCH  14  15
ATOM     15  C   UNL     1       9.105  40.020  43.222  1.00  0.00    -0.003 C 
ATOM     16  C   UNL     1       9.454  39.828  44.696  1.00  0.00     0.004 C 
ENDBRANCH  14  15
ENDBRANCH  13  14
ENDBRANCH  12  13
ENDBRANCH  11  12
ENDBRANCH  10  11
ENDBRANCH   1  10
TORSDOF 12
ENDMDL
MODEL 7
REMARK VINA RESULT:    -4.954      9.833     12.901
REMARK INTER + INTRA:          -9.069
REMARK INTER:                  -8.012
REMARK INTRA:                  -1.057
REMARK UNBOUND:                -0.640
REMARK SMILES CCCCCCCCCCCCCC(=O)[O-]
REMARK SMILES IDX 8 1 9 2 10 3 11 4 12 5 13 6 14 7 15 8 16 9 7 10 6 11 5 12
REMARK SMILES IDX 4 13 3 14 2 15 1 16
REMARK H PARENT
REMARK Flexibility Score: inf
ROOT
ATOM      1  C   UNL     1       9.517  33.398  46.519  1.00  0.00     0.000 C 
ENDROOT
BRANCH   1   2
ATOM      2  C   UNL     1       9.615  34.680  45.673  1.00  0.00     0.000 C 
BRANCH   2   3
ATOM      3  C   UNL     1      10.825  34.695  44.715  1.00  0.00     0.000 C 
BRANCH   3   4
ATOM      4  C   UNL     1      10.397  34.732  43.238  1.00  0.00     0.000 C 
BRANCH   4   5
ATOM      5  C   UNL     1      10.690  33.419  42.490  1.00  0.00     0.006 C 
BRANCH   5   6
ATOM      6  C   UNL     1      10.076  33.353  41.080  1.00  0.00     0.053 C 
BRANCH   6   7
ATOM      7  C   UNL     1       8.718  32.720  41.071  1.00  0.00     0.041 C 
ATOM      8  O   UNL     1       8.600  31.467  41.066  1.00  0.00    -0.550 OA
ATOM      9  O   UNL     1       7.581  33.517  41.033  1.00  0.00    -0.550 OA
ENDBRANCH   6   7
ENDBRANCH   5   6
ENDBRANCH   4   5
ENDBRANCH   3   4
ENDBRANCH   2   3
ENDBRANCH   1   2
BRANCH   1  10
ATOM     10  C   UNL     1       8.241  32.592  46.238  1.00  0.00     0.000 C 
BRANCH  10  11
ATOM     11  C   UNL     1       8.116  32.265  44.742  1.00  0.00    -0.000 C 
BRANCH  11  12
ATOM     12  C   UNL     1       6.778  31.591  44.392  1.00  0.00    -0.000 C 
BRANCH  12  13
ATOM     13  C   UNL     1       6.950  30.119  43.975  1.00  0.00    -0.000 C 
BRANCH  13  14
ATOM     14  C   UNL     1       6.048  29.170  44.780  1.00  0.00    -0.000 C 
BRANCH  14  15
ATOM     15  C   UNL     1       4.586  29.639  44.828  1.00  0.00    -0.003 C 
ATOM     16  C   UNL     1       3.832  28.969  45.974  1.00  0.00     0.004 C 
ENDBRANCH  14  15
ENDBRANCH  13  14
ENDBRANCH  12  13
ENDBRANCH  11  12
ENDBRANCH  10  11
ENDBRANCH   1  10
TORSDOF 12
ENDMDL
MODEL 8
REMARK VINA RESULT:    -4.929      4.418      8.320
REMARK INTER + INTRA:          -9.028
REMARK INTER:                  -8.466
REMARK INTRA:                  -0.561
REMARK UNBOUND:                -0.640
REMARK SMILES CCCCCCCCCCCCCC(=O)[O-]
REMARK SMILES IDX 8 1 9 2 10 3 11 4 12 5 13 6 14 7 15 8 16 9 7 10 6 11 5 12
REMARK SMILES IDX 4 13 3 14 2 15 1 16
REMARK H PARENT
REMARK Flexibility Score: inf
ROOT
ATOM      1  C   UNL     1       6.012  41.716  44.602  1.00  0.00     0.000 C 
ENDROOT
BRANCH   1   2
ATOM      2  C   UNL     1       6.689  42.328  43.364  1.00  0.00     0.000 C 
BRANCH   2   3
ATOM      3  C   UNL     1       6.824  43.865  43.431  1.00  0.00     0.000 C 
BRANCH   3   4
ATOM      4  C   UNL     1       7.666  44.426  42.272  1.00  0.00     0.000 C 
BRANCH   4   5
ATOM      5  C   UNL     1       7.521  45.949  42.102  1.00  0.00     0.006 C 
BRANCH   5   6
ATOM      6  C   UNL     1       7.417  46.405  40.635  1.00  0.00     0.053 C 
BRANCH   6   7
ATOM      7  C   UNL     1       8.756  46.667  40.015  1.00  0.00     0.041 C 
ATOM      8  O   UNL     1       8.876  46.735  38.764  1.00  0.00    -0.550 OA
ATOM      9  O   UNL     1       9.880  46.804  40.820  1.00  0.00    -0.550 OA
ENDBRANCH   6   7
ENDBRANCH   5   6
ENDBRANCH   4   5
ENDBRANCH   3   4
ENDBRANCH   2   3
ENDBRANCH   1   2
BRANCH   1  10
ATOM     10  C   UNL     1       5.281  42.758  45.461  1.00  0.00     0.000 C 
BRANCH  10  11
ATOM     11  C   UNL     1       4.488  42.083  46.589  1.00  0.00    -0.000 C 
BRANCH  11  12
ATOM     12  C   UNL     1       5.217  42.137  47.942  1.00  0.00    -0.000 C 
BRANCH  12  13
ATOM     13  C   UNL     1       5.923  40.812  48.286  1.00  0.00    -0.000 C 
BRANCH  13  14
ATOM     14  C   UNL     1       7.304  41.030  48.925  1.00  0.00    -0.000 C 
BRANCH  14  15
ATOM     15  C   UNL     1       8.404  40.189  48.261  1.00  0.00    -0.003 C 
ATOM     16  C   UNL     1       9.710  40.273  49.047  1.00  0.00     0.004 C 
ENDBRANCH  14  15
ENDBRANCH  13  14
ENDBRANCH  12  13
ENDBRANCH  11  12
ENDBRANCH  10  11
ENDBRANCH   1  10
TORSDOF 12
ENDMDL
MODEL 9
REMARK VINA RESULT:    -4.927      1.876      3.303
REMARK INTER + INTRA:          -9.024
REMARK INTER:                  -8.424
REMARK INTRA:                  -0.600
REMARK UNBOUND:                -0.640
REMARK SMILES CCCCCCCCCCCCCC(=O)[O-]
REMARK SMILES IDX 8 1 9 2 10 3 11 4 12 5 13 6 14 7 15 8 16 9 7 10 6 11 5 12
REMARK SMILES IDX 4 13 3 14 2 15 1 16
REMARK H PARENT
REMARK Flexibility Score: inf
ROOT
ATOM      1  C   UNL     1       5.307  42.059  47.419  1.00  0.00     0.000 C 
ENDROOT
BRANCH   1   2
ATOM      2  C   UNL     1       5.800  41.061  48.481  1.00  0.00     0.000 C 
BRANCH   2   3
ATOM      3  C   UNL     1       6.205  39.690  47.899  1.00  0.00     0.000 C 
BRANCH   3   4
ATOM      4  C   UNL     1       7.632  39.285  48.306  1.00  0.00     0.000 C 
BRANCH   4   5
ATOM      5  C   UNL     1       8.614  40.471  48.333  1.00  0.00     0.006 C 
BRANCH   5   6
ATOM      6  C   UNL     1       9.783  40.291  49.318  1.00  0.00     0.053 C 
BRANCH   6   7
ATOM      7  C   UNL     1      11.080  39.997  48.628  1.00  0.00     0.041 C 
ATOM      8  O   UNL     1      11.276  40.386  47.448  1.00  0.00    -0.550 OA
ATOM      9  O   UNL     1      12.062  39.261  49.280  1.00  0.00    -0.550 OA
ENDBRANCH   6   7
ENDBRANCH   5   6
ENDBRANCH   4   5
ENDBRANCH   3   4
ENDBRANCH   2   3
ENDBRANCH   1   2
BRANCH   1  10
ATOM     10  C   UNL     1       5.934  41.820  46.038  1.00  0.00     0.000 C 
BRANCH  10  11
ATOM     11  C   UNL     1       5.355  42.789  44.996  1.00  0.00    -0.000 C 
BRANCH  11  12
ATOM     12  C   UNL     1       6.254  42.934  43.756  1.00  0.00    -0.000 C 
BRANCH  12  13
ATOM     13  C   UNL     1       6.738  44.380  43.543  1.00  0.00    -0.000 C 
BRANCH  13  14
ATOM     14  C   UNL     1       7.450  44.569  42.194  1.00  0.00    -0.000 C 
BRANCH  14  15
ATOM     15  C   UNL     1       7.406  46.023  41.699  1.00  0.00    -0.003 C 
ATOM     16  C   UNL     1       8.811  46.558  41.438  1.00  0.00     0.004 C 
ENDBRANCH  14  15
ENDBRANCH  13  14
ENDBRANCH  12  13
ENDBRANCH  11  12
ENDBRANCH  10  11
ENDBRANCH   1  10
TORSDOF 12
ENDMDL
