MODEL 1
REMARK VINA RESULT:    -2.610      0.000      0.000
REMARK INTER + INTRA:          -3.330
REMARK INTER:                  -3.374
REMARK INTRA:                   0.043
REMARK UNBOUND:                 0.043
REMARK SMILES COc1cc(-c2[o+]c3cc(O)cc(O)c3cc2O)cc(OC)c1O
REMARK SMILES IDX 6 1 7 2 8 3 9 4 10 5 12 6 13 7 15 8 16 9 17 10 5 11 3 12
REMARK SMILES IDX 4 13 23 14 20 15 19 16 2 17 1 18 24 19 21 21 22 22 18 23
REMARK SMILES IDX 11 25 14 27
REMARK H PARENT 24 20 18 24 11 26 14 28
REMARK Flexibility Score: inf
ROOT
ATOM      1  C   UNL     1       6.678   1.363  12.947  1.00  0.00     0.402 A 
ATOM      2  O   UNL     1       7.135   2.333  12.161  1.00  0.00    -0.202 OA
ATOM      3  C   UNL     1       7.243   3.599  12.551  1.00  0.00     0.368 A 
ATOM      4  C   UNL     1       7.731   4.548  11.649  1.00  0.00     0.162 A 
ATOM      5  C   UNL     1       7.852   5.888  12.032  1.00  0.00     0.128 A 
ATOM      6  C   UNL     1       7.481   6.279  13.321  1.00  0.00     0.093 A 
ATOM      7  C   UNL     1       6.989   5.346  14.243  1.00  0.00     0.136 A 
ATOM      8  C   UNL     1       6.867   3.986  13.860  1.00  0.00     0.125 A 
ATOM      9  C   UNL     1       6.397   2.980  14.720  1.00  0.00     0.078 A 
ATOM     10  C   UNL     1       6.308   1.659  14.273  1.00  0.00     0.223 A 
ENDROOT
BRANCH   1  11
ATOM     11  C   UNL     1       6.596  -0.008  12.394  1.00  0.00     0.091 A 
ATOM     12  C   UNL     1       6.225  -1.540  10.528  1.00  0.00     0.165 A 
ATOM     13  C   UNL     1       6.280  -0.232  11.045  1.00  0.00     0.069 A 
ATOM     14  C   UNL     1       6.505  -2.628  11.374  1.00  0.00     0.200 A 
ATOM     15  C   UNL     1       6.844  -2.415  12.718  1.00  0.00     0.165 A 
ATOM     16  C   UNL     1       6.895  -1.102  13.219  1.00  0.00     0.069 A 
BRANCH  12  17
ATOM     17  O   UNL     1       5.901  -1.794   9.186  1.00  0.00    -0.493 OA
ATOM     18  C   UNL     1       5.875  -0.808   8.158  1.00  0.00     0.278 C 
ENDBRANCH  12  17
BRANCH  14  19
ATOM     19  O   UNL     1       6.455  -3.937  10.892  1.00  0.00    -0.502 OA
ATOM     20  H   UNL     1       6.901  -4.213  10.025  1.00  0.00     0.293 HD
ENDBRANCH  14  19
BRANCH  15  21
ATOM     21  O   UNL     1       7.124  -3.532  13.521  1.00  0.00    -0.493 OA
ATOM     22  C   UNL     1       7.876  -3.489  14.729  1.00  0.00     0.278 C 
ENDBRANCH  15  21
ENDBRANCH   1  11
BRANCH  10  23
ATOM     23  O   UNL     1       5.888   0.651  15.142  1.00  0.00    -0.500 OA
ATOM     24  H   UNL     1       6.441  -0.183  15.297  1.00  0.00     0.294 HD
ENDBRANCH  10  23
BRANCH   5  25
ATOM     25  O   UNL     1       8.338   6.840  11.140  1.00  0.00    -0.507 OA
ATOM     26  H   UNL     1       7.879   7.736  11.020  1.00  0.00     0.293 HD
ENDBRANCH   5  25
BRANCH   7  27
ATOM     27  O   UNL     1       6.638   5.818  15.511  1.00  0.00    -0.507 OA
ATOM     28  H   UNL     1       6.123   6.671  15.678  1.00  0.00     0.293 HD
ENDBRANCH   7  27
TORSDOF 7
ENDMDL
MODEL 2
REMARK VINA RESULT:    -1.200      1.374      3.662
REMARK INTER + INTRA:          -1.507
REMARK INTER:                  -2.164
REMARK INTRA:                   0.656
REMARK UNBOUND:                 0.043
REMARK SMILES COc1cc(-c2[o+]c3cc(O)cc(O)c3cc2O)cc(OC)c1O
REMARK SMILES IDX 6 1 7 2 8 3 9 4 10 5 12 6 13 7 15 8 16 9 17 10 5 11 3 12
REMARK SMILES IDX 4 13 23 14 20 15 19 16 2 17 1 18 24 19 21 21 22 22 18 23
REMARK SMILES IDX 11 25 14 27
REMARK H PARENT 24 20 18 24 11 26 14 28
REMARK Flexibility Score: inf
ROOT
ATOM      1  C   UNL     1       6.350   2.451  12.491  1.00  0.00     0.402 A 
ATOM      2  O   UNL     1       6.552   3.040  13.666  1.00  0.00    -0.202 OA
ATOM      3  C   UNL     1       6.671   4.356  13.812  1.00  0.00     0.368 A 
ATOM      4  C   UNL     1       6.885   4.881  15.089  1.00  0.00     0.162 A 
ATOM      5  C   UNL     1       7.017   6.261  15.271  1.00  0.00     0.128 A 
ATOM      6  C   UNL     1       6.935   7.119  14.171  1.00  0.00     0.093 A 
ATOM      7  C   UNL     1       6.720   6.616  12.880  1.00  0.00     0.136 A 
ATOM      8  C   UNL     1       6.584   5.217  12.691  1.00  0.00     0.125 A 
ATOM      9  C   UNL     1       6.354   4.626  11.438  1.00  0.00     0.078 A 
ATOM     10  C   UNL     1       6.226   3.238  11.330  1.00  0.00     0.223 A 
ENDROOT
BRANCH   1  11
ATOM     11  C   UNL     1       6.244   0.975  12.455  1.00  0.00     0.091 A 
ATOM     12  C   UNL     1       6.012  -1.178  13.587  1.00  0.00     0.165 A 
ATOM     13  C   UNL     1       6.132   0.223  13.636  1.00  0.00     0.069 A 
ATOM     14  C   UNL     1       5.990  -1.825  12.338  1.00  0.00     0.200 A 
ATOM     15  C   UNL     1       6.079  -1.083  11.152  1.00  0.00     0.165 A 
ATOM     16  C   UNL     1       6.198   0.317  11.218  1.00  0.00     0.069 A 
BRANCH  12  17
ATOM     17  O   UNL     1       5.909  -1.955  14.752  1.00  0.00    -0.493 OA
ATOM     18  C   UNL     1       6.763  -3.047  15.077  1.00  0.00     0.278 C 
ENDBRANCH  12  17
BRANCH  14  19
ATOM     19  O   UNL     1       5.875  -3.214  12.256  1.00  0.00    -0.502 OA
ATOM     20  H   UNL     1       5.336  -3.753  12.923  1.00  0.00     0.293 HD
ENDBRANCH  14  19
BRANCH  15  21
ATOM     21  O   UNL     1       6.043  -1.772   9.929  1.00  0.00    -0.493 OA
ATOM     22  C   UNL     1       5.894  -1.151   8.657  1.00  0.00     0.278 C 
ENDBRANCH  15  21
ENDBRANCH   1  11
BRANCH  10  23
ATOM     23  O   UNL     1       5.948   2.654  10.094  1.00  0.00    -0.500 OA
ATOM     24  H   UNL     1       5.656   3.208   9.297  1.00  0.00     0.294 HD
ENDBRANCH  10  23
BRANCH   5  25
ATOM     25  O   UNL     1       7.231   6.793  16.540  1.00  0.00    -0.507 OA
ATOM     26  H   UNL     1       7.617   6.232  17.291  1.00  0.00     0.293 HD
ENDBRANCH   5  25
BRANCH   7  27
ATOM     27  O   UNL     1       6.655   7.540  11.834  1.00  0.00    -0.507 OA
ATOM     28  H   UNL     1       6.036   7.459  11.040  1.00  0.00     0.293 HD
ENDBRANCH   7  27
TORSDOF 7
ENDMDL
MODEL 3
REMARK VINA RESULT:    -1.084      1.355      2.542
REMARK INTER + INTRA:          -1.358
REMARK INTER:                  -1.932
REMARK INTRA:                   0.574
REMARK UNBOUND:                 0.043
REMARK SMILES COc1cc(-c2[o+]c3cc(O)cc(O)c3cc2O)cc(OC)c1O
REMARK SMILES IDX 6 1 7 2 8 3 9 4 10 5 12 6 13 7 15 8 16 9 17 10 5 11 3 12
REMARK SMILES IDX 4 13 23 14 20 15 19 16 2 17 1 18 24 19 21 21 22 22 18 23
REMARK SMILES IDX 11 25 14 27
REMARK H PARENT 24 20 18 24 11 26 14 28
REMARK Flexibility Score: inf
ROOT
ATOM      1  C   UNL     1       6.294   2.266  12.437  1.00  0.00     0.402 A 
ATOM      2  O   UNL     1       6.511   2.857  13.609  1.00  0.00    -0.202 OA
ATOM      3  C   UNL     1       6.649   4.171  13.749  1.00  0.00     0.368 A 
ATOM      4  C   UNL     1       6.878   4.698  15.023  1.00  0.00     0.162 A 
ATOM      5  C   UNL     1       7.029   6.077  15.199  1.00  0.00     0.128 A 
ATOM      6  C   UNL     1       6.952   6.932  14.096  1.00  0.00     0.093 A 
ATOM      7  C   UNL     1       6.723   6.428  12.809  1.00  0.00     0.136 A 
ATOM      8  C   UNL     1       6.567   5.030  12.626  1.00  0.00     0.125 A 
ATOM      9  C   UNL     1       6.321   4.437  11.377  1.00  0.00     0.078 A 
ATOM     10  C   UNL     1       6.174   3.051  11.274  1.00  0.00     0.223 A 
ENDROOT
BRANCH   1  11
ATOM     11  C   UNL     1       6.168   0.792  12.408  1.00  0.00     0.091 A 
ATOM     12  C   UNL     1       6.068  -1.320  11.183  1.00  0.00     0.165 A 
ATOM     13  C   UNL     1       6.169   0.084  11.195  1.00  0.00     0.069 A 
ATOM     14  C   UNL     1       5.980  -2.015  12.402  1.00  0.00     0.200 A 
ATOM     15  C   UNL     1       6.000  -1.321  13.619  1.00  0.00     0.165 A 
ATOM     16  C   UNL     1       6.102   0.082  13.615  1.00  0.00     0.069 A 
BRANCH  12  17
ATOM     17  O   UNL     1       6.057  -2.052   9.984  1.00  0.00    -0.493 OA
ATOM     18  C   UNL     1       5.931  -1.479   8.687  1.00  0.00     0.278 C 
ENDBRANCH  12  17
BRANCH  14  19
ATOM     19  O   UNL     1       5.875  -3.407  12.423  1.00  0.00    -0.502 OA
ATOM     20  H   UNL     1       5.618  -3.919  13.258  1.00  0.00     0.293 HD
ENDBRANCH  14  19
BRANCH  15  21
ATOM     21  O   UNL     1       5.919  -2.060  14.811  1.00  0.00    -0.493 OA
ATOM     22  C   UNL     1       6.848  -3.065  15.202  1.00  0.00     0.278 C 
ENDBRANCH  15  21
ENDBRANCH   1  11
BRANCH  10  23
ATOM     23  O   UNL     1       5.881   2.467  10.042  1.00  0.00    -0.500 OA
ATOM     24  H   UNL     1       6.612   2.164   9.409  1.00  0.00     0.294 HD
ENDBRANCH  10  23
BRANCH   5  25
ATOM     25  O   UNL     1       7.257   6.610  16.465  1.00  0.00    -0.507 OA
ATOM     26  H   UNL     1       7.274   6.023  17.292  1.00  0.00     0.293 HD
ENDBRANCH   5  25
BRANCH   7  27
ATOM     27  O   UNL     1       6.663   7.349  11.760  1.00  0.00    -0.507 OA
ATOM     28  H   UNL     1       6.789   8.345  11.868  1.00  0.00     0.293 HD
ENDBRANCH   7  27
TORSDOF 7
ENDMDL
MODEL 4
REMARK VINA RESULT:    -0.103      1.989      8.036
REMARK INTER + INTRA:          -0.090
REMARK INTER:                  -0.899
REMARK INTRA:                   0.809
REMARK UNBOUND:                 0.043
REMARK SMILES COc1cc(-c2[o+]c3cc(O)cc(O)c3cc2O)cc(OC)c1O
REMARK SMILES IDX 6 1 7 2 8 3 9 4 10 5 12 6 13 7 15 8 16 9 17 10 5 11 3 12
REMARK SMILES IDX 4 13 23 14 20 15 19 16 2 17 1 18 24 19 21 21 22 22 18 23
REMARK SMILES IDX 11 25 14 27
REMARK H PARENT 24 20 18 24 11 26 14 28
REMARK Flexibility Score: inf
ROOT
ATOM      1  C   UNL     1       7.065   3.119  12.825  1.00  0.00     0.402 A 
ATOM      2  O   UNL     1       7.116   2.114  13.695  1.00  0.00    -0.202 OA
ATOM      3  C   UNL     1       6.858   0.852  13.368  1.00  0.00     0.368 A 
ATOM      4  C   UNL     1       6.934  -0.134  14.355  1.00  0.00     0.162 A 
ATOM      5  C   UNL     1       6.664  -1.469  14.040  1.00  0.00     0.128 A 
ATOM      6  C   UNL     1       6.317  -1.819  12.733  1.00  0.00     0.093 A 
ATOM      7  C   UNL     1       6.234  -0.849  11.726  1.00  0.00     0.136 A 
ATOM      8  C   UNL     1       6.509   0.507  12.040  1.00  0.00     0.125 A 
ATOM      9  C   UNL     1       6.463   1.544  11.094  1.00  0.00     0.078 A 
ATOM     10  C   UNL     1       6.751   2.857  11.478  1.00  0.00     0.223 A 
ENDROOT
BRANCH   1  11
ATOM     11  C   UNL     1       7.365   4.485  13.312  1.00  0.00     0.091 A 
ATOM     12  C   UNL     1       8.825   6.070  14.461  1.00  0.00     0.165 A 
ATOM     13  C   UNL     1       8.544   4.763  14.021  1.00  0.00     0.069 A 
ATOM     14  C   UNL     1       7.918   7.106  14.171  1.00  0.00     0.200 A 
ATOM     15  C   UNL     1       6.749   6.843  13.445  1.00  0.00     0.165 A 
ATOM     16  C   UNL     1       6.482   5.532  13.012  1.00  0.00     0.069 A 
BRANCH  12  17
ATOM     17  O   UNL     1       9.992   6.375  15.181  1.00  0.00    -0.493 OA
ATOM     18  C   UNL     1      11.295   5.908  14.847  1.00  0.00     0.278 C 
ENDBRANCH  12  17
BRANCH  14  19
ATOM     19  O   UNL     1       8.167   8.411  14.597  1.00  0.00    -0.502 OA
ATOM     20  H   UNL     1       7.696   9.212  14.194  1.00  0.00     0.293 HD
ENDBRANCH  14  19
BRANCH  15  21
ATOM     21  O   UNL     1       5.878   7.911  13.172  1.00  0.00    -0.493 OA
ATOM     22  C   UNL     1       5.875   9.149  13.875  1.00  0.00     0.278 C 
ENDBRANCH  15  21
ENDBRANCH   1  11
BRANCH  10  23
ATOM     23  O   UNL     1       6.755   3.879  10.528  1.00  0.00    -0.500 OA
ATOM     24  H   UNL     1       5.963   4.040   9.916  1.00  0.00     0.294 HD
ENDBRANCH  10  23
BRANCH   5  25
ATOM     25  O   UNL     1       6.738  -2.458  15.018  1.00  0.00    -0.507 OA
ATOM     26  H   UNL     1       7.598  -2.640  15.524  1.00  0.00     0.293 HD
ENDBRANCH   5  25
BRANCH   7  27
ATOM     27  O   UNL     1       5.877  -1.280  10.445  1.00  0.00    -0.507 OA
ATOM     28  H   UNL     1       6.195  -0.850   9.589  1.00  0.00     0.293 HD
ENDBRANCH   7  27
TORSDOF 7
ENDMDL
