MODEL 1
REMARK VINA RESULT:    27.079      0.000      0.000
REMARK INTER + INTRA:          31.565
REMARK INTER:                  31.828
REMARK INTRA:                  -0.262
REMARK UNBOUND:                -0.262
REMARK SMILES O=c1cc(-c2ccc(O)c(O)c2)oc2cc(O)cc(O)c12
REMARK SMILES IDX 4 1 3 2 2 3 1 4 21 5 19 6 18 7 16 8 15 9 14 10 13 11 5 12
REMARK SMILES IDX 6 13 7 14 8 15 12 16 10 17 9 18 11 20 20 22 17 24
REMARK H PARENT 9 19 11 21 20 23 17 25
REMARK Flexibility Score: inf
ROOT
ATOM      1  C   UNL     1      17.689  95.750   8.732  1.00  0.00     0.138 A 
ATOM      2  C   UNL     1      16.389  95.742   9.256  1.00  0.00     0.100 A 
ATOM      3  C   UNL     1      15.766  96.950   9.573  1.00  0.00     0.197 A 
ATOM      4  O   UNL     1      14.624  96.908  10.100  1.00  0.00    -0.289 OA
ATOM      5  C   UNL     1      16.437  98.172   9.334  1.00  0.00     0.107 A 
ATOM      6  C   UNL     1      15.886  99.464   9.580  1.00  0.00     0.134 A 
ATOM      7  C   UNL     1      16.687 100.601   9.414  1.00  0.00     0.093 A 
ATOM      8  C   UNL     1      18.002 100.494   8.953  1.00  0.00     0.123 A 
ATOM      9  C   UNL     1      18.532  99.241   8.659  1.00  0.00     0.094 A 
ATOM     10  C   UNL     1      17.769  98.086   8.846  1.00  0.00     0.146 A 
ATOM     11  O   UNL     1      18.318  96.908   8.568  1.00  0.00    -0.456 OA
ENDROOT
BRANCH   1  12
ATOM     12  C   UNL     1      18.398  94.494   8.376  1.00  0.00     0.021 A 
ATOM     13  C   UNL     1      18.442  94.020   7.053  1.00  0.00     0.016 A 
ATOM     14  C   UNL     1      19.126  92.841   6.746  1.00  0.00     0.051 A 
ATOM     15  C   UNL     1      19.784  92.116   7.743  1.00  0.00     0.157 A 
ATOM     16  C   UNL     1      19.072  93.773   9.375  1.00  0.00     0.062 A 
ATOM     17  C   UNL     1      19.759  92.590   9.076  1.00  0.00     0.158 A 
BRANCH  15  18
ATOM     18  O   UNL     1      20.446  90.945   7.370  1.00  0.00    -0.504 OA
ATOM     19  H   UNL     1      20.976  90.844   6.515  1.00  0.00     0.293 HD
ENDBRANCH  15  18
BRANCH  17  20
ATOM     20  O   UNL     1      20.398  91.924  10.125  1.00  0.00    -0.504 OA
ATOM     21  H   UNL     1      20.798  91.000  10.046  1.00  0.00     0.293 HD
ENDBRANCH  17  20
ENDBRANCH   1  12
BRANCH   6  22
ATOM     22  O   UNL     1      14.559  99.687   9.961  1.00  0.00    -0.507 OA
ATOM     23  H   UNL     1      14.168 100.589  10.188  1.00  0.00     0.293 HD
ENDBRANCH   6  22
BRANCH   8  24
ATOM     24  O   UNL     1      18.787 101.631   8.777  1.00  0.00    -0.508 OA
ATOM     25  H   UNL     1      18.529 102.357   8.119  1.00  0.00     0.293 HD
ENDBRANCH   8  24
TORSDOF 5
ENDMDL
MODEL 2
REMARK VINA RESULT:    27.963      2.365      6.245
REMARK INTER + INTRA:          32.604
REMARK INTER:                  32.889
REMARK INTRA:                  -0.284
REMARK UNBOUND:                -0.262
REMARK SMILES O=c1cc(-c2ccc(O)c(O)c2)oc2cc(O)cc(O)c12
REMARK SMILES IDX 4 1 3 2 2 3 1 4 21 5 19 6 18 7 16 8 15 9 14 10 13 11 5 12
REMARK SMILES IDX 6 13 7 14 8 15 12 16 10 17 9 18 11 20 20 22 17 24
REMARK H PARENT 9 19 11 21 20 23 17 25
REMARK Flexibility Score: inf
ROOT
ATOM      1  C   UNL     1      17.790  97.584   9.151  1.00  0.00     0.138 A 
ATOM      2  C   UNL     1      18.329  96.348   8.771  1.00  0.00     0.100 A 
ATOM      3  C   UNL     1      17.500  95.228   8.694  1.00  0.00     0.197 A 
ATOM      4  O   UNL     1      18.023  94.119   8.411  1.00  0.00    -0.289 OA
ATOM      5  C   UNL     1      16.118  95.355   8.971  1.00  0.00     0.107 A 
ATOM      6  C   UNL     1      15.170  94.293   8.886  1.00  0.00     0.134 A 
ATOM      7  C   UNL     1      13.849  94.510   9.295  1.00  0.00     0.093 A 
ATOM      8  C   UNL     1      13.428  95.770   9.730  1.00  0.00     0.123 A 
ATOM      9  C   UNL     1      14.333  96.828   9.765  1.00  0.00     0.094 A 
ATOM     10  C   UNL     1      15.666  96.634   9.395  1.00  0.00     0.146 A 
ATOM     11  O   UNL     1      16.501  97.665   9.458  1.00  0.00    -0.456 OA
ENDROOT
BRANCH   1  12
ATOM     12  C   UNL     1      18.627  98.808   9.247  1.00  0.00     0.021 A 
ATOM     13  C   UNL     1      18.099 100.086   8.993  1.00  0.00     0.016 A 
ATOM     14  C   UNL     1      18.907 101.219   9.101  1.00  0.00     0.051 A 
ATOM     15  C   UNL     1      20.251 101.108   9.471  1.00  0.00     0.157 A 
ATOM     16  C   UNL     1      19.974  98.697   9.633  1.00  0.00     0.062 A 
ATOM     17  C   UNL     1      20.791  99.829   9.743  1.00  0.00     0.158 A 
BRANCH  15  18
ATOM     18  O   UNL     1      21.004 102.280   9.558  1.00  0.00    -0.504 OA
ATOM     19  H   UNL     1      21.672 102.469  10.292  1.00  0.00     0.293 HD
ENDBRANCH  15  18
BRANCH  17  20
ATOM     20  O   UNL     1      22.121  99.638  10.123  1.00  0.00    -0.504 OA
ATOM     21  H   UNL     1      22.405  99.273  11.021  1.00  0.00     0.293 HD
ENDBRANCH  17  20
ENDBRANCH   1  12
BRANCH   6  22
ATOM     22  O   UNL     1      15.466  93.021   8.386  1.00  0.00    -0.507 OA
ATOM     23  H   UNL     1      16.374  92.583   8.425  1.00  0.00     0.293 HD
ENDBRANCH   6  22
BRANCH   8  24
ATOM     24  O   UNL     1      12.108  95.982  10.121  1.00  0.00    -0.508 OA
ATOM     25  H   UNL     1      11.665  95.405  10.826  1.00  0.00     0.293 HD
ENDBRANCH   8  24
TORSDOF 5
ENDMDL
MODEL 3
REMARK VINA RESULT:    30.046      1.837      6.389
REMARK INTER + INTRA:          35.052
REMARK INTER:                  35.347
REMARK INTRA:                  -0.294
REMARK UNBOUND:                -0.262
REMARK SMILES O=c1cc(-c2ccc(O)c(O)c2)oc2cc(O)cc(O)c12
REMARK SMILES IDX 4 1 3 2 2 3 1 4 21 5 19 6 18 7 16 8 15 9 14 10 13 11 5 12
REMARK SMILES IDX 6 13 7 14 8 15 12 16 10 17 9 18 11 20 20 22 17 24
REMARK H PARENT 9 19 11 21 20 23 17 25
REMARK Flexibility Score: inf
ROOT
ATOM      1  C   UNL     1      17.973  97.579   9.063  1.00  0.00     0.138 A 
ATOM      2  C   UNL     1      16.684  97.371   9.571  1.00  0.00     0.100 A 
ATOM      3  C   UNL     1      16.060  96.136   9.386  1.00  0.00     0.197 A 
ATOM      4  O   UNL     1      14.879  96.000   9.798  1.00  0.00    -0.289 OA
ATOM      5  C   UNL     1      16.745  95.095   8.715  1.00  0.00     0.107 A 
ATOM      6  C   UNL     1      16.225  93.784   8.504  1.00  0.00     0.134 A 
ATOM      7  C   UNL     1      16.947  92.871   7.726  1.00  0.00     0.093 A 
ATOM      8  C   UNL     1      18.198  93.205   7.201  1.00  0.00     0.123 A 
ATOM      9  C   UNL     1      18.739  94.464   7.447  1.00  0.00     0.094 A 
ATOM     10  C   UNL     1      18.028  95.408   8.191  1.00  0.00     0.146 A 
ATOM     11  O   UNL     1      18.573  96.603   8.390  1.00  0.00    -0.456 OA
ENDROOT
BRANCH   1  12
ATOM     12  C   UNL     1      18.683  98.873   9.232  1.00  0.00     0.021 A 
ATOM     13  C   UNL     1      18.024 100.104   9.070  1.00  0.00     0.016 A 
ATOM     14  C   UNL     1      18.714 101.305   9.246  1.00  0.00     0.051 A 
ATOM     15  C   UNL     1      20.068 101.307   9.593  1.00  0.00     0.157 A 
ATOM     16  C   UNL     1      20.040  98.875   9.595  1.00  0.00     0.062 A 
ATOM     17  C   UNL     1      20.740 100.075   9.773  1.00  0.00     0.158 A 
BRANCH  15  18
ATOM     18  O   UNL     1      20.700 102.542   9.751  1.00  0.00    -0.504 OA
ATOM     19  H   UNL     1      20.890 102.969  10.647  1.00  0.00     0.293 HD
ENDBRANCH  15  18
BRANCH  17  20
ATOM     20  O   UNL     1      22.090  99.997  10.125  1.00  0.00    -0.504 OA
ATOM     21  H   UNL     1      22.847 100.292   9.526  1.00  0.00     0.293 HD
ENDBRANCH  17  20
ENDBRANCH   1  12
BRANCH   6  22
ATOM     22  O   UNL     1      15.025  93.322   9.054  1.00  0.00    -0.507 OA
ATOM     23  H   UNL     1      14.121  93.739   8.897  1.00  0.00     0.293 HD
ENDBRANCH   6  22
BRANCH   8  24
ATOM     24  O   UNL     1      18.917  92.285   6.439  1.00  0.00    -0.508 OA
ATOM     25  H   UNL     1      19.588  92.584   5.741  1.00  0.00     0.293 HD
ENDBRANCH   8  24
TORSDOF 5
ENDMDL
