MODEL 1
REMARK VINA RESULT:    -0.401      0.000      0.000
REMARK INTER + INTRA:          -0.806
REMARK INTER:                  -0.483
REMARK INTRA:                  -0.323
REMARK UNBOUND:                -0.323
REMARK SMILES O=c1c(O)c(-c2ccc(O)c(O)c2)oc2cc(O)cc(O)c12
REMARK SMILES IDX 5 1 3 2 2 3 1 4 22 5 20 6 19 7 17 8 16 9 15 10 14 11 6 12
REMARK SMILES IDX 7 13 8 14 9 15 13 16 11 17 10 18 12 20 4 22 21 24 18 26
REMARK H PARENT 10 19 12 21 4 23 21 25 18 27
REMARK Flexibility Score: inf
ROOT
ATOM      1  C   UNL     1       9.954 -17.698   7.848  1.00  0.00     0.180 A 
ATOM      2  C   UNL     1      10.320 -16.758   6.869  1.00  0.00     0.208 A 
ATOM      3  C   UNL     1      11.592 -16.167   6.932  1.00  0.00     0.238 A 
ATOM      4  O   UNL     1      11.885 -15.273   6.096  1.00  0.00    -0.285 OA
ATOM      5  C   UNL     1      12.503 -16.563   7.942  1.00  0.00     0.111 A 
ATOM      6  C   UNL     1      13.834 -16.063   8.076  1.00  0.00     0.134 A 
ATOM      7  C   UNL     1      14.609 -16.449   9.177  1.00  0.00     0.093 A 
ATOM      8  C   UNL     1      14.124 -17.365  10.114  1.00  0.00     0.123 A 
ATOM      9  C   UNL     1      12.848 -17.900   9.961  1.00  0.00     0.094 A 
ATOM     10  C   UNL     1      12.036 -17.506   8.895  1.00  0.00     0.146 A 
ATOM     11  O   UNL     1      10.819 -18.025   8.802  1.00  0.00    -0.452 OA
ENDROOT
BRANCH   1  12
ATOM     12  C   UNL     1       8.626 -18.353   7.855  1.00  0.00     0.025 A 
ATOM     13  C   UNL     1       8.390 -19.537   7.134  1.00  0.00     0.016 A 
ATOM     14  C   UNL     1       7.123 -20.124   7.137  1.00  0.00     0.051 A 
ATOM     15  C   UNL     1       6.069 -19.531   7.847  1.00  0.00     0.157 A 
ATOM     16  C   UNL     1       7.563 -17.751   8.547  1.00  0.00     0.062 A 
ATOM     17  C   UNL     1       6.292 -18.336   8.552  1.00  0.00     0.158 A 
BRANCH  15  18
ATOM     18  O   UNL     1       4.807 -20.119   7.848  1.00  0.00    -0.504 OA
ATOM     19  H   UNL     1       4.317 -20.323   8.712  1.00  0.00     0.293 HD
ENDBRANCH  15  18
BRANCH  17  20
ATOM     20  O   UNL     1       5.265 -17.716   9.262  1.00  0.00    -0.504 OA
ATOM     21  H   UNL     1       4.291 -17.955   9.118  1.00  0.00     0.293 HD
ENDBRANCH  17  20
ENDBRANCH   1  12
BRANCH   2  22
ATOM     22  O   UNL     1       9.435 -16.437   5.835  1.00  0.00    -0.502 OA
ATOM     23  H   UNL     1       8.692 -15.758   5.947  1.00  0.00     0.293 HD
ENDBRANCH   2  22
BRANCH   6  24
ATOM     24  O   UNL     1      14.450 -15.214   7.151  1.00  0.00    -0.507 OA
ATOM     25  H   UNL     1      15.422 -14.944   7.173  1.00  0.00     0.293 HD
ENDBRANCH   6  24
BRANCH   8  26
ATOM     26  O   UNL     1      14.909 -17.756  11.197  1.00  0.00    -0.508 OA
ATOM     27  H   UNL     1      14.528 -17.815  12.134  1.00  0.00     0.293 HD
ENDBRANCH   8  26
TORSDOF 6
ENDMDL
MODEL 2
REMARK VINA RESULT:    -0.307      1.630      6.869
REMARK INTER + INTRA:          -0.693
REMARK INTER:                  -0.856
REMARK INTRA:                   0.163
REMARK UNBOUND:                -0.323
REMARK SMILES O=c1c(O)c(-c2ccc(O)c(O)c2)oc2cc(O)cc(O)c12
REMARK SMILES IDX 5 1 3 2 2 3 1 4 22 5 20 6 19 7 17 8 16 9 15 10 14 11 6 12
REMARK SMILES IDX 7 13 8 14 9 15 13 16 11 17 10 18 12 20 4 22 21 24 18 26
REMARK H PARENT 10 19 12 21 4 23 21 25 18 27
REMARK Flexibility Score: inf
ROOT
ATOM      1  C   UNL     1       9.401 -18.108   7.980  1.00  0.00     0.180 A 
ATOM      2  C   UNL     1       8.784 -18.426   6.758  1.00  0.00     0.208 A 
ATOM      3  C   UNL     1       7.519 -19.036   6.771  1.00  0.00     0.238 A 
ATOM      4  O   UNL     1       7.006 -19.385   5.676  1.00  0.00    -0.285 OA
ATOM      5  C   UNL     1       6.863 -19.270   8.004  1.00  0.00     0.111 A 
ATOM      6  C   UNL     1       5.561 -19.842   8.134  1.00  0.00     0.134 A 
ATOM      7  C   UNL     1       5.055 -20.125   9.409  1.00  0.00     0.093 A 
ATOM      8  C   UNL     1       5.778 -19.798  10.560  1.00  0.00     0.123 A 
ATOM      9  C   UNL     1       7.025 -19.190  10.443  1.00  0.00     0.094 A 
ATOM     10  C   UNL     1       7.573 -18.930   9.185  1.00  0.00     0.146 A 
ATOM     11  O   UNL     1       8.774 -18.370   9.122  1.00  0.00    -0.452 OA
ENDROOT
BRANCH   1  12
ATOM     12  C   UNL     1      10.738 -17.476   8.048  1.00  0.00     0.025 A 
ATOM     13  C   UNL     1      11.128 -16.487   7.129  1.00  0.00     0.016 A 
ATOM     14  C   UNL     1      12.404 -15.923   7.198  1.00  0.00     0.051 A 
ATOM     15  C   UNL     1      13.315 -16.348   8.176  1.00  0.00     0.157 A 
ATOM     16  C   UNL     1      11.661 -17.914   9.012  1.00  0.00     0.062 A 
ATOM     17  C   UNL     1      12.940 -17.352   9.085  1.00  0.00     0.158 A 
BRANCH  15  18
ATOM     18  O   UNL     1      14.586 -15.782   8.243  1.00  0.00    -0.504 OA
ATOM     19  H   UNL     1      14.856 -15.171   9.005  1.00  0.00     0.293 HD
ENDBRANCH  15  18
BRANCH  17  20
ATOM     20  O   UNL     1      13.823 -17.803  10.065  1.00  0.00    -0.504 OA
ATOM     21  H   UNL     1      14.466 -17.179  10.537  1.00  0.00     0.293 HD
ENDBRANCH  17  20
ENDBRANCH   1  12
BRANCH   2  22
ATOM     22  O   UNL     1       9.416 -18.116   5.550  1.00  0.00    -0.502 OA
ATOM     23  H   UNL     1      10.388 -17.838   5.500  1.00  0.00     0.293 HD
ENDBRANCH   2  22
BRANCH   6  24
ATOM     24  O   UNL     1       4.717 -20.125   7.056  1.00  0.00    -0.507 OA
ATOM     25  H   UNL     1       3.710 -20.062   7.078  1.00  0.00     0.293 HD
ENDBRANCH   6  24
BRANCH   8  26
ATOM     26  O   UNL     1       5.259 -20.067  11.824  1.00  0.00    -0.508 OA
ATOM     27  H   UNL     1       4.962 -20.999  12.088  1.00  0.00     0.293 HD
ENDBRANCH   8  26
TORSDOF 6
ENDMDL
MODEL 3
REMARK VINA RESULT:     0.916      1.270      2.853
REMARK INTER + INTRA:           0.779
REMARK INTER:                   1.103
REMARK INTRA:                  -0.323
REMARK UNBOUND:                -0.323
REMARK SMILES O=c1c(O)c(-c2ccc(O)c(O)c2)oc2cc(O)cc(O)c12
REMARK SMILES IDX 5 1 3 2 2 3 1 4 22 5 20 6 19 7 17 8 16 9 15 10 14 11 6 12
REMARK SMILES IDX 7 13 8 14 9 15 13 16 11 17 10 18 12 20 4 22 21 24 18 26
REMARK H PARENT 10 19 12 21 4 23 21 25 18 27
REMARK Flexibility Score: inf
ROOT
ATOM      1  C   UNL     1       9.794 -18.350   8.092  1.00  0.00     0.180 A 
ATOM      2  C   UNL     1      10.701 -18.996   8.949  1.00  0.00     0.208 A 
ATOM      3  C   UNL     1      12.002 -18.484   9.076  1.00  0.00     0.238 A 
ATOM      4  O   UNL     1      12.830 -19.110   9.788  1.00  0.00    -0.285 OA
ATOM      5  C   UNL     1      12.363 -17.299   8.388  1.00  0.00     0.111 A 
ATOM      6  C   UNL     1      13.640 -16.666   8.479  1.00  0.00     0.134 A 
ATOM      7  C   UNL     1      13.919 -15.557   7.670  1.00  0.00     0.093 A 
ATOM      8  C   UNL     1      12.946 -15.021   6.822  1.00  0.00     0.123 A 
ATOM      9  C   UNL     1      11.681 -15.598   6.768  1.00  0.00     0.094 A 
ATOM     10  C   UNL     1      11.384 -16.729   7.534  1.00  0.00     0.146 A 
ATOM     11  O   UNL     1      10.172 -17.260   7.434  1.00  0.00    -0.452 OA
ENDROOT
BRANCH   1  12
ATOM     12  C   UNL     1       8.410 -18.839   7.894  1.00  0.00     0.025 A 
ATOM     13  C   UNL     1       8.080 -19.689   6.824  1.00  0.00     0.016 A 
ATOM     14  C   UNL     1       6.763 -20.117   6.643  1.00  0.00     0.051 A 
ATOM     15  C   UNL     1       5.754 -19.693   7.519  1.00  0.00     0.157 A 
ATOM     16  C   UNL     1       7.392 -18.399   8.755  1.00  0.00     0.062 A 
ATOM     17  C   UNL     1       6.071 -18.826   8.578  1.00  0.00     0.158 A 
BRANCH  15  18
ATOM     18  O   UNL     1       4.441 -20.124   7.337  1.00  0.00    -0.504 OA
ATOM     19  H   UNL     1       3.900 -20.516   8.099  1.00  0.00     0.293 HD
ENDBRANCH  15  18
BRANCH  17  20
ATOM     20  O   UNL     1       5.091 -18.379   9.463  1.00  0.00    -0.504 OA
ATOM     21  H   UNL     1       4.861 -18.884  10.311  1.00  0.00     0.293 HD
ENDBRANCH  17  20
ENDBRANCH   1  12
BRANCH   2  22
ATOM     22  O   UNL     1      10.301 -20.120   9.678  1.00  0.00    -0.502 OA
ATOM     23  H   UNL     1      10.711 -21.035   9.536  1.00  0.00     0.293 HD
ENDBRANCH   2  22
BRANCH   6  24
ATOM     24  O   UNL     1      14.652 -17.063   9.357  1.00  0.00    -0.507 OA
ATOM     25  H   UNL     1      14.627 -17.894   9.929  1.00  0.00     0.293 HD
ENDBRANCH   6  24
BRANCH   8  26
ATOM     26  O   UNL     1      13.227 -13.906   6.034  1.00  0.00    -0.508 OA
ATOM     27  H   UNL     1      14.106 -13.816   5.537  1.00  0.00     0.293 HD
ENDBRANCH   8  26
TORSDOF 6
ENDMDL
MODEL 4
REMARK VINA RESULT:     1.133      2.187      3.051
REMARK INTER + INTRA:           1.042
REMARK INTER:                   0.774
REMARK INTRA:                   0.268
REMARK UNBOUND:                -0.323
REMARK SMILES O=c1c(O)c(-c2ccc(O)c(O)c2)oc2cc(O)cc(O)c12
REMARK SMILES IDX 5 1 3 2 2 3 1 4 22 5 20 6 19 7 17 8 16 9 15 10 14 11 6 12
REMARK SMILES IDX 7 13 8 14 9 15 13 16 11 17 10 18 12 20 4 22 21 24 18 26
REMARK H PARENT 10 19 12 21 4 23 21 25 18 27
REMARK Flexibility Score: inf
ROOT
ATOM      1  C   UNL     1       8.127 -19.228   8.092  1.00  0.00     0.180 A 
ATOM      2  C   UNL     1       8.414 -19.531   6.750  1.00  0.00     0.208 A 
ATOM      3  C   UNL     1       9.695 -19.252   6.247  1.00  0.00     0.238 A 
ATOM      4  O   UNL     1       9.923 -19.458   5.027  1.00  0.00    -0.285 OA
ATOM      5  C   UNL     1      10.690 -18.725   7.107  1.00  0.00     0.111 A 
ATOM      6  C   UNL     1      12.035 -18.446   6.717  1.00  0.00     0.134 A 
ATOM      7  C   UNL     1      12.902 -17.825   7.625  1.00  0.00     0.093 A 
ATOM      8  C   UNL     1      12.493 -17.534   8.929  1.00  0.00     0.123 A 
ATOM      9  C   UNL     1      11.200 -17.853   9.335  1.00  0.00     0.094 A 
ATOM     10  C   UNL     1      10.299 -18.436   8.441  1.00  0.00     0.146 A 
ATOM     11  O   UNL     1       9.070 -18.704   8.865  1.00  0.00    -0.452 OA
ENDROOT
BRANCH   1  12
ATOM     12  C   UNL     1       6.795 -19.480   8.689  1.00  0.00     0.025 A 
ATOM     13  C   UNL     1       5.626 -19.457   7.909  1.00  0.00     0.016 A 
ATOM     14  C   UNL     1       4.379 -19.673   8.499  1.00  0.00     0.051 A 
ATOM     15  C   UNL     1       4.279 -19.902   9.879  1.00  0.00     0.157 A 
ATOM     16  C   UNL     1       6.688 -19.688  10.074  1.00  0.00     0.062 A 
ATOM     17  C   UNL     1       5.440 -19.906  10.669  1.00  0.00     0.158 A 
BRANCH  15  18
ATOM     18  O   UNL     1       3.033 -20.119  10.464  1.00  0.00    -0.504 OA
ATOM     19  H   UNL     1       2.856 -20.925  11.053  1.00  0.00     0.293 HD
ENDBRANCH  15  18
BRANCH  17  20
ATOM     20  O   UNL     1       5.376 -20.123  12.045  1.00  0.00    -0.504 OA
ATOM     21  H   UNL     1       4.722 -20.779  12.455  1.00  0.00     0.293 HD
ENDBRANCH  17  20
ENDBRANCH   1  12
BRANCH   2  22
ATOM     22  O   UNL     1       7.442 -20.123   5.938  1.00  0.00    -0.502 OA
ATOM     23  H   UNL     1       6.633 -20.600   6.317  1.00  0.00     0.293 HD
ENDBRANCH   2  22
BRANCH   6  24
ATOM     24  O   UNL     1      12.575 -18.776   5.471  1.00  0.00    -0.507 OA
ATOM     25  H   UNL     1      13.553 -18.950   5.292  1.00  0.00     0.293 HD
ENDBRANCH   6  24
BRANCH   8  26
ATOM     26  O   UNL     1      13.368 -16.933   9.831  1.00  0.00    -0.508 OA
ATOM     27  H   UNL     1      13.444 -17.254  10.789  1.00  0.00     0.293 HD
ENDBRANCH   8  26
TORSDOF 6
ENDMDL
MODEL 5
REMARK VINA RESULT:     2.031      1.501      6.954
REMARK INTER + INTRA:           2.123
REMARK INTER:                   2.446
REMARK INTRA:                  -0.324
REMARK UNBOUND:                -0.323
REMARK SMILES O=c1c(O)c(-c2ccc(O)c(O)c2)oc2cc(O)cc(O)c12
REMARK SMILES IDX 5 1 3 2 2 3 1 4 22 5 20 6 19 7 17 8 16 9 15 10 14 11 6 12
REMARK SMILES IDX 7 13 8 14 9 15 13 16 11 17 10 18 12 20 4 22 21 24 18 26
REMARK H PARENT 10 19 12 21 4 23 21 25 18 27
REMARK Flexibility Score: inf
ROOT
ATOM      1  C   UNL     1      10.403 -17.398   7.632  1.00  0.00     0.180 A 
ATOM      2  C   UNL     1      10.285 -18.484   6.749  1.00  0.00     0.208 A 
ATOM      3  C   UNL     1       9.036 -19.107   6.597  1.00  0.00     0.238 A 
ATOM      4  O   UNL     1       8.955 -20.125   5.861  1.00  0.00    -0.285 OA
ATOM      5  C   UNL     1       7.908 -18.601   7.288  1.00  0.00     0.111 A 
ATOM      6  C   UNL     1       6.585 -19.126   7.174  1.00  0.00     0.134 A 
ATOM      7  C   UNL     1       5.566 -18.612   7.988  1.00  0.00     0.093 A 
ATOM      8  C   UNL     1       5.810 -17.550   8.863  1.00  0.00     0.123 A 
ATOM      9  C   UNL     1       7.085 -16.996   8.939  1.00  0.00     0.094 A 
ATOM     10  C   UNL     1       8.130 -17.512   8.170  1.00  0.00     0.146 A 
ATOM     11  O   UNL     1       9.334 -16.967   8.291  1.00  0.00    -0.452 OA
ENDROOT
BRANCH   1  12
ATOM     12  C   UNL     1      11.689 -16.699   7.856  1.00  0.00     0.025 A 
ATOM     13  C   UNL     1      12.083 -15.615   7.053  1.00  0.00     0.016 A 
ATOM     14  C   UNL     1      13.312 -14.986   7.267  1.00  0.00     0.051 A 
ATOM     15  C   UNL     1      14.172 -15.440   8.277  1.00  0.00     0.157 A 
ATOM     16  C   UNL     1      12.563 -17.163   8.852  1.00  0.00     0.062 A 
ATOM     17  C   UNL     1      13.795 -16.536   9.071  1.00  0.00     0.158 A 
BRANCH  15  18
ATOM     18  O   UNL     1      15.396 -14.810   8.490  1.00  0.00    -0.504 OA
ATOM     19  H   UNL     1      15.594 -14.309   9.348  1.00  0.00     0.293 HD
ENDBRANCH  15  18
BRANCH  17  20
ATOM     20  O   UNL     1      14.630 -17.017  10.079  1.00  0.00    -0.504 OA
ATOM     21  H   UNL     1      14.318 -17.708  10.751  1.00  0.00     0.293 HD
ENDBRANCH  17  20
ENDBRANCH   1  12
BRANCH   2  22
ATOM     22  O   UNL     1      11.395 -18.920   6.018  1.00  0.00    -0.502 OA
ATOM     23  H   UNL     1      11.477 -18.778   5.018  1.00  0.00     0.293 HD
ENDBRANCH   2  22
BRANCH   6  24
ATOM     24  O   UNL     1       6.211 -20.125   6.270  1.00  0.00    -0.507 OA
ATOM     25  H   UNL     1       5.719 -20.971   6.515  1.00  0.00     0.293 HD
ENDBRANCH   6  24
BRANCH   8  26
ATOM     26  O   UNL     1       4.787 -17.034   9.655  1.00  0.00    -0.508 OA
ATOM     27  H   UNL     1       3.812 -17.147   9.402  1.00  0.00     0.293 HD
ENDBRANCH   8  26
TORSDOF 6
ENDMDL
