MODEL 1
REMARK VINA RESULT:    -7.182      0.000      0.000
REMARK INTER + INTRA:          -8.885
REMARK INTER:                  -8.651
REMARK INTRA:                  -0.234
REMARK UNBOUND:                -0.234
REMARK SMILES O=c1c(O)c(-c2ccc(O)c(O)c2)oc2cc(O)cc(O)c12
REMARK SMILES IDX 5 1 3 2 2 3 1 4 22 5 20 6 19 7 17 8 16 9 15 10 14 11 6 12
REMARK SMILES IDX 7 13 8 14 9 15 13 16 11 17 10 18 12 20 4 22 21 24 18 26
REMARK H PARENT 10 19 12 21 4 23 21 25 18 27
REMARK Flexibility Score: inf
ROOT
ATOM      1  C   UNL     1      12.856  20.124   2.147  1.00  0.00     0.180 A 
ATOM      2  C   UNL     1      13.796  20.872   1.411  1.00  0.00     0.208 A 
ATOM      3  C   UNL     1      13.795  20.773   0.011  1.00  0.00     0.238 A 
ATOM      4  O   UNL     1      14.625  21.447  -0.659  1.00  0.00    -0.285 OA
ATOM      5  C   UNL     1      12.873  19.919  -0.628  1.00  0.00     0.111 A 
ATOM      6  C   UNL     1      12.809  19.759  -2.033  1.00  0.00     0.134 A 
ATOM      7  C   UNL     1      11.869  18.881  -2.591  1.00  0.00     0.093 A 
ATOM      8  C   UNL     1      10.994  18.160  -1.774  1.00  0.00     0.123 A 
ATOM      9  C   UNL     1      11.052  18.315  -0.386  1.00  0.00     0.094 A 
ATOM     10  C   UNL     1      11.981  19.185   0.190  1.00  0.00     0.146 A 
ATOM     11  O   UNL     1      12.012  19.316   1.512  1.00  0.00    -0.452 OA
ENDROOT
BRANCH   1  12
ATOM     12  C   UNL     1      12.782  20.189   3.624  1.00  0.00     0.025 A 
ATOM     13  C   UNL     1      13.102  19.051   4.381  1.00  0.00     0.016 A 
ATOM     14  C   UNL     1      13.018  19.084   5.776  1.00  0.00     0.051 A 
ATOM     15  C   UNL     1      12.600  20.248   6.432  1.00  0.00     0.157 A 
ATOM     16  C   UNL     1      12.342  21.350   4.285  1.00  0.00     0.062 A 
ATOM     17  C   UNL     1      12.256  21.382   5.685  1.00  0.00     0.158 A 
BRANCH  15  18
ATOM     18  O   UNL     1      12.518  20.285   7.822  1.00  0.00    -0.504 OA
ATOM     19  H   UNL     1      13.054  20.952   8.367  1.00  0.00     0.293 HD
ENDBRANCH  15  18
BRANCH  17  20
ATOM     20  O   UNL     1      11.827  22.535   6.339  1.00  0.00    -0.504 OA
ATOM     21  H   UNL     1      12.218  22.816   7.231  1.00  0.00     0.293 HD
ENDBRANCH  17  20
ENDBRANCH   1  12
BRANCH   2  22
ATOM     22  O   UNL     1      14.732  21.674   2.070  1.00  0.00    -0.502 OA
ATOM     23  H   UNL     1      15.530  21.286   2.559  1.00  0.00     0.293 HD
ENDBRANCH   2  22
BRANCH   6  24
ATOM     24  O   UNL     1      13.670  20.464  -2.876  1.00  0.00    -0.507 OA
ATOM     25  H   UNL     1      13.597  21.467  -2.994  1.00  0.00     0.293 HD
ENDBRANCH   6  24
BRANCH   8  26
ATOM     26  O   UNL     1      10.070  17.294  -2.355  1.00  0.00    -0.508 OA
ATOM     27  H   UNL     1      10.155  16.999  -3.320  1.00  0.00     0.293 HD
ENDBRANCH   8  26
TORSDOF 6
ENDMDL
MODEL 2
REMARK VINA RESULT:    -7.149      1.250      2.892
REMARK INTER + INTRA:          -8.845
REMARK INTER:                  -8.537
REMARK INTRA:                  -0.308
REMARK UNBOUND:                -0.234
REMARK SMILES O=c1c(O)c(-c2ccc(O)c(O)c2)oc2cc(O)cc(O)c12
REMARK SMILES IDX 5 1 3 2 2 3 1 4 22 5 20 6 19 7 17 8 16 9 15 10 14 11 6 12
REMARK SMILES IDX 7 13 8 14 9 15 13 16 11 17 10 18 12 20 4 22 21 24 18 26
REMARK H PARENT 10 19 12 21 4 23 21 25 18 27
REMARK Flexibility Score: inf
ROOT
ATOM      1  C   UNL     1      12.343  20.000   2.341  1.00  0.00     0.180 A 
ATOM      2  C   UNL     1      11.305  19.317   1.678  1.00  0.00     0.208 A 
ATOM      3  C   UNL     1      11.327  19.247   0.276  1.00  0.00     0.238 A 
ATOM      4  O   UNL     1      10.408  18.629  -0.328  1.00  0.00    -0.285 OA
ATOM      5  C   UNL     1      12.368  19.875  -0.438  1.00  0.00     0.111 A 
ATOM      6  C   UNL     1      12.462  19.855  -1.850  1.00  0.00     0.134 A 
ATOM      7  C   UNL     1      13.524  20.512  -2.486  1.00  0.00     0.093 A 
ATOM      8  C   UNL     1      14.493  21.187  -1.740  1.00  0.00     0.123 A 
ATOM      9  C   UNL     1      14.407  21.209  -0.345  1.00  0.00     0.094 A 
ATOM     10  C   UNL     1      13.356  20.560   0.308  1.00  0.00     0.146 A 
ATOM     11  O   UNL     1      13.301  20.593   1.635  1.00  0.00    -0.452 OA
ENDROOT
BRANCH   1  12
ATOM     12  C   UNL     1      12.400  20.101   3.818  1.00  0.00     0.025 A 
ATOM     13  C   UNL     1      12.920  19.030   4.562  1.00  0.00     0.016 A 
ATOM     14  C   UNL     1      12.964  19.095   5.958  1.00  0.00     0.051 A 
ATOM     15  C   UNL     1      12.475  20.222   6.628  1.00  0.00     0.157 A 
ATOM     16  C   UNL     1      11.891  21.222   4.496  1.00  0.00     0.062 A 
ATOM     17  C   UNL     1      11.933  21.287   5.897  1.00  0.00     0.158 A 
BRANCH  15  18
ATOM     18  O   UNL     1      12.520  20.292   8.019  1.00  0.00    -0.504 OA
ATOM     19  H   UNL     1      11.687  20.477   8.567  1.00  0.00     0.293 HD
ENDBRANCH  15  18
BRANCH  17  20
ATOM     20  O   UNL     1      11.435  22.402   6.567  1.00  0.00    -0.504 OA
ATOM     21  H   UNL     1      11.731  23.341   6.329  1.00  0.00     0.293 HD
ENDBRANCH  17  20
ENDBRANCH   1  12
BRANCH   2  22
ATOM     22  O   UNL     1      10.257  18.747   2.405  1.00  0.00    -0.502 OA
ATOM     23  H   UNL     1      10.394  17.960   3.029  1.00  0.00     0.293 HD
ENDBRANCH   2  22
BRANCH   6  24
ATOM     24  O   UNL     1      11.508  19.190  -2.624  1.00  0.00    -0.507 OA
ATOM     25  H   UNL     1      10.838  18.552  -2.211  1.00  0.00     0.293 HD
ENDBRANCH   6  24
BRANCH   8  26
ATOM     26  O   UNL     1      15.539  21.832  -2.398  1.00  0.00    -0.508 OA
ATOM     27  H   UNL     1      15.367  22.584  -3.055  1.00  0.00     0.293 HD
ENDBRANCH   8  26
TORSDOF 6
ENDMDL
MODEL 3
REMARK VINA RESULT:    -7.088      2.528      3.691
REMARK INTER + INTRA:          -8.772
REMARK INTER:                  -8.448
REMARK INTRA:                  -0.325
REMARK UNBOUND:                -0.234
REMARK SMILES O=c1c(O)c(-c2ccc(O)c(O)c2)oc2cc(O)cc(O)c12
REMARK SMILES IDX 5 1 3 2 2 3 1 4 22 5 20 6 19 7 17 8 16 9 15 10 14 11 6 12
REMARK SMILES IDX 7 13 8 14 9 15 13 16 11 17 10 18 12 20 4 22 21 24 18 26
REMARK H PARENT 10 19 12 21 4 23 21 25 18 27
REMARK Flexibility Score: inf
ROOT
ATOM      1  C   UNL     1      11.948  20.283   4.814  1.00  0.00     0.180 A 
ATOM      2  C   UNL     1      12.798  21.330   4.409  1.00  0.00     0.208 A 
ATOM      3  C   UNL     1      13.603  21.151   3.274  1.00  0.00     0.238 A 
ATOM      4  O   UNL     1      14.360  22.087   2.896  1.00  0.00    -0.285 OA
ATOM      5  C   UNL     1      13.562  19.927   2.576  1.00  0.00     0.111 A 
ATOM      6  C   UNL     1      14.343  19.664   1.425  1.00  0.00     0.134 A 
ATOM      7  C   UNL     1      14.252  18.416   0.793  1.00  0.00     0.093 A 
ATOM      8  C   UNL     1      13.397  17.427   1.287  1.00  0.00     0.123 A 
ATOM      9  C   UNL     1      12.622  17.681   2.422  1.00  0.00     0.094 A 
ATOM     10  C   UNL     1      12.697  18.919   3.066  1.00  0.00     0.146 A 
ATOM     11  O   UNL     1      11.946  19.136   4.141  1.00  0.00    -0.452 OA
ENDROOT
BRANCH   1  12
ATOM     12  C   UNL     1      11.055  20.403   5.989  1.00  0.00     0.025 A 
ATOM     13  C   UNL     1       9.768  20.940   5.825  1.00  0.00     0.016 A 
ATOM     14  C   UNL     1       8.916  21.082   6.924  1.00  0.00     0.051 A 
ATOM     15  C   UNL     1       9.344  20.705   8.203  1.00  0.00     0.157 A 
ATOM     16  C   UNL     1      11.489  20.046   7.278  1.00  0.00     0.062 A 
ATOM     17  C   UNL     1      10.635  20.191   8.382  1.00  0.00     0.158 A 
BRANCH  15  18
ATOM     18  O   UNL     1       8.498  20.844   9.301  1.00  0.00    -0.504 OA
ATOM     19  H   UNL     1       8.852  20.814  10.251  1.00  0.00     0.293 HD
ENDBRANCH  15  18
BRANCH  17  20
ATOM     20  O   UNL     1      11.063  19.829   9.658  1.00  0.00    -0.504 OA
ATOM     21  H   UNL     1      11.577  18.971   9.822  1.00  0.00     0.293 HD
ENDBRANCH  17  20
ENDBRANCH   1  12
BRANCH   2  22
ATOM     22  O   UNL     1      12.858  22.516   5.147  1.00  0.00    -0.502 OA
ATOM     23  H   UNL     1      12.311  23.334   4.905  1.00  0.00     0.293 HD
ENDBRANCH   2  22
BRANCH   6  24
ATOM     24  O   UNL     1      15.208  20.630   0.908  1.00  0.00    -0.507 OA
ATOM     25  H   UNL     1      15.363  21.513   1.380  1.00  0.00     0.293 HD
ENDBRANCH   6  24
BRANCH   8  26
ATOM     26  O   UNL     1      13.326  16.196   0.639  1.00  0.00    -0.508 OA
ATOM     27  H   UNL     1      13.627  16.085  -0.323  1.00  0.00     0.293 HD
ENDBRANCH   8  26
TORSDOF 6
ENDMDL
MODEL 4
REMARK VINA RESULT:    -6.985      1.654      6.583
REMARK INTER + INTRA:          -8.648
REMARK INTER:                  -8.748
REMARK INTRA:                   0.100
REMARK UNBOUND:                -0.234
REMARK SMILES O=c1c(O)c(-c2ccc(O)c(O)c2)oc2cc(O)cc(O)c12
REMARK SMILES IDX 5 1 3 2 2 3 1 4 22 5 20 6 19 7 17 8 16 9 15 10 14 11 6 12
REMARK SMILES IDX 7 13 8 14 9 15 13 16 11 17 10 18 12 20 4 22 21 24 18 26
REMARK H PARENT 10 19 12 21 4 23 21 25 18 27
REMARK Flexibility Score: inf
ROOT
ATOM      1  C   UNL     1      12.929  20.236   1.860  1.00  0.00     0.180 A 
ATOM      2  C   UNL     1      13.036  21.345   2.721  1.00  0.00     0.208 A 
ATOM      3  C   UNL     1      12.784  21.169   4.090  1.00  0.00     0.238 A 
ATOM      4  O   UNL     1      12.888  22.154   4.872  1.00  0.00    -0.285 OA
ATOM      5  C   UNL     1      12.411  19.898   4.572  1.00  0.00     0.111 A 
ATOM      6  C   UNL     1      12.135  19.637   5.936  1.00  0.00     0.134 A 
ATOM      7  C   UNL     1      11.760  18.346   6.335  1.00  0.00     0.093 A 
ATOM      8  C   UNL     1      11.655  17.313   5.400  1.00  0.00     0.123 A 
ATOM      9  C   UNL     1      11.927  17.565   4.052  1.00  0.00     0.094 A 
ATOM     10  C   UNL     1      12.303  18.844   3.634  1.00  0.00     0.146 A 
ATOM     11  O   UNL     1      12.560  19.055   2.347  1.00  0.00    -0.452 OA
ENDROOT
BRANCH   1  12
ATOM     12  C   UNL     1      13.198  20.338   0.408  1.00  0.00     0.025 A 
ATOM     13  C   UNL     1      12.403  19.613  -0.494  1.00  0.00     0.016 A 
ATOM     14  C   UNL     1      12.652  19.678  -1.868  1.00  0.00     0.051 A 
ATOM     15  C   UNL     1      13.709  20.455  -2.358  1.00  0.00     0.157 A 
ATOM     16  C   UNL     1      14.271  21.100  -0.087  1.00  0.00     0.062 A 
ATOM     17  C   UNL     1      14.523  21.164  -1.466  1.00  0.00     0.158 A 
BRANCH  15  18
ATOM     18  O   UNL     1      13.959  20.524  -3.726  1.00  0.00    -0.504 OA
ATOM     19  H   UNL     1      14.709  19.993  -4.156  1.00  0.00     0.293 HD
ENDBRANCH  15  18
BRANCH  17  20
ATOM     20  O   UNL     1      15.583  21.925  -1.955  1.00  0.00    -0.504 OA
ATOM     21  H   UNL     1      16.495  21.518  -2.124  1.00  0.00     0.293 HD
ENDBRANCH  17  20
ENDBRANCH   1  12
BRANCH   2  22
ATOM     22  O   UNL     1      13.359  22.606   2.211  1.00  0.00    -0.502 OA
ATOM     23  H   UNL     1      12.667  23.335   2.087  1.00  0.00     0.293 HD
ENDBRANCH   2  22
BRANCH   6  24
ATOM     24  O   UNL     1      12.230  20.648   6.894  1.00  0.00    -0.507 OA
ATOM     25  H   UNL     1      13.092  21.156   7.048  1.00  0.00     0.293 HD
ENDBRANCH   6  24
BRANCH   8  26
ATOM     26  O   UNL     1      11.280  16.040   5.823  1.00  0.00    -0.508 OA
ATOM     27  H   UNL     1      10.542  15.523   5.359  1.00  0.00     0.293 HD
ENDBRANCH   8  26
TORSDOF 6
ENDMDL
MODEL 5
REMARK VINA RESULT:    -6.905      2.703      7.578
REMARK INTER + INTRA:          -8.552
REMARK INTER:                  -8.318
REMARK INTRA:                  -0.234
REMARK UNBOUND:                -0.234
REMARK SMILES O=c1c(O)c(-c2ccc(O)c(O)c2)oc2cc(O)cc(O)c12
REMARK SMILES IDX 5 1 3 2 2 3 1 4 22 5 20 6 19 7 17 8 16 9 15 10 14 11 6 12
REMARK SMILES IDX 7 13 8 14 9 15 13 16 11 17 10 18 12 20 4 22 21 24 18 26
REMARK H PARENT 10 19 12 21 4 23 21 25 18 27
REMARK Flexibility Score: inf
ROOT
ATOM      1  C   UNL     1      12.560  19.595  -1.452  1.00  0.00     0.180 A 
ATOM      2  C   UNL     1      11.449  20.349  -1.028  1.00  0.00     0.208 A 
ATOM      3  C   UNL     1      11.548  21.095   0.157  1.00  0.00     0.238 A 
ATOM      4  O   UNL     1      10.563  21.783   0.541  1.00  0.00    -0.285 OA
ATOM      5  C   UNL     1      12.742  21.061   0.905  1.00  0.00     0.111 A 
ATOM      6  C   UNL     1      12.923  21.780   2.111  1.00  0.00     0.134 A 
ATOM      7  C   UNL     1      14.139  21.685   2.803  1.00  0.00     0.093 A 
ATOM      8  C   UNL     1      15.176  20.887   2.314  1.00  0.00     0.123 A 
ATOM      9  C   UNL     1      15.005  20.175   1.123  1.00  0.00     0.094 A 
ATOM     10  C   UNL     1      13.800  20.257   0.418  1.00  0.00     0.146 A 
ATOM     11  O   UNL     1      13.665  19.574  -0.713  1.00  0.00    -0.452 OA
ENDROOT
BRANCH   1  12
ATOM     12  C   UNL     1      12.539  18.799  -2.700  1.00  0.00     0.025 A 
ATOM     13  C   UNL     1      11.811  17.599  -2.740  1.00  0.00     0.016 A 
ATOM     14  C   UNL     1      11.794  16.820  -3.901  1.00  0.00     0.051 A 
ATOM     15  C   UNL     1      12.518  17.221  -5.031  1.00  0.00     0.157 A 
ATOM     16  C   UNL     1      13.282  19.186  -3.830  1.00  0.00     0.062 A 
ATOM     17  C   UNL     1      13.267  18.404  -4.994  1.00  0.00     0.158 A 
BRANCH  15  18
ATOM     18  O   UNL     1      12.502  16.449  -6.190  1.00  0.00    -0.504 OA
ATOM     19  H   UNL     1      12.421  16.872  -7.108  1.00  0.00     0.293 HD
ENDBRANCH  15  18
BRANCH  17  20
ATOM     20  O   UNL     1      13.997  18.793  -6.115  1.00  0.00    -0.504 OA
ATOM     21  H   UNL     1      14.751  18.223  -6.482  1.00  0.00     0.293 HD
ENDBRANCH  17  20
ENDBRANCH   1  12
BRANCH   2  22
ATOM     22  O   UNL     1      10.259  20.328  -1.761  1.00  0.00    -0.502 OA
ATOM     23  H   UNL     1       9.966  19.518  -2.295  1.00  0.00     0.293 HD
ENDBRANCH   2  22
BRANCH   6  24
ATOM     24  O   UNL     1      11.905  22.584   2.627  1.00  0.00    -0.507 OA
ATOM     25  H   UNL     1      11.986  23.593   2.654  1.00  0.00     0.293 HD
ENDBRANCH   6  24
BRANCH   8  26
ATOM     26  O   UNL     1      16.374  20.811   3.021  1.00  0.00    -0.508 OA
ATOM     27  H   UNL     1      16.665  21.549   3.651  1.00  0.00     0.293 HD
ENDBRANCH   8  26
TORSDOF 6
ENDMDL
MODEL 6
REMARK VINA RESULT:    -6.847      2.790      4.931
REMARK INTER + INTRA:          -8.481
REMARK INTER:                  -8.157
REMARK INTRA:                  -0.324
REMARK UNBOUND:                -0.234
REMARK SMILES O=c1c(O)c(-c2ccc(O)c(O)c2)oc2cc(O)cc(O)c12
REMARK SMILES IDX 5 1 3 2 2 3 1 4 22 5 20 6 19 7 17 8 16 9 15 10 14 11 6 12
REMARK SMILES IDX 7 13 8 14 9 15 13 16 11 17 10 18 12 20 4 22 21 24 18 26
REMARK H PARENT 10 19 12 21 4 23 21 25 18 27
REMARK Flexibility Score: inf
ROOT
ATOM      1  C   UNL     1      12.740  19.331  -1.603  1.00  0.00     0.180 A 
ATOM      2  C   UNL     1      11.857  18.238  -1.498  1.00  0.00     0.208 A 
ATOM      3  C   UNL     1      11.632  17.437  -2.628  1.00  0.00     0.238 A 
ATOM      4  O   UNL     1      10.852  16.449  -2.543  1.00  0.00    -0.285 OA
ATOM      5  C   UNL     1      12.273  17.751  -3.844  1.00  0.00     0.111 A 
ATOM      6  C   UNL     1      12.097  16.997  -5.030  1.00  0.00     0.134 A 
ATOM      7  C   UNL     1      12.763  17.380  -6.203  1.00  0.00     0.093 A 
ATOM      8  C   UNL     1      13.600  18.499  -6.214  1.00  0.00     0.123 A 
ATOM      9  C   UNL     1      13.779  19.246  -5.046  1.00  0.00     0.094 A 
ATOM     10  C   UNL     1      13.124  18.881  -3.867  1.00  0.00     0.146 A 
ATOM     11  O   UNL     1      13.315  19.606  -2.770  1.00  0.00    -0.452 OA
ENDROOT
BRANCH   1  12
ATOM     12  C   UNL     1      13.043  20.210  -0.451  1.00  0.00     0.025 A 
ATOM     13  C   UNL     1      14.072  19.854   0.436  1.00  0.00     0.016 A 
ATOM     14  C   UNL     1      14.362  20.659   1.542  1.00  0.00     0.051 A 
ATOM     15  C   UNL     1      13.618  21.819   1.785  1.00  0.00     0.157 A 
ATOM     16  C   UNL     1      12.285  21.365  -0.191  1.00  0.00     0.062 A 
ATOM     17  C   UNL     1      12.574  22.172   0.920  1.00  0.00     0.158 A 
BRANCH  15  18
ATOM     18  O   UNL     1      13.905  22.625   2.885  1.00  0.00    -0.504 OA
ATOM     19  H   UNL     1      14.766  23.159   2.941  1.00  0.00     0.293 HD
ENDBRANCH  15  18
BRANCH  17  20
ATOM     20  O   UNL     1      11.827  23.320   1.172  1.00  0.00    -0.504 OA
ATOM     21  H   UNL     1      11.114  23.342   1.892  1.00  0.00     0.293 HD
ENDBRANCH  17  20
ENDBRANCH   1  12
BRANCH   2  22
ATOM     22  O   UNL     1      11.195  17.978  -0.295  1.00  0.00    -0.502 OA
ATOM     23  H   UNL     1      10.748  17.090  -0.103  1.00  0.00     0.293 HD
ENDBRANCH   2  22
BRANCH   6  24
ATOM     24  O   UNL     1      11.266  15.875  -5.051  1.00  0.00    -0.507 OA
ATOM     25  H   UNL     1      10.377  15.880  -5.535  1.00  0.00     0.293 HD
ENDBRANCH   6  24
BRANCH   8  26
ATOM     26  O   UNL     1      14.250  18.857  -7.393  1.00  0.00    -0.508 OA
ATOM     27  H   UNL     1      13.736  19.031  -8.249  1.00  0.00     0.293 HD
ENDBRANCH   8  26
TORSDOF 6
ENDMDL
MODEL 7
REMARK VINA RESULT:    -6.826      3.394      5.494
REMARK INTER + INTRA:          -8.457
REMARK INTER:                  -8.148
REMARK INTRA:                  -0.309
REMARK UNBOUND:                -0.234
REMARK SMILES O=c1c(O)c(-c2ccc(O)c(O)c2)oc2cc(O)cc(O)c12
REMARK SMILES IDX 5 1 3 2 2 3 1 4 22 5 20 6 19 7 17 8 16 9 15 10 14 11 6 12
REMARK SMILES IDX 7 13 8 14 9 15 13 16 11 17 10 18 12 20 4 22 21 24 18 26
REMARK H PARENT 10 19 12 21 4 23 21 25 18 27
REMARK Flexibility Score: inf
ROOT
ATOM      1  C   UNL     1      10.954  20.905   5.720  1.00  0.00     0.180 A 
ATOM      2  C   UNL     1      11.710  19.761   6.044  1.00  0.00     0.208 A 
ATOM      3  C   UNL     1      12.817  19.431   5.248  1.00  0.00     0.238 A 
ATOM      4  O   UNL     1      13.507  18.415   5.536  1.00  0.00    -0.285 OA
ATOM      5  C   UNL     1      13.138  20.232   4.133  1.00  0.00     0.111 A 
ATOM      6  C   UNL     1      14.234  19.966   3.278  1.00  0.00     0.134 A 
ATOM      7  C   UNL     1      14.482  20.806   2.183  1.00  0.00     0.093 A 
ATOM      8  C   UNL     1      13.657  21.904   1.926  1.00  0.00     0.123 A 
ATOM      9  C   UNL     1      12.574  22.173   2.768  1.00  0.00     0.094 A 
ATOM     10  C   UNL     1      12.311  21.348   3.866  1.00  0.00     0.146 A 
ATOM     11  O   UNL     1      11.277  21.628   4.652  1.00  0.00    -0.452 OA
ENDROOT
BRANCH   1  12
ATOM     12  C   UNL     1       9.785  21.329   6.523  1.00  0.00     0.025 A 
ATOM     13  C   UNL     1       8.530  20.750   6.273  1.00  0.00     0.016 A 
ATOM     14  C   UNL     1       7.409  21.150   7.005  1.00  0.00     0.051 A 
ATOM     15  C   UNL     1       7.522  22.145   7.983  1.00  0.00     0.157 A 
ATOM     16  C   UNL     1       9.890  22.342   7.492  1.00  0.00     0.062 A 
ATOM     17  C   UNL     1       8.764  22.746   8.225  1.00  0.00     0.158 A 
BRANCH  15  18
ATOM     18  O   UNL     1       6.407  22.546   8.716  1.00  0.00    -0.504 OA
ATOM     19  H   UNL     1       5.756  21.871   9.102  1.00  0.00     0.293 HD
ENDBRANCH  15  18
BRANCH  17  20
ATOM     20  O   UNL     1       8.871  23.746   9.190  1.00  0.00    -0.504 OA
ATOM     21  H   UNL     1       9.732  23.898   9.702  1.00  0.00     0.293 HD
ENDBRANCH  17  20
ENDBRANCH   1  12
BRANCH   2  22
ATOM     22  O   UNL     1      11.341  18.955   7.125  1.00  0.00    -0.502 OA
ATOM     23  H   UNL     1      11.234  19.321   8.064  1.00  0.00     0.293 HD
ENDBRANCH   2  22
BRANCH   6  24
ATOM     24  O   UNL     1      15.076  18.875   3.506  1.00  0.00    -0.507 OA
ATOM     25  H   UNL     1      15.793  18.608   2.843  1.00  0.00     0.293 HD
ENDBRANCH   6  24
BRANCH   8  26
ATOM     26  O   UNL     1      13.926  22.723   0.831  1.00  0.00    -0.508 OA
ATOM     27  H   UNL     1      13.585  22.495  -0.096  1.00  0.00     0.293 HD
ENDBRANCH   8  26
TORSDOF 6
ENDMDL
MODEL 8
REMARK VINA RESULT:    -6.789      3.555      7.456
REMARK INTER + INTRA:          -8.412
REMARK INTER:                  -8.108
REMARK INTRA:                  -0.304
REMARK UNBOUND:                -0.234
REMARK SMILES O=c1c(O)c(-c2ccc(O)c(O)c2)oc2cc(O)cc(O)c12
REMARK SMILES IDX 5 1 3 2 2 3 1 4 22 5 20 6 19 7 17 8 16 9 15 10 14 11 6 12
REMARK SMILES IDX 7 13 8 14 9 15 13 16 11 17 10 18 12 20 4 22 21 24 18 26
REMARK H PARENT 10 19 12 21 4 23 21 25 18 27
REMARK Flexibility Score: inf
ROOT
ATOM      1  C   UNL     1      11.495  20.459   5.678  1.00  0.00     0.180 A 
ATOM      2  C   UNL     1      11.820  20.416   7.047  1.00  0.00     0.208 A 
ATOM      3  C   UNL     1      10.782  20.441   7.992  1.00  0.00     0.238 A 
ATOM      4  O   UNL     1      11.062  20.392   9.222  1.00  0.00    -0.285 OA
ATOM      5  C   UNL     1       9.445  20.528   7.557  1.00  0.00     0.111 A 
ATOM      6  C   UNL     1       8.341  20.562   8.444  1.00  0.00     0.134 A 
ATOM      7  C   UNL     1       7.040  20.659   7.932  1.00  0.00     0.093 A 
ATOM      8  C   UNL     1       6.819  20.723   6.554  1.00  0.00     0.123 A 
ATOM      9  C   UNL     1       7.904  20.689   5.673  1.00  0.00     0.094 A 
ATOM     10  C   UNL     1       9.210  20.591   6.163  1.00  0.00     0.146 A 
ATOM     11  O   UNL     1      10.222  20.556   5.304  1.00  0.00    -0.452 OA
ENDROOT
BRANCH   1  12
ATOM     12  C   UNL     1      12.531  20.417   4.621  1.00  0.00     0.025 A 
ATOM     13  C   UNL     1      13.083  19.182   4.245  1.00  0.00     0.016 A 
ATOM     14  C   UNL     1      14.078  19.122   3.265  1.00  0.00     0.051 A 
ATOM     15  C   UNL     1      14.545  20.294   2.660  1.00  0.00     0.157 A 
ATOM     16  C   UNL     1      13.018  21.594   4.026  1.00  0.00     0.062 A 
ATOM     17  C   UNL     1      14.018  21.534   3.044  1.00  0.00     0.158 A 
BRANCH  15  18
ATOM     18  O   UNL     1      15.535  20.238   1.681  1.00  0.00    -0.504 OA
ATOM     19  H   UNL     1      15.360  19.821   0.773  1.00  0.00     0.293 HD
ENDBRANCH  15  18
BRANCH  17  20
ATOM     20  O   UNL     1      14.495  22.701   2.449  1.00  0.00    -0.504 OA
ATOM     21  H   UNL     1      15.319  22.698   1.860  1.00  0.00     0.293 HD
ENDBRANCH  17  20
ENDBRANCH   1  12
BRANCH   2  22
ATOM     22  O   UNL     1      13.157  20.381   7.455  1.00  0.00    -0.502 OA
ATOM     23  H   UNL     1      13.790  21.158   7.306  1.00  0.00     0.293 HD
ENDBRANCH   2  22
BRANCH   6  24
ATOM     24  O   UNL     1       8.529  20.501   9.826  1.00  0.00    -0.507 OA
ATOM     25  H   UNL     1       7.849  20.881  10.473  1.00  0.00     0.293 HD
ENDBRANCH   6  24
BRANCH   8  26
ATOM     26  O   UNL     1       5.516  20.819   6.072  1.00  0.00    -0.508 OA
ATOM     27  H   UNL     1       4.778  21.245   6.621  1.00  0.00     0.293 HD
ENDBRANCH   8  26
TORSDOF 6
ENDMDL
MODEL 9
REMARK VINA RESULT:    -6.786      2.450      4.374
REMARK INTER + INTRA:          -8.408
REMARK INTER:                  -8.076
REMARK INTRA:                  -0.332
REMARK UNBOUND:                -0.234
REMARK SMILES O=c1c(O)c(-c2ccc(O)c(O)c2)oc2cc(O)cc(O)c12
REMARK SMILES IDX 5 1 3 2 2 3 1 4 22 5 20 6 19 7 17 8 16 9 15 10 14 11 6 12
REMARK SMILES IDX 7 13 8 14 9 15 13 16 11 17 10 18 12 20 4 22 21 24 18 26
REMARK H PARENT 10 19 12 21 4 23 21 25 18 27
REMARK Flexibility Score: inf
ROOT
ATOM      1  C   UNL     1      11.779  20.136   5.022  1.00  0.00     0.180 A 
ATOM      2  C   UNL     1      11.809  18.817   4.528  1.00  0.00     0.208 A 
ATOM      3  C   UNL     1      12.355  18.581   3.257  1.00  0.00     0.238 A 
ATOM      4  O   UNL     1      12.397  17.402   2.810  1.00  0.00    -0.285 OA
ATOM      5  C   UNL     1      12.841  19.662   2.494  1.00  0.00     0.111 A 
ATOM      6  C   UNL     1      13.402  19.510   1.204  1.00  0.00     0.134 A 
ATOM      7  C   UNL     1      13.855  20.638   0.505  1.00  0.00     0.093 A 
ATOM      8  C   UNL     1      13.757  21.912   1.068  1.00  0.00     0.123 A 
ATOM      9  C   UNL     1      13.205  22.069   2.343  1.00  0.00     0.094 A 
ATOM     10  C   UNL     1      12.749  20.957   3.057  1.00  0.00     0.146 A 
ATOM     11  O   UNL     1      12.232  21.133   4.268  1.00  0.00    -0.452 OA
ENDROOT
BRANCH   1  12
ATOM     12  C   UNL     1      11.238  20.463   6.361  1.00  0.00     0.025 A 
ATOM     13  C   UNL     1       9.894  20.852   6.485  1.00  0.00     0.016 A 
ATOM     14  C   UNL     1       9.367  21.186   7.735  1.00  0.00     0.051 A 
ATOM     15  C   UNL     1      10.179  21.150   8.876  1.00  0.00     0.157 A 
ATOM     16  C   UNL     1      12.054  20.449   7.505  1.00  0.00     0.062 A 
ATOM     17  C   UNL     1      11.526  20.786   8.760  1.00  0.00     0.158 A 
BRANCH  15  18
ATOM     18  O   UNL     1       9.657  21.479  10.125  1.00  0.00    -0.504 OA
ATOM     19  H   UNL     1      10.251  21.808  10.878  1.00  0.00     0.293 HD
ENDBRANCH  15  18
BRANCH  17  20
ATOM     20  O   UNL     1      12.335  20.764   9.895  1.00  0.00    -0.504 OA
ATOM     21  H   UNL     1      12.143  21.356  10.695  1.00  0.00     0.293 HD
ENDBRANCH  17  20
ENDBRANCH   1  12
BRANCH   2  22
ATOM     22  O   UNL     1      11.275  17.769   5.283  1.00  0.00    -0.502 OA
ATOM     23  H   UNL     1      10.320  17.774   5.619  1.00  0.00     0.293 HD
ENDBRANCH   2  22
BRANCH   6  24
ATOM     24  O   UNL     1      13.511  18.250   0.612  1.00  0.00    -0.507 OA
ATOM     25  H   UNL     1      13.951  18.122  -0.291  1.00  0.00     0.293 HD
ENDBRANCH   6  24
BRANCH   8  26
ATOM     26  O   UNL     1      14.214  23.016   0.352  1.00  0.00    -0.508 OA
ATOM     27  H   UNL     1      13.636  23.837   0.219  1.00  0.00     0.293 HD
ENDBRANCH   8  26
TORSDOF 6
ENDMDL
