MODEL 1
REMARK VINA RESULT:    -4.236      0.000      0.000
REMARK INTER + INTRA:         -13.146
REMARK INTER:                  -9.684
REMARK INTRA:                  -3.462
REMARK UNBOUND:                -3.462
REMARK SMILES CCCCCCCCCCCCCCCCCCCCCCCC(=O)[O-]
REMARK SMILES IDX 13 1 14 2 15 3 16 4 17 5 18 6 19 7 20 8 21 9 22 10 23 11
REMARK SMILES IDX 24 12 25 13 26 14 12 15 11 16 10 17 9 18 8 19 7 20 6 21 5 22
REMARK SMILES IDX 4 23 3 24 2 25 1 26
REMARK H PARENT
REMARK Flexibility Score: inf
ROOT
ATOM      1  C   UNL     1      26.347  43.520   2.670  1.00  0.00     0.000 C 
ENDROOT
BRANCH   1   2
ATOM      2  C   UNL     1      26.400  42.103   2.073  1.00  0.00     0.000 C 
BRANCH   2   3
ATOM      3  C   UNL     1      25.287  41.193   2.620  1.00  0.00     0.000 C 
BRANCH   3   4
ATOM      4  C   UNL     1      24.751  41.666   3.979  1.00  0.00     0.000 C 
BRANCH   4   5
ATOM      5  C   UNL     1      25.461  40.944   5.131  1.00  0.00     0.000 C 
BRANCH   5   6
ATOM      6  C   UNL     1      26.309  41.926   5.954  1.00  0.00     0.000 C 
BRANCH   6   7
ATOM      7  C   UNL     1      27.803  41.569   5.950  1.00  0.00     0.000 C 
BRANCH   7   8
ATOM      8  C   UNL     1      28.075  40.165   5.386  1.00  0.00     0.000 C 
BRANCH   8   9
ATOM      9  C   UNL     1      28.797  40.204   4.029  1.00  0.00     0.000 C 
BRANCH   9  10
ATOM     10  C   UNL     1      28.453  38.997   3.138  1.00  0.00     0.006 C 
BRANCH  10  11
ATOM     11  C   UNL     1      27.659  37.925   3.897  1.00  0.00     0.053 C 
BRANCH  11  12
ATOM     12  C   UNL     1      26.290  37.736   3.315  1.00  0.00     0.041 C 
ATOM     13  O   UNL     1      25.295  37.583   4.072  1.00  0.00    -0.550 OA
ATOM     14  O   UNL     1      26.114  37.747   1.937  1.00  0.00    -0.550 OA
ENDBRANCH  11  12
ENDBRANCH  10  11
ENDBRANCH   9  10
ENDBRANCH   8   9
ENDBRANCH   7   8
ENDBRANCH   6   7
ENDBRANCH   5   6
ENDBRANCH   4   5
ENDBRANCH   3   4
ENDBRANCH   2   3
ENDBRANCH   1   2
BRANCH   1  15
ATOM     15  C   UNL     1      27.739  44.052   3.051  1.00  0.00     0.000 C 
BRANCH  15  16
ATOM     16  C   UNL     1      27.686  45.101   4.176  1.00  0.00     0.000 C 
BRANCH  16  17
ATOM     17  C   UNL     1      28.901  45.021   5.115  1.00  0.00     0.000 C 
BRANCH  17  18
ATOM     18  C   UNL     1      28.534  45.323   6.579  1.00  0.00    -0.000 C 
BRANCH  18  19
ATOM     19  C   UNL     1      27.015  45.405   6.804  1.00  0.00    -0.000 C 
BRANCH  19  20
ATOM     20  C   UNL     1      26.649  45.880   8.219  1.00  0.00    -0.000 C 
BRANCH  20  21
ATOM     21  C   UNL     1      25.509  45.034   8.804  1.00  0.00    -0.000 C 
BRANCH  21  22
ATOM     22  C   UNL     1      24.554  45.850   9.692  1.00  0.00    -0.000 C 
BRANCH  22  23
ATOM     23  C   UNL     1      23.053  45.600   9.444  1.00  0.00    -0.000 C 
BRANCH  23  24
ATOM     24  C   UNL     1      22.503  46.184   8.130  1.00  0.00    -0.000 C 
BRANCH  24  25
ATOM     25  C   UNL     1      21.008  46.525   8.211  1.00  0.00    -0.003 C 
ATOM     26  C   UNL     1      20.423  46.117   9.560  1.00  0.00     0.004 C 
ENDBRANCH  24  25
ENDBRANCH  23  24
ENDBRANCH  22  23
ENDBRANCH  21  22
ENDBRANCH  20  21
ENDBRANCH  19  20
ENDBRANCH  18  19
ENDBRANCH  17  18
ENDBRANCH  16  17
ENDBRANCH  15  16
ENDBRANCH   1  15
TORSDOF 22
ENDMDL
MODEL 2
REMARK VINA RESULT:    -4.230      3.777      5.658
REMARK INTER + INTRA:         -13.133
REMARK INTER:                  -9.022
REMARK INTRA:                  -4.110
REMARK UNBOUND:                -3.462
REMARK SMILES CCCCCCCCCCCCCCCCCCCCCCCC(=O)[O-]
REMARK SMILES IDX 13 1 14 2 15 3 16 4 17 5 18 6 19 7 20 8 21 9 22 10 23 11
REMARK SMILES IDX 24 12 25 13 26 14 12 15 11 16 10 17 9 18 8 19 7 20 6 21 5 22
REMARK SMILES IDX 4 23 3 24 2 25 1 26
REMARK H PARENT
REMARK Flexibility Score: inf
ROOT
ATOM      1  C   UNL     1      25.886  40.489   2.308  1.00  0.00     0.000 C 
ENDROOT
BRANCH   1   2
ATOM      2  C   UNL     1      27.105  40.907   1.468  1.00  0.00     0.000 C 
BRANCH   2   3
ATOM      3  C   UNL     1      28.425  40.360   2.035  1.00  0.00     0.000 C 
BRANCH   3   4
ATOM      4  C   UNL     1      28.396  38.838   2.237  1.00  0.00     0.000 C 
BRANCH   4   5
ATOM      5  C   UNL     1      28.835  38.464   3.659  1.00  0.00     0.000 C 
BRANCH   5   6
ATOM      6  C   UNL     1      27.725  37.695   4.391  1.00  0.00     0.000 C 
BRANCH   6   7
ATOM      7  C   UNL     1      26.655  37.144   3.436  1.00  0.00     0.000 C 
BRANCH   7   8
ATOM      8  C   UNL     1      25.251  37.131   4.064  1.00  0.00     0.000 C 
BRANCH   8   9
ATOM      9  C   UNL     1      24.605  35.736   4.036  1.00  0.00     0.000 C 
BRANCH   9  10
ATOM     10  C   UNL     1      25.601  34.628   3.646  1.00  0.00     0.006 C 
BRANCH  10  11
ATOM     11  C   UNL     1      26.058  33.807   4.859  1.00  0.00     0.053 C 
BRANCH  11  12
ATOM     12  C   UNL     1      26.836  32.595   4.445  1.00  0.00     0.041 C 
ATOM     13  O   UNL     1      26.512  31.955   3.409  1.00  0.00    -0.550 OA
ATOM     14  O   UNL     1      27.931  32.183   5.195  1.00  0.00    -0.550 OA
ENDBRANCH  11  12
ENDBRANCH  10  11
ENDBRANCH   9  10
ENDBRANCH   8   9
ENDBRANCH   7   8
ENDBRANCH   6   7
ENDBRANCH   5   6
ENDBRANCH   4   5
ENDBRANCH   3   4
ENDBRANCH   2   3
ENDBRANCH   1   2
BRANCH   1  15
ATOM     15  C   UNL     1      25.063  41.694   2.794  1.00  0.00     0.000 C 
BRANCH  15  16
ATOM     16  C   UNL     1      24.768  41.640   4.304  1.00  0.00     0.000 C 
BRANCH  16  17
ATOM     17  C   UNL     1      25.644  40.613   5.041  1.00  0.00     0.000 C 
BRANCH  17  18
ATOM     18  C   UNL     1      26.403  41.231   6.228  1.00  0.00    -0.000 C 
BRANCH  18  19
ATOM     19  C   UNL     1      27.880  40.805   6.273  1.00  0.00    -0.000 C 
BRANCH  19  20
ATOM     20  C   UNL     1      28.802  41.774   5.516  1.00  0.00    -0.000 C 
BRANCH  20  21
ATOM     21  C   UNL     1      28.674  43.199   6.072  1.00  0.00    -0.000 C 
BRANCH  21  22
ATOM     22  C   UNL     1      28.631  44.270   4.967  1.00  0.00    -0.000 C 
BRANCH  22  23
ATOM     23  C   UNL     1      27.705  43.946   3.778  1.00  0.00    -0.000 C 
BRANCH  23  24
ATOM     24  C   UNL     1      28.327  44.168   2.387  1.00  0.00    -0.000 C 
BRANCH  24  25
ATOM     25  C   UNL     1      27.322  44.727   1.369  1.00  0.00    -0.003 C 
ATOM     26  C   UNL     1      26.183  45.464   2.068  1.00  0.00     0.004 C 
ENDBRANCH  24  25
ENDBRANCH  23  24
ENDBRANCH  22  23
ENDBRANCH  21  22
ENDBRANCH  20  21
ENDBRANCH  19  20
ENDBRANCH  18  19
ENDBRANCH  17  18
ENDBRANCH  16  17
ENDBRANCH  15  16
ENDBRANCH   1  15
TORSDOF 22
ENDMDL
MODEL 3
REMARK VINA RESULT:    -4.190      2.306      4.416
REMARK INTER + INTRA:         -13.041
REMARK INTER:                  -9.796
REMARK INTRA:                  -3.244
REMARK UNBOUND:                -3.462
REMARK SMILES CCCCCCCCCCCCCCCCCCCCCCCC(=O)[O-]
REMARK SMILES IDX 13 1 14 2 15 3 16 4 17 5 18 6 19 7 20 8 21 9 22 10 23 11
REMARK SMILES IDX 24 12 25 13 26 14 12 15 11 16 10 17 9 18 8 19 7 20 6 21 5 22
REMARK SMILES IDX 4 23 3 24 2 25 1 26
REMARK H PARENT
REMARK Flexibility Score: inf
ROOT
ATOM      1  C   UNL     1      25.866  42.054  10.014  1.00  0.00     0.000 C 
ENDROOT
BRANCH   1   2
ATOM      2  C   UNL     1      26.190  40.553   9.931  1.00  0.00     0.000 C 
BRANCH   2   3
ATOM      3  C   UNL     1      27.702  40.280   9.863  1.00  0.00     0.000 C 
BRANCH   3   4
ATOM      4  C   UNL     1      28.235  40.259   8.423  1.00  0.00     0.000 C 
BRANCH   4   5
ATOM      5  C   UNL     1      29.445  41.190   8.272  1.00  0.00     0.000 C 
BRANCH   5   6
ATOM      6  C   UNL     1      29.261  42.137   7.076  1.00  0.00     0.000 C 
BRANCH   6   7
ATOM      7  C   UNL     1      28.089  41.730   6.170  1.00  0.00     0.000 C 
BRANCH   7   8
ATOM      8  C   UNL     1      28.555  41.172   4.815  1.00  0.00     0.000 C 
BRANCH   8   9
ATOM      9  C   UNL     1      27.923  39.808   4.490  1.00  0.00     0.000 C 
BRANCH   9  10
ATOM     10  C   UNL     1      26.447  39.720   4.917  1.00  0.00     0.006 C 
BRANCH  10  11
ATOM     11  C   UNL     1      25.497  39.673   3.713  1.00  0.00     0.053 C 
BRANCH  11  12
ATOM     12  C   UNL     1      25.305  41.030   3.106  1.00  0.00     0.041 C 
ATOM     13  O   UNL     1      25.547  41.219   1.885  1.00  0.00    -0.550 OA
ATOM     14  O   UNL     1      24.839  42.080   3.889  1.00  0.00    -0.550 OA
ENDBRANCH  11  12
ENDBRANCH  10  11
ENDBRANCH   9  10
ENDBRANCH   8   9
ENDBRANCH   7   8
ENDBRANCH   6   7
ENDBRANCH   5   6
ENDBRANCH   4   5
ENDBRANCH   3   4
ENDBRANCH   2   3
ENDBRANCH   1   2
BRANCH   1  15
ATOM     15  C   UNL     1      26.992  42.864  10.679  1.00  0.00     0.000 C 
BRANCH  15  16
ATOM     16  C   UNL     1      27.473  44.038   9.807  1.00  0.00     0.000 C 
BRANCH  16  17
ATOM     17  C   UNL     1      26.570  44.276   8.586  1.00  0.00     0.000 C 
BRANCH  17  18
ATOM     18  C   UNL     1      25.932  45.676   8.590  1.00  0.00    -0.000 C 
BRANCH  18  19
ATOM     19  C   UNL     1      24.422  45.638   8.875  1.00  0.00    -0.000 C 
BRANCH  19  20
ATOM     20  C   UNL     1      24.103  45.509  10.373  1.00  0.00    -0.000 C 
BRANCH  20  21
ATOM     21  C   UNL     1      23.103  44.372  10.625  1.00  0.00    -0.000 C 
BRANCH  21  22
ATOM     22  C   UNL     1      21.658  44.873  10.798  1.00  0.00    -0.000 C 
BRANCH  22  23
ATOM     23  C   UNL     1      20.879  45.094   9.486  1.00  0.00    -0.000 C 
BRANCH  23  24
ATOM     24  C   UNL     1      19.942  46.315   9.481  1.00  0.00    -0.000 C 
BRANCH  24  25
ATOM     25  C   UNL     1      19.915  47.039   8.127  1.00  0.00    -0.003 C 
ATOM     26  C   UNL     1      21.302  47.064   7.490  1.00  0.00     0.004 C 
ENDBRANCH  24  25
ENDBRANCH  23  24
ENDBRANCH  22  23
ENDBRANCH  21  22
ENDBRANCH  20  21
ENDBRANCH  19  20
ENDBRANCH  18  19
ENDBRANCH  17  18
ENDBRANCH  16  17
ENDBRANCH  15  16
ENDBRANCH   1  15
TORSDOF 22
ENDMDL
MODEL 4
REMARK VINA RESULT:    -4.115      3.841      7.802
REMARK INTER + INTRA:         -12.869
REMARK INTER:                  -8.628
REMARK INTRA:                  -4.241
REMARK UNBOUND:                -3.462
REMARK SMILES CCCCCCCCCCCCCCCCCCCCCCCC(=O)[O-]
REMARK SMILES IDX 13 1 14 2 15 3 16 4 17 5 18 6 19 7 20 8 21 9 22 10 23 11
REMARK SMILES IDX 24 12 25 13 26 14 12 15 11 16 10 17 9 18 8 19 7 20 6 21 5 22
REMARK SMILES IDX 4 23 3 24 2 25 1 26
REMARK H PARENT
REMARK Flexibility Score: inf
ROOT
ATOM      1  C   UNL     1      26.226  40.716   5.559  1.00  0.00     0.000 C 
ENDROOT
BRANCH   1   2
ATOM      2  C   UNL     1      26.918  42.088   5.505  1.00  0.00     0.000 C 
BRANCH   2   3
ATOM      3  C   UNL     1      28.396  41.985   5.091  1.00  0.00     0.000 C 
BRANCH   3   4
ATOM      4  C   UNL     1      28.823  40.543   4.779  1.00  0.00     0.000 C 
BRANCH   4   5
ATOM      5  C   UNL     1      29.584  40.471   3.449  1.00  0.00     0.000 C 
BRANCH   5   6
ATOM      6  C   UNL     1      29.392  39.101   2.781  1.00  0.00     0.000 C 
BRANCH   6   7
ATOM      7  C   UNL     1      28.158  38.351   3.308  1.00  0.00     0.000 C 
BRANCH   7   8
ATOM      8  C   UNL     1      27.164  37.991   2.192  1.00  0.00     0.000 C 
BRANCH   8   9
ATOM      9  C   UNL     1      25.921  37.257   2.722  1.00  0.00     0.000 C 
BRANCH   9  10
ATOM     10  C   UNL     1      25.936  37.095   4.253  1.00  0.00     0.006 C 
BRANCH  10  11
ATOM     11  C   UNL     1      25.810  35.627   4.681  1.00  0.00     0.053 C 
BRANCH  11  12
ATOM     12  C   UNL     1      25.038  34.823   3.680  1.00  0.00     0.041 C 
ATOM     13  O   UNL     1      25.640  34.054   2.884  1.00  0.00    -0.550 OA
ATOM     14  O   UNL     1      23.652  34.910   3.639  1.00  0.00    -0.550 OA
ENDBRANCH  11  12
ENDBRANCH  10  11
ENDBRANCH   9  10
ENDBRANCH   8   9
ENDBRANCH   7   8
ENDBRANCH   6   7
ENDBRANCH   5   6
ENDBRANCH   4   5
ENDBRANCH   3   4
ENDBRANCH   2   3
ENDBRANCH   1   2
BRANCH   1  15
ATOM     15  C   UNL     1      25.022  40.625   4.607  1.00  0.00     0.000 C 
BRANCH  15  16
ATOM     16  C   UNL     1      24.983  41.777   3.588  1.00  0.00     0.000 C 
BRANCH  16  17
ATOM     17  C   UNL     1      25.214  41.299   2.145  1.00  0.00     0.000 C 
BRANCH  17  18
ATOM     18  C   UNL     1      26.665  41.510   1.680  1.00  0.00    -0.000 C 
BRANCH  18  19
ATOM     19  C   UNL     1      27.133  42.966   1.842  1.00  0.00    -0.000 C 
BRANCH  19  20
ATOM     20  C   UNL     1      28.302  43.322   0.909  1.00  0.00    -0.000 C 
BRANCH  20  21
ATOM     21  C   UNL     1      28.721  42.108   0.067  1.00  0.00    -0.000 C 
BRANCH  21  22
ATOM     22  C   UNL     1      30.240  41.866   0.082  1.00  0.00    -0.000 C 
BRANCH  22  23
ATOM     23  C   UNL     1      30.716  40.640  -0.722  1.00  0.00    -0.000 C 
BRANCH  23  24
ATOM     24  C   UNL     1      31.580  39.637   0.066  1.00  0.00    -0.000 C 
BRANCH  24  25
ATOM     25  C   UNL     1      31.663  38.263  -0.613  1.00  0.00    -0.003 C 
ATOM     26  C   UNL     1      30.311  37.557  -0.596  1.00  0.00     0.004 C 
ENDBRANCH  24  25
ENDBRANCH  23  24
ENDBRANCH  22  23
ENDBRANCH  21  22
ENDBRANCH  20  21
ENDBRANCH  19  20
ENDBRANCH  18  19
ENDBRANCH  17  18
ENDBRANCH  16  17
ENDBRANCH  15  16
ENDBRANCH   1  15
TORSDOF 22
ENDMDL
MODEL 5
REMARK VINA RESULT:    -4.111      2.476      3.960
REMARK INTER + INTRA:         -12.861
REMARK INTER:                  -8.917
REMARK INTRA:                  -3.945
REMARK UNBOUND:                -3.462
REMARK SMILES CCCCCCCCCCCCCCCCCCCCCCCC(=O)[O-]
REMARK SMILES IDX 13 1 14 2 15 3 16 4 17 5 18 6 19 7 20 8 21 9 22 10 23 11
REMARK SMILES IDX 24 12 25 13 26 14 12 15 11 16 10 17 9 18 8 19 7 20 6 21 5 22
REMARK SMILES IDX 4 23 3 24 2 25 1 26
REMARK H PARENT
REMARK Flexibility Score: inf
ROOT
ATOM      1  C   UNL     1      25.859  40.634   5.574  1.00  0.00     0.000 C 
ENDROOT
BRANCH   1   2
ATOM      2  C   UNL     1      25.031  40.261   4.332  1.00  0.00     0.000 C 
BRANCH   2   3
ATOM      3  C   UNL     1      24.738  41.476   3.435  1.00  0.00     0.000 C 
BRANCH   3   4
ATOM      4  C   UNL     1      25.651  41.536   2.203  1.00  0.00     0.000 C 
BRANCH   4   5
ATOM      5  C   UNL     1      26.611  40.340   2.171  1.00  0.00     0.000 C 
BRANCH   5   6
ATOM      6  C   UNL     1      28.059  40.793   2.413  1.00  0.00     0.000 C 
BRANCH   6   7
ATOM      7  C   UNL     1      28.937  39.681   3.009  1.00  0.00     0.000 C 
BRANCH   7   8
ATOM      8  C   UNL     1      28.213  38.326   3.076  1.00  0.00     0.000 C 
BRANCH   8   9
ATOM      9  C   UNL     1      28.064  37.807   4.515  1.00  0.00     0.000 C 
BRANCH   9  10
ATOM     10  C   UNL     1      26.929  36.777   4.660  1.00  0.00     0.006 C 
BRANCH  10  11
ATOM     11  C   UNL     1      25.898  36.889   3.530  1.00  0.00     0.053 C 
BRANCH  11  12
ATOM     12  C   UNL     1      25.073  35.643   3.407  1.00  0.00     0.041 C 
ATOM     13  O   UNL     1      24.485  35.170   4.415  1.00  0.00    -0.550 OA
ATOM     14  O   UNL     1      24.940  35.018   2.173  1.00  0.00    -0.550 OA
ENDBRANCH  11  12
ENDBRANCH  10  11
ENDBRANCH   9  10
ENDBRANCH   8   9
ENDBRANCH   7   8
ENDBRANCH   6   7
ENDBRANCH   5   6
ENDBRANCH   4   5
ENDBRANCH   3   4
ENDBRANCH   2   3
ENDBRANCH   1   2
BRANCH   1  15
ATOM     15  C   UNL     1      26.361  42.086   5.535  1.00  0.00     0.000 C 
BRANCH  15  16
ATOM     16  C   UNL     1      27.851  42.209   5.900  1.00  0.00     0.000 C 
BRANCH  16  17
ATOM     17  C   UNL     1      28.415  40.921   6.520  1.00  0.00     0.000 C 
BRANCH  17  18
ATOM     18  C   UNL     1      28.633  41.043   8.038  1.00  0.00    -0.000 C 
BRANCH  18  19
ATOM     19  C   UNL     1      27.373  40.695   8.847  1.00  0.00    -0.000 C 
BRANCH  19  20
ATOM     20  C   UNL     1      27.565  40.889  10.359  1.00  0.00    -0.000 C 
BRANCH  20  21
ATOM     21  C   UNL     1      26.879  42.176  10.839  1.00  0.00    -0.000 C 
BRANCH  21  22
ATOM     22  C   UNL     1      26.094  42.886   9.722  1.00  0.00    -0.000 C 
BRANCH  22  23
ATOM     23  C   UNL     1      26.604  44.294   9.355  1.00  0.00    -0.000 C 
BRANCH  23  24
ATOM     24  C   UNL     1      26.113  44.833   7.999  1.00  0.00    -0.000 C 
BRANCH  24  25
ATOM     25  C   UNL     1      27.173  45.677   7.276  1.00  0.00    -0.003 C 
ATOM     26  C   UNL     1      28.577  45.334   7.767  1.00  0.00     0.004 C 
ENDBRANCH  24  25
ENDBRANCH  23  24
ENDBRANCH  22  23
ENDBRANCH  21  22
ENDBRANCH  20  21
ENDBRANCH  19  20
ENDBRANCH  18  19
ENDBRANCH  17  18
ENDBRANCH  16  17
ENDBRANCH  15  16
ENDBRANCH   1  15
TORSDOF 22
ENDMDL
MODEL 6
REMARK VINA RESULT:    -4.081      3.183      7.337
REMARK INTER + INTRA:         -12.791
REMARK INTER:                  -8.841
REMARK INTRA:                  -3.950
REMARK UNBOUND:                -3.462
REMARK SMILES CCCCCCCCCCCCCCCCCCCCCCCC(=O)[O-]
REMARK SMILES IDX 13 1 14 2 15 3 16 4 17 5 18 6 19 7 20 8 21 9 22 10 23 11
REMARK SMILES IDX 24 12 25 13 26 14 12 15 11 16 10 17 9 18 8 19 7 20 6 21 5 22
REMARK SMILES IDX 4 23 3 24 2 25 1 26
REMARK H PARENT
REMARK Flexibility Score: inf
ROOT
ATOM      1  C   UNL     1      29.370  39.310   2.061  1.00  0.00     0.000 C 
ENDROOT
BRANCH   1   2
ATOM      2  C   UNL     1      29.272  40.797   2.443  1.00  0.00     0.000 C 
BRANCH   2   3
ATOM      3  C   UNL     1      29.639  41.052   3.914  1.00  0.00     0.000 C 
BRANCH   3   4
ATOM      4  C   UNL     1      28.872  42.237   4.518  1.00  0.00     0.000 C 
BRANCH   4   5
ATOM      5  C   UNL     1      27.942  41.773   5.646  1.00  0.00     0.000 C 
BRANCH   5   6
ATOM      6  C   UNL     1      27.026  42.917   6.106  1.00  0.00     0.000 C 
BRANCH   6   7
ATOM      7  C   UNL     1      27.727  44.285   6.087  1.00  0.00     0.000 C 
BRANCH   7   8
ATOM      8  C   UNL     1      26.954  45.358   6.872  1.00  0.00     0.000 C 
BRANCH   8   9
ATOM      9  C   UNL     1      26.115  44.762   8.014  1.00  0.00     0.000 C 
BRANCH   9  10
ATOM     10  C   UNL     1      26.160  45.619   9.293  1.00  0.00     0.006 C 
BRANCH  10  11
ATOM     11  C   UNL     1      24.940  46.541   9.414  1.00  0.00     0.053 C 
BRANCH  11  12
ATOM     12  C   UNL     1      23.655  45.773   9.337  1.00  0.00     0.041 C 
ATOM     13  O   UNL     1      23.384  44.900  10.204  1.00  0.00    -0.550 OA
ATOM     14  O   UNL     1      22.748  46.037   8.317  1.00  0.00    -0.550 OA
ENDBRANCH  11  12
ENDBRANCH  10  11
ENDBRANCH   9  10
ENDBRANCH   8   9
ENDBRANCH   7   8
ENDBRANCH   6   7
ENDBRANCH   5   6
ENDBRANCH   4   5
ENDBRANCH   3   4
ENDBRANCH   2   3
ENDBRANCH   1   2
BRANCH   1  15
ATOM     15  C   UNL     1      28.061  38.546   2.324  1.00  0.00     0.000 C 
BRANCH  15  16
ATOM     16  C   UNL     1      27.971  38.001   3.761  1.00  0.00     0.000 C 
BRANCH  16  17
ATOM     17  C   UNL     1      26.583  38.212   4.386  1.00  0.00     0.000 C 
BRANCH  17  18
ATOM     18  C   UNL     1      25.651  39.043   3.487  1.00  0.00    -0.000 C 
BRANCH  18  19
ATOM     19  C   UNL     1      24.996  40.216   4.236  1.00  0.00    -0.000 C 
BRANCH  19  20
ATOM     20  C   UNL     1      24.843  41.470   3.361  1.00  0.00    -0.000 C 
BRANCH  20  21
ATOM     21  C   UNL     1      25.673  41.345   2.074  1.00  0.00    -0.000 C 
BRANCH  21  22
ATOM     22  C   UNL     1      26.265  42.688   1.613  1.00  0.00    -0.000 C 
BRANCH  22  23
ATOM     23  C   UNL     1      26.226  43.817   2.662  1.00  0.00    -0.000 C 
BRANCH  23  24
ATOM     24  C   UNL     1      26.299  45.244   2.089  1.00  0.00    -0.000 C 
BRANCH  24  25
ATOM     25  C   UNL     1      27.382  46.100   2.764  1.00  0.00    -0.003 C 
ATOM     26  C   UNL     1      28.753  45.441   2.651  1.00  0.00     0.004 C 
ENDBRANCH  24  25
ENDBRANCH  23  24
ENDBRANCH  22  23
ENDBRANCH  21  22
ENDBRANCH  20  21
ENDBRANCH  19  20
ENDBRANCH  18  19
ENDBRANCH  17  18
ENDBRANCH  16  17
ENDBRANCH  15  16
ENDBRANCH   1  15
TORSDOF 22
ENDMDL
MODEL 7
REMARK VINA RESULT:    -4.068      3.973      6.203
REMARK INTER + INTRA:         -12.761
REMARK INTER:                  -8.430
REMARK INTRA:                  -4.332
REMARK UNBOUND:                -3.462
REMARK SMILES CCCCCCCCCCCCCCCCCCCCCCCC(=O)[O-]
REMARK SMILES IDX 13 1 14 2 15 3 16 4 17 5 18 6 19 7 20 8 21 9 22 10 23 11
REMARK SMILES IDX 24 12 25 13 26 14 12 15 11 16 10 17 9 18 8 19 7 20 6 21 5 22
REMARK SMILES IDX 4 23 3 24 2 25 1 26
REMARK H PARENT
REMARK Flexibility Score: inf
ROOT
ATOM      1  C   UNL     1      28.701  38.778   1.726  1.00  0.00     0.000 C 
ENDROOT
BRANCH   1   2
ATOM      2  C   UNL     1      27.386  38.197   2.273  1.00  0.00     0.000 C 
BRANCH   2   3
ATOM      3  C   UNL     1      27.451  37.914   3.783  1.00  0.00     0.000 C 
BRANCH   3   4
ATOM      4  C   UNL     1      26.419  38.722   4.582  1.00  0.00     0.000 C 
BRANCH   4   5
ATOM      5  C   UNL     1      25.453  39.459   3.645  1.00  0.00     0.000 C 
BRANCH   5   6
ATOM      6  C   UNL     1      25.177  40.882   4.152  1.00  0.00     0.000 C 
BRANCH   6   7
ATOM      7  C   UNL     1      25.724  41.966   3.210  1.00  0.00     0.000 C 
BRANCH   7   8
ATOM      8  C   UNL     1      25.764  41.509   1.742  1.00  0.00     0.000 C 
BRANCH   8   9
ATOM      9  C   UNL     1      26.969  42.082   0.978  1.00  0.00     0.000 C 
BRANCH   9  10
ATOM     10  C   UNL     1      27.579  43.314   1.670  1.00  0.00     0.006 C 
BRANCH  10  11
ATOM     11  C   UNL     1      27.027  44.628   1.103  1.00  0.00     0.053 C 
BRANCH  11  12
ATOM     12  C   UNL     1      26.770  45.633   2.185  1.00  0.00     0.041 C 
ATOM     13  O   UNL     1      27.003  45.344   3.389  1.00  0.00    -0.550 OA
ATOM     14  O   UNL     1      26.291  46.897   1.860  1.00  0.00    -0.550 OA
ENDBRANCH  11  12
ENDBRANCH  10  11
ENDBRANCH   9  10
ENDBRANCH   8   9
ENDBRANCH   7   8
ENDBRANCH   6   7
ENDBRANCH   5   6
ENDBRANCH   4   5
ENDBRANCH   3   4
ENDBRANCH   2   3
ENDBRANCH   1   2
BRANCH   1  15
ATOM     15  C   UNL     1      29.698  39.132   2.842  1.00  0.00     0.000 C 
BRANCH  15  16
ATOM     16  C   UNL     1      29.925  40.649   2.976  1.00  0.00     0.000 C 
BRANCH  16  17
ATOM     17  C   UNL     1      29.251  41.239   4.225  1.00  0.00     0.000 C 
BRANCH  17  18
ATOM     18  C   UNL     1      29.752  42.657   4.550  1.00  0.00    -0.000 C 
BRANCH  18  19
ATOM     19  C   UNL     1      29.322  43.130   5.948  1.00  0.00    -0.000 C 
BRANCH  19  20
ATOM     20  C   UNL     1      27.797  43.113   6.139  1.00  0.00    -0.000 C 
BRANCH  20  21
ATOM     21  C   UNL     1      27.422  42.535   7.512  1.00  0.00    -0.000 C 
BRANCH  21  22
ATOM     22  C   UNL     1      26.994  41.059   7.442  1.00  0.00    -0.000 C 
BRANCH  22  23
ATOM     23  C   UNL     1      28.140  40.037   7.576  1.00  0.00    -0.000 C 
BRANCH  23  24
ATOM     24  C   UNL     1      29.004  40.187   8.841  1.00  0.00    -0.000 C 
BRANCH  24  25
ATOM     25  C   UNL     1      29.290  38.843   9.528  1.00  0.00    -0.003 C 
ATOM     26  C   UNL     1      30.758  38.734   9.932  1.00  0.00     0.004 C 
ENDBRANCH  24  25
ENDBRANCH  23  24
ENDBRANCH  22  23
ENDBRANCH  21  22
ENDBRANCH  20  21
ENDBRANCH  19  20
ENDBRANCH  18  19
ENDBRANCH  17  18
ENDBRANCH  16  17
ENDBRANCH  15  16
ENDBRANCH   1  15
TORSDOF 22
ENDMDL
MODEL 8
REMARK VINA RESULT:    -4.047      3.558      5.895
REMARK INTER + INTRA:         -12.714
REMARK INTER:                  -9.297
REMARK INTRA:                  -3.417
REMARK UNBOUND:                -3.462
REMARK SMILES CCCCCCCCCCCCCCCCCCCCCCCC(=O)[O-]
REMARK SMILES IDX 13 1 14 2 15 3 16 4 17 5 18 6 19 7 20 8 21 9 22 10 23 11
REMARK SMILES IDX 24 12 25 13 26 14 12 15 11 16 10 17 9 18 8 19 7 20 6 21 5 22
REMARK SMILES IDX 4 23 3 24 2 25 1 26
REMARK H PARENT
REMARK Flexibility Score: inf
ROOT
ATOM      1  C   UNL     1      29.174  41.574   2.591  1.00  0.00     0.000 C 
ENDROOT
BRANCH   1   2
ATOM      2  C   UNL     1      29.107  40.421   3.607  1.00  0.00     0.000 C 
BRANCH   2   3
ATOM      3  C   UNL     1      29.064  39.042   2.929  1.00  0.00     0.000 C 
BRANCH   3   4
ATOM      4  C   UNL     1      27.797  38.249   3.280  1.00  0.00     0.000 C 
BRANCH   4   5
ATOM      5  C   UNL     1      26.913  38.050   2.043  1.00  0.00     0.000 C 
BRANCH   5   6
ATOM      6  C   UNL     1      25.861  36.957   2.291  1.00  0.00     0.000 C 
BRANCH   6   7
ATOM      7  C   UNL     1      25.572  36.739   3.785  1.00  0.00     0.000 C 
BRANCH   7   8
ATOM      8  C   UNL     1      24.492  35.672   4.029  1.00  0.00     0.000 C 
BRANCH   8   9
ATOM      9  C   UNL     1      24.345  34.701   2.846  1.00  0.00     0.000 C 
BRANCH   9  10
ATOM     10  C   UNL     1      23.576  33.421   3.221  1.00  0.00     0.006 C 
BRANCH  10  11
ATOM     11  C   UNL     1      23.797  33.021   4.686  1.00  0.00     0.053 C 
BRANCH  11  12
ATOM     12  C   UNL     1      24.995  32.133   4.842  1.00  0.00     0.041 C 
ATOM     13  O   UNL     1      25.359  31.387   3.895  1.00  0.00    -0.550 OA
ATOM     14  O   UNL     1      25.718  32.145   6.029  1.00  0.00    -0.550 OA
ENDBRANCH  11  12
ENDBRANCH  10  11
ENDBRANCH   9  10
ENDBRANCH   8   9
ENDBRANCH   7   8
ENDBRANCH   6   7
ENDBRANCH   5   6
ENDBRANCH   4   5
ENDBRANCH   3   4
ENDBRANCH   2   3
ENDBRANCH   1   2
BRANCH   1  15
ATOM     15  C   UNL     1      28.042  41.512   1.552  1.00  0.00     0.000 C 
BRANCH  15  16
ATOM     16  C   UNL     1      26.785  42.279   1.997  1.00  0.00     0.000 C 
BRANCH  16  17
ATOM     17  C   UNL     1      25.542  41.378   2.081  1.00  0.00     0.000 C 
BRANCH  17  18
ATOM     18  C   UNL     1      24.763  41.570   3.394  1.00  0.00    -0.000 C 
BRANCH  18  19
ATOM     19  C   UNL     1      24.773  40.312   4.278  1.00  0.00    -0.000 C 
BRANCH  19  20
ATOM     20  C   UNL     1      25.901  40.328   5.322  1.00  0.00    -0.000 C 
BRANCH  20  21
ATOM     21  C   UNL     1      26.246  41.766   5.734  1.00  0.00    -0.000 C 
BRANCH  21  22
ATOM     22  C   UNL     1      27.611  41.876   6.435  1.00  0.00    -0.000 C 
BRANCH  22  23
ATOM     23  C   UNL     1      27.978  40.686   7.345  1.00  0.00    -0.000 C 
BRANCH  23  24
ATOM     24  C   UNL     1      27.843  40.954   8.856  1.00  0.00    -0.000 C 
BRANCH  24  25
ATOM     25  C   UNL     1      26.387  40.905   9.340  1.00  0.00    -0.003 C 
ATOM     26  C   UNL     1      25.948  42.256   9.899  1.00  0.00     0.004 C 
ENDBRANCH  24  25
ENDBRANCH  23  24
ENDBRANCH  22  23
ENDBRANCH  21  22
ENDBRANCH  20  21
ENDBRANCH  19  20
ENDBRANCH  18  19
ENDBRANCH  17  18
ENDBRANCH  16  17
ENDBRANCH  15  16
ENDBRANCH   1  15
TORSDOF 22
ENDMDL
MODEL 9
REMARK VINA RESULT:    -3.999      3.592      5.632
REMARK INTER + INTRA:         -12.604
REMARK INTER:                  -8.119
REMARK INTRA:                  -4.485
REMARK UNBOUND:                -3.462
REMARK SMILES CCCCCCCCCCCCCCCCCCCCCCCC(=O)[O-]
REMARK SMILES IDX 13 1 14 2 15 3 16 4 17 5 18 6 19 7 20 8 21 9 22 10 23 11
REMARK SMILES IDX 24 12 25 13 26 14 12 15 11 16 10 17 9 18 8 19 7 20 6 21 5 22
REMARK SMILES IDX 4 23 3 24 2 25 1 26
REMARK H PARENT
REMARK Flexibility Score: inf
ROOT
ATOM      1  C   UNL     1      27.813  38.583   2.183  1.00  0.00     0.000 C 
ENDROOT
BRANCH   1   2
ATOM      2  C   UNL     1      26.312  38.869   2.362  1.00  0.00     0.000 C 
BRANCH   2   3
ATOM      3  C   UNL     1      25.937  40.307   1.967  1.00  0.00     0.000 C 
BRANCH   3   4
ATOM      4  C   UNL     1      25.421  41.130   3.156  1.00  0.00     0.000 C 
BRANCH   4   5
ATOM      5  C   UNL     1      25.992  42.553   3.128  1.00  0.00     0.000 C 
BRANCH   5   6
ATOM      6  C   UNL     1      26.917  42.748   1.917  1.00  0.00     0.000 C 
BRANCH   6   7
ATOM      7  C   UNL     1      28.370  43.045   2.321  1.00  0.00     0.000 C 
BRANCH   7   8
ATOM      8  C   UNL     1      29.339  41.922   1.912  1.00  0.00     0.000 C 
BRANCH   8   9
ATOM      9  C   UNL     1      29.234  41.567   0.420  1.00  0.00     0.000 C 
BRANCH   9  10
ATOM     10  C   UNL     1      30.578  41.110  -0.177  1.00  0.00     0.006 C 
BRANCH  10  11
ATOM     11  C   UNL     1      30.444  39.803  -0.971  1.00  0.00     0.053 C 
BRANCH  11  12
ATOM     12  C   UNL     1      30.594  38.601  -0.088  1.00  0.00     0.041 C 
ATOM     13  O   UNL     1      30.065  37.506  -0.412  1.00  0.00    -0.550 OA
ATOM     14  O   UNL     1      31.337  38.689   1.084  1.00  0.00    -0.550 OA
ENDBRANCH  11  12
ENDBRANCH  10  11
ENDBRANCH   9  10
ENDBRANCH   8   9
ENDBRANCH   7   8
ENDBRANCH   6   7
ENDBRANCH   5   6
ENDBRANCH   4   5
ENDBRANCH   3   4
ENDBRANCH   2   3
ENDBRANCH   1   2
BRANCH   1  15
ATOM     15  C   UNL     1      28.596  38.695   3.501  1.00  0.00     0.000 C 
BRANCH  15  16
ATOM     16  C   UNL     1      27.737  38.355   4.732  1.00  0.00     0.000 C 
BRANCH  16  17
ATOM     17  C   UNL     1      27.666  39.512   5.742  1.00  0.00     0.000 C 
BRANCH  17  18
ATOM     18  C   UNL     1      28.507  40.725   5.308  1.00  0.00    -0.000 C 
BRANCH  18  19
ATOM     19  C   UNL     1      28.232  41.973   6.163  1.00  0.00    -0.000 C 
BRANCH  19  20
ATOM     20  C   UNL     1      26.795  42.016   6.707  1.00  0.00    -0.000 C 
BRANCH  20  21
ATOM     21  C   UNL     1      26.790  42.245   8.225  1.00  0.00    -0.000 C 
BRANCH  21  22
ATOM     22  C   UNL     1      26.295  41.019   9.012  1.00  0.00    -0.000 C 
BRANCH  22  23
ATOM     23  C   UNL     1      27.347  40.358   9.925  1.00  0.00    -0.000 C 
BRANCH  23  24
ATOM     24  C   UNL     1      28.396  39.499   9.196  1.00  0.00    -0.000 C 
BRANCH  24  25
ATOM     25  C   UNL     1      29.791  40.140   9.193  1.00  0.00    -0.003 C 
ATOM     26  C   UNL     1      29.840  41.356  10.113  1.00  0.00     0.004 C 
ENDBRANCH  24  25
ENDBRANCH  23  24
ENDBRANCH  22  23
ENDBRANCH  21  22
ENDBRANCH  20  21
ENDBRANCH  19  20
ENDBRANCH  18  19
ENDBRANCH  17  18
ENDBRANCH  16  17
ENDBRANCH  15  16
ENDBRANCH   1  15
TORSDOF 22
ENDMDL
