MODEL 1
REMARK VINA RESULT:    -2.565      0.000      0.000
REMARK INTER + INTRA:          -4.582
REMARK INTER:                  -4.064
REMARK INTRA:                  -0.518
REMARK UNBOUND:                -0.518
REMARK SMILES CCCCCCCCCCCC(=O)[O-]
REMARK SMILES IDX 7 1 8 2 9 3 10 4 11 5 12 6 13 7 14 8 6 9 5 10 4 11 3 12 2 13
REMARK SMILES IDX 1 14
REMARK H PARENT
REMARK Flexibility Score: inf
ROOT
ATOM      1  C   UNL     1     -17.734  34.986 -19.896  1.00  0.00     0.000 C 
ENDROOT
BRANCH   1   2
ATOM      2  C   UNL     1     -17.506  33.601 -19.268  1.00  0.00     0.000 C 
BRANCH   2   3
ATOM      3  C   UNL     1     -16.023  33.186 -19.248  1.00  0.00     0.000 C 
BRANCH   3   4
ATOM      4  C   UNL     1     -15.040  34.252 -19.766  1.00  0.00     0.006 C 
BRANCH   4   5
ATOM      5  C   UNL     1     -13.988  34.654 -18.724  1.00  0.00     0.053 C 
BRANCH   5   6
ATOM      6  C   UNL     1     -14.628  35.398 -17.595  1.00  0.00     0.041 C 
ATOM      7  O   UNL     1     -15.634  36.125 -17.806  1.00  0.00    -0.550 OA
ATOM      8  O   UNL     1     -14.084  35.329 -16.320  1.00  0.00    -0.550 OA
ENDBRANCH   5   6
ENDBRANCH   4   5
ENDBRANCH   3   4
ENDBRANCH   2   3
ENDBRANCH   1   2
BRANCH   1   9
ATOM      9  C   UNL     1     -18.768  34.955 -21.033  1.00  0.00     0.000 C 
BRANCH   9  10
ATOM     10  C   UNL     1     -20.105  35.608 -20.639  1.00  0.00    -0.000 C 
BRANCH  10  11
ATOM     11  C   UNL     1     -20.771  34.909 -19.443  1.00  0.00    -0.000 C 
BRANCH  11  12
ATOM     12  C   UNL     1     -21.061  35.875 -18.281  1.00  0.00    -0.000 C 
BRANCH  12  13
ATOM     13  C   UNL     1     -19.829  36.120 -17.398  1.00  0.00    -0.003 C 
ATOM     14  C   UNL     1     -20.012  35.602 -15.971  1.00  0.00     0.004 C 
ENDBRANCH  12  13
ENDBRANCH  11  12
ENDBRANCH  10  11
ENDBRANCH   9  10
ENDBRANCH   1   9
TORSDOF 10
ENDMDL
MODEL 2
REMARK VINA RESULT:    -2.056      1.883      5.028
REMARK INTER + INTRA:          -3.776
REMARK INTER:                  -3.178
REMARK INTRA:                  -0.598
REMARK UNBOUND:                -0.518
REMARK SMILES CCCCCCCCCCCC(=O)[O-]
REMARK SMILES IDX 7 1 8 2 9 3 10 4 11 5 12 6 13 7 14 8 6 9 5 10 4 11 3 12 2 13
REMARK SMILES IDX 1 14
REMARK H PARENT
REMARK Flexibility Score: inf
ROOT
ATOM      1  C   UNL     1     -17.914  34.741 -20.652  1.00  0.00     0.000 C 
ENDROOT
BRANCH   1   2
ATOM      2  C   UNL     1     -19.422  34.651 -20.942  1.00  0.00     0.000 C 
BRANCH   2   3
ATOM      3  C   UNL     1     -20.205  33.922 -19.835  1.00  0.00     0.000 C 
BRANCH   3   4
ATOM      4  C   UNL     1     -21.122  34.820 -18.983  1.00  0.00     0.006 C 
BRANCH   4   5
ATOM      5  C   UNL     1     -20.445  36.125 -18.546  1.00  0.00     0.053 C 
BRANCH   5   6
ATOM      6  C   UNL     1     -19.963  36.017 -17.134  1.00  0.00     0.041 C 
ATOM      7  O   UNL     1     -18.734  35.882 -16.893  1.00  0.00    -0.550 OA
ATOM      8  O   UNL     1     -20.874  36.015 -16.087  1.00  0.00    -0.550 OA
ENDBRANCH   5   6
ENDBRANCH   4   5
ENDBRANCH   3   4
ENDBRANCH   2   3
ENDBRANCH   1   2
BRANCH   1   9
ATOM      9  C   UNL     1     -17.459  33.739 -19.580  1.00  0.00     0.000 C 
BRANCH   9  10
ATOM     10  C   UNL     1     -16.035  33.208 -19.828  1.00  0.00    -0.000 C 
BRANCH  10  11
ATOM     11  C   UNL     1     -14.977  33.953 -19.000  1.00  0.00    -0.000 C 
BRANCH  11  12
ATOM     12  C   UNL     1     -15.536  35.220 -18.329  1.00  0.00    -0.000 C 
BRANCH  12  13
ATOM     13  C   UNL     1     -14.435  36.090 -17.705  1.00  0.00    -0.003 C 
ATOM     14  C   UNL     1     -14.007  35.599 -16.322  1.00  0.00     0.004 C 
ENDBRANCH  12  13
ENDBRANCH  11  12
ENDBRANCH  10  11
ENDBRANCH   9  10
ENDBRANCH   1   9
TORSDOF 10
ENDMDL
MODEL 3
REMARK VINA RESULT:    -1.754      0.949      1.398
REMARK INTER + INTRA:          -3.298
REMARK INTER:                  -3.395
REMARK INTRA:                   0.097
REMARK UNBOUND:                -0.518
REMARK SMILES CCCCCCCCCCCC(=O)[O-]
REMARK SMILES IDX 7 1 8 2 9 3 10 4 11 5 12 6 13 7 14 8 6 9 5 10 4 11 3 12 2 13
REMARK SMILES IDX 1 14
REMARK H PARENT
REMARK Flexibility Score: inf
ROOT
ATOM      1  C   UNL     1     -17.409  34.792 -19.304  1.00  0.00     0.000 C 
ENDROOT
BRANCH   1   2
ATOM      2  C   UNL     1     -17.054  33.298 -19.396  1.00  0.00     0.000 C 
BRANCH   2   3
ATOM      3  C   UNL     1     -15.545  33.029 -19.244  1.00  0.00     0.000 C 
BRANCH   3   4
ATOM      4  C   UNL     1     -14.631  34.222 -19.581  1.00  0.00     0.006 C 
BRANCH   4   5
ATOM      5  C   UNL     1     -13.694  34.603 -18.429  1.00  0.00     0.053 C 
BRANCH   5   6
ATOM      6  C   UNL     1     -14.416  35.443 -17.423  1.00  0.00     0.041 C 
ATOM      7  O   UNL     1     -15.416  36.125 -17.769  1.00  0.00    -0.550 OA
ATOM      8  O   UNL     1     -13.955  35.511 -16.115  1.00  0.00    -0.550 OA
ENDBRANCH   5   6
ENDBRANCH   4   5
ENDBRANCH   3   4
ENDBRANCH   2   3
ENDBRANCH   1   2
BRANCH   1   9
ATOM      9  C   UNL     1     -17.311  35.507 -20.661  1.00  0.00     0.000 C 
BRANCH   9  10
ATOM     10  C   UNL     1     -18.649  36.124 -21.107  1.00  0.00    -0.000 C 
BRANCH  10  11
ATOM     11  C   UNL     1     -19.760  35.936 -20.062  1.00  0.00    -0.000 C 
BRANCH  11  12
ATOM     12  C   UNL     1     -20.547  34.629 -20.265  1.00  0.00    -0.000 C 
BRANCH  12  13
ATOM     13  C   UNL     1     -20.857  33.917 -18.940  1.00  0.00    -0.003 C 
ATOM     14  C   UNL     1     -20.551  34.783 -17.718  1.00  0.00     0.004 C 
ENDBRANCH  12  13
ENDBRANCH  11  12
ENDBRANCH  10  11
ENDBRANCH   9  10
ENDBRANCH   1   9
TORSDOF 10
ENDMDL
MODEL 4
REMARK VINA RESULT:    -1.507      2.474      5.560
REMARK INTER + INTRA:          -2.907
REMARK INTER:                  -2.975
REMARK INTRA:                   0.068
REMARK UNBOUND:                -0.518
REMARK SMILES CCCCCCCCCCCC(=O)[O-]
REMARK SMILES IDX 7 1 8 2 9 3 10 4 11 5 12 6 13 7 14 8 6 9 5 10 4 11 3 12 2 13
REMARK SMILES IDX 1 14
REMARK H PARENT
REMARK Flexibility Score: inf
ROOT
ATOM      1  C   UNL     1     -17.635  34.487 -18.505  1.00  0.00     0.000 C 
ENDROOT
BRANCH   1   2
ATOM      2  C   UNL     1     -17.999  34.265 -19.983  1.00  0.00     0.000 C 
BRANCH   2   3
ATOM      3  C   UNL     1     -18.505  35.544 -20.676  1.00  0.00     0.000 C 
BRANCH   3   4
ATOM      4  C   UNL     1     -20.002  35.544 -21.034  1.00  0.00     0.006 C 
BRANCH   4   5
ATOM      5  C   UNL     1     -20.886  36.105 -19.913  1.00  0.00     0.053 C 
BRANCH   5   6
ATOM      6  C   UNL     1     -20.850  35.205 -18.718  1.00  0.00     0.041 C 
ATOM      7  O   UNL     1     -20.525  35.663 -17.591  1.00  0.00    -0.550 OA
ATOM      8  O   UNL     1     -21.125  33.852 -18.859  1.00  0.00    -0.550 OA
ENDBRANCH   5   6
ENDBRANCH   4   5
ENDBRANCH   3   4
ENDBRANCH   2   3
ENDBRANCH   1   2
BRANCH   1   9
ATOM      9  C   UNL     1     -17.119  35.909 -18.232  1.00  0.00     0.000 C 
BRANCH   9  10
ATOM     10  C   UNL     1     -15.678  36.125 -18.728  1.00  0.00    -0.000 C 
BRANCH  10  11
ATOM     11  C   UNL     1     -14.645  35.365 -17.881  1.00  0.00    -0.000 C 
BRANCH  11  12
ATOM     12  C   UNL     1     -13.920  34.267 -18.679  1.00  0.00    -0.000 C 
BRANCH  12  13
ATOM     13  C   UNL     1     -14.858  33.519 -19.638  1.00  0.00    -0.003 C 
ATOM     14  C   UNL     1     -15.003  32.039 -19.288  1.00  0.00     0.004 C 
ENDBRANCH  12  13
ENDBRANCH  11  12
ENDBRANCH  10  11
ENDBRANCH   9  10
ENDBRANCH   1   9
TORSDOF 10
ENDMDL
MODEL 5
REMARK VINA RESULT:    -1.091      2.332      5.388
REMARK INTER + INTRA:          -2.248
REMARK INTER:                  -1.691
REMARK INTRA:                  -0.557
REMARK UNBOUND:                -0.518
REMARK SMILES CCCCCCCCCCCC(=O)[O-]
REMARK SMILES IDX 7 1 8 2 9 3 10 4 11 5 12 6 13 7 14 8 6 9 5 10 4 11 3 12 2 13
REMARK SMILES IDX 1 14
REMARK H PARENT
REMARK Flexibility Score: inf
ROOT
ATOM      1  C   UNL     1     -17.494  34.004 -19.681  1.00  0.00     0.000 C 
ENDROOT
BRANCH   1   2
ATOM      2  C   UNL     1     -17.651  34.837 -20.965  1.00  0.00     0.000 C 
BRANCH   2   3
ATOM      3  C   UNL     1     -18.559  36.066 -20.777  1.00  0.00     0.000 C 
BRANCH   3   4
ATOM      4  C   UNL     1     -20.059  35.812 -21.008  1.00  0.00     0.006 C 
BRANCH   4   5
ATOM      5  C   UNL     1     -20.917  36.125 -19.775  1.00  0.00     0.053 C 
BRANCH   5   6
ATOM      6  C   UNL     1     -20.638  35.143 -18.682  1.00  0.00     0.041 C 
ATOM      7  O   UNL     1     -20.930  33.928 -18.832  1.00  0.00    -0.550 OA
ATOM      8  O   UNL     1     -20.102  35.578 -17.477  1.00  0.00    -0.550 OA
ENDBRANCH   5   6
ENDBRANCH   4   5
ENDBRANCH   3   4
ENDBRANCH   2   3
ENDBRANCH   1   2
BRANCH   1   9
ATOM      9  C   UNL     1     -16.121  33.322 -19.584  1.00  0.00     0.000 C 
BRANCH   9  10
ATOM     10  C   UNL     1     -15.025  34.264 -19.055  1.00  0.00    -0.000 C 
BRANCH  10  11
ATOM     11  C   UNL     1     -15.603  35.494 -18.337  1.00  0.00    -0.000 C 
BRANCH  11  12
ATOM     12  C   UNL     1     -14.605  36.125 -17.350  1.00  0.00    -0.000 C 
BRANCH  12  13
ATOM     13  C   UNL     1     -13.986  35.092 -16.397  1.00  0.00    -0.003 C 
ATOM     14  C   UNL     1     -13.319  35.734 -15.182  1.00  0.00     0.004 C 
ENDBRANCH  12  13
ENDBRANCH  11  12
ENDBRANCH  10  11
ENDBRANCH   9  10
ENDBRANCH   1   9
TORSDOF 10
ENDMDL
MODEL 6
REMARK VINA RESULT:    -0.915      2.575      5.650
REMARK INTER + INTRA:          -1.968
REMARK INTER:                  -1.341
REMARK INTRA:                  -0.627
REMARK UNBOUND:                -0.518
REMARK SMILES CCCCCCCCCCCC(=O)[O-]
REMARK SMILES IDX 7 1 8 2 9 3 10 4 11 5 12 6 13 7 14 8 6 9 5 10 4 11 3 12 2 13
REMARK SMILES IDX 1 14
REMARK H PARENT
REMARK Flexibility Score: inf
ROOT
ATOM      1  C   UNL     1     -18.605  35.216 -17.432  1.00  0.00     0.000 C 
ENDROOT
BRANCH   1   2
ATOM      2  C   UNL     1     -19.994  35.767 -17.066  1.00  0.00     0.000 C 
BRANCH   2   3
ATOM      3  C   UNL     1     -21.047  35.519 -18.162  1.00  0.00     0.000 C 
BRANCH   3   4
ATOM      4  C   UNL     1     -21.054  34.097 -18.751  1.00  0.00     0.006 C 
BRANCH   4   5
ATOM      5  C   UNL     1     -21.111  34.083 -20.284  1.00  0.00     0.053 C 
BRANCH   5   6
ATOM      6  C   UNL     1     -19.889  34.727 -20.858  1.00  0.00     0.041 C 
ATOM      7  O   UNL     1     -18.849  34.045 -21.059  1.00  0.00    -0.550 OA
ATOM      8  O   UNL     1     -19.881  36.089 -21.125  1.00  0.00    -0.550 OA
ENDBRANCH   5   6
ENDBRANCH   4   5
ENDBRANCH   3   4
ENDBRANCH   2   3
ENDBRANCH   1   2
BRANCH   1   9
ATOM      9  C   UNL     1     -17.862  36.110 -18.437  1.00  0.00     0.000 C 
BRANCH   9  10
ATOM     10  C   UNL     1     -16.333  35.948 -18.359  1.00  0.00    -0.000 C 
BRANCH  10  11
ATOM     11  C   UNL     1     -15.740  35.334 -19.636  1.00  0.00    -0.000 C 
BRANCH  11  12
ATOM     12  C   UNL     1     -14.456  34.530 -19.364  1.00  0.00    -0.000 C 
BRANCH  12  13
ATOM     13  C   UNL     1     -14.730  33.221 -18.608  1.00  0.00    -0.003 C 
ATOM     14  C   UNL     1     -15.503  32.205 -19.447  1.00  0.00     0.004 C 
ENDBRANCH  12  13
ENDBRANCH  11  12
ENDBRANCH  10  11
ENDBRANCH   9  10
ENDBRANCH   1   9
TORSDOF 10
ENDMDL
