MODEL 1
REMARK VINA RESULT:    -3.561      0.000      0.000
REMARK INTER + INTRA:         -11.050
REMARK INTER:                  -9.389
REMARK INTRA:                  -1.661
REMARK UNBOUND:                -1.661
REMARK SMILES CCCCCCCCCCCCCCCCCCCCCCCCCCCCCC(=O)[O-]
REMARK SMILES IDX 16 1 17 2 18 3 19 4 20 5 21 6 22 7 23 8 24 9 25 10 26 11
REMARK SMILES IDX 27 12 28 13 29 14 30 15 31 16 32 17 15 18 14 19 13 20 12 21
REMARK SMILES IDX 11 22 10 23 9 24 8 25 7 26 6 27 5 28 4 29 3 30 2 31 1 32
REMARK H PARENT
REMARK Flexibility Score: inf
ROOT
ATOM      1  C   UNL     1       3.628  26.221  25.133  1.00  0.00     0.000 C 
ENDROOT
BRANCH   1   2
ATOM      2  C   UNL     1       4.137  24.969  24.391  1.00  0.00     0.000 C 
BRANCH   2   3
ATOM      3  C   UNL     1       5.106  25.273  23.230  1.00  0.00     0.000 C 
BRANCH   3   4
ATOM      4  C   UNL     1       6.360  24.378  23.255  1.00  0.00     0.000 C 
BRANCH   4   5
ATOM      5  C   UNL     1       7.624  25.147  23.682  1.00  0.00     0.000 C 
BRANCH   5   6
ATOM      6  C   UNL     1       8.730  25.188  22.611  1.00  0.00     0.000 C 
BRANCH   6   7
ATOM      7  C   UNL     1       8.742  26.509  21.826  1.00  0.00     0.000 C 
BRANCH   7   8
ATOM      8  C   UNL     1       9.121  26.272  20.358  1.00  0.00     0.000 C 
BRANCH   8   9
ATOM      9  C   UNL     1       8.814  27.511  19.504  1.00  0.00     0.000 C 
BRANCH   9  10
ATOM     10  C   UNL     1       8.602  27.176  18.018  1.00  0.00     0.000 C 
BRANCH  10  11
ATOM     11  C   UNL     1       8.032  28.347  17.192  1.00  0.00     0.000 C 
BRANCH  11  12
ATOM     12  C   UNL     1       6.915  27.891  16.235  1.00  0.00     0.000 C 
BRANCH  12  13
ATOM     13  C   UNL     1       5.515  28.314  16.713  1.00  0.00     0.006 C 
BRANCH  13  14
ATOM     14  C   UNL     1       5.405  28.354  18.244  1.00  0.00     0.053 C 
BRANCH  14  15
ATOM     15  C   UNL     1       4.257  29.211  18.691  1.00  0.00     0.041 C 
ATOM     16  O   UNL     1       3.259  28.682  19.254  1.00  0.00    -0.550 OA
ATOM     17  O   UNL     1       4.253  30.579  18.435  1.00  0.00    -0.550 OA
ENDBRANCH  14  15
ENDBRANCH  13  14
ENDBRANCH  12  13
ENDBRANCH  11  12
ENDBRANCH  10  11
ENDBRANCH   9  10
ENDBRANCH   8   9
ENDBRANCH   7   8
ENDBRANCH   6   7
ENDBRANCH   5   6
ENDBRANCH   4   5
ENDBRANCH   3   4
ENDBRANCH   2   3
ENDBRANCH   1   2
BRANCH   1  18
ATOM     18  C   UNL     1       4.272  26.479  26.506  1.00  0.00     0.000 C 
BRANCH  18  19
ATOM     19  C   UNL     1       5.731  25.996  26.580  1.00  0.00     0.000 C 
BRANCH  19  20
ATOM     20  C   UNL     1       6.509  26.666  27.725  1.00  0.00     0.000 C 
BRANCH  20  21
ATOM     21  C   UNL     1       7.826  25.939  28.038  1.00  0.00     0.000 C 
BRANCH  21  22
ATOM     22  C   UNL     1       7.956  25.544  29.520  1.00  0.00     0.000 C 
BRANCH  22  23
ATOM     23  C   UNL     1       8.815  24.294  29.793  1.00  0.00     0.000 C 
BRANCH  23  24
ATOM     24  C   UNL     1       8.555  23.603  31.144  1.00  0.00    -0.000 C 
BRANCH  24  25
ATOM     25  C   UNL     1       7.385  24.235  31.916  1.00  0.00    -0.000 C 
BRANCH  25  26
ATOM     26  C   UNL     1       6.661  23.229  32.827  1.00  0.00    -0.000 C 
BRANCH  26  27
ATOM     27  C   UNL     1       5.501  23.815  33.660  1.00  0.00    -0.000 C 
BRANCH  27  28
ATOM     28  C   UNL     1       4.314  22.846  33.848  1.00  0.00    -0.000 C 
BRANCH  28  29
ATOM     29  C   UNL     1       2.999  23.429  33.305  1.00  0.00    -0.000 C 
BRANCH  29  30
ATOM     30  C   UNL     1       2.315  22.447  32.344  1.00  0.00    -0.000 C 
BRANCH  30  31
ATOM     31  C   UNL     1       2.649  22.734  30.872  1.00  0.00    -0.003 C 
ATOM     32  C   UNL     1       1.599  23.612  30.187  1.00  0.00     0.004 C 
ENDBRANCH  30  31
ENDBRANCH  29  30
ENDBRANCH  28  29
ENDBRANCH  27  28
ENDBRANCH  26  27
ENDBRANCH  25  26
ENDBRANCH  24  25
ENDBRANCH  23  24
ENDBRANCH  22  23
ENDBRANCH  21  22
ENDBRANCH  20  21
ENDBRANCH  19  20
ENDBRANCH  18  19
ENDBRANCH   1  18
TORSDOF 28
ENDMDL
MODEL 2
REMARK VINA RESULT:    -3.274      3.949     12.222
REMARK INTER + INTRA:         -10.295
REMARK INTER:                  -8.171
REMARK INTRA:                  -2.124
REMARK UNBOUND:                -1.661
REMARK SMILES CCCCCCCCCCCCCCCCCCCCCCCCCCCCCC(=O)[O-]
REMARK SMILES IDX 16 1 17 2 18 3 19 4 20 5 21 6 22 7 23 8 24 9 25 10 26 11
REMARK SMILES IDX 27 12 28 13 29 14 30 15 31 16 32 17 15 18 14 19 13 20 12 21
REMARK SMILES IDX 11 22 10 23 9 24 8 25 7 26 6 27 5 28 4 29 3 30 2 31 1 32
REMARK H PARENT
REMARK Flexibility Score: inf
ROOT
ATOM      1  C   UNL     1       5.256  25.630  23.868  1.00  0.00     0.000 C 
ENDROOT
BRANCH   1   2
ATOM      2  C   UNL     1       4.388  25.180  25.061  1.00  0.00     0.000 C 
BRANCH   2   3
ATOM      3  C   UNL     1       4.554  26.049  26.325  1.00  0.00     0.000 C 
BRANCH   3   4
ATOM      4  C   UNL     1       5.969  26.648  26.451  1.00  0.00     0.000 C 
BRANCH   4   5
ATOM      5  C   UNL     1       6.940  25.713  27.195  1.00  0.00     0.000 C 
BRANCH   5   6
ATOM      6  C   UNL     1       8.312  26.341  27.501  1.00  0.00     0.000 C 
BRANCH   6   7
ATOM      7  C   UNL     1       8.652  26.314  29.000  1.00  0.00     0.000 C 
BRANCH   7   8
ATOM      8  C   UNL     1       8.880  24.877  29.485  1.00  0.00     0.000 C 
BRANCH   8   9
ATOM      9  C   UNL     1       8.781  24.791  31.015  1.00  0.00     0.000 C 
BRANCH   9  10
ATOM     10  C   UNL     1       7.406  25.222  31.552  1.00  0.00     0.000 C 
BRANCH  10  11
ATOM     11  C   UNL     1       7.247  25.037  33.075  1.00  0.00     0.000 C 
BRANCH  11  12
ATOM     12  C   UNL     1       6.636  23.670  33.432  1.00  0.00     0.000 C 
BRANCH  12  13
ATOM     13  C   UNL     1       5.237  23.469  32.826  1.00  0.00     0.006 C 
BRANCH  13  14
ATOM     14  C   UNL     1       4.374  22.501  33.649  1.00  0.00     0.053 C 
BRANCH  14  15
ATOM     15  C   UNL     1       2.955  22.480  33.163  1.00  0.00     0.041 C 
ATOM     16  O   UNL     1       2.300  21.401  33.182  1.00  0.00    -0.550 OA
ATOM     17  O   UNL     1       2.371  23.625  32.631  1.00  0.00    -0.550 OA
ENDBRANCH  14  15
ENDBRANCH  13  14
ENDBRANCH  12  13
ENDBRANCH  11  12
ENDBRANCH  10  11
ENDBRANCH   9  10
ENDBRANCH   8   9
ENDBRANCH   7   8
ENDBRANCH   6   7
ENDBRANCH   5   6
ENDBRANCH   4   5
ENDBRANCH   3   4
ENDBRANCH   2   3
ENDBRANCH   1   2
BRANCH   1  18
ATOM     18  C   UNL     1       6.162  24.541  23.267  1.00  0.00     0.000 C 
BRANCH  18  19
ATOM     19  C   UNL     1       7.226  24.036  24.256  1.00  0.00     0.000 C 
BRANCH  19  20
ATOM     20  C   UNL     1       8.650  24.430  23.832  1.00  0.00     0.000 C 
BRANCH  20  21
ATOM     21  C   UNL     1       8.685  25.773  23.086  1.00  0.00     0.000 C 
BRANCH  21  22
ATOM     22  C   UNL     1       9.123  25.633  21.617  1.00  0.00     0.000 C 
BRANCH  22  23
ATOM     23  C   UNL     1       9.034  26.924  20.779  1.00  0.00     0.000 C 
BRANCH  23  24
ATOM     24  C   UNL     1       8.849  26.710  19.266  1.00  0.00    -0.000 C 
BRANCH  24  25
ATOM     25  C   UNL     1       8.391  27.985  18.540  1.00  0.00    -0.000 C 
BRANCH  25  26
ATOM     26  C   UNL     1       7.606  27.687  17.251  1.00  0.00    -0.000 C 
BRANCH  26  27
ATOM     27  C   UNL     1       7.361  28.904  16.336  1.00  0.00    -0.000 C 
BRANCH  27  28
ATOM     28  C   UNL     1       5.937  29.492  16.444  1.00  0.00    -0.000 C 
BRANCH  28  29
ATOM     29  C   UNL     1       5.069  28.724  17.454  1.00  0.00    -0.000 C 
BRANCH  29  30
ATOM     30  C   UNL     1       4.264  29.689  18.336  1.00  0.00    -0.000 C 
BRANCH  30  31
ATOM     31  C   UNL     1       3.438  28.961  19.406  1.00  0.00    -0.003 C 
ATOM     32  C   UNL     1       4.108  27.675  19.898  1.00  0.00     0.004 C 
ENDBRANCH  30  31
ENDBRANCH  29  30
ENDBRANCH  28  29
ENDBRANCH  27  28
ENDBRANCH  26  27
ENDBRANCH  25  26
ENDBRANCH  24  25
ENDBRANCH  23  24
ENDBRANCH  22  23
ENDBRANCH  21  22
ENDBRANCH  20  21
ENDBRANCH  19  20
ENDBRANCH  18  19
ENDBRANCH   1  18
TORSDOF 28
ENDMDL
MODEL 3
REMARK VINA RESULT:    -3.042      1.024      1.661
REMARK INTER + INTRA:          -9.684
REMARK INTER:                  -7.482
REMARK INTRA:                  -2.202
REMARK UNBOUND:                -1.661
REMARK SMILES CCCCCCCCCCCCCCCCCCCCCCCCCCCCCC(=O)[O-]
REMARK SMILES IDX 16 1 17 2 18 3 19 4 20 5 21 6 22 7 23 8 24 9 25 10 26 11
REMARK SMILES IDX 27 12 28 13 29 14 30 15 31 16 32 17 15 18 14 19 13 20 12 21
REMARK SMILES IDX 11 22 10 23 9 24 8 25 7 26 6 27 5 28 4 29 3 30 2 31 1 32
REMARK H PARENT
REMARK Flexibility Score: inf
ROOT
ATOM      1  C   UNL     1       4.268  26.038  24.120  1.00  0.00     0.000 C 
ENDROOT
BRANCH   1   2
ATOM      2  C   UNL     1       4.499  24.519  23.992  1.00  0.00     0.000 C 
BRANCH   2   3
ATOM      3  C   UNL     1       5.871  24.136  23.401  1.00  0.00     0.000 C 
BRANCH   3   4
ATOM      4  C   UNL     1       6.734  25.368  23.061  1.00  0.00     0.000 C 
BRANCH   4   5
ATOM      5  C   UNL     1       8.240  25.098  23.236  1.00  0.00     0.000 C 
BRANCH   5   6
ATOM      6  C   UNL     1       9.124  25.721  22.140  1.00  0.00     0.000 C 
BRANCH   6   7
ATOM      7  C   UNL     1       8.350  25.994  20.841  1.00  0.00     0.000 C 
BRANCH   7   8
ATOM      8  C   UNL     1       9.124  26.956  19.931  1.00  0.00     0.000 C 
BRANCH   8   9
ATOM      9  C   UNL     1       8.165  27.804  19.084  1.00  0.00     0.000 C 
BRANCH   9  10
ATOM     10  C   UNL     1       8.238  27.473  17.584  1.00  0.00     0.000 C 
BRANCH  10  11
ATOM     11  C   UNL     1       7.656  28.575  16.675  1.00  0.00     0.000 C 
BRANCH  11  12
ATOM     12  C   UNL     1       6.401  28.100  15.919  1.00  0.00     0.000 C 
BRANCH  12  13
ATOM     13  C   UNL     1       5.125  28.832  16.369  1.00  0.00     0.006 C 
BRANCH  13  14
ATOM     14  C   UNL     1       4.310  28.019  17.386  1.00  0.00     0.053 C 
BRANCH  14  15
ATOM     15  C   UNL     1       4.266  28.698  18.723  1.00  0.00     0.041 C 
ATOM     16  O   UNL     1       4.439  29.945  18.802  1.00  0.00    -0.550 OA
ATOM     17  O   UNL     1       4.097  27.956  19.888  1.00  0.00    -0.550 OA
ENDBRANCH  14  15
ENDBRANCH  13  14
ENDBRANCH  12  13
ENDBRANCH  11  12
ENDBRANCH  10  11
ENDBRANCH   9  10
ENDBRANCH   8   9
ENDBRANCH   7   8
ENDBRANCH   6   7
ENDBRANCH   5   6
ENDBRANCH   4   5
ENDBRANCH   3   4
ENDBRANCH   2   3
ENDBRANCH   1   2
BRANCH   1  18
ATOM     18  C   UNL     1       3.615  26.496  25.436  1.00  0.00     0.000 C 
BRANCH  18  19
ATOM     19  C   UNL     1       4.228  25.817  26.673  1.00  0.00     0.000 C 
BRANCH  19  20
ATOM     20  C   UNL     1       5.341  26.664  27.310  1.00  0.00     0.000 C 
BRANCH  20  21
ATOM     21  C   UNL     1       6.735  26.279  26.791  1.00  0.00     0.000 C 
BRANCH  21  22
ATOM     22  C   UNL     1       7.846  26.500  27.833  1.00  0.00     0.000 C 
BRANCH  22  23
ATOM     23  C   UNL     1       8.229  25.257  28.659  1.00  0.00     0.000 C 
BRANCH  23  24
ATOM     24  C   UNL     1       8.700  25.545  30.096  1.00  0.00    -0.000 C 
BRANCH  24  25
ATOM     25  C   UNL     1       7.776  24.926  31.157  1.00  0.00    -0.000 C 
BRANCH  25  26
ATOM     26  C   UNL     1       8.290  23.573  31.677  1.00  0.00    -0.000 C 
BRANCH  26  27
ATOM     27  C   UNL     1       7.761  23.161  33.067  1.00  0.00    -0.000 C 
BRANCH  27  28
ATOM     28  C   UNL     1       6.471  23.897  33.488  1.00  0.00    -0.000 C 
BRANCH  28  29
ATOM     29  C   UNL     1       5.294  22.929  33.695  1.00  0.00    -0.000 C 
BRANCH  29  30
ATOM     30  C   UNL     1       3.974  23.559  33.230  1.00  0.00    -0.000 C 
BRANCH  30  31
ATOM     31  C   UNL     1       3.182  22.640  32.288  1.00  0.00    -0.003 C 
ATOM     32  C   UNL     1       2.564  21.441  33.011  1.00  0.00     0.004 C 
ENDBRANCH  30  31
ENDBRANCH  29  30
ENDBRANCH  28  29
ENDBRANCH  27  28
ENDBRANCH  26  27
ENDBRANCH  25  26
ENDBRANCH  24  25
ENDBRANCH  23  24
ENDBRANCH  22  23
ENDBRANCH  21  22
ENDBRANCH  20  21
ENDBRANCH  19  20
ENDBRANCH  18  19
ENDBRANCH   1  18
TORSDOF 28
ENDMDL
MODEL 4
REMARK VINA RESULT:    -2.956      3.515     12.778
REMARK INTER + INTRA:          -9.457
REMARK INTER:                  -7.478
REMARK INTRA:                  -1.979
REMARK UNBOUND:                -1.661
REMARK SMILES CCCCCCCCCCCCCCCCCCCCCCCCCCCCCC(=O)[O-]
REMARK SMILES IDX 16 1 17 2 18 3 19 4 20 5 21 6 22 7 23 8 24 9 25 10 26 11
REMARK SMILES IDX 27 12 28 13 29 14 30 15 31 16 32 17 15 18 14 19 13 20 12 21
REMARK SMILES IDX 11 22 10 23 9 24 8 25 7 26 6 27 5 28 4 29 3 30 2 31 1 32
REMARK H PARENT
REMARK Flexibility Score: inf
ROOT
ATOM      1  C   UNL     1       7.473  25.786  25.867  1.00  0.00     0.000 C 
ENDROOT
BRANCH   1   2
ATOM      2  C   UNL     1       7.880  25.679  27.350  1.00  0.00     0.000 C 
BRANCH   2   3
ATOM      3  C   UNL     1       8.540  24.337  27.728  1.00  0.00     0.000 C 
BRANCH   3   4
ATOM      4  C   UNL     1       8.843  24.229  29.235  1.00  0.00     0.000 C 
BRANCH   4   5
ATOM      5  C   UNL     1       8.231  25.389  30.043  1.00  0.00     0.000 C 
BRANCH   5   6
ATOM      6  C   UNL     1       7.719  24.986  31.438  1.00  0.00     0.000 C 
BRANCH   6   7
ATOM      7  C   UNL     1       8.426  23.736  31.987  1.00  0.00     0.000 C 
BRANCH   7   8
ATOM      8  C   UNL     1       8.246  23.627  33.506  1.00  0.00     0.000 C 
BRANCH   8   9
ATOM      9  C   UNL     1       6.807  23.970  33.917  1.00  0.00     0.000 C 
BRANCH   9  10
ATOM     10  C   UNL     1       5.929  22.724  34.123  1.00  0.00     0.000 C 
BRANCH  10  11
ATOM     11  C   UNL     1       4.416  23.006  34.025  1.00  0.00     0.000 C 
BRANCH  11  12
ATOM     12  C   UNL     1       3.606  21.729  33.735  1.00  0.00     0.000 C 
BRANCH  12  13
ATOM     13  C   UNL     1       2.683  21.877  32.514  1.00  0.00     0.006 C 
BRANCH  13  14
ATOM     14  C   UNL     1       2.558  23.334  32.045  1.00  0.00     0.053 C 
BRANCH  14  15
ATOM     15  C   UNL     1       2.254  23.416  30.578  1.00  0.00     0.041 C 
ATOM     16  O   UNL     1       2.172  24.543  30.015  1.00  0.00    -0.550 OA
ATOM     17  O   UNL     1       1.999  22.263  29.842  1.00  0.00    -0.550 OA
ENDBRANCH  14  15
ENDBRANCH  13  14
ENDBRANCH  12  13
ENDBRANCH  11  12
ENDBRANCH  10  11
ENDBRANCH   9  10
ENDBRANCH   8   9
ENDBRANCH   7   8
ENDBRANCH   6   7
ENDBRANCH   5   6
ENDBRANCH   4   5
ENDBRANCH   3   4
ENDBRANCH   2   3
ENDBRANCH   1   2
BRANCH   1  18
ATOM     18  C   UNL     1       8.638  25.956  24.876  1.00  0.00     0.000 C 
BRANCH  18  19
ATOM     19  C   UNL     1       9.081  24.626  24.241  1.00  0.00     0.000 C 
BRANCH  19  20
ATOM     20  C   UNL     1       9.046  24.674  22.705  1.00  0.00     0.000 C 
BRANCH  20  21
ATOM     21  C   UNL     1       8.700  26.074  22.174  1.00  0.00     0.000 C 
BRANCH  21  22
ATOM     22  C   UNL     1       9.124  26.282  20.709  1.00  0.00     0.000 C 
BRANCH  22  23
ATOM     23  C   UNL     1       8.018  26.808  19.774  1.00  0.00     0.000 C 
BRANCH  23  24
ATOM     24  C   UNL     1       8.490  27.802  18.697  1.00  0.00    -0.000 C 
BRANCH  24  25
ATOM     25  C   UNL     1       8.611  27.156  17.307  1.00  0.00    -0.000 C 
BRANCH  25  26
ATOM     26  C   UNL     1       7.888  27.958  16.212  1.00  0.00    -0.000 C 
BRANCH  26  27
ATOM     27  C   UNL     1       6.687  28.796  16.699  1.00  0.00    -0.000 C 
BRANCH  27  28
ATOM     28  C   UNL     1       5.320  28.281  16.198  1.00  0.00    -0.000 C 
BRANCH  28  29
ATOM     29  C   UNL     1       4.230  28.390  17.276  1.00  0.00    -0.000 C 
BRANCH  29  30
ATOM     30  C   UNL     1       4.689  29.282  18.437  1.00  0.00    -0.000 C 
BRANCH  30  31
ATOM     31  C   UNL     1       4.304  28.708  19.810  1.00  0.00    -0.003 C 
ATOM     32  C   UNL     1       2.874  28.163  19.844  1.00  0.00     0.004 C 
ENDBRANCH  30  31
ENDBRANCH  29  30
ENDBRANCH  28  29
ENDBRANCH  27  28
ENDBRANCH  26  27
ENDBRANCH  25  26
ENDBRANCH  24  25
ENDBRANCH  23  24
ENDBRANCH  22  23
ENDBRANCH  21  22
ENDBRANCH  20  21
ENDBRANCH  19  20
ENDBRANCH  18  19
ENDBRANCH   1  18
TORSDOF 28
ENDMDL
MODEL 5
REMARK VINA RESULT:    -2.672      4.295     13.154
REMARK INTER + INTRA:          -8.706
REMARK INTER:                  -6.536
REMARK INTRA:                  -2.171
REMARK UNBOUND:                -1.661
REMARK SMILES CCCCCCCCCCCCCCCCCCCCCCCCCCCCCC(=O)[O-]
REMARK SMILES IDX 16 1 17 2 18 3 19 4 20 5 21 6 22 7 23 8 24 9 25 10 26 11
REMARK SMILES IDX 27 12 28 13 29 14 30 15 31 16 32 17 15 18 14 19 13 20 12 21
REMARK SMILES IDX 11 22 10 23 9 24 8 25 7 26 6 27 5 28 4 29 3 30 2 31 1 32
REMARK H PARENT
REMARK Flexibility Score: inf
ROOT
ATOM      1  C   UNL     1       7.927  24.295  23.702  1.00  0.00     0.000 C 
ENDROOT
BRANCH   1   2
ATOM      2  C   UNL     1       7.627  24.136  25.206  1.00  0.00     0.000 C 
BRANCH   2   3
ATOM      3  C   UNL     1       8.294  25.202  26.099  1.00  0.00     0.000 C 
BRANCH   3   4
ATOM      4  C   UNL     1       8.345  24.785  27.582  1.00  0.00     0.000 C 
BRANCH   4   5
ATOM      5  C   UNL     1       7.852  25.899  28.524  1.00  0.00     0.000 C 
BRANCH   5   6
ATOM      6  C   UNL     1       8.329  25.751  29.981  1.00  0.00     0.000 C 
BRANCH   6   7
ATOM      7  C   UNL     1       7.881  24.425  30.616  1.00  0.00     0.000 C 
BRANCH   7   8
ATOM      8  C   UNL     1       8.941  23.897  31.591  1.00  0.00     0.000 C 
BRANCH   8   9
ATOM      9  C   UNL     1       8.855  24.621  32.943  1.00  0.00     0.000 C 
BRANCH   9  10
ATOM     10  C   UNL     1       8.063  23.830  33.997  1.00  0.00     0.000 C 
BRANCH  10  11
ATOM     11  C   UNL     1       7.813  22.358  33.610  1.00  0.00     0.000 C 
BRANCH  11  12
ATOM     12  C   UNL     1       6.379  21.907  33.943  1.00  0.00     0.000 C 
BRANCH  12  13
ATOM     13  C   UNL     1       5.375  23.072  33.939  1.00  0.00     0.006 C 
BRANCH  13  14
ATOM     14  C   UNL     1       4.529  23.113  32.658  1.00  0.00     0.053 C 
BRANCH  14  15
ATOM     15  C   UNL     1       3.103  22.735  32.928  1.00  0.00     0.041 C 
ATOM     16  O   UNL     1       2.773  21.518  32.973  1.00  0.00    -0.550 OA
ATOM     17  O   UNL     1       2.124  23.714  33.067  1.00  0.00    -0.550 OA
ENDBRANCH  14  15
ENDBRANCH  13  14
ENDBRANCH  12  13
ENDBRANCH  11  12
ENDBRANCH  10  11
ENDBRANCH   9  10
ENDBRANCH   8   9
ENDBRANCH   7   8
ENDBRANCH   6   7
ENDBRANCH   5   6
ENDBRANCH   4   5
ENDBRANCH   3   4
ENDBRANCH   2   3
ENDBRANCH   1   2
BRANCH   1  18
ATOM     18  C   UNL     1       8.609  25.616  23.304  1.00  0.00     0.000 C 
BRANCH  18  19
ATOM     19  C   UNL     1       9.125  25.608  21.855  1.00  0.00     0.000 C 
BRANCH  19  20
ATOM     20  C   UNL     1       8.211  26.401  20.906  1.00  0.00     0.000 C 
BRANCH  20  21
ATOM     21  C   UNL     1       8.990  27.034  19.742  1.00  0.00     0.000 C 
BRANCH  21  22
ATOM     22  C   UNL     1       8.718  26.344  18.393  1.00  0.00     0.000 C 
BRANCH  22  23
ATOM     23  C   UNL     1       8.712  27.277  17.167  1.00  0.00     0.000 C 
BRANCH  23  24
ATOM     24  C   UNL     1       8.800  28.780  17.488  1.00  0.00    -0.000 C 
BRANCH  24  25
ATOM     25  C   UNL     1       7.811  29.620  16.665  1.00  0.00    -0.000 C 
BRANCH  25  26
ATOM     26  C   UNL     1       7.038  28.786  15.630  1.00  0.00    -0.000 C 
BRANCH  26  27
ATOM     27  C   UNL     1       5.534  28.606  15.924  1.00  0.00    -0.000 C 
BRANCH  27  28
ATOM     28  C   UNL     1       4.921  29.745  16.767  1.00  0.00    -0.000 C 
BRANCH  28  29
ATOM     29  C   UNL     1       4.978  29.446  18.275  1.00  0.00    -0.000 C 
BRANCH  29  30
ATOM     30  C   UNL     1       4.860  27.939  18.543  1.00  0.00    -0.000 C 
BRANCH  30  31
ATOM     31  C   UNL     1       3.648  27.590  19.420  1.00  0.00    -0.003 C 
ATOM     32  C   UNL     1       2.828  28.820  19.814  1.00  0.00     0.004 C 
ENDBRANCH  30  31
ENDBRANCH  29  30
ENDBRANCH  28  29
ENDBRANCH  27  28
ENDBRANCH  26  27
ENDBRANCH  25  26
ENDBRANCH  24  25
ENDBRANCH  23  24
ENDBRANCH  22  23
ENDBRANCH  21  22
ENDBRANCH  20  21
ENDBRANCH  19  20
ENDBRANCH  18  19
ENDBRANCH   1  18
TORSDOF 28
ENDMDL
MODEL 6
REMARK VINA RESULT:    -2.627      1.586      2.152
REMARK INTER + INTRA:          -8.588
REMARK INTER:                  -7.505
REMARK INTRA:                  -1.082
REMARK UNBOUND:                -1.661
REMARK SMILES CCCCCCCCCCCCCCCCCCCCCCCCCCCCCC(=O)[O-]
REMARK SMILES IDX 16 1 17 2 18 3 19 4 20 5 21 6 22 7 23 8 24 9 25 10 26 11
REMARK SMILES IDX 27 12 28 13 29 14 30 15 31 16 32 17 15 18 14 19 13 20 12 21
REMARK SMILES IDX 11 22 10 23 9 24 8 25 7 26 6 27 5 28 4 29 3 30 2 31 1 32
REMARK H PARENT
REMARK Flexibility Score: inf
ROOT
ATOM      1  C   UNL     1       7.284  25.789  25.840  1.00  0.00     0.000 C 
ENDROOT
BRANCH   1   2
ATOM      2  C   UNL     1       8.659  25.141  25.576  1.00  0.00     0.000 C 
BRANCH   2   3
ATOM      3  C   UNL     1       8.615  23.939  24.610  1.00  0.00     0.000 C 
BRANCH   3   4
ATOM      4  C   UNL     1       8.975  24.330  23.163  1.00  0.00     0.000 C 
BRANCH   4   5
ATOM      5  C   UNL     1       8.425  25.715  22.773  1.00  0.00     0.000 C 
BRANCH   5   6
ATOM      6  C   UNL     1       9.116  26.348  21.551  1.00  0.00     0.000 C 
BRANCH   6   7
ATOM      7  C   UNL     1       8.250  26.284  20.283  1.00  0.00     0.000 C 
BRANCH   7   8
ATOM      8  C   UNL     1       9.120  26.315  19.021  1.00  0.00     0.000 C 
BRANCH   8   9
ATOM      9  C   UNL     1       8.989  27.661  18.295  1.00  0.00     0.000 C 
BRANCH   9  10
ATOM     10  C   UNL     1       8.780  27.506  16.779  1.00  0.00     0.000 C 
BRANCH  10  11
ATOM     11  C   UNL     1       7.654  28.396  16.213  1.00  0.00     0.000 C 
BRANCH  11  12
ATOM     12  C   UNL     1       6.541  28.650  17.247  1.00  0.00     0.000 C 
BRANCH  12  13
ATOM     13  C   UNL     1       5.155  28.814  16.599  1.00  0.00     0.006 C 
BRANCH  13  14
ATOM     14  C   UNL     1       4.039  28.162  17.427  1.00  0.00     0.053 C 
BRANCH  14  15
ATOM     15  C   UNL     1       4.025  28.678  18.835  1.00  0.00     0.041 C 
ATOM     16  O   UNL     1       4.415  29.853  19.079  1.00  0.00    -0.550 OA
ATOM     17  O   UNL     1       3.644  27.851  19.888  1.00  0.00    -0.550 OA
ENDBRANCH  14  15
ENDBRANCH  13  14
ENDBRANCH  12  13
ENDBRANCH  11  12
ENDBRANCH  10  11
ENDBRANCH   9  10
ENDBRANCH   8   9
ENDBRANCH   7   8
ENDBRANCH   6   7
ENDBRANCH   5   6
ENDBRANCH   4   5
ENDBRANCH   3   4
ENDBRANCH   2   3
ENDBRANCH   1   2
BRANCH   1  18
ATOM     18  C   UNL     1       7.071  26.321  27.268  1.00  0.00     0.000 C 
BRANCH  18  19
ATOM     19  C   UNL     1       8.192  25.901  28.234  1.00  0.00     0.000 C 
BRANCH  19  20
ATOM     20  C   UNL     1       7.686  25.735  29.676  1.00  0.00     0.000 C 
BRANCH  20  21
ATOM     21  C   UNL     1       8.503  26.565  30.679  1.00  0.00     0.000 C 
BRANCH  21  22
ATOM     22  C   UNL     1       9.125  25.711  31.798  1.00  0.00     0.000 C 
BRANCH  22  23
ATOM     23  C   UNL     1       8.590  24.270  31.899  1.00  0.00     0.000 C 
BRANCH  23  24
ATOM     24  C   UNL     1       8.982  23.514  33.181  1.00  0.00    -0.000 C 
BRANCH  24  25
ATOM     25  C   UNL     1       7.782  23.257  34.108  1.00  0.00    -0.000 C 
BRANCH  25  26
ATOM     26  C   UNL     1       6.806  22.211  33.543  1.00  0.00    -0.000 C 
BRANCH  26  27
ATOM     27  C   UNL     1       5.354  22.327  34.052  1.00  0.00    -0.000 C 
BRANCH  27  28
ATOM     28  C   UNL     1       4.364  22.870  32.998  1.00  0.00    -0.000 C 
BRANCH  28  29
ATOM     29  C   UNL     1       2.921  22.911  33.527  1.00  0.00    -0.000 C 
BRANCH  29  30
ATOM     30  C   UNL     1       1.920  23.128  32.384  1.00  0.00    -0.000 C 
BRANCH  30  31
ATOM     31  C   UNL     1       2.608  23.279  31.019  1.00  0.00    -0.003 C 
ATOM     32  C   UNL     1       1.641  23.704  29.912  1.00  0.00     0.004 C 
ENDBRANCH  30  31
ENDBRANCH  29  30
ENDBRANCH  28  29
ENDBRANCH  27  28
ENDBRANCH  26  27
ENDBRANCH  25  26
ENDBRANCH  24  25
ENDBRANCH  23  24
ENDBRANCH  22  23
ENDBRANCH  21  22
ENDBRANCH  20  21
ENDBRANCH  19  20
ENDBRANCH  18  19
ENDBRANCH   1  18
TORSDOF 28
ENDMDL
MODEL 7
REMARK VINA RESULT:    -2.514      1.680      3.099
REMARK INTER + INTRA:          -8.290
REMARK INTER:                  -6.464
REMARK INTRA:                  -1.826
REMARK UNBOUND:                -1.661
REMARK SMILES CCCCCCCCCCCCCCCCCCCCCCCCCCCCCC(=O)[O-]
REMARK SMILES IDX 16 1 17 2 18 3 19 4 20 5 21 6 22 7 23 8 24 9 25 10 26 11
REMARK SMILES IDX 27 12 28 13 29 14 30 15 31 16 32 17 15 18 14 19 13 20 12 21
REMARK SMILES IDX 11 22 10 23 9 24 8 25 7 26 6 27 5 28 4 29 3 30 2 31 1 32
REMARK H PARENT
REMARK Flexibility Score: inf
ROOT
ATOM      1  C   UNL     1       7.810  24.493  23.521  1.00  0.00     0.000 C 
ENDROOT
BRANCH   1   2
ATOM      2  C   UNL     1       7.788  25.628  22.477  1.00  0.00     0.000 C 
BRANCH   2   3
ATOM      3  C   UNL     1       9.112  25.801  21.705  1.00  0.00     0.000 C 
BRANCH   3   4
ATOM      4  C   UNL     1       9.086  27.011  20.749  1.00  0.00     0.000 C 
BRANCH   4   5
ATOM      5  C   UNL     1       9.029  26.590  19.269  1.00  0.00     0.000 C 
BRANCH   5   6
ATOM      6  C   UNL     1       8.244  27.561  18.367  1.00  0.00     0.000 C 
BRANCH   6   7
ATOM      7  C   UNL     1       9.116  28.169  17.256  1.00  0.00     0.000 C 
BRANCH   7   8
ATOM      8  C   UNL     1       8.768  29.646  17.031  1.00  0.00     0.000 C 
BRANCH   8   9
ATOM      9  C   UNL     1       7.784  29.808  15.863  1.00  0.00     0.000 C 
BRANCH   9  10
ATOM     10  C   UNL     1       7.170  28.474  15.408  1.00  0.00     0.000 C 
BRANCH  10  11
ATOM     11  C   UNL     1       5.628  28.475  15.387  1.00  0.00     0.000 C 
BRANCH  11  12
ATOM     12  C   UNL     1       5.030  28.153  16.769  1.00  0.00     0.000 C 
BRANCH  12  13
ATOM     13  C   UNL     1       4.722  29.416  17.591  1.00  0.00     0.006 C 
BRANCH  13  14
ATOM     14  C   UNL     1       4.793  29.163  19.104  1.00  0.00     0.053 C 
BRANCH  14  15
ATOM     15  C   UNL     1       3.629  28.346  19.581  1.00  0.00     0.041 C 
ATOM     16  O   UNL     1       2.452  28.714  19.317  1.00  0.00    -0.550 OA
ATOM     17  O   UNL     1       3.833  27.216  20.367  1.00  0.00    -0.550 OA
ENDBRANCH  14  15
ENDBRANCH  13  14
ENDBRANCH  12  13
ENDBRANCH  11  12
ENDBRANCH  10  11
ENDBRANCH   9  10
ENDBRANCH   8   9
ENDBRANCH   7   8
ENDBRANCH   6   7
ENDBRANCH   5   6
ENDBRANCH   4   5
ENDBRANCH   3   4
ENDBRANCH   2   3
ENDBRANCH   1   2
BRANCH   1  18
ATOM     18  C   UNL     1       7.016  24.770  24.809  1.00  0.00     0.000 C 
BRANCH  18  19
ATOM     19  C   UNL     1       7.516  26.015  25.563  1.00  0.00     0.000 C 
BRANCH  19  20
ATOM     20  C   UNL     1       8.721  25.704  26.465  1.00  0.00     0.000 C 
BRANCH  20  21
ATOM     21  C   UNL     1       8.444  24.538  27.425  1.00  0.00     0.000 C 
BRANCH  21  22
ATOM     22  C   UNL     1       9.059  24.750  28.820  1.00  0.00     0.000 C 
BRANCH  22  23
ATOM     23  C   UNL     1       8.585  26.016  29.561  1.00  0.00     0.000 C 
BRANCH  23  24
ATOM     24  C   UNL     1       8.858  26.029  31.076  1.00  0.00    -0.000 C 
BRANCH  24  25
ATOM     25  C   UNL     1       8.649  24.652  31.727  1.00  0.00    -0.000 C 
BRANCH  25  26
ATOM     26  C   UNL     1       7.358  24.576  32.559  1.00  0.00    -0.000 C 
BRANCH  26  27
ATOM     27  C   UNL     1       6.927  23.153  32.972  1.00  0.00    -0.000 C 
BRANCH  27  28
ATOM     28  C   UNL     1       5.900  23.121  34.125  1.00  0.00    -0.000 C 
BRANCH  28  29
ATOM     29  C   UNL     1       4.767  22.115  33.864  1.00  0.00    -0.000 C 
BRANCH  29  30
ATOM     30  C   UNL     1       3.699  22.715  32.939  1.00  0.00    -0.000 C 
BRANCH  30  31
ATOM     31  C   UNL     1       2.494  21.782  32.747  1.00  0.00    -0.003 C 
ATOM     32  C   UNL     1       2.408  21.210  31.330  1.00  0.00     0.004 C 
ENDBRANCH  30  31
ENDBRANCH  29  30
ENDBRANCH  28  29
ENDBRANCH  27  28
ENDBRANCH  26  27
ENDBRANCH  25  26
ENDBRANCH  24  25
ENDBRANCH  23  24
ENDBRANCH  22  23
ENDBRANCH  21  22
ENDBRANCH  20  21
ENDBRANCH  19  20
ENDBRANCH  18  19
ENDBRANCH   1  18
TORSDOF 28
ENDMDL
MODEL 8
REMARK VINA RESULT:    -2.295      1.960      3.204
REMARK INTER + INTRA:          -7.713
REMARK INTER:                  -6.036
REMARK INTRA:                  -1.677
REMARK UNBOUND:                -1.661
REMARK SMILES CCCCCCCCCCCCCCCCCCCCCCCCCCCCCC(=O)[O-]
REMARK SMILES IDX 16 1 17 2 18 3 19 4 20 5 21 6 22 7 23 8 24 9 25 10 26 11
REMARK SMILES IDX 27 12 28 13 29 14 30 15 31 16 32 17 15 18 14 19 13 20 12 21
REMARK SMILES IDX 11 22 10 23 9 24 8 25 7 26 6 27 5 28 4 29 3 30 2 31 1 32
REMARK H PARENT
REMARK Flexibility Score: inf
ROOT
ATOM      1  C   UNL     1       4.121  25.267  24.764  1.00  0.00     0.000 C 
ENDROOT
BRANCH   1   2
ATOM      2  C   UNL     1       5.440  25.120  23.979  1.00  0.00     0.000 C 
BRANCH   2   3
ATOM      3  C   UNL     1       5.283  25.255  22.450  1.00  0.00     0.000 C 
BRANCH   3   4
ATOM      4  C   UNL     1       4.312  26.385  22.053  1.00  0.00     0.000 C 
BRANCH   4   5
ATOM      5  C   UNL     1       4.535  26.871  20.608  1.00  0.00     0.000 C 
BRANCH   5   6
ATOM      6  C   UNL     1       3.322  27.591  19.991  1.00  0.00     0.000 C 
BRANCH   6   7
ATOM      7  C   UNL     1       3.664  29.005  19.495  1.00  0.00     0.000 C 
BRANCH   7   8
ATOM      8  C   UNL     1       4.965  29.002  18.683  1.00  0.00     0.000 C 
BRANCH   8   9
ATOM      9  C   UNL     1       4.857  29.935  17.468  1.00  0.00     0.000 C 
BRANCH   9  10
ATOM     10  C   UNL     1       5.065  29.203  16.131  1.00  0.00     0.000 C 
BRANCH  10  11
ATOM     11  C   UNL     1       6.043  28.014  16.219  1.00  0.00     0.000 C 
BRANCH  11  12
ATOM     12  C   UNL     1       6.919  27.889  14.959  1.00  0.00     0.000 C 
BRANCH  12  13
ATOM     13  C   UNL     1       8.385  28.279  15.215  1.00  0.00     0.006 C 
BRANCH  13  14
ATOM     14  C   UNL     1       8.947  27.642  16.494  1.00  0.00     0.053 C 
BRANCH  14  15
ATOM     15  C   UNL     1       8.906  28.598  17.649  1.00  0.00     0.041 C 
ATOM     16  O   UNL     1       9.004  29.839  17.441  1.00  0.00    -0.550 OA
ATOM     17  O   UNL     1       8.825  28.128  18.956  1.00  0.00    -0.550 OA
ENDBRANCH  14  15
ENDBRANCH  13  14
ENDBRANCH  12  13
ENDBRANCH  11  12
ENDBRANCH  10  11
ENDBRANCH   9  10
ENDBRANCH   8   9
ENDBRANCH   7   8
ENDBRANCH   6   7
ENDBRANCH   5   6
ENDBRANCH   4   5
ENDBRANCH   3   4
ENDBRANCH   2   3
ENDBRANCH   1   2
BRANCH   1  18
ATOM     18  C   UNL     1       4.091  26.414  25.789  1.00  0.00     0.000 C 
BRANCH  18  19
ATOM     19  C   UNL     1       4.858  26.081  27.081  1.00  0.00     0.000 C 
BRANCH  19  20
ATOM     20  C   UNL     1       6.229  26.773  27.140  1.00  0.00     0.000 C 
BRANCH  20  21
ATOM     21  C   UNL     1       7.389  25.766  27.169  1.00  0.00     0.000 C 
BRANCH  21  22
ATOM     22  C   UNL     1       8.322  25.960  28.378  1.00  0.00     0.000 C 
BRANCH  22  23
ATOM     23  C   UNL     1       8.224  24.871  29.465  1.00  0.00     0.000 C 
BRANCH  23  24
ATOM     24  C   UNL     1       8.117  25.395  30.908  1.00  0.00    -0.000 C 
BRANCH  24  25
ATOM     25  C   UNL     1       8.624  24.380  31.945  1.00  0.00    -0.000 C 
BRANCH  25  26
ATOM     26  C   UNL     1       7.568  23.324  32.312  1.00  0.00    -0.000 C 
BRANCH  26  27
ATOM     27  C   UNL     1       6.158  23.880  32.602  1.00  0.00    -0.000 C 
BRANCH  27  28
ATOM     28  C   UNL     1       5.431  23.167  33.763  1.00  0.00    -0.000 C 
BRANCH  28  29
ATOM     29  C   UNL     1       4.158  22.444  33.292  1.00  0.00    -0.000 C 
BRANCH  29  30
ATOM     30  C   UNL     1       3.274  23.375  32.452  1.00  0.00    -0.000 C 
BRANCH  30  31
ATOM     31  C   UNL     1       2.307  22.605  31.539  1.00  0.00    -0.003 C 
ATOM     32  C   UNL     1       1.951  23.379  30.268  1.00  0.00     0.004 C 
ENDBRANCH  30  31
ENDBRANCH  29  30
ENDBRANCH  28  29
ENDBRANCH  27  28
ENDBRANCH  26  27
ENDBRANCH  25  26
ENDBRANCH  24  25
ENDBRANCH  23  24
ENDBRANCH  22  23
ENDBRANCH  21  22
ENDBRANCH  20  21
ENDBRANCH  19  20
ENDBRANCH  18  19
ENDBRANCH   1  18
TORSDOF 28
ENDMDL
MODEL 9
REMARK VINA RESULT:    -1.929      1.182      1.999
REMARK INTER + INTRA:          -6.749
REMARK INTER:                  -5.639
REMARK INTRA:                  -1.110
REMARK UNBOUND:                -1.661
REMARK SMILES CCCCCCCCCCCCCCCCCCCCCCCCCCCCCC(=O)[O-]
REMARK SMILES IDX 16 1 17 2 18 3 19 4 20 5 21 6 22 7 23 8 24 9 25 10 26 11
REMARK SMILES IDX 27 12 28 13 29 14 30 15 31 16 32 17 15 18 14 19 13 20 12 21
REMARK SMILES IDX 11 22 10 23 9 24 8 25 7 26 6 27 5 28 4 29 3 30 2 31 1 32
REMARK H PARENT
REMARK Flexibility Score: inf
ROOT
ATOM      1  C   UNL     1       4.025  26.006  27.362  1.00  0.00     0.000 C 
ENDROOT
BRANCH   1   2
ATOM      2  C   UNL     1       4.311  26.446  25.912  1.00  0.00     0.000 C 
BRANCH   2   3
ATOM      3  C   UNL     1       3.815  25.452  24.842  1.00  0.00     0.000 C 
BRANCH   3   4
ATOM      4  C   UNL     1       4.551  25.616  23.497  1.00  0.00     0.000 C 
BRANCH   4   5
ATOM      5  C   UNL     1       5.695  24.600  23.324  1.00  0.00     0.000 C 
BRANCH   5   6
ATOM      6  C   UNL     1       6.913  24.861  24.229  1.00  0.00     0.000 C 
BRANCH   6   7
ATOM      7  C   UNL     1       8.197  25.131  23.427  1.00  0.00     0.000 C 
BRANCH   7   8
ATOM      8  C   UNL     1       7.877  25.386  21.949  1.00  0.00     0.000 C 
BRANCH   8   9
ATOM      9  C   UNL     1       8.846  26.414  21.346  1.00  0.00     0.000 C 
BRANCH   9  10
ATOM     10  C   UNL     1       9.125  26.169  19.853  1.00  0.00     0.000 C 
BRANCH  10  11
ATOM     11  C   UNL     1       8.325  27.093  18.912  1.00  0.00     0.000 C 
BRANCH  11  12
ATOM     12  C   UNL     1       8.988  27.224  17.528  1.00  0.00     0.000 C 
BRANCH  12  13
ATOM     13  C   UNL     1       8.261  28.226  16.615  1.00  0.00     0.006 C 
BRANCH  13  14
ATOM     14  C   UNL     1       7.247  29.090  17.381  1.00  0.00     0.053 C 
BRANCH  14  15
ATOM     15  C   UNL     1       5.889  28.453  17.406  1.00  0.00     0.041 C 
ATOM     16  O   UNL     1       5.249  28.380  18.491  1.00  0.00    -0.550 OA
ATOM     17  O   UNL     1       5.353  27.883  16.256  1.00  0.00    -0.550 OA
ENDBRANCH  14  15
ENDBRANCH  13  14
ENDBRANCH  12  13
ENDBRANCH  11  12
ENDBRANCH  10  11
ENDBRANCH   9  10
ENDBRANCH   8   9
ENDBRANCH   7   8
ENDBRANCH   6   7
ENDBRANCH   5   6
ENDBRANCH   4   5
ENDBRANCH   3   4
ENDBRANCH   2   3
ENDBRANCH   1   2
BRANCH   1  18
ATOM     18  C   UNL     1       5.258  25.570  28.172  1.00  0.00     0.000 C 
BRANCH  18  19
ATOM     19  C   UNL     1       6.583  26.021  27.533  1.00  0.00     0.000 C 
BRANCH  19  20
ATOM     20  C   UNL     1       7.695  26.221  28.575  1.00  0.00     0.000 C 
BRANCH  20  21
ATOM     21  C   UNL     1       8.652  25.020  28.643  1.00  0.00     0.000 C 
BRANCH  21  22
ATOM     22  C   UNL     1       8.747  24.408  30.052  1.00  0.00     0.000 C 
BRANCH  22  23
ATOM     23  C   UNL     1       8.937  25.421  31.197  1.00  0.00     0.000 C 
BRANCH  23  24
ATOM     24  C   UNL     1       8.195  25.082  32.502  1.00  0.00    -0.000 C 
BRANCH  24  25
ATOM     25  C   UNL     1       6.952  24.209  32.266  1.00  0.00    -0.000 C 
BRANCH  25  26
ATOM     26  C   UNL     1       6.263  23.788  33.576  1.00  0.00    -0.000 C 
BRANCH  26  27
ATOM     27  C   UNL     1       6.311  22.278  33.886  1.00  0.00    -0.000 C 
BRANCH  27  28
ATOM     28  C   UNL     1       4.928  21.591  33.870  1.00  0.00    -0.000 C 
BRANCH  28  29
ATOM     29  C   UNL     1       3.781  22.595  34.070  1.00  0.00    -0.000 C 
BRANCH  29  30
ATOM     30  C   UNL     1       3.468  23.343  32.767  1.00  0.00    -0.000 C 
BRANCH  30  31
ATOM     31  C   UNL     1       2.015  23.146  32.309  1.00  0.00    -0.003 C 
ATOM     32  C   UNL     1       1.881  23.059  30.787  1.00  0.00     0.004 C 
ENDBRANCH  30  31
ENDBRANCH  29  30
ENDBRANCH  28  29
ENDBRANCH  27  28
ENDBRANCH  26  27
ENDBRANCH  25  26
ENDBRANCH  24  25
ENDBRANCH  23  24
ENDBRANCH  22  23
ENDBRANCH  21  22
ENDBRANCH  20  21
ENDBRANCH  19  20
ENDBRANCH  18  19
ENDBRANCH   1  18
TORSDOF 28
ENDMDL
