MODEL 1
REMARK VINA RESULT:    -4.074      0.000      0.000
REMARK INTER + INTRA:          -7.807
REMARK INTER:                  -6.455
REMARK INTRA:                  -1.352
REMARK UNBOUND:                -1.352
REMARK SMILES CCCCCCCCCCCC(=O)[O-]
REMARK SMILES IDX 7 1 8 2 9 3 10 4 11 5 12 6 13 7 14 8 6 9 5 10 4 11 3 12 2 13
REMARK SMILES IDX 1 14
REMARK H PARENT
REMARK Flexibility Score: inf
ROOT
ATOM      1  C   UNL     1      15.937  55.793 156.957  1.00  0.00     0.000 C 
ENDROOT
BRANCH   1   2
ATOM      2  C   UNL     1      16.938  55.417 158.061  1.00  0.00     0.000 C 
BRANCH   2   3
ATOM      3  C   UNL     1      18.324  55.058 157.506  1.00  0.00     0.000 C 
BRANCH   3   4
ATOM      4  C   UNL     1      18.819  53.727 158.084  1.00  0.00     0.006 C 
BRANCH   4   5
ATOM      5  C   UNL     1      18.637  53.685 159.603  1.00  0.00     0.053 C 
BRANCH   5   6
ATOM      6  C   UNL     1      19.964  53.750 160.292  1.00  0.00     0.041 C 
ATOM      7  O   UNL     1      20.045  54.181 161.472  1.00  0.00    -0.550 OA
ATOM      8  O   UNL     1      21.118  53.379 159.615  1.00  0.00    -0.550 OA
ENDBRANCH   5   6
ENDBRANCH   4   5
ENDBRANCH   3   4
ENDBRANCH   2   3
ENDBRANCH   1   2
BRANCH   1   9
ATOM      9  C   UNL     1      14.817  54.750 156.795  1.00  0.00     0.000 C 
BRANCH   9  10
ATOM     10  C   UNL     1      15.306  53.457 156.123  1.00  0.00    -0.000 C 
BRANCH  10  11
ATOM     11  C   UNL     1      15.134  52.222 157.022  1.00  0.00    -0.000 C 
BRANCH  11  12
ATOM     12  C   UNL     1      14.496  52.608 158.366  1.00  0.00    -0.000 C 
BRANCH  12  13
ATOM     13  C   UNL     1      15.074  51.808 159.544  1.00  0.00    -0.003 C 
ATOM     14  C   UNL     1      16.278  50.954 159.147  1.00  0.00     0.004 C 
ENDBRANCH  12  13
ENDBRANCH  11  12
ENDBRANCH  10  11
ENDBRANCH   9  10
ENDBRANCH   1   9
TORSDOF 10
ENDMDL
MODEL 2
REMARK VINA RESULT:    -4.071      2.632      4.544
REMARK INTER + INTRA:          -7.803
REMARK INTER:                  -6.631
REMARK INTRA:                  -1.172
REMARK UNBOUND:                -1.352
REMARK SMILES CCCCCCCCCCCC(=O)[O-]
REMARK SMILES IDX 7 1 8 2 9 3 10 4 11 5 12 6 13 7 14 8 6 9 5 10 4 11 3 12 2 13
REMARK SMILES IDX 1 14
REMARK H PARENT
REMARK Flexibility Score: inf
ROOT
ATOM      1  C   UNL     1      15.060  55.101 156.669  1.00  0.00     0.000 C 
ENDROOT
BRANCH   1   2
ATOM      2  C   UNL     1      15.251  53.745 155.972  1.00  0.00     0.000 C 
BRANCH   2   3
ATOM      3  C   UNL     1      14.418  52.627 156.616  1.00  0.00     0.000 C 
BRANCH   3   4
ATOM      4  C   UNL     1      14.213  52.885 158.113  1.00  0.00     0.006 C 
BRANCH   4   5
ATOM      5  C   UNL     1      15.339  52.257 158.938  1.00  0.00     0.053 C 
BRANCH   5   6
ATOM      6  C   UNL     1      14.792  51.211 159.859  1.00  0.00     0.041 C 
ATOM      7  O   UNL     1      15.481  50.197 160.146  1.00  0.00    -0.550 OA
ATOM      8  O   UNL     1      13.504  51.333 160.363  1.00  0.00    -0.550 OA
ENDBRANCH   5   6
ENDBRANCH   4   5
ENDBRANCH   3   4
ENDBRANCH   2   3
ENDBRANCH   1   2
BRANCH   1   9
ATOM      9  C   UNL     1      16.389  55.710 157.151  1.00  0.00     0.000 C 
BRANCH   9  10
ATOM     10  C   UNL     1      17.613  55.057 156.489  1.00  0.00    -0.000 C 
BRANCH  10  11
ATOM     11  C   UNL     1      18.797  54.903 157.457  1.00  0.00    -0.000 C 
BRANCH  11  12
ATOM     12  C   UNL     1      18.762  53.533 158.151  1.00  0.00    -0.000 C 
BRANCH  12  13
ATOM     13  C   UNL     1      19.015  53.631 159.664  1.00  0.00    -0.003 C 
ATOM     14  C   UNL     1      17.882  54.337 160.409  1.00  0.00     0.004 C 
ENDBRANCH  12  13
ENDBRANCH  11  12
ENDBRANCH  10  11
ENDBRANCH   9  10
ENDBRANCH   1   9
TORSDOF 10
ENDMDL
MODEL 3
REMARK VINA RESULT:    -4.063      1.242      3.457
REMARK INTER + INTRA:          -7.790
REMARK INTER:                  -6.516
REMARK INTRA:                  -1.274
REMARK UNBOUND:                -1.352
REMARK SMILES CCCCCCCCCCCC(=O)[O-]
REMARK SMILES IDX 7 1 8 2 9 3 10 4 11 5 12 6 13 7 14 8 6 9 5 10 4 11 3 12 2 13
REMARK SMILES IDX 1 14
REMARK H PARENT
REMARK Flexibility Score: inf
ROOT
ATOM      1  C   UNL     1      14.751  52.456 157.628  1.00  0.00     0.000 C 
ENDROOT
BRANCH   1   2
ATOM      2  C   UNL     1      14.602  52.090 159.113  1.00  0.00     0.000 C 
BRANCH   2   3
ATOM      3  C   UNL     1      15.951  51.819 159.794  1.00  0.00     0.000 C 
BRANCH   3   4
ATOM      4  C   UNL     1      17.085  52.573 159.090  1.00  0.00     0.006 C 
BRANCH   4   5
ATOM      5  C   UNL     1      17.811  53.507 160.062  1.00  0.00     0.053 C 
BRANCH   5   6
ATOM      6  C   UNL     1      19.242  53.675 159.656  1.00  0.00     0.041 C 
ATOM      7  O   UNL     1      19.548  53.760 158.438  1.00  0.00    -0.550 OA
ATOM      8  O   UNL     1      20.241  53.690 160.619  1.00  0.00    -0.550 OA
ENDBRANCH   5   6
ENDBRANCH   4   5
ENDBRANCH   3   4
ENDBRANCH   2   3
ENDBRANCH   1   2
BRANCH   1   9
ATOM      9  C   UNL     1      13.763  53.550 157.187  1.00  0.00     0.000 C 
BRANCH   9  10
ATOM     10  C   UNL     1      14.452  54.699 156.434  1.00  0.00    -0.000 C 
BRANCH  10  11
ATOM     11  C   UNL     1      15.860  54.325 155.946  1.00  0.00    -0.000 C 
BRANCH  11  12
ATOM     12  C   UNL     1      16.908  55.306 156.495  1.00  0.00    -0.000 C 
BRANCH  12  13
ATOM     13  C   UNL     1      16.428  56.036 157.759  1.00  0.00    -0.003 C 
ATOM     14  C   UNL     1      16.532  57.557 157.640  1.00  0.00     0.004 C 
ENDBRANCH  12  13
ENDBRANCH  11  12
ENDBRANCH  10  11
ENDBRANCH   9  10
ENDBRANCH   1   9
TORSDOF 10
ENDMDL
MODEL 4
REMARK VINA RESULT:    -4.061      0.998      1.249
REMARK INTER + INTRA:          -7.787
REMARK INTER:                  -6.274
REMARK INTRA:                  -1.514
REMARK UNBOUND:                -1.352
REMARK SMILES CCCCCCCCCCCC(=O)[O-]
REMARK SMILES IDX 7 1 8 2 9 3 10 4 11 5 12 6 13 7 14 8 6 9 5 10 4 11 3 12 2 13
REMARK SMILES IDX 1 14
REMARK H PARENT
REMARK Flexibility Score: inf
ROOT
ATOM      1  C   UNL     1      16.659  54.327 156.564  1.00  0.00     0.000 C 
ENDROOT
BRANCH   1   2
ATOM      2  C   UNL     1      17.787  54.256 157.605  1.00  0.00     0.000 C 
BRANCH   2   3
ATOM      3  C   UNL     1      17.459  55.032 158.888  1.00  0.00     0.000 C 
BRANCH   3   4
ATOM      4  C   UNL     1      17.755  54.187 160.133  1.00  0.00     0.006 C 
BRANCH   4   5
ATOM      5  C   UNL     1      19.122  53.506 160.023  1.00  0.00     0.053 C 
BRANCH   5   6
ATOM      6  C   UNL     1      20.126  54.205 160.884  1.00  0.00     0.041 C 
ATOM      7  O   UNL     1      19.992  54.210 162.136  1.00  0.00    -0.550 OA
ATOM      8  O   UNL     1      21.183  54.892 160.302  1.00  0.00    -0.550 OA
ENDBRANCH   5   6
ENDBRANCH   4   5
ENDBRANCH   3   4
ENDBRANCH   2   3
ENDBRANCH   1   2
BRANCH   1   9
ATOM      9  C   UNL     1      15.326  54.805 157.170  1.00  0.00     0.000 C 
BRANCH   9  10
ATOM     10  C   UNL     1      14.210  53.756 157.042  1.00  0.00    -0.000 C 
BRANCH  10  11
ATOM     11  C   UNL     1      14.633  52.376 157.571  1.00  0.00    -0.000 C 
BRANCH  11  12
ATOM     12  C   UNL     1      14.398  52.275 159.086  1.00  0.00    -0.000 C 
BRANCH  12  13
ATOM     13  C   UNL     1      15.400  51.337 159.777  1.00  0.00    -0.003 C 
ATOM     14  C   UNL     1      16.548  50.918 158.860  1.00  0.00     0.004 C 
ENDBRANCH  12  13
ENDBRANCH  11  12
ENDBRANCH  10  11
ENDBRANCH   9  10
ENDBRANCH   1   9
TORSDOF 10
ENDMDL
MODEL 5
REMARK VINA RESULT:    -4.024      1.130      3.151
REMARK INTER + INTRA:          -7.728
REMARK INTER:                  -6.518
REMARK INTRA:                  -1.211
REMARK UNBOUND:                -1.352
REMARK SMILES CCCCCCCCCCCC(=O)[O-]
REMARK SMILES IDX 7 1 8 2 9 3 10 4 11 5 12 6 13 7 14 8 6 9 5 10 4 11 3 12 2 13
REMARK SMILES IDX 1 14
REMARK H PARENT
REMARK Flexibility Score: inf
ROOT
ATOM      1  C   UNL     1      15.427  51.869 159.595  1.00  0.00     0.000 C 
ENDROOT
BRANCH   1   2
ATOM      2  C   UNL     1      16.561  51.536 158.613  1.00  0.00     0.000 C 
BRANCH   2   3
ATOM      3  C   UNL     1      17.695  52.571 158.645  1.00  0.00     0.000 C 
BRANCH   3   4
ATOM      4  C   UNL     1      17.576  53.480 159.873  1.00  0.00     0.006 C 
BRANCH   4   5
ATOM      5  C   UNL     1      18.710  54.509 159.908  1.00  0.00     0.053 C 
BRANCH   5   6
ATOM      6  C   UNL     1      19.791  54.065 160.841  1.00  0.00     0.041 C 
ATOM      7  O   UNL     1      20.749  53.366 160.415  1.00  0.00    -0.550 OA
ATOM      8  O   UNL     1      19.718  54.380 162.191  1.00  0.00    -0.550 OA
ENDBRANCH   5   6
ENDBRANCH   4   5
ENDBRANCH   3   4
ENDBRANCH   2   3
ENDBRANCH   1   2
BRANCH   1   9
ATOM      9  C   UNL     1      14.148  52.342 158.881  1.00  0.00     0.000 C 
BRANCH   9  10
ATOM     10  C   UNL     1      14.376  52.628 157.389  1.00  0.00    -0.000 C 
BRANCH  10  11
ATOM     11  C   UNL     1      13.413  53.691 156.837  1.00  0.00    -0.000 C 
BRANCH  11  12
ATOM     12  C   UNL     1      14.188  54.861 156.213  1.00  0.00    -0.000 C 
BRANCH  12  13
ATOM     13  C   UNL     1      15.689  54.815 156.540  1.00  0.00    -0.003 C 
ATOM     14  C   UNL     1      16.133  55.961 157.449  1.00  0.00     0.004 C 
ENDBRANCH  12  13
ENDBRANCH  11  12
ENDBRANCH  10  11
ENDBRANCH   9  10
ENDBRANCH   1   9
TORSDOF 10
ENDMDL
MODEL 6
REMARK VINA RESULT:    -4.021      1.905      2.642
REMARK INTER + INTRA:          -7.724
REMARK INTER:                  -6.126
REMARK INTRA:                  -1.598
REMARK UNBOUND:                -1.352
REMARK SMILES CCCCCCCCCCCC(=O)[O-]
REMARK SMILES IDX 7 1 8 2 9 3 10 4 11 5 12 6 13 7 14 8 6 9 5 10 4 11 3 12 2 13
REMARK SMILES IDX 1 14
REMARK H PARENT
REMARK Flexibility Score: inf
ROOT
ATOM      1  C   UNL     1      18.396  53.400 157.390  1.00  0.00     0.000 C 
ENDROOT
BRANCH   1   2
ATOM      2  C   UNL     1      19.101  54.110 158.556  1.00  0.00     0.000 C 
BRANCH   2   3
ATOM      3  C   UNL     1      18.831  53.435 159.909  1.00  0.00     0.000 C 
BRANCH   3   4
ATOM      4  C   UNL     1      17.843  54.257 160.746  1.00  0.00     0.006 C 
BRANCH   4   5
ATOM      5  C   UNL     1      17.733  55.690 160.216  1.00  0.00     0.053 C 
BRANCH   5   6
ATOM      6  C   UNL     1      18.260  56.663 161.224  1.00  0.00     0.041 C 
ATOM      7  O   UNL     1      17.466  57.386 161.881  1.00  0.00    -0.550 OA
ATOM      8  O   UNL     1      19.629  56.805 161.404  1.00  0.00    -0.550 OA
ENDBRANCH   5   6
ENDBRANCH   4   5
ENDBRANCH   3   4
ENDBRANCH   2   3
ENDBRANCH   1   2
BRANCH   1   9
ATOM      9  C   UNL     1      17.280  54.256 156.765  1.00  0.00     0.000 C 
BRANCH   9  10
ATOM     10  C   UNL     1      15.915  54.026 157.433  1.00  0.00    -0.000 C 
BRANCH  10  11
ATOM     11  C   UNL     1      15.565  52.535 157.563  1.00  0.00    -0.000 C 
BRANCH  11  12
ATOM     12  C   UNL     1      14.748  52.274 158.838  1.00  0.00    -0.000 C 
BRANCH  12  13
ATOM     13  C   UNL     1      15.523  51.447 159.876  1.00  0.00    -0.003 C 
ATOM     14  C   UNL     1      16.545  50.505 159.240  1.00  0.00     0.004 C 
ENDBRANCH  12  13
ENDBRANCH  11  12
ENDBRANCH  10  11
ENDBRANCH   9  10
ENDBRANCH   1   9
TORSDOF 10
ENDMDL
MODEL 7
REMARK VINA RESULT:    -3.926      2.410      3.926
REMARK INTER + INTRA:          -7.573
REMARK INTER:                  -6.397
REMARK INTRA:                  -1.176
REMARK UNBOUND:                -1.352
REMARK SMILES CCCCCCCCCCCC(=O)[O-]
REMARK SMILES IDX 7 1 8 2 9 3 10 4 11 5 12 6 13 7 14 8 6 9 5 10 4 11 3 12 2 13
REMARK SMILES IDX 1 14
REMARK H PARENT
REMARK Flexibility Score: inf
ROOT
ATOM      1  C   UNL     1      18.484  53.457 158.249  1.00  0.00     0.000 C 
ENDROOT
BRANCH   1   2
ATOM      2  C   UNL     1      17.796  53.698 156.896  1.00  0.00     0.000 C 
BRANCH   2   3
ATOM      3  C   UNL     1      17.527  55.185 156.625  1.00  0.00     0.000 C 
BRANCH   3   4
ATOM      4  C   UNL     1      16.523  55.755 157.633  1.00  0.00     0.006 C 
BRANCH   4   5
ATOM      5  C   UNL     1      16.420  57.278 157.506  1.00  0.00     0.053 C 
BRANCH   5   6
ATOM      6  C   UNL     1      17.141  57.947 158.634  1.00  0.00     0.041 C 
ATOM      7  O   UNL     1      18.061  57.342 159.245  1.00  0.00    -0.550 OA
ATOM      8  O   UNL     1      16.766  59.220 159.042  1.00  0.00    -0.550 OA
ENDBRANCH   5   6
ENDBRANCH   4   5
ENDBRANCH   3   4
ENDBRANCH   2   3
ENDBRANCH   1   2
BRANCH   1   9
ATOM      9  C   UNL     1      17.546  52.803 159.279  1.00  0.00     0.000 C 
BRANCH   9  10
ATOM     10  C   UNL     1      16.629  51.741 158.653  1.00  0.00    -0.000 C 
BRANCH  10  11
ATOM     11  C   UNL     1      15.249  51.680 159.327  1.00  0.00    -0.000 C 
BRANCH  11  12
ATOM     12  C   UNL     1      14.244  52.584 158.599  1.00  0.00    -0.000 C 
BRANCH  12  13
ATOM     13  C   UNL     1      14.453  52.593 157.076  1.00  0.00    -0.003 C 
ATOM     14  C   UNL     1      13.702  53.729 156.382  1.00  0.00     0.004 C 
ENDBRANCH  12  13
ENDBRANCH  11  12
ENDBRANCH  10  11
ENDBRANCH   9  10
ENDBRANCH   1   9
TORSDOF 10
ENDMDL
MODEL 8
REMARK VINA RESULT:    -3.908      2.416      4.782
REMARK INTER + INTRA:          -7.545
REMARK INTER:                  -6.436
REMARK INTRA:                  -1.109
REMARK UNBOUND:                -1.352
REMARK SMILES CCCCCCCCCCCC(=O)[O-]
REMARK SMILES IDX 7 1 8 2 9 3 10 4 11 5 12 6 13 7 14 8 6 9 5 10 4 11 3 12 2 13
REMARK SMILES IDX 1 14
REMARK H PARENT
REMARK Flexibility Score: inf
ROOT
ATOM      1  C   UNL     1      14.561  51.892 159.449  1.00  0.00     0.000 C 
ENDROOT
BRANCH   1   2
ATOM      2  C   UNL     1      14.110  52.701 158.223  1.00  0.00     0.000 C 
BRANCH   2   3
ATOM      3  C   UNL     1      14.951  52.400 156.973  1.00  0.00     0.000 C 
BRANCH   3   4
ATOM      4  C   UNL     1      15.477  53.693 156.340  1.00  0.00     0.006 C 
BRANCH   4   5
ATOM      5  C   UNL     1      15.134  54.909 157.206  1.00  0.00     0.053 C 
BRANCH   5   6
ATOM      6  C   UNL     1      16.216  55.939 157.113  1.00  0.00     0.041 C 
ATOM      7  O   UNL     1      16.006  57.115 157.514  1.00  0.00    -0.550 OA
ATOM      8  O   UNL     1      17.438  55.615 156.540  1.00  0.00    -0.550 OA
ENDBRANCH   5   6
ENDBRANCH   4   5
ENDBRANCH   3   4
ENDBRANCH   2   3
ENDBRANCH   1   2
BRANCH   1   9
ATOM      9  C   UNL     1      16.065  51.567 159.422  1.00  0.00     0.000 C 
BRANCH   9  10
ATOM     10  C   UNL     1      16.925  52.702 160.000  1.00  0.00    -0.000 C 
BRANCH  10  11
ATOM     11  C   UNL     1      18.024  53.164 159.030  1.00  0.00    -0.000 C 
BRANCH  11  12
ATOM     12  C   UNL     1      19.018  54.099 159.734  1.00  0.00    -0.000 C 
BRANCH  12  13
ATOM     13  C   UNL     1      18.746  54.223 161.241  1.00  0.00    -0.003 C 
ATOM     14  C   UNL     1      20.020  54.440 162.057  1.00  0.00     0.004 C 
ENDBRANCH  12  13
ENDBRANCH  11  12
ENDBRANCH  10  11
ENDBRANCH   9  10
ENDBRANCH   1   9
TORSDOF 10
ENDMDL
MODEL 9
REMARK VINA RESULT:    -3.857      2.355      3.689
REMARK INTER + INTRA:          -7.464
REMARK INTER:                  -6.100
REMARK INTRA:                  -1.364
REMARK UNBOUND:                -1.352
REMARK SMILES CCCCCCCCCCCC(=O)[O-]
REMARK SMILES IDX 7 1 8 2 9 3 10 4 11 5 12 6 13 7 14 8 6 9 5 10 4 11 3 12 2 13
REMARK SMILES IDX 1 14
REMARK H PARENT
REMARK Flexibility Score: inf
ROOT
ATOM      1  C   UNL     1      14.598  53.950 156.567  1.00  0.00     0.000 C 
ENDROOT
BRANCH   1   2
ATOM      2  C   UNL     1      16.032  53.932 156.015  1.00  0.00     0.000 C 
BRANCH   2   3
ATOM      3  C   UNL     1      16.806  55.220 156.336  1.00  0.00     0.000 C 
BRANCH   3   4
ATOM      4  C   UNL     1      16.084  56.043 157.409  1.00  0.00     0.006 C 
BRANCH   4   5
ATOM      5  C   UNL     1      16.448  57.526 157.301  1.00  0.00     0.053 C 
BRANCH   5   6
ATOM      6  C   UNL     1      17.124  57.992 158.552  1.00  0.00     0.041 C 
ATOM      7  O   UNL     1      16.838  59.114 159.046  1.00  0.00    -0.550 OA
ATOM      8  O   UNL     1      18.104  57.208 159.146  1.00  0.00    -0.550 OA
ENDBRANCH   5   6
ENDBRANCH   4   5
ENDBRANCH   3   4
ENDBRANCH   2   3
ENDBRANCH   1   2
BRANCH   1   9
ATOM      9  C   UNL     1      14.209  52.623 157.243  1.00  0.00     0.000 C 
BRANCH   9  10
ATOM     10  C   UNL     1      14.342  52.678 158.773  1.00  0.00    -0.000 C 
BRANCH  10  11
ATOM     11  C   UNL     1      15.113  51.477 159.342  1.00  0.00    -0.000 C 
BRANCH  11  12
ATOM     12  C   UNL     1      16.629  51.711 159.259  1.00  0.00    -0.000 C 
BRANCH  12  13
ATOM     13  C   UNL     1      17.033  53.128 159.696  1.00  0.00    -0.003 C 
ATOM     14  C   UNL     1      18.417  53.533 159.188  1.00  0.00     0.004 C 
ENDBRANCH  12  13
ENDBRANCH  11  12
ENDBRANCH  10  11
ENDBRANCH   9  10
ENDBRANCH   1   9
TORSDOF 10
ENDMDL
