MODEL 1
REMARK VINA RESULT:    -3.948      0.000      0.000
REMARK INTER + INTRA:          -9.298
REMARK INTER:                  -7.179
REMARK INTRA:                  -2.119
REMARK UNBOUND:                -2.119
REMARK SMILES CCCCCCCCCCCCCCCC(=O)[O-]
REMARK SMILES IDX 9 1 10 2 11 3 12 4 13 5 14 6 15 7 16 8 17 9 18 10 8 11 7 12
REMARK SMILES IDX 6 13 5 14 4 15 3 16 2 17 1 18
REMARK H PARENT
REMARK Flexibility Score: inf
ROOT
ATOM      1  C   UNL     1       3.824   0.865  -4.207  1.00  0.00     0.000 C 
ENDROOT
BRANCH   1   2
ATOM      2  C   UNL     1       3.682   0.658  -5.729  1.00  0.00     0.000 C 
BRANCH   2   3
ATOM      3  C   UNL     1       2.723   1.640  -6.427  1.00  0.00     0.000 C 
BRANCH   3   4
ATOM      4  C   UNL     1       1.646   2.195  -5.479  1.00  0.00     0.000 C 
BRANCH   4   5
ATOM      5  C   UNL     1       0.364   1.349  -5.482  1.00  0.00     0.000 C 
BRANCH   5   6
ATOM      6  C   UNL     1       0.156   0.589  -4.163  1.00  0.00     0.006 C 
BRANCH   6   7
ATOM      7  C   UNL     1      -0.218  -0.873  -4.426  1.00  0.00     0.053 C 
BRANCH   7   8
ATOM      8  C   UNL     1       0.962  -1.630  -4.948  1.00  0.00     0.041 C 
ATOM      9  O   UNL     1       1.034  -1.929  -6.170  1.00  0.00    -0.550 OA
ATOM     10  O   UNL     1       1.960  -2.050  -4.077  1.00  0.00    -0.550 OA
ENDBRANCH   7   8
ENDBRANCH   6   7
ENDBRANCH   5   6
ENDBRANCH   4   5
ENDBRANCH   3   4
ENDBRANCH   2   3
ENDBRANCH   1   2
BRANCH   1  11
ATOM     11  C   UNL     1       5.208   0.515  -3.626  1.00  0.00     0.000 C 
BRANCH  11  12
ATOM     12  C   UNL     1       6.143   1.719  -3.394  1.00  0.00    -0.000 C 
BRANCH  12  13
ATOM     13  C   UNL     1       6.943   2.172  -4.629  1.00  0.00    -0.000 C 
BRANCH  13  14
ATOM     14  C   UNL     1       6.814   3.682  -4.901  1.00  0.00    -0.000 C 
BRANCH  14  15
ATOM     15  C   UNL     1       5.512   4.039  -5.638  1.00  0.00    -0.000 C 
BRANCH  15  16
ATOM     16  C   UNL     1       5.031   5.467  -5.327  1.00  0.00    -0.000 C 
BRANCH  16  17
ATOM     17  C   UNL     1       4.529   5.617  -3.883  1.00  0.00    -0.003 C 
ATOM     18  C   UNL     1       3.586   4.490  -3.461  1.00  0.00     0.004 C 
ENDBRANCH  16  17
ENDBRANCH  15  16
ENDBRANCH  14  15
ENDBRANCH  13  14
ENDBRANCH  12  13
ENDBRANCH  11  12
ENDBRANCH   1  11
TORSDOF 14
ENDMDL
MODEL 2
REMARK VINA RESULT:    -3.913      1.378      3.286
REMARK INTER + INTRA:          -9.234
REMARK INTER:                  -7.153
REMARK INTRA:                  -2.081
REMARK UNBOUND:                -2.119
REMARK SMILES CCCCCCCCCCCCCCCC(=O)[O-]
REMARK SMILES IDX 9 1 10 2 11 3 12 4 13 5 14 6 15 7 16 8 17 9 18 10 8 11 7 12
REMARK SMILES IDX 6 13 5 14 4 15 3 16 2 17 1 18
REMARK H PARENT
REMARK Flexibility Score: inf
ROOT
ATOM      1  C   UNL     1       4.112   4.972  -3.746  1.00  0.00     0.000 C 
ENDROOT
BRANCH   1   2
ATOM      2  C   UNL     1       3.213   3.719  -3.784  1.00  0.00     0.000 C 
BRANCH   2   3
ATOM      3  C   UNL     1       2.584   3.416  -5.156  1.00  0.00     0.000 C 
BRANCH   3   4
ATOM      4  C   UNL     1       2.399   1.909  -5.405  1.00  0.00     0.000 C 
BRANCH   4   5
ATOM      5  C   UNL     1       1.489   1.245  -4.360  1.00  0.00     0.000 C 
BRANCH   5   6
ATOM      6  C   UNL     1       0.954  -0.118  -4.825  1.00  0.00     0.006 C 
BRANCH   6   7
ATOM      7  C   UNL     1      -0.340  -0.479  -4.089  1.00  0.00     0.053 C 
BRANCH   7   8
ATOM      8  C   UNL     1      -0.084  -1.544  -3.071  1.00  0.00     0.041 C 
ATOM      9  O   UNL     1       0.739  -2.467  -3.311  1.00  0.00    -0.550 OA
ATOM     10  O   UNL     1      -0.791  -1.547  -1.874  1.00  0.00    -0.550 OA
ENDBRANCH   7   8
ENDBRANCH   6   7
ENDBRANCH   5   6
ENDBRANCH   4   5
ENDBRANCH   3   4
ENDBRANCH   2   3
ENDBRANCH   1   2
BRANCH   1  11
ATOM     11  C   UNL     1       4.888   5.259  -5.047  1.00  0.00     0.000 C 
BRANCH  11  12
ATOM     12  C   UNL     1       6.423   5.179  -4.923  1.00  0.00    -0.000 C 
BRANCH  12  13
ATOM     13  C   UNL     1       6.994   3.755  -4.798  1.00  0.00    -0.000 C 
BRANCH  13  14
ATOM     14  C   UNL     1       6.339   2.762  -5.775  1.00  0.00    -0.000 C 
BRANCH  14  15
ATOM     15  C   UNL     1       5.925   1.448  -5.091  1.00  0.00    -0.000 C 
BRANCH  15  16
ATOM     16  C   UNL     1       6.046   1.517  -3.559  1.00  0.00    -0.000 C 
BRANCH  16  17
ATOM     17  C   UNL     1       5.387   0.316  -2.863  1.00  0.00    -0.003 C 
ATOM     18  C   UNL     1       4.735  -0.656  -3.846  1.00  0.00     0.004 C 
ENDBRANCH  16  17
ENDBRANCH  15  16
ENDBRANCH  14  15
ENDBRANCH  13  14
ENDBRANCH  12  13
ENDBRANCH  11  12
ENDBRANCH   1  11
TORSDOF 14
ENDMDL
MODEL 3
REMARK VINA RESULT:    -3.894      1.381      2.058
REMARK INTER + INTRA:          -9.200
REMARK INTER:                  -7.283
REMARK INTRA:                  -1.917
REMARK UNBOUND:                -2.119
REMARK SMILES CCCCCCCCCCCCCCCC(=O)[O-]
REMARK SMILES IDX 9 1 10 2 11 3 12 4 13 5 14 6 15 7 16 8 17 9 18 10 8 11 7 12
REMARK SMILES IDX 6 13 5 14 4 15 3 16 2 17 1 18
REMARK H PARENT
REMARK Flexibility Score: inf
ROOT
ATOM      1  C   UNL     1       4.234   0.771  -5.678  1.00  0.00     0.000 C 
ENDROOT
BRANCH   1   2
ATOM      2  C   UNL     1       3.699   1.852  -6.640  1.00  0.00     0.000 C 
BRANCH   2   3
ATOM      3  C   UNL     1       2.215   1.702  -7.021  1.00  0.00     0.000 C 
BRANCH   3   4
ATOM      4  C   UNL     1       1.285   2.553  -6.139  1.00  0.00     0.000 C 
BRANCH   4   5
ATOM      5  C   UNL     1       0.110   1.744  -5.568  1.00  0.00     0.000 C 
BRANCH   5   6
ATOM      6  C   UNL     1       0.504   0.928  -4.327  1.00  0.00     0.006 C 
BRANCH   6   7
ATOM      7  C   UNL     1       0.041  -0.526  -4.458  1.00  0.00     0.053 C 
BRANCH   7   8
ATOM      8  C   UNL     1       1.134  -1.376  -5.023  1.00  0.00     0.041 C 
ATOM      9  O   UNL     1       1.136  -1.678  -6.245  1.00  0.00    -0.550 OA
ATOM     10  O   UNL     1       2.126  -1.877  -4.189  1.00  0.00    -0.550 OA
ENDBRANCH   7   8
ENDBRANCH   6   7
ENDBRANCH   5   6
ENDBRANCH   4   5
ENDBRANCH   3   4
ENDBRANCH   2   3
ENDBRANCH   1   2
BRANCH   1  11
ATOM     11  C   UNL     1       4.121   1.115  -4.180  1.00  0.00     0.000 C 
BRANCH  11  12
ATOM     12  C   UNL     1       4.798   2.436  -3.761  1.00  0.00    -0.000 C 
BRANCH  12  13
ATOM     13  C   UNL     1       3.840   3.626  -3.565  1.00  0.00    -0.000 C 
BRANCH  13  14
ATOM     14  C   UNL     1       4.414   4.948  -4.104  1.00  0.00    -0.000 C 
BRANCH  14  15
ATOM     15  C   UNL     1       3.849   6.177  -3.372  1.00  0.00    -0.000 C 
BRANCH  15  16
ATOM     16  C   UNL     1       2.700   6.848  -4.145  1.00  0.00    -0.000 C 
BRANCH  16  17
ATOM     17  C   UNL     1       2.807   6.631  -5.662  1.00  0.00    -0.003 C 
ATOM     18  C   UNL     1       1.462   6.295  -6.310  1.00  0.00     0.004 C 
ENDBRANCH  16  17
ENDBRANCH  15  16
ENDBRANCH  14  15
ENDBRANCH  13  14
ENDBRANCH  12  13
ENDBRANCH  11  12
ENDBRANCH   1  11
TORSDOF 14
ENDMDL
MODEL 4
REMARK VINA RESULT:    -3.840      1.011      2.290
REMARK INTER + INTRA:          -9.101
REMARK INTER:                  -7.381
REMARK INTRA:                  -1.721
REMARK UNBOUND:                -2.119
REMARK SMILES CCCCCCCCCCCCCCCC(=O)[O-]
REMARK SMILES IDX 9 1 10 2 11 3 12 4 13 5 14 6 15 7 16 8 17 9 18 10 8 11 7 12
REMARK SMILES IDX 6 13 5 14 4 15 3 16 2 17 1 18
REMARK H PARENT
REMARK Flexibility Score: inf
ROOT
ATOM      1  C   UNL     1       5.675   1.696  -3.344  1.00  0.00     0.000 C 
ENDROOT
BRANCH   1   2
ATOM      2  C   UNL     1       5.415   0.177  -3.293  1.00  0.00     0.000 C 
BRANCH   2   3
ATOM      3  C   UNL     1       4.200  -0.299  -4.109  1.00  0.00     0.000 C 
BRANCH   3   4
ATOM      4  C   UNL     1       4.105   0.380  -5.486  1.00  0.00     0.000 C 
BRANCH   4   5
ATOM      5  C   UNL     1       2.815   1.198  -5.653  1.00  0.00     0.000 C 
BRANCH   5   6
ATOM      6  C   UNL     1       1.848   1.021  -4.473  1.00  0.00     0.006 C 
BRANCH   6   7
ATOM      7  C   UNL     1       0.574   0.291  -4.912  1.00  0.00     0.053 C 
BRANCH   7   8
ATOM      8  C   UNL     1       0.808  -1.185  -4.969  1.00  0.00     0.041 C 
ATOM      9  O   UNL     1       0.918  -1.851  -3.905  1.00  0.00    -0.550 OA
ATOM     10  O   UNL     1       0.956  -1.819  -6.196  1.00  0.00    -0.550 OA
ENDBRANCH   7   8
ENDBRANCH   6   7
ENDBRANCH   5   6
ENDBRANCH   4   5
ENDBRANCH   3   4
ENDBRANCH   2   3
ENDBRANCH   1   2
BRANCH   1  11
ATOM     11  C   UNL     1       6.923   2.119  -4.144  1.00  0.00     0.000 C 
BRANCH  11  12
ATOM     12  C   UNL     1       6.646   3.043  -5.346  1.00  0.00    -0.000 C 
BRANCH  12  13
ATOM     13  C   UNL     1       6.965   4.531  -5.112  1.00  0.00    -0.000 C 
BRANCH  13  14
ATOM     14  C   UNL     1       5.752   5.447  -5.357  1.00  0.00    -0.000 C 
BRANCH  14  15
ATOM     15  C   UNL     1       4.413   4.725  -5.130  1.00  0.00    -0.000 C 
BRANCH  15  16
ATOM     16  C   UNL     1       3.908   4.861  -3.683  1.00  0.00    -0.000 C 
BRANCH  16  17
ATOM     17  C   UNL     1       3.767   6.327  -3.244  1.00  0.00    -0.003 C 
ATOM     18  C   UNL     1       2.627   7.054  -3.959  1.00  0.00     0.004 C 
ENDBRANCH  16  17
ENDBRANCH  15  16
ENDBRANCH  14  15
ENDBRANCH  13  14
ENDBRANCH  12  13
ENDBRANCH  11  12
ENDBRANCH   1  11
TORSDOF 14
ENDMDL
MODEL 5
REMARK VINA RESULT:    -3.821      1.562      3.250
REMARK INTER + INTRA:          -9.066
REMARK INTER:                  -6.894
REMARK INTRA:                  -2.172
REMARK UNBOUND:                -2.119
REMARK SMILES CCCCCCCCCCCCCCCC(=O)[O-]
REMARK SMILES IDX 9 1 10 2 11 3 12 4 13 5 14 6 15 7 16 8 17 9 18 10 8 11 7 12
REMARK SMILES IDX 6 13 5 14 4 15 3 16 2 17 1 18
REMARK H PARENT
REMARK Flexibility Score: inf
ROOT
ATOM      1  C   UNL     1       3.089   3.130  -3.753  1.00  0.00     0.000 C 
ENDROOT
BRANCH   1   2
ATOM      2  C   UNL     1       2.372   1.971  -4.476  1.00  0.00     0.000 C 
BRANCH   2   3
ATOM      3  C   UNL     1       2.728   1.822  -5.967  1.00  0.00     0.000 C 
BRANCH   3   4
ATOM      4  C   UNL     1       1.625   1.117  -6.774  1.00  0.00     0.000 C 
BRANCH   4   5
ATOM      5  C   UNL     1       1.757  -0.414  -6.742  1.00  0.00     0.000 C 
BRANCH   5   6
ATOM      6  C   UNL     1       0.522  -1.100  -6.139  1.00  0.00     0.006 C 
BRANCH   6   7
ATOM      7  C   UNL     1       0.753  -1.446  -4.664  1.00  0.00     0.053 C 
BRANCH   7   8
ATOM      8  C   UNL     1      -0.248  -0.748  -3.799  1.00  0.00     0.041 C 
ATOM      9  O   UNL     1      -0.681   0.390  -4.121  1.00  0.00    -0.550 OA
ATOM     10  O   UNL     1      -0.667  -1.333  -2.611  1.00  0.00    -0.550 OA
ENDBRANCH   7   8
ENDBRANCH   6   7
ENDBRANCH   5   6
ENDBRANCH   4   5
ENDBRANCH   3   4
ENDBRANCH   2   3
ENDBRANCH   1   2
BRANCH   1  11
ATOM     11  C   UNL     1       3.468   4.325  -4.649  1.00  0.00     0.000 C 
BRANCH  11  12
ATOM     12  C   UNL     1       4.966   4.690  -4.651  1.00  0.00    -0.000 C 
BRANCH  12  13
ATOM     13  C   UNL     1       5.873   3.720  -5.430  1.00  0.00    -0.000 C 
BRANCH  13  14
ATOM     14  C   UNL     1       6.788   2.892  -4.510  1.00  0.00    -0.000 C 
BRANCH  14  15
ATOM     15  C   UNL     1       6.329   1.429  -4.383  1.00  0.00    -0.000 C 
BRANCH  15  16
ATOM     16  C   UNL     1       5.844   1.084  -2.965  1.00  0.00    -0.000 C 
BRANCH  16  17
ATOM     17  C   UNL     1       5.111  -0.265  -2.906  1.00  0.00    -0.003 C 
ATOM     18  C   UNL     1       4.731  -0.795  -4.289  1.00  0.00     0.004 C 
ENDBRANCH  16  17
ENDBRANCH  15  16
ENDBRANCH  14  15
ENDBRANCH  13  14
ENDBRANCH  12  13
ENDBRANCH  11  12
ENDBRANCH   1  11
TORSDOF 14
ENDMDL
MODEL 6
REMARK VINA RESULT:    -3.764      1.355      2.227
REMARK INTER + INTRA:          -8.964
REMARK INTER:                  -6.632
REMARK INTRA:                  -2.331
REMARK UNBOUND:                -2.119
REMARK SMILES CCCCCCCCCCCCCCCC(=O)[O-]
REMARK SMILES IDX 9 1 10 2 11 3 12 4 13 5 14 6 15 7 16 8 17 9 18 10 8 11 7 12
REMARK SMILES IDX 6 13 5 14 4 15 3 16 2 17 1 18
REMARK H PARENT
REMARK Flexibility Score: inf
ROOT
ATOM      1  C   UNL     1       5.587   1.652  -3.374  1.00  0.00     0.000 C 
ENDROOT
BRANCH   1   2
ATOM      2  C   UNL     1       5.247   0.159  -3.557  1.00  0.00     0.000 C 
BRANCH   2   3
ATOM      3  C   UNL     1       3.986  -0.119  -4.394  1.00  0.00     0.000 C 
BRANCH   3   4
ATOM      4  C   UNL     1       3.005   1.066  -4.403  1.00  0.00     0.000 C 
BRANCH   4   5
ATOM      5  C   UNL     1       2.097   1.072  -5.643  1.00  0.00     0.000 C 
BRANCH   5   6
ATOM      6  C   UNL     1       1.773  -0.344  -6.143  1.00  0.00     0.006 C 
BRANCH   6   7
ATOM      7  C   UNL     1       0.354  -0.757  -5.740  1.00  0.00     0.053 C 
BRANCH   7   8
ATOM      8  C   UNL     1       0.302  -1.109  -4.287  1.00  0.00     0.041 C 
ATOM      9  O   UNL     1       0.909  -2.126  -3.859  1.00  0.00    -0.550 OA
ATOM     10  O   UNL     1      -0.457  -0.342  -3.413  1.00  0.00    -0.550 OA
ENDBRANCH   7   8
ENDBRANCH   6   7
ENDBRANCH   5   6
ENDBRANCH   4   5
ENDBRANCH   3   4
ENDBRANCH   2   3
ENDBRANCH   1   2
BRANCH   1  11
ATOM     11  C   UNL     1       6.829   2.139  -4.146  1.00  0.00     0.000 C 
BRANCH  11  12
ATOM     12  C   UNL     1       6.539   3.126  -5.295  1.00  0.00    -0.000 C 
BRANCH  12  13
ATOM     13  C   UNL     1       5.851   2.510  -6.526  1.00  0.00    -0.000 C 
BRANCH  13  14
ATOM     14  C   UNL     1       4.608   3.300  -6.972  1.00  0.00    -0.000 C 
BRANCH  14  15
ATOM     15  C   UNL     1       4.441   4.620  -6.202  1.00  0.00    -0.000 C 
BRANCH  15  16
ATOM     16  C   UNL     1       3.179   4.636  -5.323  1.00  0.00    -0.000 C 
BRANCH  16  17
ATOM     17  C   UNL     1       3.505   4.732  -3.825  1.00  0.00    -0.003 C 
ATOM     18  C   UNL     1       4.224   6.030  -3.456  1.00  0.00     0.004 C 
ENDBRANCH  16  17
ENDBRANCH  15  16
ENDBRANCH  14  15
ENDBRANCH  13  14
ENDBRANCH  12  13
ENDBRANCH  11  12
ENDBRANCH   1  11
TORSDOF 14
ENDMDL
MODEL 7
REMARK VINA RESULT:    -3.560      1.661      5.578
REMARK INTER + INTRA:          -8.593
REMARK INTER:                  -6.795
REMARK INTRA:                  -1.798
REMARK UNBOUND:                -2.119
REMARK SMILES CCCCCCCCCCCCCCCC(=O)[O-]
REMARK SMILES IDX 9 1 10 2 11 3 12 4 13 5 14 6 15 7 16 8 17 9 18 10 8 11 7 12
REMARK SMILES IDX 6 13 5 14 4 15 3 16 2 17 1 18
REMARK H PARENT
REMARK Flexibility Score: inf
ROOT
ATOM      1  C   UNL     1       5.022   5.349  -5.540  1.00  0.00     0.000 C 
ENDROOT
BRANCH   1   2
ATOM      2  C   UNL     1       6.488   5.828  -5.580  1.00  0.00     0.000 C 
BRANCH   2   3
ATOM      3  C   UNL     1       7.476   4.949  -4.792  1.00  0.00     0.000 C 
BRANCH   3   4
ATOM      4  C   UNL     1       7.651   3.551  -5.408  1.00  0.00     0.000 C 
BRANCH   4   5
ATOM      5  C   UNL     1       7.412   2.424  -4.391  1.00  0.00     0.000 C 
BRANCH   5   6
ATOM      6  C   UNL     1       6.142   1.615  -4.695  1.00  0.00     0.006 C 
BRANCH   6   7
ATOM      7  C   UNL     1       5.587   0.967  -3.423  1.00  0.00     0.053 C 
BRANCH   7   8
ATOM      8  C   UNL     1       5.375  -0.499  -3.631  1.00  0.00     0.041 C 
ATOM      9  O   UNL     1       6.149  -1.152  -4.380  1.00  0.00    -0.550 OA
ATOM     10  O   UNL     1       4.293  -1.137  -3.037  1.00  0.00    -0.550 OA
ENDBRANCH   7   8
ENDBRANCH   6   7
ENDBRANCH   5   6
ENDBRANCH   4   5
ENDBRANCH   3   4
ENDBRANCH   2   3
ENDBRANCH   1   2
BRANCH   1  11
ATOM     11  C   UNL     1       4.477   5.029  -4.134  1.00  0.00     0.000 C 
BRANCH  11  12
ATOM     12  C   UNL     1       3.452   3.879  -4.078  1.00  0.00    -0.000 C 
BRANCH  12  13
ATOM     13  C   UNL     1       2.895   3.433  -5.442  1.00  0.00    -0.000 C 
BRANCH  13  14
ATOM     14  C   UNL     1       2.449   1.960  -5.452  1.00  0.00    -0.000 C 
BRANCH  14  15
ATOM     15  C   UNL     1       1.668   1.573  -4.185  1.00  0.00    -0.000 C 
BRANCH  15  16
ATOM     16  C   UNL     1       0.510   0.603  -4.479  1.00  0.00    -0.000 C 
BRANCH  16  17
ATOM     17  C   UNL     1       0.332   0.338  -5.982  1.00  0.00    -0.003 C 
ATOM     18  C   UNL     1       0.615  -1.114  -6.367  1.00  0.00     0.004 C 
ENDBRANCH  16  17
ENDBRANCH  15  16
ENDBRANCH  14  15
ENDBRANCH  13  14
ENDBRANCH  12  13
ENDBRANCH  11  12
ENDBRANCH   1  11
TORSDOF 14
ENDMDL
MODEL 8
REMARK VINA RESULT:    -3.497      1.860      5.332
REMARK INTER + INTRA:          -8.477
REMARK INTER:                  -6.724
REMARK INTRA:                  -1.754
REMARK UNBOUND:                -2.119
REMARK SMILES CCCCCCCCCCCCCCCC(=O)[O-]
REMARK SMILES IDX 9 1 10 2 11 3 12 4 13 5 14 6 15 7 16 8 17 9 18 10 8 11 7 12
REMARK SMILES IDX 6 13 5 14 4 15 3 16 2 17 1 18
REMARK H PARENT
REMARK Flexibility Score: inf
ROOT
ATOM      1  C   UNL     1       3.228   5.881  -4.770  1.00  0.00     0.000 C 
ENDROOT
BRANCH   1   2
ATOM      2  C   UNL     1       4.115   4.977  -3.890  1.00  0.00     0.000 C 
BRANCH   2   3
ATOM      3  C   UNL     1       5.482   4.622  -4.501  1.00  0.00     0.000 C 
BRANCH   3   4
ATOM      4  C   UNL     1       5.647   3.114  -4.756  1.00  0.00     0.000 C 
BRANCH   4   5
ATOM      5  C   UNL     1       4.932   2.255  -3.700  1.00  0.00     0.000 C 
BRANCH   5   6
ATOM      6  C   UNL     1       5.894   1.318  -2.954  1.00  0.00     0.006 C 
BRANCH   6   7
ATOM      7  C   UNL     1       5.295  -0.086  -2.817  1.00  0.00     0.053 C 
BRANCH   7   8
ATOM      8  C   UNL     1       5.301  -0.789  -4.137  1.00  0.00     0.041 C 
ATOM      9  O   UNL     1       6.372  -1.264  -4.598  1.00  0.00    -0.550 OA
ATOM     10  O   UNL     1       4.132  -0.877  -4.884  1.00  0.00    -0.550 OA
ENDBRANCH   7   8
ENDBRANCH   6   7
ENDBRANCH   5   6
ENDBRANCH   4   5
ENDBRANCH   3   4
ENDBRANCH   2   3
ENDBRANCH   1   2
BRANCH   1  11
ATOM     11  C   UNL     1       3.580   5.882  -6.270  1.00  0.00     0.000 C 
BRANCH  11  12
ATOM     12  C   UNL     1       2.833   4.832  -7.117  1.00  0.00    -0.000 C 
BRANCH  12  13
ATOM     13  C   UNL     1       1.410   4.497  -6.634  1.00  0.00    -0.000 C 
BRANCH  13  14
ATOM     14  C   UNL     1       1.125   2.985  -6.622  1.00  0.00    -0.000 C 
BRANCH  14  15
ATOM     15  C   UNL     1       2.090   2.211  -5.707  1.00  0.00    -0.000 C 
BRANCH  15  16
ATOM     16  C   UNL     1       1.375   1.564  -4.508  1.00  0.00    -0.000 C 
BRANCH  16  17
ATOM     17  C   UNL     1       0.045   0.904  -4.902  1.00  0.00    -0.003 C 
ATOM     18  C   UNL     1      -0.384  -0.193  -3.928  1.00  0.00     0.004 C 
ENDBRANCH  16  17
ENDBRANCH  15  16
ENDBRANCH  14  15
ENDBRANCH  13  14
ENDBRANCH  12  13
ENDBRANCH  11  12
ENDBRANCH   1  11
TORSDOF 14
ENDMDL
MODEL 9
REMARK VINA RESULT:    -3.440      1.939      4.145
REMARK INTER + INTRA:          -8.374
REMARK INTER:                  -6.258
REMARK INTRA:                  -2.115
REMARK UNBOUND:                -2.119
REMARK SMILES CCCCCCCCCCCCCCCC(=O)[O-]
REMARK SMILES IDX 9 1 10 2 11 3 12 4 13 5 14 6 15 7 16 8 17 9 18 10 8 11 7 12
REMARK SMILES IDX 6 13 5 14 4 15 3 16 2 17 1 18
REMARK H PARENT
REMARK Flexibility Score: inf
ROOT
ATOM      1  C   UNL     1       3.128   6.355  -4.121  1.00  0.00     0.000 C 
ENDROOT
BRANCH   1   2
ATOM      2  C   UNL     1       2.654   6.504  -5.581  1.00  0.00     0.000 C 
BRANCH   2   3
ATOM      3  C   UNL     1       3.221   5.455  -6.555  1.00  0.00     0.000 C 
BRANCH   3   4
ATOM      4  C   UNL     1       2.218   4.333  -6.872  1.00  0.00     0.000 C 
BRANCH   4   5
ATOM      5  C   UNL     1       2.869   2.941  -6.872  1.00  0.00     0.000 C 
BRANCH   5   6
ATOM      6  C   UNL     1       1.838   1.808  -6.758  1.00  0.00     0.006 C 
BRANCH   6   7
ATOM      7  C   UNL     1       1.817   1.227  -5.340  1.00  0.00     0.053 C 
BRANCH   7   8
ATOM      8  C   UNL     1       0.422   1.204  -4.803  1.00  0.00     0.041 C 
ATOM      9  O   UNL     1       0.168   0.611  -3.721  1.00  0.00    -0.550 OA
ATOM     10  O   UNL     1      -0.610   1.794  -5.523  1.00  0.00    -0.550 OA
ENDBRANCH   7   8
ENDBRANCH   6   7
ENDBRANCH   5   6
ENDBRANCH   4   5
ENDBRANCH   3   4
ENDBRANCH   2   3
ENDBRANCH   1   2
BRANCH   1  11
ATOM     11  C   UNL     1       4.201   5.272  -3.889  1.00  0.00     0.000 C 
BRANCH  11  12
ATOM     12  C   UNL     1       3.669   3.935  -3.335  1.00  0.00    -0.000 C 
BRANCH  12  13
ATOM     13  C   UNL     1       4.573   2.716  -3.595  1.00  0.00    -0.000 C 
BRANCH  13  14
ATOM     14  C   UNL     1       5.723   3.024  -4.570  1.00  0.00    -0.000 C 
BRANCH  14  15
ATOM     15  C   UNL     1       6.478   1.758  -5.009  1.00  0.00    -0.000 C 
BRANCH  15  16
ATOM     16  C   UNL     1       5.533   0.649  -5.503  1.00  0.00    -0.000 C 
BRANCH  16  17
ATOM     17  C   UNL     1       5.739  -0.676  -4.752  1.00  0.00    -0.003 C 
ATOM     18  C   UNL     1       4.717  -0.890  -3.635  1.00  0.00     0.004 C 
ENDBRANCH  16  17
ENDBRANCH  15  16
ENDBRANCH  14  15
ENDBRANCH  13  14
ENDBRANCH  12  13
ENDBRANCH  11  12
ENDBRANCH   1  11
TORSDOF 14
ENDMDL
