MODEL 1
REMARK VINA RESULT:    -2.727      0.000      0.000
REMARK INTER + INTRA:          -6.323
REMARK INTER:                  -4.639
REMARK INTRA:                  -1.683
REMARK UNBOUND:                -1.683
REMARK SMILES CCCCCCCCCCCCCC(=O)[O-]
REMARK SMILES IDX 8 1 9 2 10 3 11 4 12 5 13 6 14 7 15 8 16 9 7 10 6 11 5 12
REMARK SMILES IDX 4 13 3 14 2 15 1 16
REMARK H PARENT
REMARK Flexibility Score: inf
ROOT
ATOM      1  C   UNL     1       9.145 -19.656  19.002  1.00  0.00     0.000 C 
ENDROOT
BRANCH   1   2
ATOM      2  C   UNL     1      10.483 -19.263  18.355  1.00  0.00     0.000 C 
BRANCH   2   3
ATOM      3  C   UNL     1      11.552 -18.875  19.386  1.00  0.00     0.000 C 
BRANCH   3   4
ATOM      4  C   UNL     1      10.972 -18.895  20.809  1.00  0.00     0.000 C 
BRANCH   4   5
ATOM      5  C   UNL     1      12.034 -19.202  21.877  1.00  0.00     0.006 C 
BRANCH   5   6
ATOM      6  C   UNL     1      13.426 -18.683  21.493  1.00  0.00     0.053 C 
BRANCH   6   7
ATOM      7  C   UNL     1      13.585 -17.256  21.915  1.00  0.00     0.041 C 
ATOM      8  O   UNL     1      13.342 -16.915  23.102  1.00  0.00    -0.550 OA
ATOM      9  O   UNL     1      14.048 -16.311  21.009  1.00  0.00    -0.550 OA
ENDBRANCH   6   7
ENDBRANCH   5   6
ENDBRANCH   4   5
ENDBRANCH   3   4
ENDBRANCH   2   3
ENDBRANCH   1   2
BRANCH   1  10
ATOM     10  C   UNL     1       7.937 -19.309  18.115  1.00  0.00     0.000 C 
BRANCH  10  11
ATOM     11  C   UNL     1       6.851 -18.520  18.868  1.00  0.00    -0.000 C 
BRANCH  11  12
ATOM     12  C   UNL     1       6.711 -17.043  18.451  1.00  0.00    -0.000 C 
BRANCH  12  13
ATOM     13  C   UNL     1       8.047 -16.270  18.435  1.00  0.00    -0.000 C 
BRANCH  13  14
ATOM     14  C   UNL     1       8.619 -16.068  19.849  1.00  0.00    -0.000 C 
BRANCH  14  15
ATOM     15  C   UNL     1      10.044 -15.494  19.831  1.00  0.00    -0.003 C 
ATOM     16  C   UNL     1      10.577 -15.203  21.233  1.00  0.00     0.004 C 
ENDBRANCH  14  15
ENDBRANCH  13  14
ENDBRANCH  12  13
ENDBRANCH  11  12
ENDBRANCH  10  11
ENDBRANCH   1  10
TORSDOF 12
ENDMDL
MODEL 2
REMARK VINA RESULT:    -2.693      1.285      3.164
REMARK INTER + INTRA:          -6.266
REMARK INTER:                  -4.628
REMARK INTRA:                  -1.637
REMARK UNBOUND:                -1.683
REMARK SMILES CCCCCCCCCCCCCC(=O)[O-]
REMARK SMILES IDX 8 1 9 2 10 3 11 4 12 5 13 6 14 7 15 8 16 9 7 10 6 11 5 12
REMARK SMILES IDX 4 13 3 14 2 15 1 16
REMARK H PARENT
REMARK Flexibility Score: inf
ROOT
ATOM      1  C   UNL     1       8.102 -15.496  19.300  1.00  0.00     0.000 C 
ENDROOT
BRANCH   1   2
ATOM      2  C   UNL     1       9.551 -15.593  19.802  1.00  0.00     0.000 C 
BRANCH   2   3
ATOM      3  C   UNL     1       9.922 -17.002  20.288  1.00  0.00     0.000 C 
BRANCH   3   4
ATOM      4  C   UNL     1      11.390 -17.321  19.969  1.00  0.00     0.000 C 
BRANCH   4   5
ATOM      5  C   UNL     1      11.711 -18.820  20.091  1.00  0.00     0.006 C 
BRANCH   5   6
ATOM      6  C   UNL     1      12.215 -19.204  21.489  1.00  0.00     0.053 C 
BRANCH   6   7
ATOM      7  C   UNL     1      13.140 -18.153  22.016  1.00  0.00     0.041 C 
ATOM      8  O   UNL     1      14.298 -18.030  21.538  1.00  0.00    -0.550 OA
ATOM      9  O   UNL     1      12.706 -17.276  23.001  1.00  0.00    -0.550 OA
ENDBRANCH   6   7
ENDBRANCH   5   6
ENDBRANCH   4   5
ENDBRANCH   3   4
ENDBRANCH   2   3
ENDBRANCH   1   2
BRANCH   1  10
ATOM     10  C   UNL     1       7.877 -16.275  17.993  1.00  0.00     0.000 C 
BRANCH  10  11
ATOM     11  C   UNL     1       6.560 -17.068  17.990  1.00  0.00    -0.000 C 
BRANCH  11  12
ATOM     12  C   UNL     1       6.640 -18.469  18.630  1.00  0.00    -0.000 C 
BRANCH  12  13
ATOM     13  C   UNL     1       7.862 -19.294  18.173  1.00  0.00    -0.000 C 
BRANCH  13  14
ATOM     14  C   UNL     1       8.376 -20.232  19.279  1.00  0.00    -0.000 C 
BRANCH  14  15
ATOM     15  C   UNL     1       7.792 -19.891  20.658  1.00  0.00    -0.003 C 
ATOM     16  C   UNL     1       8.659 -20.406  21.806  1.00  0.00     0.004 C 
ENDBRANCH  14  15
ENDBRANCH  13  14
ENDBRANCH  12  13
ENDBRANCH  11  12
ENDBRANCH  10  11
ENDBRANCH   1  10
TORSDOF 12
ENDMDL
MODEL 3
REMARK VINA RESULT:    -2.688      1.805      3.182
REMARK INTER + INTRA:          -6.258
REMARK INTER:                  -4.041
REMARK INTRA:                  -2.217
REMARK UNBOUND:                -1.683
REMARK SMILES CCCCCCCCCCCCCC(=O)[O-]
REMARK SMILES IDX 8 1 9 2 10 3 11 4 12 5 13 6 14 7 15 8 16 9 7 10 6 11 5 12
REMARK SMILES IDX 4 13 3 14 2 15 1 16
REMARK H PARENT
REMARK Flexibility Score: inf
ROOT
ATOM      1  C   UNL     1       9.275 -18.675  18.243  1.00  0.00     0.000 C 
ENDROOT
BRANCH   1   2
ATOM      2  C   UNL     1      10.638 -19.281  18.614  1.00  0.00     0.000 C 
BRANCH   2   3
ATOM      3  C   UNL     1      11.419 -18.422  19.620  1.00  0.00     0.000 C 
BRANCH   3   4
ATOM      4  C   UNL     1      10.731 -17.065  19.829  1.00  0.00     0.000 C 
BRANCH   4   5
ATOM      5  C   UNL     1      10.808 -16.579  21.286  1.00  0.00     0.006 C 
BRANCH   5   6
ATOM      6  C   UNL     1      12.238 -16.608  21.843  1.00  0.00     0.053 C 
BRANCH   6   7
ATOM      7  C   UNL     1      13.078 -15.564  21.177  1.00  0.00     0.041 C 
ATOM      8  O   UNL     1      14.114 -15.893  20.543  1.00  0.00    -0.550 OA
ATOM      9  O   UNL     1      12.688 -14.232  21.215  1.00  0.00    -0.550 OA
ENDBRANCH   6   7
ENDBRANCH   5   6
ENDBRANCH   4   5
ENDBRANCH   3   4
ENDBRANCH   2   3
ENDBRANCH   1   2
BRANCH   1  10
ATOM     10  C   UNL     1       8.111 -19.650  18.485  1.00  0.00     0.000 C 
BRANCH  10  11
ATOM     11  C   UNL     1       7.998 -20.093  19.953  1.00  0.00    -0.000 C 
BRANCH  11  12
ATOM     12  C   UNL     1       7.640 -18.971  20.948  1.00  0.00    -0.000 C 
BRANCH  12  13
ATOM     13  C   UNL     1       8.322 -19.117  22.325  1.00  0.00    -0.000 C 
BRANCH  13  14
ATOM     14  C   UNL     1       9.493 -20.114  22.290  1.00  0.00    -0.000 C 
BRANCH  14  15
ATOM     15  C   UNL     1      10.634 -19.716  23.239  1.00  0.00    -0.003 C 
ATOM     16  C   UNL     1      11.974 -20.331  22.837  1.00  0.00     0.004 C 
ENDBRANCH  14  15
ENDBRANCH  13  14
ENDBRANCH  12  13
ENDBRANCH  11  12
ENDBRANCH  10  11
ENDBRANCH   1  10
TORSDOF 12
ENDMDL
MODEL 4
REMARK VINA RESULT:    -2.688      1.236      1.635
REMARK INTER + INTRA:          -6.257
REMARK INTER:                  -4.409
REMARK INTRA:                  -1.848
REMARK UNBOUND:                -1.683
REMARK SMILES CCCCCCCCCCCCCC(=O)[O-]
REMARK SMILES IDX 8 1 9 2 10 3 11 4 12 5 13 6 14 7 15 8 16 9 7 10 6 11 5 12
REMARK SMILES IDX 4 13 3 14 2 15 1 16
REMARK H PARENT
REMARK Flexibility Score: inf
ROOT
ATOM      1  C   UNL     1       8.349 -20.002  19.540  1.00  0.00     0.000 C 
ENDROOT
BRANCH   1   2
ATOM      2  C   UNL     1       9.587 -19.330  20.156  1.00  0.00     0.000 C 
BRANCH   2   3
ATOM      3  C   UNL     1      10.660 -18.987  19.113  1.00  0.00     0.000 C 
BRANCH   3   4
ATOM      4  C   UNL     1      12.018 -18.741  19.787  1.00  0.00     0.000 C 
BRANCH   4   5
ATOM      5  C   UNL     1      12.172 -17.300  20.302  1.00  0.00     0.006 C 
BRANCH   5   6
ATOM      6  C   UNL     1      12.711 -17.242  21.738  1.00  0.00     0.053 C 
BRANCH   6   7
ATOM      7  C   UNL     1      14.078 -17.845  21.807  1.00  0.00     0.041 C 
ATOM      8  O   UNL     1      15.063 -17.242  21.306  1.00  0.00    -0.550 OA
ATOM      9  O   UNL     1      14.273 -19.051  22.468  1.00  0.00    -0.550 OA
ENDBRANCH   6   7
ENDBRANCH   5   6
ENDBRANCH   4   5
ENDBRANCH   3   4
ENDBRANCH   2   3
ENDBRANCH   1   2
BRANCH   1  10
ATOM     10  C   UNL     1       7.810 -19.238  18.318  1.00  0.00     0.000 C 
BRANCH  10  11
ATOM     11  C   UNL     1       6.560 -18.402  18.641  1.00  0.00    -0.000 C 
BRANCH  11  12
ATOM     12  C   UNL     1       6.743 -16.877  18.504  1.00  0.00    -0.000 C 
BRANCH  12  13
ATOM     13  C   UNL     1       8.191 -16.448  18.190  1.00  0.00    -0.000 C 
BRANCH  13  14
ATOM     14  C   UNL     1       8.856 -15.731  19.378  1.00  0.00    -0.000 C 
BRANCH  14  15
ATOM     15  C   UNL     1       8.085 -15.931  20.692  1.00  0.00    -0.003 C 
ATOM     16  C   UNL     1       9.010 -16.136  21.890  1.00  0.00     0.004 C 
ENDBRANCH  14  15
ENDBRANCH  13  14
ENDBRANCH  12  13
ENDBRANCH  11  12
ENDBRANCH  10  11
ENDBRANCH   1  10
TORSDOF 12
ENDMDL
MODEL 5
REMARK VINA RESULT:    -2.687      1.544      3.749
REMARK INTER + INTRA:          -6.256
REMARK INTER:                  -4.539
REMARK INTRA:                  -1.717
REMARK UNBOUND:                -1.683
REMARK SMILES CCCCCCCCCCCCCC(=O)[O-]
REMARK SMILES IDX 8 1 9 2 10 3 11 4 12 5 13 6 14 7 15 8 16 9 7 10 6 11 5 12
REMARK SMILES IDX 4 13 3 14 2 15 1 16
REMARK H PARENT
REMARK Flexibility Score: inf
ROOT
ATOM      1  C   UNL     1       7.098 -17.513  19.969  1.00  0.00     0.000 C 
ENDROOT
BRANCH   1   2
ATOM      2  C   UNL     1       7.378 -16.223  19.183  1.00  0.00     0.000 C 
BRANCH   2   3
ATOM      3  C   UNL     1       8.820 -15.723  19.352  1.00  0.00     0.000 C 
BRANCH   3   4
ATOM      4  C   UNL     1       9.325 -15.983  20.779  1.00  0.00     0.000 C 
BRANCH   4   5
ATOM      5  C   UNL     1      10.717 -15.382  21.034  1.00  0.00     0.006 C 
BRANCH   5   6
ATOM      6  C   UNL     1      11.462 -15.047  19.735  1.00  0.00     0.053 C 
BRANCH   6   7
ATOM      7  C   UNL     1      12.467 -13.965  19.975  1.00  0.00     0.041 C 
ATOM      8  O   UNL     1      13.405 -14.141  20.795  1.00  0.00    -0.550 OA
ATOM      9  O   UNL     1      12.395 -12.779  19.256  1.00  0.00    -0.550 OA
ENDBRANCH   6   7
ENDBRANCH   5   6
ENDBRANCH   4   5
ENDBRANCH   3   4
ENDBRANCH   2   3
ENDBRANCH   1   2
BRANCH   1  10
ATOM     10  C   UNL     1       6.676 -18.679  19.058  1.00  0.00     0.000 C 
BRANCH  10  11
ATOM     11  C   UNL     1       7.846 -19.246  18.235  1.00  0.00    -0.000 C 
BRANCH  11  12
ATOM     12  C   UNL     1       9.060 -19.712  19.063  1.00  0.00    -0.000 C 
BRANCH  12  13
ATOM     13  C   UNL     1      10.420 -19.409  18.399  1.00  0.00    -0.000 C 
BRANCH  13  14
ATOM     14  C   UNL     1      11.375 -18.663  19.347  1.00  0.00    -0.000 C 
BRANCH  14  15
ATOM     15  C   UNL     1      11.182 -19.069  20.817  1.00  0.00    -0.003 C 
ATOM     16  C   UNL     1      12.505 -19.189  21.571  1.00  0.00     0.004 C 
ENDBRANCH  14  15
ENDBRANCH  13  14
ENDBRANCH  12  13
ENDBRANCH  11  12
ENDBRANCH  10  11
ENDBRANCH   1  10
TORSDOF 12
ENDMDL
MODEL 6
REMARK VINA RESULT:    -2.684      3.005      5.270
REMARK INTER + INTRA:          -6.251
REMARK INTER:                  -4.352
REMARK INTRA:                  -1.899
REMARK UNBOUND:                -1.683
REMARK SMILES CCCCCCCCCCCCCC(=O)[O-]
REMARK SMILES IDX 8 1 9 2 10 3 11 4 12 5 13 6 14 7 15 8 16 9 7 10 6 11 5 12
REMARK SMILES IDX 4 13 3 14 2 15 1 16
REMARK H PARENT
REMARK Flexibility Score: inf
ROOT
ATOM      1  C   UNL     1      11.787 -17.930  21.764  1.00  0.00     0.000 C 
ENDROOT
BRANCH   1   2
ATOM      2  C   UNL     1      12.467 -18.851  20.739  1.00  0.00     0.000 C 
BRANCH   2   3
ATOM      3  C   UNL     1      11.720 -18.906  19.399  1.00  0.00     0.000 C 
BRANCH   3   4
ATOM      4  C   UNL     1      10.203 -18.992  19.621  1.00  0.00     0.000 C 
BRANCH   4   5
ATOM      5  C   UNL     1       9.402 -18.844  18.317  1.00  0.00     0.006 C 
BRANCH   5   6
ATOM      6  C   UNL     1       8.046 -19.559  18.373  1.00  0.00     0.053 C 
BRANCH   6   7
ATOM      7  C   UNL     1       7.046 -18.723  19.108  1.00  0.00     0.041 C 
ATOM      8  O   UNL     1       6.607 -19.096  20.227  1.00  0.00    -0.550 OA
ATOM      9  O   UNL     1       6.634 -17.507  18.579  1.00  0.00    -0.550 OA
ENDBRANCH   6   7
ENDBRANCH   5   6
ENDBRANCH   4   5
ENDBRANCH   3   4
ENDBRANCH   2   3
ENDBRANCH   1   2
BRANCH   1  10
ATOM     10  C   UNL     1      12.720 -16.813  22.264  1.00  0.00     0.000 C 
BRANCH  10  11
ATOM     11  C   UNL     1      13.616 -16.242  21.151  1.00  0.00    -0.000 C 
BRANCH  11  12
ATOM     12  C   UNL     1      13.151 -14.893  20.567  1.00  0.00    -0.000 C 
BRANCH  12  13
ATOM     13  C   UNL     1      11.967 -15.014  19.584  1.00  0.00    -0.000 C 
BRANCH  13  14
ATOM     14  C   UNL     1      10.654 -14.489  20.189  1.00  0.00    -0.000 C 
BRANCH  14  15
ATOM     15  C   UNL     1       9.450 -15.380  19.845  1.00  0.00    -0.003 C 
ATOM     16  C   UNL     1       8.774 -15.958  21.088  1.00  0.00     0.004 C 
ENDBRANCH  14  15
ENDBRANCH  13  14
ENDBRANCH  12  13
ENDBRANCH  11  12
ENDBRANCH  10  11
ENDBRANCH   1  10
TORSDOF 12
ENDMDL
MODEL 7
REMARK VINA RESULT:    -2.673      2.997      4.873
REMARK INTER + INTRA:          -6.232
REMARK INTER:                  -4.247
REMARK INTRA:                  -1.985
REMARK UNBOUND:                -1.683
REMARK SMILES CCCCCCCCCCCCCC(=O)[O-]
REMARK SMILES IDX 8 1 9 2 10 3 11 4 12 5 13 6 14 7 15 8 16 9 7 10 6 11 5 12
REMARK SMILES IDX 4 13 3 14 2 15 1 16
REMARK H PARENT
REMARK Flexibility Score: inf
ROOT
ATOM      1  C   UNL     1      11.589 -18.511  19.494  1.00  0.00     0.000 C 
ENDROOT
BRANCH   1   2
ATOM      2  C   UNL     1      11.510 -18.946  20.966  1.00  0.00     0.000 C 
BRANCH   2   3
ATOM      3  C   UNL     1      10.269 -18.396  21.684  1.00  0.00     0.000 C 
BRANCH   3   4
ATOM      4  C   UNL     1      10.191 -16.868  21.548  1.00  0.00     0.000 C 
BRANCH   4   5
ATOM      5  C   UNL     1       8.845 -16.391  20.980  1.00  0.00     0.006 C 
BRANCH   5   6
ATOM      6  C   UNL     1       9.010 -15.463  19.769  1.00  0.00     0.053 C 
BRANCH   6   7
ATOM      7  C   UNL     1       7.694 -15.253  19.089  1.00  0.00     0.041 C 
ATOM      8  O   UNL     1       7.508 -15.680  17.920  1.00  0.00    -0.550 OA
ATOM      9  O   UNL     1       6.655 -14.627  19.766  1.00  0.00    -0.550 OA
ENDBRANCH   6   7
ENDBRANCH   5   6
ENDBRANCH   4   5
ENDBRANCH   3   4
ENDBRANCH   2   3
ENDBRANCH   1   2
BRANCH   1  10
ATOM     10  C   UNL     1      10.714 -19.379  18.574  1.00  0.00     0.000 C 
BRANCH  10  11
ATOM     11  C   UNL     1       9.477 -18.632  18.049  1.00  0.00    -0.000 C 
BRANCH  11  12
ATOM     12  C   UNL     1       8.130 -19.336  18.310  1.00  0.00    -0.000 C 
BRANCH  12  13
ATOM     13  C   UNL     1       8.251 -20.614  19.167  1.00  0.00    -0.000 C 
BRANCH  13  14
ATOM     14  C   UNL     1       7.679 -20.420  20.582  1.00  0.00    -0.000 C 
BRANCH  14  15
ATOM     15  C   UNL     1       6.638 -19.291  20.647  1.00  0.00    -0.003 C 
ATOM     16  C   UNL     1       5.647 -19.472  21.796  1.00  0.00     0.004 C 
ENDBRANCH  14  15
ENDBRANCH  13  14
ENDBRANCH  12  13
ENDBRANCH  11  12
ENDBRANCH  10  11
ENDBRANCH   1  10
TORSDOF 12
ENDMDL
MODEL 8
REMARK VINA RESULT:    -2.609      2.145      5.261
REMARK INTER + INTRA:          -6.123
REMARK INTER:                  -4.026
REMARK INTRA:                  -2.097
REMARK UNBOUND:                -1.683
REMARK SMILES CCCCCCCCCCCCCC(=O)[O-]
REMARK SMILES IDX 8 1 9 2 10 3 11 4 12 5 13 6 14 7 15 8 16 9 7 10 6 11 5 12
REMARK SMILES IDX 4 13 3 14 2 15 1 16
REMARK H PARENT
REMARK Flexibility Score: inf
ROOT
ATOM      1  C   UNL     1      11.207 -15.603  22.948  1.00  0.00     0.000 C 
ENDROOT
BRANCH   1   2
ATOM      2  C   UNL     1       9.965 -15.515  22.047  1.00  0.00     0.000 C 
BRANCH   2   3
ATOM      3  C   UNL     1      10.190 -14.639  20.807  1.00  0.00     0.000 C 
BRANCH   3   4
ATOM      4  C   UNL     1      10.983 -15.402  19.735  1.00  0.00     0.000 C 
BRANCH   4   5
ATOM      5  C   UNL     1      12.356 -14.772  19.453  1.00  0.00     0.006 C 
BRANCH   5   6
ATOM      6  C   UNL     1      12.375 -13.258  19.706  1.00  0.00     0.053 C 
BRANCH   6   7
ATOM      7  C   UNL     1      13.466 -12.904  20.667  1.00  0.00     0.041 C 
ATOM      8  O   UNL     1      14.058 -13.805  21.315  1.00  0.00    -0.550 OA
ATOM      9  O   UNL     1      13.862 -11.580  20.810  1.00  0.00    -0.550 OA
ENDBRANCH   6   7
ENDBRANCH   5   6
ENDBRANCH   4   5
ENDBRANCH   3   4
ENDBRANCH   2   3
ENDBRANCH   1   2
BRANCH   1  10
ATOM     10  C   UNL     1      11.818 -17.014  22.975  1.00  0.00     0.000 C 
BRANCH  10  11
ATOM     11  C   UNL     1      13.206 -17.077  22.315  1.00  0.00    -0.000 C 
BRANCH  11  12
ATOM     12  C   UNL     1      13.380 -18.195  21.268  1.00  0.00    -0.000 C 
BRANCH  12  13
ATOM     13  C   UNL     1      12.072 -18.938  20.925  1.00  0.00    -0.000 C 
BRANCH  13  14
ATOM     14  C   UNL     1      11.782 -18.936  19.414  1.00  0.00    -0.000 C 
BRANCH  14  15
ATOM     15  C   UNL     1      10.279 -19.005  19.102  1.00  0.00    -0.003 C 
ATOM     16  C   UNL     1       9.412 -18.764  20.337  1.00  0.00     0.004 C 
ENDBRANCH  14  15
ENDBRANCH  13  14
ENDBRANCH  12  13
ENDBRANCH  11  12
ENDBRANCH  10  11
ENDBRANCH   1  10
TORSDOF 12
ENDMDL
MODEL 9
REMARK VINA RESULT:    -2.602      3.100      5.875
REMARK INTER + INTRA:          -6.111
REMARK INTER:                  -4.746
REMARK INTRA:                  -1.365
REMARK UNBOUND:                -1.683
REMARK SMILES CCCCCCCCCCCCCC(=O)[O-]
REMARK SMILES IDX 8 1 9 2 10 3 11 4 12 5 13 6 14 7 15 8 16 9 7 10 6 11 5 12
REMARK SMILES IDX 4 13 3 14 2 15 1 16
REMARK H PARENT
REMARK Flexibility Score: inf
ROOT
ATOM      1  C   UNL     1      12.299 -18.371  21.955  1.00  0.00     0.000 C 
ENDROOT
BRANCH   1   2
ATOM      2  C   UNL     1      11.569 -19.296  20.968  1.00  0.00     0.000 C 
BRANCH   2   3
ATOM      3  C   UNL     1      11.795 -18.899  19.502  1.00  0.00     0.000 C 
BRANCH   3   4
ATOM      4  C   UNL     1      10.569 -19.251  18.646  1.00  0.00     0.000 C 
BRANCH   4   5
ATOM      5  C   UNL     1       9.259 -19.232  19.450  1.00  0.00     0.006 C 
BRANCH   5   6
ATOM      6  C   UNL     1       8.034 -19.576  18.591  1.00  0.00     0.053 C 
BRANCH   6   7
ATOM      7  C   UNL     1       7.184 -18.363  18.386  1.00  0.00     0.041 C 
ATOM      8  O   UNL     1       5.969 -18.376  18.715  1.00  0.00    -0.550 OA
ATOM      9  O   UNL     1       7.745 -17.200  17.875  1.00  0.00    -0.550 OA
ENDBRANCH   6   7
ENDBRANCH   5   6
ENDBRANCH   4   5
ENDBRANCH   3   4
ENDBRANCH   2   3
ENDBRANCH   1   2
BRANCH   1  10
ATOM     10  C   UNL     1      13.700 -18.889  22.322  1.00  0.00     0.000 C 
BRANCH  10  11
ATOM     11  C   UNL     1      14.755 -17.770  22.373  1.00  0.00    -0.000 C 
BRANCH  11  12
ATOM     12  C   UNL     1      14.628 -16.703  21.268  1.00  0.00    -0.000 C 
BRANCH  12  13
ATOM     13  C   UNL     1      14.376 -15.277  21.804  1.00  0.00    -0.000 C 
BRANCH  13  14
ATOM     14  C   UNL     1      13.465 -14.459  20.872  1.00  0.00    -0.000 C 
BRANCH  14  15
ATOM     15  C   UNL     1      12.738 -15.336  19.841  1.00  0.00    -0.003 C 
ATOM     16  C   UNL     1      11.221 -15.154  19.880  1.00  0.00     0.004 C 
ENDBRANCH  14  15
ENDBRANCH  13  14
ENDBRANCH  12  13
ENDBRANCH  11  12
ENDBRANCH  10  11
ENDBRANCH   1  10
TORSDOF 12
ENDMDL
