MODEL 1
REMARK VINA RESULT:    -6.294      0.000      0.000
REMARK INTER + INTRA:          -7.878
REMARK INTER:                  -7.582
REMARK INTRA:                  -0.296
REMARK UNBOUND:                -0.296
REMARK SMILES O=c1c(O)c(-c2ccc(O)c(O)c2)oc2cc(O)cc(O)c12
REMARK SMILES IDX 5 1 3 2 2 3 1 4 22 5 20 6 19 7 17 8 16 9 15 10 14 11 6 12
REMARK SMILES IDX 7 13 8 14 9 15 13 16 11 17 10 18 12 20 4 22 21 24 18 26
REMARK H PARENT 10 19 12 21 4 23 21 25 18 27
REMARK Flexibility Score: inf
ROOT
ATOM      1  C   UNL     1      11.066  23.360  31.305  1.00  0.00     0.180 A 
ATOM      2  C   UNL     1      11.711  24.547  31.706  1.00  0.00     0.208 A 
ATOM      3  C   UNL     1      11.079  25.777  31.467  1.00  0.00     0.238 A 
ATOM      4  O   UNL     1      11.652  26.846  31.812  1.00  0.00    -0.285 OA
ATOM      5  C   UNL     1       9.810  25.801  30.853  1.00  0.00     0.111 A 
ATOM      6  C   UNL     1       9.104  26.997  30.580  1.00  0.00     0.134 A 
ATOM      7  C   UNL     1       7.840  26.936  29.975  1.00  0.00     0.093 A 
ATOM      8  C   UNL     1       7.269  25.708  29.638  1.00  0.00     0.123 A 
ATOM      9  C   UNL     1       7.963  24.522  29.904  1.00  0.00     0.094 A 
ATOM     10  C   UNL     1       9.224  24.561  30.505  1.00  0.00     0.146 A 
ATOM     11  O   UNL     1       9.862  23.421  30.743  1.00  0.00    -0.452 OA
ENDROOT
BRANCH   1  12
ATOM     12  C   UNL     1      11.676  22.027  31.506  1.00  0.00     0.025 A 
ATOM     13  C   UNL     1      12.668  21.581  30.618  1.00  0.00     0.016 A 
ATOM     14  C   UNL     1      13.272  20.335  30.801  1.00  0.00     0.051 A 
ATOM     15  C   UNL     1      12.907  19.523  31.883  1.00  0.00     0.157 A 
ATOM     16  C   UNL     1      11.326  21.219  32.603  1.00  0.00     0.062 A 
ATOM     17  C   UNL     1      11.932  19.970  32.790  1.00  0.00     0.158 A 
BRANCH  15  18
ATOM     18  O   UNL     1      13.510  18.280  32.061  1.00  0.00    -0.504 OA
ATOM     19  H   UNL     1      14.461  18.195  32.404  1.00  0.00     0.293 HD
ENDBRANCH  15  18
BRANCH  17  20
ATOM     20  O   UNL     1      11.556  19.193  33.885  1.00  0.00    -0.504 OA
ATOM     21  H   UNL     1      10.710  18.635  33.884  1.00  0.00     0.293 HD
ENDBRANCH  17  20
ENDBRANCH   1  12
BRANCH   2  22
ATOM     22  O   UNL     1      12.946  24.493  32.356  1.00  0.00    -0.502 OA
ATOM     23  H   UNL     1      13.197  23.736  32.981  1.00  0.00     0.293 HD
ENDBRANCH   2  22
BRANCH   6  24
ATOM     24  O   UNL     1       9.646  28.241  30.906  1.00  0.00    -0.507 OA
ATOM     25  H   UNL     1       9.158  28.894  31.510  1.00  0.00     0.293 HD
ENDBRANCH   6  24
BRANCH   8  26
ATOM     26  O   UNL     1       6.012  25.675  29.038  1.00  0.00    -0.508 OA
ATOM     27  H   UNL     1       5.424  26.499  28.993  1.00  0.00     0.293 HD
ENDBRANCH   8  26
TORSDOF 6
ENDMDL
MODEL 2
REMARK VINA RESULT:    -6.278      8.041      9.965
REMARK INTER + INTRA:          -7.858
REMARK INTER:                  -7.544
REMARK INTRA:                  -0.315
REMARK UNBOUND:                -0.296
REMARK SMILES O=c1c(O)c(-c2ccc(O)c(O)c2)oc2cc(O)cc(O)c12
REMARK SMILES IDX 5 1 3 2 2 3 1 4 22 5 20 6 19 7 17 8 16 9 15 10 14 11 6 12
REMARK SMILES IDX 7 13 8 14 9 15 13 16 11 17 10 18 12 20 4 22 21 24 18 26
REMARK H PARENT 10 19 12 21 4 23 21 25 18 27
REMARK Flexibility Score: inf
ROOT
ATOM      1  C   UNL     1       4.902  18.761  25.820  1.00  0.00     0.180 A 
ATOM      2  C   UNL     1       5.795  18.237  26.777  1.00  0.00     0.208 A 
ATOM      3  C   UNL     1       6.386  19.111  27.702  1.00  0.00     0.238 A 
ATOM      4  O   UNL     1       7.194  18.656  28.556  1.00  0.00    -0.285 OA
ATOM      5  C   UNL     1       6.063  20.483  27.670  1.00  0.00     0.111 A 
ATOM      6  C   UNL     1       6.613  21.429  28.568  1.00  0.00     0.134 A 
ATOM      7  C   UNL     1       6.233  22.777  28.478  1.00  0.00     0.093 A 
ATOM      8  C   UNL     1       5.319  23.196  27.510  1.00  0.00     0.123 A 
ATOM      9  C   UNL     1       4.773  22.266  26.619  1.00  0.00     0.094 A 
ATOM     10  C   UNL     1       5.139  20.919  26.691  1.00  0.00     0.146 A 
ATOM     11  O   UNL     1       4.610  20.058  25.830  1.00  0.00    -0.452 OA
ENDROOT
BRANCH   1  12
ATOM     12  C   UNL     1       4.253  17.907  24.801  1.00  0.00     0.025 A 
ATOM     13  C   UNL     1       4.947  17.589  23.622  1.00  0.00     0.016 A 
ATOM     14  C   UNL     1       4.362  16.767  22.657  1.00  0.00     0.051 A 
ATOM     15  C   UNL     1       3.081  16.238  22.860  1.00  0.00     0.157 A 
ATOM     16  C   UNL     1       2.975  17.356  25.012  1.00  0.00     0.062 A 
ATOM     17  C   UNL     1       2.387  16.531  24.045  1.00  0.00     0.158 A 
BRANCH  15  18
ATOM     18  O   UNL     1       2.499  15.419  21.893  1.00  0.00    -0.504 OA
ATOM     19  H   UNL     1       3.062  14.859  21.263  1.00  0.00     0.293 HD
ENDBRANCH  15  18
BRANCH  17  20
ATOM     20  O   UNL     1       1.117  16.008  24.285  1.00  0.00    -0.504 OA
ATOM     21  H   UNL     1       0.283  16.582  24.252  1.00  0.00     0.293 HD
ENDBRANCH  17  20
ENDBRANCH   1  12
BRANCH   2  22
ATOM     22  O   UNL     1       6.060  16.866  26.818  1.00  0.00    -0.502 OA
ATOM     23  H   UNL     1       6.031  16.334  27.681  1.00  0.00     0.293 HD
ENDBRANCH   2  22
BRANCH   6  24
ATOM     24  O   UNL     1       7.528  21.042  29.548  1.00  0.00    -0.507 OA
ATOM     25  H   UNL     1       7.551  20.097  29.914  1.00  0.00     0.293 HD
ENDBRANCH   6  24
BRANCH   8  26
ATOM     26  O   UNL     1       4.958  24.541  27.441  1.00  0.00    -0.508 OA
ATOM     27  H   UNL     1       4.603  25.036  28.250  1.00  0.00     0.293 HD
ENDBRANCH   8  26
TORSDOF 6
ENDMDL
MODEL 3
REMARK VINA RESULT:    -6.272      5.656      9.149
REMARK INTER + INTRA:          -7.852
REMARK INTER:                  -7.609
REMARK INTRA:                  -0.243
REMARK UNBOUND:                -0.296
REMARK SMILES O=c1c(O)c(-c2ccc(O)c(O)c2)oc2cc(O)cc(O)c12
REMARK SMILES IDX 5 1 3 2 2 3 1 4 22 5 20 6 19 7 17 8 16 9 15 10 14 11 6 12
REMARK SMILES IDX 7 13 8 14 9 15 13 16 11 17 10 18 12 20 4 22 21 24 18 26
REMARK H PARENT 10 19 12 21 4 23 21 25 18 27
REMARK Flexibility Score: inf
ROOT
ATOM      1  C   UNL     1       6.469  23.515  26.420  1.00  0.00     0.180 A 
ATOM      2  C   UNL     1       6.703  22.788  25.236  1.00  0.00     0.208 A 
ATOM      3  C   UNL     1       6.777  21.387  25.303  1.00  0.00     0.238 A 
ATOM      4  O   UNL     1       6.997  20.727  24.252  1.00  0.00    -0.285 OA
ATOM      5  C   UNL     1       6.596  20.739  26.542  1.00  0.00     0.111 A 
ATOM      6  C   UNL     1       6.651  19.333  26.695  1.00  0.00     0.134 A 
ATOM      7  C   UNL     1       6.451  18.762  27.961  1.00  0.00     0.093 A 
ATOM      8  C   UNL     1       6.197  19.567  29.073  1.00  0.00     0.123 A 
ATOM      9  C   UNL     1       6.142  20.957  28.928  1.00  0.00     0.094 A 
ATOM     10  C   UNL     1       6.340  21.545  27.676  1.00  0.00     0.146 A 
ATOM     11  O   UNL     1       6.287  22.868  27.567  1.00  0.00    -0.452 OA
ENDROOT
BRANCH   1  12
ATOM     12  C   UNL     1       6.396  24.993  26.433  1.00  0.00     0.025 A 
ATOM     13  C   UNL     1       5.254  25.633  25.926  1.00  0.00     0.016 A 
ATOM     14  C   UNL     1       5.155  27.026  25.948  1.00  0.00     0.051 A 
ATOM     15  C   UNL     1       6.189  27.800  26.491  1.00  0.00     0.157 A 
ATOM     16  C   UNL     1       7.423  25.772  26.997  1.00  0.00     0.062 A 
ATOM     17  C   UNL     1       7.326  27.169  27.022  1.00  0.00     0.158 A 
BRANCH  15  18
ATOM     18  O   UNL     1       6.088  29.190  26.510  1.00  0.00    -0.504 OA
ATOM     19  H   UNL     1       5.639  29.700  25.758  1.00  0.00     0.293 HD
ENDBRANCH  15  18
BRANCH  17  20
ATOM     20  O   UNL     1       8.365  27.909  27.584  1.00  0.00    -0.504 OA
ATOM     21  H   UNL     1       9.215  28.118  27.073  1.00  0.00     0.293 HD
ENDBRANCH  17  20
ENDBRANCH   1  12
BRANCH   2  22
ATOM     22  O   UNL     1       6.830  23.451  24.014  1.00  0.00    -0.502 OA
ATOM     23  H   UNL     1       6.519  24.407  23.880  1.00  0.00     0.293 HD
ENDBRANCH   2  22
BRANCH   6  24
ATOM     24  O   UNL     1       6.901  18.500  25.603  1.00  0.00    -0.507 OA
ATOM     25  H   UNL     1       6.879  17.490  25.686  1.00  0.00     0.293 HD
ENDBRANCH   6  24
BRANCH   8  26
ATOM     26  O   UNL     1       6.001  18.975  30.320  1.00  0.00    -0.508 OA
ATOM     27  H   UNL     1       6.060  19.512  31.177  1.00  0.00     0.293 HD
ENDBRANCH   8  26
TORSDOF 6
ENDMDL
MODEL 4
REMARK VINA RESULT:    -6.258      6.863      8.444
REMARK INTER + INTRA:          -7.835
REMARK INTER:                  -7.514
REMARK INTRA:                  -0.321
REMARK UNBOUND:                -0.296
REMARK SMILES O=c1c(O)c(-c2ccc(O)c(O)c2)oc2cc(O)cc(O)c12
REMARK SMILES IDX 5 1 3 2 2 3 1 4 22 5 20 6 19 7 17 8 16 9 15 10 14 11 6 12
REMARK SMILES IDX 7 13 8 14 9 15 13 16 11 17 10 18 12 20 4 22 21 24 18 26
REMARK H PARENT 10 19 12 21 4 23 21 25 18 27
REMARK Flexibility Score: inf
ROOT
ATOM      1  C   UNL     1       5.724  20.184  25.919  1.00  0.00     0.180 A 
ATOM      2  C   UNL     1       6.256  20.983  24.888  1.00  0.00     0.208 A 
ATOM      3  C   UNL     1       6.370  22.367  25.092  1.00  0.00     0.238 A 
ATOM      4  O   UNL     1       6.835  23.093  24.172  1.00  0.00    -0.285 OA
ATOM      5  C   UNL     1       5.969  22.926  26.323  1.00  0.00     0.111 A 
ATOM      6  C   UNL     1       6.053  24.309  26.610  1.00  0.00     0.134 A 
ATOM      7  C   UNL     1       5.643  24.786  27.864  1.00  0.00     0.093 A 
ATOM      8  C   UNL     1       5.152  23.910  28.834  1.00  0.00     0.123 A 
ATOM      9  C   UNL     1       5.066  22.542  28.556  1.00  0.00     0.094 A 
ATOM     10  C   UNL     1       5.468  22.046  27.312  1.00  0.00     0.146 A 
ATOM     11  O   UNL     1       5.371  20.744  27.073  1.00  0.00    -0.452 OA
ENDROOT
BRANCH   1  12
ATOM     12  C   UNL     1       5.556  18.721  25.773  1.00  0.00     0.025 A 
ATOM     13  C   UNL     1       6.623  17.868  26.097  1.00  0.00     0.016 A 
ATOM     14  C   UNL     1       6.479  16.483  25.987  1.00  0.00     0.051 A 
ATOM     15  C   UNL     1       5.263  15.928  25.567  1.00  0.00     0.157 A 
ATOM     16  C   UNL     1       4.329  18.161  25.373  1.00  0.00     0.062 A 
ATOM     17  C   UNL     1       4.182  16.772  25.264  1.00  0.00     0.158 A 
BRANCH  15  18
ATOM     18  O   UNL     1       5.124  14.546  25.457  1.00  0.00    -0.504 OA
ATOM     19  H   UNL     1       4.350  14.054  25.890  1.00  0.00     0.293 HD
ENDBRANCH  15  18
BRANCH  17  20
ATOM     20  O   UNL     1       2.953  16.252  24.859  1.00  0.00    -0.504 OA
ATOM     21  H   UNL     1       2.488  16.565  24.015  1.00  0.00     0.293 HD
ENDBRANCH  17  20
ENDBRANCH   1  12
BRANCH   2  22
ATOM     22  O   UNL     1       6.691  20.399  23.696  1.00  0.00    -0.502 OA
ATOM     23  H   UNL     1       7.331  19.612  23.679  1.00  0.00     0.293 HD
ENDBRANCH   2  22
BRANCH   6  24
ATOM     24  O   UNL     1       6.541  25.211  25.663  1.00  0.00    -0.507 OA
ATOM     25  H   UNL     1       6.900  24.902  24.767  1.00  0.00     0.293 HD
ENDBRANCH   6  24
BRANCH   8  26
ATOM     26  O   UNL     1       4.752  24.410  30.072  1.00  0.00    -0.508 OA
ATOM     27  H   UNL     1       4.264  23.830  30.745  1.00  0.00     0.293 HD
ENDBRANCH   8  26
TORSDOF 6
ENDMDL
MODEL 5
REMARK VINA RESULT:    -6.165      6.980     10.184
REMARK INTER + INTRA:          -7.723
REMARK INTER:                  -7.528
REMARK INTRA:                  -0.195
REMARK UNBOUND:                -0.296
REMARK SMILES O=c1c(O)c(-c2ccc(O)c(O)c2)oc2cc(O)cc(O)c12
REMARK SMILES IDX 5 1 3 2 2 3 1 4 22 5 20 6 19 7 17 8 16 9 15 10 14 11 6 12
REMARK SMILES IDX 7 13 8 14 9 15 13 16 11 17 10 18 12 20 4 22 21 24 18 26
REMARK H PARENT 10 19 12 21 4 23 21 25 18 27
REMARK Flexibility Score: inf
ROOT
ATOM      1  C   UNL     1       5.234  20.776  26.350  1.00  0.00     0.180 A 
ATOM      2  C   UNL     1       3.874  20.614  26.020  1.00  0.00     0.208 A 
ATOM      3  C   UNL     1       3.416  19.344  25.635  1.00  0.00     0.238 A 
ATOM      4  O   UNL     1       2.203  19.190  25.327  1.00  0.00    -0.285 OA
ATOM      5  C   UNL     1       4.315  18.259  25.606  1.00  0.00     0.111 A 
ATOM      6  C   UNL     1       3.934  16.947  25.233  1.00  0.00     0.134 A 
ATOM      7  C   UNL     1       4.887  15.918  25.238  1.00  0.00     0.093 A 
ATOM      8  C   UNL     1       6.209  16.172  25.608  1.00  0.00     0.123 A 
ATOM      9  C   UNL     1       6.592  17.466  25.977  1.00  0.00     0.094 A 
ATOM     10  C   UNL     1       5.658  18.506  25.976  1.00  0.00     0.146 A 
ATOM     11  O   UNL     1       6.049  19.726  26.326  1.00  0.00    -0.452 OA
ENDROOT
BRANCH   1  12
ATOM     12  C   UNL     1       5.796  22.087  26.748  1.00  0.00     0.025 A 
ATOM     13  C   UNL     1       5.865  23.123  25.803  1.00  0.00     0.016 A 
ATOM     14  C   UNL     1       6.371  24.374  26.162  1.00  0.00     0.051 A 
ATOM     15  C   UNL     1       6.802  24.614  27.474  1.00  0.00     0.157 A 
ATOM     16  C   UNL     1       6.209  22.336  28.069  1.00  0.00     0.062 A 
ATOM     17  C   UNL     1       6.715  23.591  28.432  1.00  0.00     0.158 A 
BRANCH  15  18
ATOM     18  O   UNL     1       7.309  25.863  27.828  1.00  0.00    -0.504 OA
ATOM     19  H   UNL     1       6.877  26.722  27.506  1.00  0.00     0.293 HD
ENDBRANCH  15  18
BRANCH  17  20
ATOM     20  O   UNL     1       7.121  23.801  29.750  1.00  0.00    -0.504 OA
ATOM     21  H   UNL     1       7.341  23.034  30.374  1.00  0.00     0.293 HD
ENDBRANCH  17  20
ENDBRANCH   1  12
BRANCH   2  22
ATOM     22  O   UNL     1       2.994  21.695  26.105  1.00  0.00    -0.502 OA
ATOM     23  H   UNL     1       2.803  22.172  26.979  1.00  0.00     0.293 HD
ENDBRANCH   2  22
BRANCH   6  24
ATOM     24  O   UNL     1       2.620  16.660  24.860  1.00  0.00    -0.507 OA
ATOM     25  H   UNL     1       1.947  16.286  25.520  1.00  0.00     0.293 HD
ENDBRANCH   6  24
BRANCH   8  26
ATOM     26  O   UNL     1       7.136  15.131  25.605  1.00  0.00    -0.508 OA
ATOM     27  H   UNL     1       8.132  15.309  25.653  1.00  0.00     0.293 HD
ENDBRANCH   8  26
TORSDOF 6
ENDMDL
MODEL 6
REMARK VINA RESULT:    -6.125      6.754      9.902
REMARK INTER + INTRA:          -7.674
REMARK INTER:                  -7.341
REMARK INTRA:                  -0.333
REMARK UNBOUND:                -0.296
REMARK SMILES O=c1c(O)c(-c2ccc(O)c(O)c2)oc2cc(O)cc(O)c12
REMARK SMILES IDX 5 1 3 2 2 3 1 4 22 5 20 6 19 7 17 8 16 9 15 10 14 11 6 12
REMARK SMILES IDX 7 13 8 14 9 15 13 16 11 17 10 18 12 20 4 22 21 24 18 26
REMARK H PARENT 10 19 12 21 4 23 21 25 18 27
REMARK Flexibility Score: inf
ROOT
ATOM      1  C   UNL     1       5.182  20.875  27.083  1.00  0.00     0.180 A 
ATOM      2  C   UNL     1       6.380  20.159  27.276  1.00  0.00     0.208 A 
ATOM      3  C   UNL     1       6.442  18.817  26.870  1.00  0.00     0.238 A 
ATOM      4  O   UNL     1       7.505  18.164  27.047  1.00  0.00    -0.285 OA
ATOM      5  C   UNL     1       5.318  18.220  26.263  1.00  0.00     0.111 A 
ATOM      6  C   UNL     1       5.298  16.875  25.822  1.00  0.00     0.134 A 
ATOM      7  C   UNL     1       4.143  16.358  25.218  1.00  0.00     0.093 A 
ATOM      8  C   UNL     1       3.010  17.155  25.046  1.00  0.00     0.123 A 
ATOM      9  C   UNL     1       3.023  18.485  25.480  1.00  0.00     0.094 A 
ATOM     10  C   UNL     1       4.164  19.020  26.086  1.00  0.00     0.146 A 
ATOM     11  O   UNL     1       4.148  20.284  26.493  1.00  0.00    -0.452 OA
ENDROOT
BRANCH   1  12
ATOM     12  C   UNL     1       5.034  22.287  27.501  1.00  0.00     0.025 A 
ATOM     13  C   UNL     1       5.230  23.310  26.560  1.00  0.00     0.016 A 
ATOM     14  C   UNL     1       5.074  24.648  26.927  1.00  0.00     0.051 A 
ATOM     15  C   UNL     1       4.705  24.985  28.236  1.00  0.00     0.157 A 
ATOM     16  C   UNL     1       4.642  22.626  28.809  1.00  0.00     0.062 A 
ATOM     17  C   UNL     1       4.483  23.968  29.180  1.00  0.00     0.158 A 
BRANCH  15  18
ATOM     18  O   UNL     1       4.552  26.321  28.600  1.00  0.00    -0.504 OA
ATOM     19  H   UNL     1       4.479  27.056  27.905  1.00  0.00     0.293 HD
ENDBRANCH  15  18
BRANCH  17  20
ATOM     20  O   UNL     1       4.100  24.268  30.486  1.00  0.00    -0.504 OA
ATOM     21  H   UNL     1       3.131  24.419  30.742  1.00  0.00     0.293 HD
ENDBRANCH  17  20
ENDBRANCH   1  12
BRANCH   2  22
ATOM     22  O   UNL     1       7.495  20.788  27.835  1.00  0.00    -0.502 OA
ATOM     23  H   UNL     1       7.516  21.099  28.800  1.00  0.00     0.293 HD
ENDBRANCH   2  22
BRANCH   6  24
ATOM     24  O   UNL     1       6.414  16.052  25.978  1.00  0.00    -0.507 OA
ATOM     25  H   UNL     1       7.145  16.264  26.647  1.00  0.00     0.293 HD
ENDBRANCH   6  24
BRANCH   8  26
ATOM     26  O   UNL     1       1.875  16.617  24.442  1.00  0.00    -0.508 OA
ATOM     27  H   UNL     1       1.403  15.807  24.827  1.00  0.00     0.293 HD
ENDBRANCH   8  26
TORSDOF 6
ENDMDL
MODEL 7
REMARK VINA RESULT:    -6.101      9.127      9.854
REMARK INTER + INTRA:          -7.645
REMARK INTER:                  -7.338
REMARK INTRA:                  -0.308
REMARK UNBOUND:                -0.296
REMARK SMILES O=c1c(O)c(-c2ccc(O)c(O)c2)oc2cc(O)cc(O)c12
REMARK SMILES IDX 5 1 3 2 2 3 1 4 22 5 20 6 19 7 17 8 16 9 15 10 14 11 6 12
REMARK SMILES IDX 7 13 8 14 9 15 13 16 11 17 10 18 12 20 4 22 21 24 18 26
REMARK H PARENT 10 19 12 21 4 23 21 25 18 27
REMARK Flexibility Score: inf
ROOT
ATOM      1  C   UNL     1       5.201  20.474  24.272  1.00  0.00     0.180 A 
ATOM      2  C   UNL     1       6.441  20.991  23.847  1.00  0.00     0.208 A 
ATOM      3  C   UNL     1       6.479  22.266  23.261  1.00  0.00     0.238 A 
ATOM      4  O   UNL     1       7.581  22.734  22.867  1.00  0.00    -0.285 OA
ATOM      5  C   UNL     1       5.288  23.008  23.128  1.00  0.00     0.111 A 
ATOM      6  C   UNL     1       5.240  24.300  22.552  1.00  0.00     0.134 A 
ATOM      7  C   UNL     1       4.015  24.978  22.464  1.00  0.00     0.093 A 
ATOM      8  C   UNL     1       2.841  24.393  22.940  1.00  0.00     0.123 A 
ATOM      9  C   UNL     1       2.881  23.115  23.509  1.00  0.00     0.094 A 
ATOM     10  C   UNL     1       4.091  22.422  23.604  1.00  0.00     0.146 A 
ATOM     11  O   UNL     1       4.101  21.209  24.145  1.00  0.00    -0.452 OA
ENDROOT
BRANCH   1  12
ATOM     12  C   UNL     1       5.077  19.132  24.882  1.00  0.00     0.025 A 
ATOM     13  C   UNL     1       5.322  18.971  26.255  1.00  0.00     0.016 A 
ATOM     14  C   UNL     1       5.190  17.717  26.856  1.00  0.00     0.051 A 
ATOM     15  C   UNL     1       4.796  16.607  26.097  1.00  0.00     0.157 A 
ATOM     16  C   UNL     1       4.660  18.020  24.127  1.00  0.00     0.062 A 
ATOM     17  C   UNL     1       4.525  16.761  24.727  1.00  0.00     0.158 A 
BRANCH  15  18
ATOM     18  O   UNL     1       4.667  15.357  26.699  1.00  0.00    -0.504 OA
ATOM     19  H   UNL     1       4.643  15.253  27.707  1.00  0.00     0.293 HD
ENDBRANCH  15  18
BRANCH  17  20
ATOM     20  O   UNL     1       4.116  15.680  23.948  1.00  0.00    -0.504 OA
ATOM     21  H   UNL     1       4.327  15.620  22.958  1.00  0.00     0.293 HD
ENDBRANCH  17  20
ENDBRANCH   1  12
BRANCH   2  22
ATOM     22  O   UNL     1       7.614  20.256  24.035  1.00  0.00    -0.502 OA
ATOM     23  H   UNL     1       7.684  19.512  24.719  1.00  0.00     0.293 HD
ENDBRANCH   2  22
BRANCH   6  24
ATOM     24  O   UNL     1       6.397  24.915  22.069  1.00  0.00    -0.507 OA
ATOM     25  H   UNL     1       6.561  25.908  22.185  1.00  0.00     0.293 HD
ENDBRANCH   6  24
BRANCH   8  26
ATOM     26  O   UNL     1       1.637  25.088  22.841  1.00  0.00    -0.508 OA
ATOM     27  H   UNL     1       0.744  24.609  22.866  1.00  0.00     0.293 HD
ENDBRANCH   8  26
TORSDOF 6
ENDMDL
MODEL 8
REMARK VINA RESULT:    -6.079      7.250     10.401
REMARK INTER + INTRA:          -7.619
REMARK INTER:                  -7.343
REMARK INTRA:                  -0.276
REMARK UNBOUND:                -0.296
REMARK SMILES O=c1c(O)c(-c2ccc(O)c(O)c2)oc2cc(O)cc(O)c12
REMARK SMILES IDX 5 1 3 2 2 3 1 4 22 5 20 6 19 7 17 8 16 9 15 10 14 11 6 12
REMARK SMILES IDX 7 13 8 14 9 15 13 16 11 17 10 18 12 20 4 22 21 24 18 26
REMARK H PARENT 10 19 12 21 4 23 21 25 18 27
REMARK Flexibility Score: inf
ROOT
ATOM      1  C   UNL     1       5.044  20.598  26.257  1.00  0.00     0.180 A 
ATOM      2  C   UNL     1       4.420  20.711  24.999  1.00  0.00     0.208 A 
ATOM      3  C   UNL     1       4.257  19.557  24.217  1.00  0.00     0.238 A 
ATOM      4  O   UNL     1       3.709  19.647  23.085  1.00  0.00    -0.285 OA
ATOM      5  C   UNL     1       4.699  18.312  24.710  1.00  0.00     0.111 A 
ATOM      6  C   UNL     1       4.570  17.102  23.987  1.00  0.00     0.134 A 
ATOM      7  C   UNL     1       5.027  15.902  24.551  1.00  0.00     0.093 A 
ATOM      8  C   UNL     1       5.609  15.887  25.820  1.00  0.00     0.123 A 
ATOM      9  C   UNL     1       5.741  17.080  26.539  1.00  0.00     0.094 A 
ATOM     10  C   UNL     1       5.294  18.287  25.994  1.00  0.00     0.146 A 
ATOM     11  O   UNL     1       5.435  19.405  26.696  1.00  0.00    -0.452 OA
ENDROOT
BRANCH   1  12
ATOM     12  C   UNL     1       5.269  21.771  27.131  1.00  0.00     0.025 A 
ATOM     13  C   UNL     1       6.309  22.666  26.832  1.00  0.00     0.016 A 
ATOM     14  C   UNL     1       6.526  23.791  27.631  1.00  0.00     0.051 A 
ATOM     15  C   UNL     1       5.696  24.048  28.731  1.00  0.00     0.157 A 
ATOM     16  C   UNL     1       4.425  22.044  28.223  1.00  0.00     0.062 A 
ATOM     17  C   UNL     1       4.639  23.172  29.024  1.00  0.00     0.158 A 
BRANCH  15  18
ATOM     18  O   UNL     1       5.916  25.171  29.527  1.00  0.00    -0.504 OA
ATOM     19  H   UNL     1       6.730  25.761  29.399  1.00  0.00     0.293 HD
ENDBRANCH  15  18
BRANCH  17  20
ATOM     20  O   UNL     1       3.786  23.408  30.102  1.00  0.00    -0.504 OA
ATOM     21  H   UNL     1       3.697  24.323  30.529  1.00  0.00     0.293 HD
ENDBRANCH  17  20
ENDBRANCH   1  12
BRANCH   2  22
ATOM     22  O   UNL     1       3.946  21.948  24.555  1.00  0.00    -0.502 OA
ATOM     23  H   UNL     1       4.003  22.233  23.584  1.00  0.00     0.293 HD
ENDBRANCH   2  22
BRANCH   6  24
ATOM     24  O   UNL     1       3.990  17.082  22.718  1.00  0.00    -0.507 OA
ATOM     25  H   UNL     1       2.988  17.001  22.589  1.00  0.00     0.293 HD
ENDBRANCH   6  24
BRANCH   8  26
ATOM     26  O   UNL     1       6.055  14.682  26.358  1.00  0.00    -0.508 OA
ATOM     27  H   UNL     1       5.786  13.790  25.958  1.00  0.00     0.293 HD
ENDBRANCH   8  26
TORSDOF 6
ENDMDL
MODEL 9
REMARK VINA RESULT:    -5.988      6.545      7.968
REMARK INTER + INTRA:          -7.510
REMARK INTER:                  -7.453
REMARK INTRA:                  -0.057
REMARK UNBOUND:                -0.296
REMARK SMILES O=c1c(O)c(-c2ccc(O)c(O)c2)oc2cc(O)cc(O)c12
REMARK SMILES IDX 5 1 3 2 2 3 1 4 22 5 20 6 19 7 17 8 16 9 15 10 14 11 6 12
REMARK SMILES IDX 7 13 8 14 9 15 13 16 11 17 10 18 12 20 4 22 21 24 18 26
REMARK H PARENT 10 19 12 21 4 23 21 25 18 27
REMARK Flexibility Score: inf
ROOT
ATOM      1  C   UNL     1       5.907  19.817  27.024  1.00  0.00     0.180 A 
ATOM      2  C   UNL     1       6.736  19.783  28.163  1.00  0.00     0.208 A 
ATOM      3  C   UNL     1       7.139  20.996  28.745  1.00  0.00     0.238 A 
ATOM      4  O   UNL     1       7.889  20.978  29.757  1.00  0.00    -0.285 OA
ATOM      5  C   UNL     1       6.692  22.215  28.194  1.00  0.00     0.111 A 
ATOM      6  C   UNL     1       7.049  23.479  28.722  1.00  0.00     0.134 A 
ATOM      7  C   UNL     1       6.556  24.647  28.122  1.00  0.00     0.093 A 
ATOM      8  C   UNL     1       5.715  24.578  27.010  1.00  0.00     0.123 A 
ATOM      9  C   UNL     1       5.360  23.331  26.483  1.00  0.00     0.094 A 
ATOM     10  C   UNL     1       5.842  22.155  27.065  1.00  0.00     0.146 A 
ATOM     11  O   UNL     1       5.493  20.985  26.542  1.00  0.00    -0.452 OA
ENDROOT
BRANCH   1  12
ATOM     12  C   UNL     1       5.455  18.582  26.344  1.00  0.00     0.025 A 
ATOM     13  C   UNL     1       4.091  18.410  26.060  1.00  0.00     0.016 A 
ATOM     14  C   UNL     1       3.646  17.262  25.399  1.00  0.00     0.051 A 
ATOM     15  C   UNL     1       4.559  16.277  24.999  1.00  0.00     0.157 A 
ATOM     16  C   UNL     1       6.372  17.601  25.922  1.00  0.00     0.062 A 
ATOM     17  C   UNL     1       5.928  16.451  25.258  1.00  0.00     0.158 A 
BRANCH  15  18
ATOM     18  O   UNL     1       4.111  15.132  24.342  1.00  0.00    -0.504 OA
ATOM     19  H   UNL     1       4.222  15.017  23.341  1.00  0.00     0.293 HD
ENDBRANCH  15  18
BRANCH  17  20
ATOM     20  O   UNL     1       6.864  15.497  24.860  1.00  0.00    -0.504 OA
ATOM     21  H   UNL     1       6.872  14.558  25.242  1.00  0.00     0.293 HD
ENDBRANCH  17  20
ENDBRANCH   1  12
BRANCH   2  22
ATOM     22  O   UNL     1       7.124  18.561  28.717  1.00  0.00    -0.502 OA
ATOM     23  H   UNL     1       7.107  17.696  28.190  1.00  0.00     0.293 HD
ENDBRANCH   2  22
BRANCH   6  24
ATOM     24  O   UNL     1       7.886  23.583  29.834  1.00  0.00    -0.507 OA
ATOM     25  H   UNL     1       8.816  23.979  29.767  1.00  0.00     0.293 HD
ENDBRANCH   6  24
BRANCH   8  26
ATOM     26  O   UNL     1       5.238  25.753  26.433  1.00  0.00    -0.508 OA
ATOM     27  H   UNL     1       4.503  26.297  26.869  1.00  0.00     0.293 HD
ENDBRANCH   8  26
TORSDOF 6
ENDMDL
