MODEL 1
REMARK VINA RESULT:    -4.225      0.000      0.000
REMARK INTER + INTRA:          -8.931
REMARK INTER:                  -7.189
REMARK INTRA:                  -1.742
REMARK UNBOUND:                -1.742
REMARK SMILES CCCCCCCCCCCCCC(=O)[O-]
REMARK SMILES IDX 8 1 9 2 10 3 11 4 12 5 13 6 14 7 15 8 16 9 7 10 6 11 5 12
REMARK SMILES IDX 4 13 3 14 2 15 1 16
REMARK H PARENT
REMARK Flexibility Score: inf
ROOT
ATOM      1  C   UNL     1     -12.564  -2.198   3.752  1.00  0.00     0.000 C 
ENDROOT
BRANCH   1   2
ATOM      2  C   UNL     1     -11.686  -3.459   3.773  1.00  0.00     0.000 C 
BRANCH   2   3
ATOM      3  C   UNL     1     -10.400  -3.301   2.948  1.00  0.00     0.000 C 
BRANCH   3   4
ATOM      4  C   UNL     1      -9.176  -3.769   3.743  1.00  0.00     0.000 C 
BRANCH   4   5
ATOM      5  C   UNL     1      -9.213  -3.230   5.181  1.00  0.00     0.006 C 
BRANCH   5   6
ATOM      6  C   UNL     1      -8.549  -4.188   6.178  1.00  0.00     0.053 C 
BRANCH   6   7
ATOM      7  C   UNL     1      -9.303  -5.477   6.296  1.00  0.00     0.041 C 
ATOM      8  O   UNL     1     -10.546  -5.469   6.495  1.00  0.00    -0.550 OA
ATOM      9  O   UNL     1      -8.627  -6.688   6.216  1.00  0.00    -0.550 OA
ENDBRANCH   6   7
ENDBRANCH   5   6
ENDBRANCH   4   5
ENDBRANCH   3   4
ENDBRANCH   2   3
ENDBRANCH   1   2
BRANCH   1  10
ATOM     10  C   UNL     1     -12.303  -1.276   4.956  1.00  0.00     0.000 C 
BRANCH  10  11
ATOM     11  C   UNL     1     -11.575   0.019   4.561  1.00  0.00    -0.000 C 
BRANCH  11  12
ATOM     12  C   UNL     1     -11.979   0.526   3.168  1.00  0.00    -0.000 C 
BRANCH  12  13
ATOM     13  C   UNL     1     -10.747   0.952   2.360  1.00  0.00    -0.000 C 
BRANCH  13  14
ATOM     14  C   UNL     1      -9.466   0.339   2.943  1.00  0.00    -0.000 C 
BRANCH  14  15
ATOM     15  C   UNL     1      -8.608  -0.361   1.878  1.00  0.00    -0.003 C 
ATOM     16  C   UNL     1      -7.109  -0.181   2.114  1.00  0.00     0.004 C 
ENDBRANCH  14  15
ENDBRANCH  13  14
ENDBRANCH  12  13
ENDBRANCH  11  12
ENDBRANCH  10  11
ENDBRANCH   1  10
TORSDOF 12
ENDMDL
MODEL 2
REMARK VINA RESULT:    -4.013      1.102      3.073
REMARK INTER + INTRA:          -8.570
REMARK INTER:                  -6.939
REMARK INTRA:                  -1.631
REMARK UNBOUND:                -1.742
REMARK SMILES CCCCCCCCCCCCCC(=O)[O-]
REMARK SMILES IDX 8 1 9 2 10 3 11 4 12 5 13 6 14 7 15 8 16 9 7 10 6 11 5 12
REMARK SMILES IDX 4 13 3 14 2 15 1 16
REMARK H PARENT
REMARK Flexibility Score: inf
ROOT
ATOM      1  C   UNL     1      -8.631  -1.385   2.944  1.00  0.00     0.000 C 
ENDROOT
BRANCH   1   2
ATOM      2  C   UNL     1      -9.642  -2.520   2.717  1.00  0.00     0.000 C 
BRANCH   2   3
ATOM      3  C   UNL     1      -9.498  -3.657   3.739  1.00  0.00     0.000 C 
BRANCH   3   4
ATOM      4  C   UNL     1      -8.591  -3.238   4.902  1.00  0.00     0.000 C 
BRANCH   4   5
ATOM      5  C   UNL     1      -8.628  -4.276   6.033  1.00  0.00     0.006 C 
BRANCH   5   6
ATOM      6  C   UNL     1      -9.496  -5.491   5.679  1.00  0.00     0.053 C 
BRANCH   6   7
ATOM      7  C   UNL     1     -10.135  -6.089   6.893  1.00  0.00     0.041 C 
ATOM      8  O   UNL     1     -11.390  -6.131   6.995  1.00  0.00    -0.550 OA
ATOM      9  O   UNL     1      -9.345  -6.573   7.929  1.00  0.00    -0.550 OA
ENDBRANCH   6   7
ENDBRANCH   5   6
ENDBRANCH   4   5
ENDBRANCH   3   4
ENDBRANCH   2   3
ENDBRANCH   1   2
BRANCH   1  10
ATOM     10  C   UNL     1      -8.929  -0.146   2.081  1.00  0.00     0.000 C 
BRANCH  10  11
ATOM     11  C   UNL     1     -10.298   0.478   2.398  1.00  0.00    -0.000 C 
BRANCH  11  12
ATOM     12  C   UNL     1     -10.407   0.963   3.852  1.00  0.00    -0.000 C 
BRANCH  12  13
ATOM     13  C   UNL     1     -11.702   0.462   4.503  1.00  0.00    -0.000 C 
BRANCH  13  14
ATOM     14  C   UNL     1     -12.585  -0.271   3.482  1.00  0.00    -0.000 C 
BRANCH  14  15
ATOM     15  C   UNL     1     -12.978  -1.682   3.947  1.00  0.00    -0.003 C 
ATOM     16  C   UNL     1     -12.386  -2.042   5.309  1.00  0.00     0.004 C 
ENDBRANCH  14  15
ENDBRANCH  13  14
ENDBRANCH  12  13
ENDBRANCH  11  12
ENDBRANCH  10  11
ENDBRANCH   1  10
TORSDOF 12
ENDMDL
MODEL 3
REMARK VINA RESULT:    -3.984      1.421      3.191
REMARK INTER + INTRA:          -8.521
REMARK INTER:                  -7.256
REMARK INTRA:                  -1.265
REMARK UNBOUND:                -1.742
REMARK SMILES CCCCCCCCCCCCCC(=O)[O-]
REMARK SMILES IDX 8 1 9 2 10 3 11 4 12 5 13 6 14 7 15 8 16 9 7 10 6 11 5 12
REMARK SMILES IDX 4 13 3 14 2 15 1 16
REMARK H PARENT
REMARK Flexibility Score: inf
ROOT
ATOM      1  C   UNL     1      -9.651  -2.473   2.600  1.00  0.00     0.000 C 
ENDROOT
BRANCH   1   2
ATOM      2  C   UNL     1      -9.715  -3.506   3.737  1.00  0.00     0.000 C 
BRANCH   2   3
ATOM      3  C   UNL     1      -8.556  -3.363   4.735  1.00  0.00     0.000 C 
BRANCH   3   4
ATOM      4  C   UNL     1      -8.793  -4.227   5.979  1.00  0.00     0.000 C 
BRANCH   4   5
ATOM      5  C   UNL     1      -9.441  -5.568   5.603  1.00  0.00     0.006 C 
BRANCH   5   6
ATOM      6  C   UNL     1      -8.985  -6.711   6.519  1.00  0.00     0.053 C 
BRANCH   6   7
ATOM      7  C   UNL     1      -8.750  -7.976   5.753  1.00  0.00     0.041 C 
ATOM      8  O   UNL     1      -9.605  -8.384   4.924  1.00  0.00    -0.550 OA
ATOM      9  O   UNL     1      -7.600  -8.722   5.978  1.00  0.00    -0.550 OA
ENDBRANCH   6   7
ENDBRANCH   5   6
ENDBRANCH   4   5
ENDBRANCH   3   4
ENDBRANCH   2   3
ENDBRANCH   1   2
BRANCH   1  10
ATOM     10  C   UNL     1      -8.599  -1.380   2.853  1.00  0.00     0.000 C 
BRANCH  10  11
ATOM     11  C   UNL     1      -8.848  -0.115   2.015  1.00  0.00    -0.000 C 
BRANCH  11  12
ATOM     12  C   UNL     1     -10.245   0.483   2.243  1.00  0.00    -0.000 C 
BRANCH  12  13
ATOM     13  C   UNL     1     -10.295   1.279   3.553  1.00  0.00    -0.000 C 
BRANCH  13  14
ATOM     14  C   UNL     1     -11.585   0.981   4.331  1.00  0.00    -0.000 C 
BRANCH  14  15
ATOM     15  C   UNL     1     -11.601  -0.434   4.928  1.00  0.00    -0.003 C 
ATOM     16  C   UNL     1     -12.736  -1.297   4.377  1.00  0.00     0.004 C 
ENDBRANCH  14  15
ENDBRANCH  13  14
ENDBRANCH  12  13
ENDBRANCH  11  12
ENDBRANCH  10  11
ENDBRANCH   1  10
TORSDOF 12
ENDMDL
MODEL 4
REMARK VINA RESULT:    -3.928      3.106      6.009
REMARK INTER + INTRA:          -8.425
REMARK INTER:                  -6.802
REMARK INTRA:                  -1.623
REMARK UNBOUND:                -1.742
REMARK SMILES CCCCCCCCCCCCCC(=O)[O-]
REMARK SMILES IDX 8 1 9 2 10 3 11 4 12 5 13 6 14 7 15 8 16 9 7 10 6 11 5 12
REMARK SMILES IDX 4 13 3 14 2 15 1 16
REMARK H PARENT
REMARK Flexibility Score: inf
ROOT
ATOM      1  C   UNL     1      -9.031  -3.501   5.612  1.00  0.00     0.000 C 
ENDROOT
BRANCH   1   2
ATOM      2  C   UNL     1      -8.627  -3.441   4.130  1.00  0.00     0.000 C 
BRANCH   2   3
ATOM      3  C   UNL     1      -9.309  -2.289   3.375  1.00  0.00     0.000 C 
BRANCH   3   4
ATOM      4  C   UNL     1      -8.294  -1.203   3.000  1.00  0.00     0.000 C 
BRANCH   4   5
ATOM      5  C   UNL     1      -9.003   0.102   2.605  1.00  0.00     0.006 C 
BRANCH   5   6
ATOM      6  C   UNL     1     -10.327  -0.155   1.875  1.00  0.00     0.053 C 
BRANCH   6   7
ATOM      7  C   UNL     1     -11.392   0.807   2.303  1.00  0.00     0.041 C 
ATOM      8  O   UNL     1     -11.293   2.030   2.022  1.00  0.00    -0.550 OA
ATOM      9  O   UNL     1     -12.480   0.357   3.040  1.00  0.00    -0.550 OA
ENDBRANCH   6   7
ENDBRANCH   5   6
ENDBRANCH   4   5
ENDBRANCH   3   4
ENDBRANCH   2   3
ENDBRANCH   1   2
BRANCH   1  10
ATOM     10  C   UNL     1      -9.422  -4.920   6.060  1.00  0.00     0.000 C 
BRANCH  10  11
ATOM     11  C   UNL     1      -9.749  -5.844   4.876  1.00  0.00    -0.000 C 
BRANCH  11  12
ATOM     12  C   UNL     1     -11.161  -6.445   4.964  1.00  0.00    -0.000 C 
BRANCH  12  13
ATOM     13  C   UNL     1     -12.215  -5.348   5.148  1.00  0.00    -0.000 C 
BRANCH  13  14
ATOM     14  C   UNL     1     -12.631  -4.749   3.796  1.00  0.00    -0.000 C 
BRANCH  14  15
ATOM     15  C   UNL     1     -12.677  -3.214   3.818  1.00  0.00    -0.003 C 
ATOM     16  C   UNL     1     -12.571  -2.640   5.230  1.00  0.00     0.004 C 
ENDBRANCH  14  15
ENDBRANCH  13  14
ENDBRANCH  12  13
ENDBRANCH  11  12
ENDBRANCH  10  11
ENDBRANCH   1  10
TORSDOF 12
ENDMDL
MODEL 5
REMARK VINA RESULT:    -3.916      2.568      6.052
REMARK INTER + INTRA:          -8.405
REMARK INTER:                  -6.986
REMARK INTRA:                  -1.420
REMARK UNBOUND:                -1.742
REMARK SMILES CCCCCCCCCCCCCC(=O)[O-]
REMARK SMILES IDX 8 1 9 2 10 3 11 4 12 5 13 6 14 7 15 8 16 9 7 10 6 11 5 12
REMARK SMILES IDX 4 13 3 14 2 15 1 16
REMARK H PARENT
REMARK Flexibility Score: inf
ROOT
ATOM      1  C   UNL     1     -10.530  -3.370   3.510  1.00  0.00     0.000 C 
ENDROOT
BRANCH   1   2
ATOM      2  C   UNL     1     -10.467  -2.507   2.240  1.00  0.00     0.000 C 
BRANCH   2   3
ATOM      3  C   UNL     1      -9.193  -1.651   2.166  1.00  0.00     0.000 C 
BRANCH   3   4
ATOM      4  C   UNL     1      -9.539  -0.169   1.980  1.00  0.00     0.000 C 
BRANCH   4   5
ATOM      5  C   UNL     1      -9.609   0.555   3.333  1.00  0.00     0.006 C 
BRANCH   5   6
ATOM      6  C   UNL     1     -10.948   1.276   3.537  1.00  0.00     0.053 C 
BRANCH   6   7
ATOM      7  C   UNL     1     -12.027   0.331   3.969  1.00  0.00     0.041 C 
ATOM      8  O   UNL     1     -11.922  -0.298   5.054  1.00  0.00    -0.550 OA
ATOM      9  O   UNL     1     -13.134   0.122   3.157  1.00  0.00    -0.550 OA
ENDBRANCH   6   7
ENDBRANCH   5   6
ENDBRANCH   4   5
ENDBRANCH   3   4
ENDBRANCH   2   3
ENDBRANCH   1   2
BRANCH   1  10
ATOM     10  C   UNL     1      -9.136  -3.681   4.083  1.00  0.00     0.000 C 
BRANCH  10  11
ATOM     11  C   UNL     1      -9.049  -3.422   5.596  1.00  0.00    -0.000 C 
BRANCH  11  12
ATOM     12  C   UNL     1      -8.257  -4.508   6.340  1.00  0.00    -0.000 C 
BRANCH  12  13
ATOM     13  C   UNL     1      -9.187  -5.611   6.857  1.00  0.00    -0.000 C 
BRANCH  13  14
ATOM     14  C   UNL     1      -8.852  -6.963   6.211  1.00  0.00    -0.000 C 
BRANCH  14  15
ATOM     15  C   UNL     1      -9.667  -7.227   4.935  1.00  0.00    -0.003 C 
ATOM     16  C   UNL     1     -11.119  -6.765   5.055  1.00  0.00     0.004 C 
ENDBRANCH  14  15
ENDBRANCH  13  14
ENDBRANCH  12  13
ENDBRANCH  11  12
ENDBRANCH  10  11
ENDBRANCH   1  10
TORSDOF 12
ENDMDL
MODEL 6
REMARK VINA RESULT:    -3.888      2.802      5.355
REMARK INTER + INTRA:          -8.358
REMARK INTER:                  -6.468
REMARK INTRA:                  -1.890
REMARK UNBOUND:                -1.742
REMARK SMILES CCCCCCCCCCCCCC(=O)[O-]
REMARK SMILES IDX 8 1 9 2 10 3 11 4 12 5 13 6 14 7 15 8 16 9 7 10 6 11 5 12
REMARK SMILES IDX 4 13 3 14 2 15 1 16
REMARK H PARENT
REMARK Flexibility Score: inf
ROOT
ATOM      1  C   UNL     1      -9.342  -5.352   5.522  1.00  0.00     0.000 C 
ENDROOT
BRANCH   1   2
ATOM      2  C   UNL     1      -8.826  -3.926   5.772  1.00  0.00     0.000 C 
BRANCH   2   3
ATOM      3  C   UNL     1      -8.506  -3.174   4.471  1.00  0.00     0.000 C 
BRANCH   3   4
ATOM      4  C   UNL     1      -9.606  -3.392   3.426  1.00  0.00     0.000 C 
BRANCH   4   5
ATOM      5  C   UNL     1      -9.670  -2.217   2.439  1.00  0.00     0.006 C 
BRANCH   5   6
ATOM      6  C   UNL     1      -8.971  -0.964   2.981  1.00  0.00     0.053 C 
BRANCH   6   7
ATOM      7  C   UNL     1      -9.954   0.108   3.340  1.00  0.00     0.041 C 
ATOM      8  O   UNL     1     -10.349   0.235   4.529  1.00  0.00    -0.550 OA
ATOM      9  O   UNL     1     -10.459   0.947   2.354  1.00  0.00    -0.550 OA
ENDBRANCH   6   7
ENDBRANCH   5   6
ENDBRANCH   4   5
ENDBRANCH   3   4
ENDBRANCH   2   3
ENDBRANCH   1   2
BRANCH   1  10
ATOM     10  C   UNL     1     -10.624  -5.663   6.314  1.00  0.00     0.000 C 
BRANCH  10  11
ATOM     11  C   UNL     1     -11.783  -6.113   5.409  1.00  0.00    -0.000 C 
BRANCH  11  12
ATOM     12  C   UNL     1     -12.575  -4.932   4.827  1.00  0.00    -0.000 C 
BRANCH  12  13
ATOM     13  C   UNL     1     -12.872  -3.884   5.905  1.00  0.00    -0.000 C 
BRANCH  13  14
ATOM     14  C   UNL     1     -12.442  -2.483   5.446  1.00  0.00    -0.000 C 
BRANCH  14  15
ATOM     15  C   UNL     1     -13.035  -2.099   4.082  1.00  0.00    -0.003 C 
ATOM     16  C   UNL     1     -13.693  -0.720   4.090  1.00  0.00     0.004 C 
ENDBRANCH  14  15
ENDBRANCH  13  14
ENDBRANCH  12  13
ENDBRANCH  11  12
ENDBRANCH  10  11
ENDBRANCH   1  10
TORSDOF 12
ENDMDL
MODEL 7
REMARK VINA RESULT:    -3.869      2.634      4.229
REMARK INTER + INTRA:          -8.324
REMARK INTER:                  -6.771
REMARK INTRA:                  -1.554
REMARK UNBOUND:                -1.742
REMARK SMILES CCCCCCCCCCCCCC(=O)[O-]
REMARK SMILES IDX 8 1 9 2 10 3 11 4 12 5 13 6 14 7 15 8 16 9 7 10 6 11 5 12
REMARK SMILES IDX 4 13 3 14 2 15 1 16
REMARK H PARENT
REMARK Flexibility Score: inf
ROOT
ATOM      1  C   UNL     1      -9.465  -4.753   5.984  1.00  0.00     0.000 C 
ENDROOT
BRANCH   1   2
ATOM      2  C   UNL     1      -9.691  -6.055   5.199  1.00  0.00     0.000 C 
BRANCH   2   3
ATOM      3  C   UNL     1     -11.178  -6.413   5.059  1.00  0.00     0.000 C 
BRANCH   3   4
ATOM      4  C   UNL     1     -12.059  -5.397   5.795  1.00  0.00     0.000 C 
BRANCH   4   5
ATOM      5  C   UNL     1     -12.938  -4.612   4.809  1.00  0.00     0.006 C 
BRANCH   5   6
ATOM      6  C   UNL     1     -13.061  -5.318   3.453  1.00  0.00     0.053 C 
BRANCH   6   7
ATOM      7  C   UNL     1     -14.432  -5.883   3.243  1.00  0.00     0.041 C 
ATOM      8  O   UNL     1     -15.441  -5.130   3.271  1.00  0.00    -0.550 OA
ATOM      9  O   UNL     1     -14.599  -7.248   3.049  1.00  0.00    -0.550 OA
ENDBRANCH   6   7
ENDBRANCH   5   6
ENDBRANCH   4   5
ENDBRANCH   3   4
ENDBRANCH   2   3
ENDBRANCH   1   2
BRANCH   1  10
ATOM     10  C   UNL     1      -9.006  -3.592   5.085  1.00  0.00     0.000 C 
BRANCH  10  11
ATOM     11  C   UNL     1      -9.309  -3.842   3.598  1.00  0.00    -0.000 C 
BRANCH  11  12
ATOM     12  C   UNL     1     -10.324  -2.842   3.022  1.00  0.00    -0.000 C 
BRANCH  12  13
ATOM     13  C   UNL     1     -10.289  -1.517   3.794  1.00  0.00    -0.000 C 
BRANCH  13  14
ATOM     14  C   UNL     1     -10.077  -0.330   2.843  1.00  0.00    -0.000 C 
BRANCH  14  15
ATOM     15  C   UNL     1      -8.904  -0.550   1.876  1.00  0.00    -0.003 C 
ATOM     16  C   UNL     1      -7.545  -0.489   2.573  1.00  0.00     0.004 C 
ENDBRANCH  14  15
ENDBRANCH  13  14
ENDBRANCH  12  13
ENDBRANCH  11  12
ENDBRANCH  10  11
ENDBRANCH   1  10
TORSDOF 12
ENDMDL
MODEL 8
REMARK VINA RESULT:    -3.845      1.900      4.530
REMARK INTER + INTRA:          -8.284
REMARK INTER:                  -6.603
REMARK INTRA:                  -1.681
REMARK UNBOUND:                -1.742
REMARK SMILES CCCCCCCCCCCCCC(=O)[O-]
REMARK SMILES IDX 8 1 9 2 10 3 11 4 12 5 13 6 14 7 15 8 16 9 7 10 6 11 5 12
REMARK SMILES IDX 4 13 3 14 2 15 1 16
REMARK H PARENT
REMARK Flexibility Score: inf
ROOT
ATOM      1  C   UNL     1     -10.134   0.717   3.575  1.00  0.00     0.000 C 
ENDROOT
BRANCH   1   2
ATOM      2  C   UNL     1     -11.493   1.034   2.930  1.00  0.00     0.000 C 
BRANCH   2   3
ATOM      3  C   UNL     1     -12.612   0.098   3.413  1.00  0.00     0.000 C 
BRANCH   3   4
ATOM      4  C   UNL     1     -12.416  -0.277   4.887  1.00  0.00     0.000 C 
BRANCH   4   5
ATOM      5  C   UNL     1     -12.302  -1.799   5.058  1.00  0.00     0.006 C 
BRANCH   5   6
ATOM      6  C   UNL     1     -13.202  -2.563   4.078  1.00  0.00     0.053 C 
BRANCH   6   7
ATOM      7  C   UNL     1     -13.342  -4.004   4.461  1.00  0.00     0.041 C 
ATOM      8  O   UNL     1     -13.763  -4.318   5.605  1.00  0.00    -0.550 OA
ATOM      9  O   UNL     1     -12.979  -5.000   3.564  1.00  0.00    -0.550 OA
ENDBRANCH   6   7
ENDBRANCH   5   6
ENDBRANCH   4   5
ENDBRANCH   3   4
ENDBRANCH   2   3
ENDBRANCH   1   2
BRANCH   1  10
ATOM     10  C   UNL     1      -9.090   0.242   2.550  1.00  0.00     0.000 C 
BRANCH  10  11
ATOM     11  C   UNL     1      -8.675  -1.223   2.765  1.00  0.00    -0.000 C 
BRANCH  11  12
ATOM     12  C   UNL     1      -9.756  -2.219   2.317  1.00  0.00    -0.000 C 
BRANCH  12  13
ATOM     13  C   UNL     1      -9.755  -3.468   3.205  1.00  0.00    -0.000 C 
BRANCH  13  14
ATOM     14  C   UNL     1      -8.836  -3.280   4.421  1.00  0.00    -0.000 C 
BRANCH  14  15
ATOM     15  C   UNL     1      -9.292  -4.098   5.638  1.00  0.00    -0.003 C 
ATOM     16  C   UNL     1      -8.222  -4.185   6.727  1.00  0.00     0.004 C 
ENDBRANCH  14  15
ENDBRANCH  13  14
ENDBRANCH  12  13
ENDBRANCH  11  12
ENDBRANCH  10  11
ENDBRANCH   1  10
TORSDOF 12
ENDMDL
MODEL 9
REMARK VINA RESULT:    -3.784      3.669      6.370
REMARK INTER + INTRA:          -8.181
REMARK INTER:                  -6.688
REMARK INTRA:                  -1.492
REMARK UNBOUND:                -1.742
REMARK SMILES CCCCCCCCCCCCCC(=O)[O-]
REMARK SMILES IDX 8 1 9 2 10 3 11 4 12 5 13 6 14 7 15 8 16 9 7 10 6 11 5 12
REMARK SMILES IDX 4 13 3 14 2 15 1 16
REMARK H PARENT
REMARK Flexibility Score: inf
ROOT
ATOM      1  C   UNL     1      -9.200  -1.546   3.010  1.00  0.00     0.000 C 
ENDROOT
BRANCH   1   2
ATOM      2  C   UNL     1      -8.911  -0.112   2.538  1.00  0.00     0.000 C 
BRANCH   2   3
ATOM      3  C   UNL     1     -10.136   0.808   2.649  1.00  0.00     0.000 C 
BRANCH   3   4
ATOM      4  C   UNL     1     -10.495   1.068   4.116  1.00  0.00     0.000 C 
BRANCH   4   5
ATOM      5  C   UNL     1     -11.977   0.764   4.383  1.00  0.00     0.006 C 
BRANCH   5   6
ATOM      6  C   UNL     1     -12.773   0.567   3.086  1.00  0.00     0.053 C 
BRANCH   6   7
ATOM      7  C   UNL     1     -13.797   1.642   2.895  1.00  0.00     0.041 C 
ATOM      8  O   UNL     1     -13.476   2.737   2.363  1.00  0.00    -0.550 OA
ATOM      9  O   UNL     1     -15.101   1.446   3.333  1.00  0.00    -0.550 OA
ENDBRANCH   6   7
ENDBRANCH   5   6
ENDBRANCH   4   5
ENDBRANCH   3   4
ENDBRANCH   2   3
ENDBRANCH   1   2
BRANCH   1  10
ATOM     10  C   UNL     1     -10.367  -2.196   2.247  1.00  0.00     0.000 C 
BRANCH  10  11
ATOM     11  C   UNL     1     -11.229  -3.099   3.145  1.00  0.00    -0.000 C 
BRANCH  11  12
ATOM     12  C   UNL     1     -11.139  -2.720   4.631  1.00  0.00    -0.000 C 
BRANCH  12  13
ATOM     13  C   UNL     1     -10.856  -3.953   5.497  1.00  0.00    -0.000 C 
BRANCH  13  14
ATOM     14  C   UNL     1      -9.488  -4.564   5.157  1.00  0.00    -0.000 C 
BRANCH  14  15
ATOM     15  C   UNL     1      -8.706  -4.993   6.408  1.00  0.00    -0.003 C 
ATOM     16  C   UNL     1      -9.378  -6.142   7.160  1.00  0.00     0.004 C 
ENDBRANCH  14  15
ENDBRANCH  13  14
ENDBRANCH  12  13
ENDBRANCH  11  12
ENDBRANCH  10  11
ENDBRANCH   1  10
TORSDOF 12
ENDMDL
