MODEL 1
REMARK VINA RESULT:    -5.020      0.000      0.000
REMARK INTER + INTRA:          -5.138
REMARK INTER:                  -5.460
REMARK INTRA:                   0.321
REMARK UNBOUND:                 0.321
REMARK SMILES COc1cc2ccc(=O)oc2cc1O
REMARK SMILES IDX 3 1 13 2 12 3 11 4 5 5 4 6 6 7 7 8 8 9 9 10 10 11 2 12 1 13
REMARK SMILES IDX 14 14
REMARK H PARENT 14 15
REMARK Flexibility Score: inf
ROOT
ATOM      1  C   UNL     1      41.961  20.368  -1.501  1.00  0.00     0.161 A 
ATOM      2  C   UNL     1      42.254  19.012  -1.283  1.00  0.00     0.161 A 
ATOM      3  C   UNL     1      43.031  18.299  -2.208  1.00  0.00     0.098 A 
ATOM      4  C   UNL     1      43.520  18.932  -3.354  1.00  0.00     0.142 A 
ATOM      5  C   UNL     1      43.229  20.294  -3.580  1.00  0.00     0.022 A 
ATOM      6  C   UNL     1      42.453  21.008  -2.656  1.00  0.00     0.062 A 
ATOM      7  C   UNL     1      43.732  20.900  -4.736  1.00  0.00     0.019 A 
ATOM      8  C   UNL     1      44.499  20.147  -5.624  1.00  0.00     0.094 A 
ATOM      9  C   UNL     1      44.746  18.801  -5.335  1.00  0.00     0.336 A 
ATOM     10  O   UNL     1      45.437  18.104  -6.125  1.00  0.00    -0.246 OA
ATOM     11  O   UNL     1      44.256  18.249  -4.227  1.00  0.00    -0.423 OA
ENDROOT
BRANCH   1  12
ATOM     12  O   UNL     1      41.180  21.042  -0.549  1.00  0.00    -0.493 OA
ATOM     13  C   UNL     1      39.877  20.638  -0.142  1.00  0.00     0.278 C 
ENDBRANCH   1  12
BRANCH   2  14
ATOM     14  O   UNL     1      41.768  18.378  -0.141  1.00  0.00    -0.504 OA
ATOM     15  H   UNL     1      41.391  18.906   0.638  1.00  0.00     0.293 HD
ENDBRANCH   2  14
TORSDOF 2
ENDMDL
MODEL 2
REMARK VINA RESULT:    -4.605      6.817      9.264
REMARK INTER + INTRA:          -4.687
REMARK INTER:                  -4.638
REMARK INTRA:                  -0.049
REMARK UNBOUND:                 0.321
REMARK SMILES COc1cc2ccc(=O)oc2cc1O
REMARK SMILES IDX 3 1 13 2 12 3 11 4 5 5 4 6 6 7 7 8 8 9 9 10 10 11 2 12 1 13
REMARK SMILES IDX 14 14
REMARK H PARENT 14 15
REMARK Flexibility Score: inf
ROOT
ATOM      1  C   UNL     1      49.747  15.350  -4.661  1.00  0.00     0.161 A 
ATOM      2  C   UNL     1      48.547  15.969  -4.276  1.00  0.00     0.161 A 
ATOM      3  C   UNL     1      47.607  15.271  -3.503  1.00  0.00     0.098 A 
ATOM      4  C   UNL     1      47.857  13.954  -3.109  1.00  0.00     0.142 A 
ATOM      5  C   UNL     1      49.061  13.325  -3.492  1.00  0.00     0.022 A 
ATOM      6  C   UNL     1      50.001  14.022  -4.265  1.00  0.00     0.062 A 
ATOM      7  C   UNL     1      49.283  12.006  -3.083  1.00  0.00     0.019 A 
ATOM      8  C   UNL     1      48.317  11.356  -2.315  1.00  0.00     0.094 A 
ATOM      9  C   UNL     1      47.147  12.042  -1.974  1.00  0.00     0.336 A 
ATOM     10  O   UNL     1      46.263  11.473  -1.282  1.00  0.00    -0.246 OA
ATOM     11  O   UNL     1      46.961  13.298  -2.376  1.00  0.00    -0.423 OA
ENDROOT
BRANCH   1  12
ATOM     12  O   UNL     1      50.658  16.086  -5.434  1.00  0.00    -0.493 OA
ATOM     13  C   UNL     1      52.074  15.979  -5.331  1.00  0.00     0.278 C 
ENDBRANCH   1  12
BRANCH   2  14
ATOM     14  O   UNL     1      48.295  17.283  -4.667  1.00  0.00    -0.504 OA
ATOM     15  H   UNL     1      49.013  17.855  -5.095  1.00  0.00     0.293 HD
ENDBRANCH   2  14
TORSDOF 2
ENDMDL
MODEL 3
REMARK VINA RESULT:    -4.604      1.111      1.237
REMARK INTER + INTRA:          -4.686
REMARK INTER:                  -4.651
REMARK INTRA:                  -0.036
REMARK UNBOUND:                 0.321
REMARK SMILES COc1cc2ccc(=O)oc2cc1O
REMARK SMILES IDX 3 1 13 2 12 3 11 4 5 5 4 6 6 7 7 8 8 9 9 10 10 11 2 12 1 13
REMARK SMILES IDX 14 14
REMARK H PARENT 14 15
REMARK Flexibility Score: inf
ROOT
ATOM      1  C   UNL     1      42.052  19.437  -2.334  1.00  0.00     0.161 A 
ATOM      2  C   UNL     1      42.479  18.169  -1.909  1.00  0.00     0.161 A 
ATOM      3  C   UNL     1      43.470  17.480  -2.623  1.00  0.00     0.098 A 
ATOM      4  C   UNL     1      44.041  18.048  -3.764  1.00  0.00     0.142 A 
ATOM      5  C   UNL     1      43.617  19.322  -4.198  1.00  0.00     0.022 A 
ATOM      6  C   UNL     1      42.626  20.012  -3.486  1.00  0.00     0.062 A 
ATOM      7  C   UNL     1      44.206  19.866  -5.345  1.00  0.00     0.019 A 
ATOM      8  C   UNL     1      45.187  19.140  -6.019  1.00  0.00     0.094 A 
ATOM      9  C   UNL     1      45.557  17.882  -5.530  1.00  0.00     0.336 A 
ATOM     10  O   UNL     1      46.441  17.211  -6.125  1.00  0.00    -0.246 OA
ATOM     11  O   UNL     1      44.980  17.388  -4.437  1.00  0.00    -0.423 OA
ENDROOT
BRANCH   1  12
ATOM     12  O   UNL     1      41.058  20.090  -1.590  1.00  0.00    -0.493 OA
ATOM     13  C   UNL     1      41.313  20.958  -0.490  1.00  0.00     0.278 C 
ENDBRANCH   1  12
BRANCH   2  14
ATOM     14  O   UNL     1      41.911  17.599  -0.770  1.00  0.00    -0.504 OA
ATOM     15  H   UNL     1      41.517  18.170  -0.032  1.00  0.00     0.293 HD
ENDBRANCH   2  14
TORSDOF 2
ENDMDL
MODEL 4
REMARK VINA RESULT:    -4.597      1.854      4.987
REMARK INTER + INTRA:          -4.679
REMARK INTER:                  -4.629
REMARK INTRA:                  -0.050
REMARK UNBOUND:                 0.321
REMARK SMILES COc1cc2ccc(=O)oc2cc1O
REMARK SMILES IDX 3 1 13 2 12 3 11 4 5 5 4 6 6 7 7 8 8 9 9 10 10 11 2 12 1 13
REMARK SMILES IDX 14 14
REMARK H PARENT 14 15
REMARK Flexibility Score: inf
ROOT
ATOM      1  C   UNL     1      43.970  16.885  -3.286  1.00  0.00     0.161 A 
ATOM      2  C   UNL     1      43.021  16.185  -2.525  1.00  0.00     0.161 A 
ATOM      3  C   UNL     1      42.089  16.882  -1.743  1.00  0.00     0.098 A 
ATOM      4  C   UNL     1      42.097  18.279  -1.713  1.00  0.00     0.142 A 
ATOM      5  C   UNL     1      43.049  18.990  -2.476  1.00  0.00     0.022 A 
ATOM      6  C   UNL     1      43.981  18.294  -3.258  1.00  0.00     0.062 A 
ATOM      7  C   UNL     1      43.032  20.388  -2.425  1.00  0.00     0.019 A 
ATOM      8  C   UNL     1      42.085  21.033  -1.631  1.00  0.00     0.094 A 
ATOM      9  C   UNL     1      41.173  20.263  -0.902  1.00  0.00     0.336 A 
ATOM     10  O   UNL     1      40.310  20.827  -0.180  1.00  0.00    -0.246 OA
ATOM     11  O   UNL     1      41.210  18.934  -0.968  1.00  0.00    -0.423 OA
ENDROOT
BRANCH   1  12
ATOM     12  O   UNL     1      44.884  16.147  -4.055  1.00  0.00    -0.493 OA
ATOM     13  C   UNL     1      46.254  16.493  -4.232  1.00  0.00     0.278 C 
ENDBRANCH   1  12
BRANCH   2  14
ATOM     14  O   UNL     1      43.010  14.792  -2.553  1.00  0.00    -0.504 OA
ATOM     15  H   UNL     1      43.616  14.269  -3.174  1.00  0.00     0.293 HD
ENDBRANCH   2  14
TORSDOF 2
ENDMDL
MODEL 5
REMARK VINA RESULT:    -4.446      7.037      8.855
REMARK INTER + INTRA:          -4.515
REMARK INTER:                  -4.458
REMARK INTRA:                  -0.057
REMARK UNBOUND:                 0.321
REMARK SMILES COc1cc2ccc(=O)oc2cc1O
REMARK SMILES IDX 3 1 13 2 12 3 11 4 5 5 4 6 6 7 7 8 8 9 9 10 10 11 2 12 1 13
REMARK SMILES IDX 14 14
REMARK H PARENT 14 15
REMARK Flexibility Score: inf
ROOT
ATOM      1  C   UNL     1      48.031  13.270  -3.294  1.00  0.00     0.161 A 
ATOM      2  C   UNL     1      47.728  14.640  -3.294  1.00  0.00     0.161 A 
ATOM      3  C   UNL     1      48.608  15.559  -3.884  1.00  0.00     0.098 A 
ATOM      4  C   UNL     1      49.795  15.119  -4.476  1.00  0.00     0.142 A 
ATOM      5  C   UNL     1      50.106  13.743  -4.480  1.00  0.00     0.022 A 
ATOM      6  C   UNL     1      49.228  12.823  -3.890  1.00  0.00     0.062 A 
ATOM      7  C   UNL     1      51.302  13.332  -5.080  1.00  0.00     0.019 A 
ATOM      8  C   UNL     1      52.142  14.286  -5.653  1.00  0.00     0.094 A 
ATOM      9  C   UNL     1      51.768  15.633  -5.612  1.00  0.00     0.336 A 
ATOM     10  O   UNL     1      52.513  16.509  -6.123  1.00  0.00    -0.246 OA
ATOM     11  O   UNL     1      50.624  15.997  -5.034  1.00  0.00    -0.423 OA
ENDROOT
BRANCH   1  12
ATOM     12  O   UNL     1      47.122  12.386  -2.692  1.00  0.00    -0.493 OA
ATOM     13  C   UNL     1      47.219  11.919  -1.350  1.00  0.00     0.278 C 
ENDBRANCH   1  12
BRANCH   2  14
ATOM     14  O   UNL     1      46.545  15.082  -2.705  1.00  0.00    -0.504 OA
ATOM     15  H   UNL     1      46.551  15.709  -1.909  1.00  0.00     0.293 HD
ENDBRANCH   2  14
TORSDOF 2
ENDMDL
MODEL 6
REMARK VINA RESULT:    -4.442      5.687      8.127
REMARK INTER + INTRA:          -4.510
REMARK INTER:                  -4.465
REMARK INTRA:                  -0.045
REMARK UNBOUND:                 0.321
REMARK SMILES COc1cc2ccc(=O)oc2cc1O
REMARK SMILES IDX 3 1 13 2 12 3 11 4 5 5 4 6 6 7 7 8 8 9 9 10 10 11 2 12 1 13
REMARK SMILES IDX 14 14
REMARK H PARENT 14 15
REMARK Flexibility Score: inf
ROOT
ATOM      1  C   UNL     1      49.298  13.900  -3.859  1.00  0.00     0.161 A 
ATOM      2  C   UNL     1      48.662  13.099  -2.896  1.00  0.00     0.161 A 
ATOM      3  C   UNL     1      47.392  13.448  -2.414  1.00  0.00     0.098 A 
ATOM      4  C   UNL     1      46.748  14.594  -2.886  1.00  0.00     0.142 A 
ATOM      5  C   UNL     1      47.381  15.403  -3.854  1.00  0.00     0.022 A 
ATOM      6  C   UNL     1      48.650  15.057  -4.337  1.00  0.00     0.062 A 
ATOM      7  C   UNL     1      46.711  16.545  -4.308  1.00  0.00     0.019 A 
ATOM      8  C   UNL     1      45.450  16.847  -3.796  1.00  0.00     0.094 A 
ATOM      9  C   UNL     1      44.885  15.999  -2.839  1.00  0.00     0.336 A 
ATOM     10  O   UNL     1      43.747  16.254  -2.364  1.00  0.00    -0.246 OA
ATOM     11  O   UNL     1      45.543  14.918  -2.424  1.00  0.00    -0.423 OA
ENDROOT
BRANCH   1  12
ATOM     12  O   UNL     1      50.568  13.514  -4.314  1.00  0.00    -0.493 OA
ATOM     13  C   UNL     1      51.308  14.198  -5.320  1.00  0.00     0.278 C 
ENDBRANCH   1  12
BRANCH   2  14
ATOM     14  O   UNL     1      49.302  11.955  -2.423  1.00  0.00    -0.504 OA
ATOM     15  H   UNL     1      49.425  11.137  -3.008  1.00  0.00     0.293 HD
ENDBRANCH   2  14
TORSDOF 2
ENDMDL
MODEL 7
REMARK VINA RESULT:    -4.250      5.618      7.817
REMARK INTER + INTRA:          -4.302
REMARK INTER:                  -4.256
REMARK INTRA:                  -0.046
REMARK UNBOUND:                 0.321
REMARK SMILES COc1cc2ccc(=O)oc2cc1O
REMARK SMILES IDX 3 1 13 2 12 3 11 4 5 5 4 6 6 7 7 8 8 9 9 10 10 11 2 12 1 13
REMARK SMILES IDX 14 14
REMARK H PARENT 14 15
REMARK Flexibility Score: inf
ROOT
ATOM      1  C   UNL     1      48.300  13.112  -2.769  1.00  0.00     0.161 A 
ATOM      2  C   UNL     1      49.103  13.889  -3.619  1.00  0.00     0.161 A 
ATOM      3  C   UNL     1      48.594  15.061  -4.197  1.00  0.00     0.098 A 
ATOM      4  C   UNL     1      47.283  15.466  -3.932  1.00  0.00     0.142 A 
ATOM      5  C   UNL     1      46.470  14.690  -3.078  1.00  0.00     0.022 A 
ATOM      6  C   UNL     1      46.977  13.519  -2.500  1.00  0.00     0.062 A 
ATOM      7  C   UNL     1      45.162  15.121  -2.832  1.00  0.00     0.019 A 
ATOM      8  C   UNL     1      44.703  16.294  -3.431  1.00  0.00     0.094 A 
ATOM      9  C   UNL     1      45.566  17.011  -4.266  1.00  0.00     0.336 A 
ATOM     10  O   UNL     1      45.172  18.073  -4.817  1.00  0.00    -0.246 OA
ATOM     11  O   UNL     1      46.807  16.579  -4.484  1.00  0.00    -0.423 OA
ENDROOT
BRANCH   1  12
ATOM     12  O   UNL     1      48.850  11.947  -2.212  1.00  0.00    -0.493 OA
ATOM     13  C   UNL     1      48.334  11.278  -1.066  1.00  0.00     0.278 C 
ENDBRANCH   1  12
BRANCH   2  14
ATOM     14  O   UNL     1      50.411  13.488  -3.885  1.00  0.00    -0.504 OA
ATOM     15  H   UNL     1      51.161  13.654  -3.224  1.00  0.00     0.293 HD
ENDBRANCH   2  14
TORSDOF 2
ENDMDL
MODEL 8
REMARK VINA RESULT:    -4.180      5.771      7.586
REMARK INTER + INTRA:          -4.225
REMARK INTER:                  -4.176
REMARK INTRA:                  -0.049
REMARK UNBOUND:                 0.321
REMARK SMILES COc1cc2ccc(=O)oc2cc1O
REMARK SMILES IDX 3 1 13 2 12 3 11 4 5 5 4 6 6 7 7 8 8 9 9 10 10 11 2 12 1 13
REMARK SMILES IDX 14 14
REMARK H PARENT 14 15
REMARK Flexibility Score: inf
ROOT
ATOM      1  C   UNL     1      46.338  16.113  -3.986  1.00  0.00     0.161 A 
ATOM      2  C   UNL     1      47.716  16.231  -4.224  1.00  0.00     0.161 A 
ATOM      3  C   UNL     1      48.589  15.197  -3.854  1.00  0.00     0.098 A 
ATOM      4  C   UNL     1      48.094  14.041  -3.245  1.00  0.00     0.142 A 
ATOM      5  C   UNL     1      46.710  13.915  -3.003  1.00  0.00     0.022 A 
ATOM      6  C   UNL     1      45.836  14.947  -3.372  1.00  0.00     0.062 A 
ATOM      7  C   UNL     1      46.245  12.746  -2.392  1.00  0.00     0.019 A 
ATOM      8  C   UNL     1      47.154  11.747  -2.043  1.00  0.00     0.094 A 
ATOM      9  C   UNL     1      48.512  11.942  -2.314  1.00  0.00     0.336 A 
ATOM     10  O   UNL     1      49.349  11.052  -2.007  1.00  0.00    -0.246 OA
ATOM     11  O   UNL     1      48.929  13.064  -2.897  1.00  0.00    -0.423 OA
ENDROOT
BRANCH   1  12
ATOM     12  O   UNL     1      45.501  17.171  -4.373  1.00  0.00    -0.493 OA
ATOM     13  C   UNL     1      44.321  17.562  -3.678  1.00  0.00     0.278 C 
ENDBRANCH   1  12
BRANCH   2  14
ATOM     14  O   UNL     1      48.213  17.383  -4.831  1.00  0.00    -0.504 OA
ATOM     15  H   UNL     1      47.595  18.107  -5.179  1.00  0.00     0.293 HD
ENDBRANCH   2  14
TORSDOF 2
ENDMDL
