MODEL 1
REMARK VINA RESULT:     7.750      0.000      0.000
REMARK INTER + INTRA:          16.643
REMARK INTER:                  17.717
REMARK INTRA:                  -1.074
REMARK UNBOUND:                -1.074
REMARK SMILES CCCCCCCCCCCCCCCCCCCCCCCC(=O)[O-]
REMARK SMILES IDX 13 1 14 2 15 3 16 4 17 5 18 6 19 7 20 8 21 9 22 10 23 11
REMARK SMILES IDX 24 12 25 13 26 14 12 15 11 16 10 17 9 18 8 19 7 20 6 21 5 22
REMARK SMILES IDX 4 23 3 24 2 25 1 26
REMARK H PARENT
REMARK Flexibility Score: inf
ROOT
ATOM      1  C   UNL     1      31.573  19.078  37.693  1.00  0.00     0.000 C 
ENDROOT
BRANCH   1   2
ATOM      2  C   UNL     1      30.909  20.461  37.637  1.00  0.00     0.000 C 
BRANCH   2   3
ATOM      3  C   UNL     1      31.917  21.620  37.751  1.00  0.00     0.000 C 
BRANCH   3   4
ATOM      4  C   UNL     1      31.392  22.993  37.288  1.00  0.00     0.000 C 
BRANCH   4   5
ATOM      5  C   UNL     1      32.467  23.843  36.591  1.00  0.00     0.000 C 
BRANCH   5   6
ATOM      6  C   UNL     1      31.873  25.012  35.784  1.00  0.00     0.000 C 
BRANCH   6   7
ATOM      7  C   UNL     1      32.278  25.054  34.297  1.00  0.00     0.000 C 
BRANCH   7   8
ATOM      8  C   UNL     1      31.104  25.125  33.298  1.00  0.00     0.000 C 
BRANCH   8   9
ATOM      9  C   UNL     1      31.513  25.080  31.815  1.00  0.00     0.000 C 
BRANCH   9  10
ATOM     10  C   UNL     1      30.573  24.210  30.963  1.00  0.00     0.006 C 
BRANCH  10  11
ATOM     11  C   UNL     1      30.721  24.496  29.464  1.00  0.00     0.053 C 
BRANCH  11  12
ATOM     12  C   UNL     1      31.903  23.786  28.879  1.00  0.00     0.041 C 
ATOM     13  O   UNL     1      31.850  22.549  28.647  1.00  0.00    -0.550 OA
ATOM     14  O   UNL     1      33.052  24.497  28.555  1.00  0.00    -0.550 OA
ENDBRANCH  11  12
ENDBRANCH  10  11
ENDBRANCH   9  10
ENDBRANCH   8   9
ENDBRANCH   7   8
ENDBRANCH   6   7
ENDBRANCH   5   6
ENDBRANCH   4   5
ENDBRANCH   3   4
ENDBRANCH   2   3
ENDBRANCH   1   2
BRANCH   1  15
ATOM     15  C   UNL     1      32.103  18.780  39.104  1.00  0.00     0.000 C 
BRANCH  15  16
ATOM     16  C   UNL     1      33.568  18.308  39.105  1.00  0.00     0.000 C 
BRANCH  16  17
ATOM     17  C   UNL     1      33.858  17.082  39.994  1.00  0.00     0.000 C 
BRANCH  17  18
ATOM     18  C   UNL     1      33.445  17.233  41.469  1.00  0.00    -0.000 C 
BRANCH  18  19
ATOM     19  C   UNL     1      34.629  17.095  42.438  1.00  0.00    -0.000 C 
BRANCH  19  20
ATOM     20  C   UNL     1      34.607  15.728  43.139  1.00  0.00    -0.000 C 
BRANCH  20  21
ATOM     21  C   UNL     1      36.003  15.095  43.246  1.00  0.00    -0.000 C 
BRANCH  21  22
ATOM     22  C   UNL     1      36.003  13.595  42.903  1.00  0.00    -0.000 C 
BRANCH  22  23
ATOM     23  C   UNL     1      34.635  13.116  42.372  1.00  0.00    -0.000 C 
BRANCH  23  24
ATOM     24  C   UNL     1      34.649  12.738  40.878  1.00  0.00    -0.000 C 
BRANCH  24  25
ATOM     25  C   UNL     1      33.765  11.535  40.510  1.00  0.00    -0.003 C 
ATOM     26  C   UNL     1      32.665  11.270  41.538  1.00  0.00     0.004 C 
ENDBRANCH  24  25
ENDBRANCH  23  24
ENDBRANCH  22  23
ENDBRANCH  21  22
ENDBRANCH  20  21
ENDBRANCH  19  20
ENDBRANCH  18  19
ENDBRANCH  17  18
ENDBRANCH  16  17
ENDBRANCH  15  16
ENDBRANCH   1  15
TORSDOF 22
ENDMDL
MODEL 2
REMARK VINA RESULT:     9.059      1.025      1.796
REMARK INTER + INTRA:          19.636
REMARK INTER:                  20.735
REMARK INTRA:                  -1.099
REMARK UNBOUND:                -1.074
REMARK SMILES CCCCCCCCCCCCCCCCCCCCCCCC(=O)[O-]
REMARK SMILES IDX 13 1 14 2 15 3 16 4 17 5 18 6 19 7 20 8 21 9 22 10 23 11
REMARK SMILES IDX 24 12 25 13 26 14 12 15 11 16 10 17 9 18 8 19 7 20 6 21 5 22
REMARK SMILES IDX 4 23 3 24 2 25 1 26
REMARK H PARENT
REMARK Flexibility Score: inf
ROOT
ATOM      1  C   UNL     1      31.514  20.502  36.969  1.00  0.00     0.000 C 
ENDROOT
BRANCH   1   2
ATOM      2  C   UNL     1      31.844  21.852  37.622  1.00  0.00     0.000 C 
BRANCH   2   3
ATOM      3  C   UNL     1      31.530  23.055  36.714  1.00  0.00     0.000 C 
BRANCH   3   4
ATOM      4  C   UNL     1      32.703  24.026  36.484  1.00  0.00     0.000 C 
BRANCH   4   5
ATOM      5  C   UNL     1      32.749  24.584  35.052  1.00  0.00     0.000 C 
BRANCH   5   6
ATOM      6  C   UNL     1      31.531  24.165  34.209  1.00  0.00     0.000 C 
BRANCH   6   7
ATOM      7  C   UNL     1      31.170  25.125  33.056  1.00  0.00     0.000 C 
BRANCH   7   8
ATOM      8  C   UNL     1      30.056  24.627  32.112  1.00  0.00     0.000 C 
BRANCH   8   9
ATOM      9  C   UNL     1      30.535  24.209  30.711  1.00  0.00     0.000 C 
BRANCH   9  10
ATOM     10  C   UNL     1      31.641  25.125  30.160  1.00  0.00     0.006 C 
BRANCH  10  11
ATOM     11  C   UNL     1      32.329  24.524  28.928  1.00  0.00     0.053 C 
BRANCH  11  12
ATOM     12  C   UNL     1      33.814  24.447  29.107  1.00  0.00     0.041 C 
ATOM     13  O   UNL     1      34.575  24.431  28.103  1.00  0.00    -0.550 OA
ATOM     14  O   UNL     1      34.361  24.427  30.383  1.00  0.00    -0.550 OA
ENDBRANCH  11  12
ENDBRANCH  10  11
ENDBRANCH   9  10
ENDBRANCH   8   9
ENDBRANCH   7   8
ENDBRANCH   6   7
ENDBRANCH   5   6
ENDBRANCH   4   5
ENDBRANCH   3   4
ENDBRANCH   2   3
ENDBRANCH   1   2
BRANCH   1  15
ATOM     15  C   UNL     1      30.957  19.512  38.003  1.00  0.00     0.000 C 
BRANCH  15  16
ATOM     16  C   UNL     1      31.922  18.351  38.301  1.00  0.00     0.000 C 
BRANCH  16  17
ATOM     17  C   UNL     1      33.148  18.723  39.158  1.00  0.00     0.000 C 
BRANCH  17  18
ATOM     18  C   UNL     1      33.903  17.529  39.769  1.00  0.00    -0.000 C 
BRANCH  18  19
ATOM     19  C   UNL     1      33.374  17.135  41.156  1.00  0.00    -0.000 C 
BRANCH  19  20
ATOM     20  C   UNL     1      34.521  17.047  42.175  1.00  0.00    -0.000 C 
BRANCH  20  21
ATOM     21  C   UNL     1      34.374  15.851  43.129  1.00  0.00    -0.000 C 
BRANCH  21  22
ATOM     22  C   UNL     1      35.707  15.126  43.383  1.00  0.00    -0.000 C 
BRANCH  22  23
ATOM     23  C   UNL     1      35.717  13.698  42.796  1.00  0.00    -0.000 C 
BRANCH  23  24
ATOM     24  C   UNL     1      34.676  13.480  41.682  1.00  0.00    -0.000 C 
BRANCH  24  25
ATOM     25  C   UNL     1      34.648  12.058  41.096  1.00  0.00    -0.003 C 
ATOM     26  C   UNL     1      33.274  11.666  40.553  1.00  0.00     0.004 C 
ENDBRANCH  24  25
ENDBRANCH  23  24
ENDBRANCH  22  23
ENDBRANCH  21  22
ENDBRANCH  20  21
ENDBRANCH  19  20
ENDBRANCH  18  19
ENDBRANCH  17  18
ENDBRANCH  16  17
ENDBRANCH  15  16
ENDBRANCH   1  15
TORSDOF 22
ENDMDL
MODEL 3
REMARK VINA RESULT:     9.622      4.938     13.305
REMARK INTER + INTRA:          20.924
REMARK INTER:                  20.613
REMARK INTRA:                   0.311
REMARK UNBOUND:                -1.074
REMARK SMILES CCCCCCCCCCCCCCCCCCCCCCCC(=O)[O-]
REMARK SMILES IDX 13 1 14 2 15 3 16 4 17 5 18 6 19 7 20 8 21 9 22 10 23 11
REMARK SMILES IDX 24 12 25 13 26 14 12 15 11 16 10 17 9 18 8 19 7 20 6 21 5 22
REMARK SMILES IDX 4 23 3 24 2 25 1 26
REMARK H PARENT
REMARK Flexibility Score: inf
ROOT
ATOM      1  C   UNL     1      31.470  20.940  36.944  1.00  0.00     0.000 C 
ENDROOT
BRANCH   1   2
ATOM      2  C   UNL     1      30.880  19.890  37.896  1.00  0.00     0.000 C 
BRANCH   2   3
ATOM      3  C   UNL     1      31.801  18.672  38.099  1.00  0.00     0.000 C 
BRANCH   3   4
ATOM      4  C   UNL     1      32.676  18.716  39.365  1.00  0.00     0.000 C 
BRANCH   4   5
ATOM      5  C   UNL     1      33.566  17.472  39.523  1.00  0.00     0.000 C 
BRANCH   5   6
ATOM      6  C   UNL     1      34.126  17.316  40.949  1.00  0.00     0.000 C 
BRANCH   6   7
ATOM      7  C   UNL     1      33.917  15.927  41.586  1.00  0.00     0.000 C 
BRANCH   7   8
ATOM      8  C   UNL     1      34.832  15.612  42.787  1.00  0.00     0.000 C 
BRANCH   8   9
ATOM      9  C   UNL     1      35.429  14.193  42.790  1.00  0.00     0.000 C 
BRANCH   9  10
ATOM     10  C   UNL     1      34.379  13.103  42.519  1.00  0.00     0.006 C 
BRANCH  10  11
ATOM     11  C   UNL     1      34.513  12.507  41.112  1.00  0.00     0.053 C 
BRANCH  11  12
ATOM     12  C   UNL     1      33.616  11.323  40.925  1.00  0.00     0.041 C 
ATOM     13  O   UNL     1      33.943  10.397  40.136  1.00  0.00    -0.550 OA
ATOM     14  O   UNL     1      32.435  11.223  41.649  1.00  0.00    -0.550 OA
ENDBRANCH  11  12
ENDBRANCH  10  11
ENDBRANCH   9  10
ENDBRANCH   8   9
ENDBRANCH   7   8
ENDBRANCH   6   7
ENDBRANCH   5   6
ENDBRANCH   4   5
ENDBRANCH   3   4
ENDBRANCH   2   3
ENDBRANCH   1   2
BRANCH   1  15
ATOM     15  C   UNL     1      31.918  22.191  37.714  1.00  0.00     0.000 C 
BRANCH  15  16
ATOM     16  C   UNL     1      31.619  23.498  36.958  1.00  0.00     0.000 C 
BRANCH  16  17
ATOM     17  C   UNL     1      32.768  24.017  36.071  1.00  0.00     0.000 C 
BRANCH  17  18
ATOM     18  C   UNL     1      32.375  25.125  35.078  1.00  0.00    -0.000 C 
BRANCH  18  19
ATOM     19  C   UNL     1      30.934  24.983  34.564  1.00  0.00    -0.000 C 
BRANCH  19  20
ATOM     20  C   UNL     1      30.897  24.190  33.248  1.00  0.00    -0.000 C 
BRANCH  20  21
ATOM     21  C   UNL     1      30.269  24.988  32.095  1.00  0.00    -0.000 C 
BRANCH  21  22
ATOM     22  C   UNL     1      31.208  25.120  30.883  1.00  0.00    -0.000 C 
BRANCH  22  23
ATOM     23  C   UNL     1      30.807  24.179  29.727  1.00  0.00    -0.000 C 
BRANCH  23  24
ATOM     24  C   UNL     1      31.551  24.466  28.408  1.00  0.00    -0.000 C 
BRANCH  24  25
ATOM     25  C   UNL     1      33.083  24.508  28.530  1.00  0.00    -0.003 C 
ATOM     26  C   UNL     1      33.558  25.106  29.855  1.00  0.00     0.004 C 
ENDBRANCH  24  25
ENDBRANCH  23  24
ENDBRANCH  22  23
ENDBRANCH  21  22
ENDBRANCH  20  21
ENDBRANCH  19  20
ENDBRANCH  18  19
ENDBRANCH  17  18
ENDBRANCH  16  17
ENDBRANCH  15  16
ENDBRANCH   1  15
TORSDOF 22
ENDMDL
MODEL 4
REMARK VINA RESULT:     9.633      4.929     13.293
REMARK INTER + INTRA:          20.949
REMARK INTER:                  21.609
REMARK INTRA:                  -0.660
REMARK UNBOUND:                -1.074
REMARK SMILES CCCCCCCCCCCCCCCCCCCCCCCC(=O)[O-]
REMARK SMILES IDX 13 1 14 2 15 3 16 4 17 5 18 6 19 7 20 8 21 9 22 10 23 11
REMARK SMILES IDX 24 12 25 13 26 14 12 15 11 16 10 17 9 18 8 19 7 20 6 21 5 22
REMARK SMILES IDX 4 23 3 24 2 25 1 26
REMARK H PARENT
REMARK Flexibility Score: inf
ROOT
ATOM      1  C   UNL     1      31.098  19.639  37.836  1.00  0.00     0.000 C 
ENDROOT
BRANCH   1   2
ATOM      2  C   UNL     1      31.985  18.430  38.164  1.00  0.00     0.000 C 
BRANCH   2   3
ATOM      3  C   UNL     1      32.860  18.645  39.413  1.00  0.00     0.000 C 
BRANCH   3   4
ATOM      4  C   UNL     1      33.931  17.565  39.656  1.00  0.00     0.000 C 
BRANCH   4   5
ATOM      5  C   UNL     1      34.017  17.125  41.127  1.00  0.00     0.000 C 
BRANCH   5   6
ATOM      6  C   UNL     1      34.154  15.599  41.286  1.00  0.00     0.000 C 
BRANCH   6   7
ATOM      7  C   UNL     1      34.624  15.125  42.676  1.00  0.00     0.000 C 
BRANCH   7   8
ATOM      8  C   UNL     1      35.468  13.834  42.678  1.00  0.00     0.000 C 
BRANCH   8   9
ATOM      9  C   UNL     1      35.319  12.962  41.419  1.00  0.00     0.000 C 
BRANCH   9  10
ATOM     10  C   UNL     1      33.900  12.394  41.250  1.00  0.00     0.006 C 
BRANCH  10  11
ATOM     11  C   UNL     1      33.848  10.882  41.502  1.00  0.00     0.053 C 
BRANCH  11  12
ATOM     12  C   UNL     1      33.479  10.127  40.262  1.00  0.00     0.041 C 
ATOM     13  O   UNL     1      32.315  10.212  39.790  1.00  0.00    -0.550 OA
ATOM     14  O   UNL     1      34.432   9.358  39.606  1.00  0.00    -0.550 OA
ENDBRANCH  11  12
ENDBRANCH  10  11
ENDBRANCH   9  10
ENDBRANCH   8   9
ENDBRANCH   7   8
ENDBRANCH   6   7
ENDBRANCH   5   6
ENDBRANCH   4   5
ENDBRANCH   3   4
ENDBRANCH   2   3
ENDBRANCH   1   2
BRANCH   1  15
ATOM     15  C   UNL     1      31.950  20.879  37.527  1.00  0.00     0.000 C 
BRANCH  15  16
ATOM     16  C   UNL     1      31.270  22.193  37.951  1.00  0.00     0.000 C 
BRANCH  16  17
ATOM     17  C   UNL     1      31.967  23.478  37.459  1.00  0.00     0.000 C 
BRANCH  17  18
ATOM     18  C   UNL     1      31.507  23.982  36.080  1.00  0.00    -0.000 C 
BRANCH  18  19
ATOM     19  C   UNL     1      32.675  24.411  35.181  1.00  0.00    -0.000 C 
BRANCH  19  20
ATOM     20  C   UNL     1      32.162  25.089  33.901  1.00  0.00    -0.000 C 
BRANCH  20  21
ATOM     21  C   UNL     1      31.519  24.095  32.922  1.00  0.00    -0.000 C 
BRANCH  21  22
ATOM     22  C   UNL     1      30.155  24.577  32.396  1.00  0.00    -0.000 C 
BRANCH  22  23
ATOM     23  C   UNL     1      30.244  25.125  30.956  1.00  0.00    -0.000 C 
BRANCH  23  24
ATOM     24  C   UNL     1      31.109  24.261  30.017  1.00  0.00    -0.000 C 
BRANCH  24  25
ATOM     25  C   UNL     1      30.829  24.462  28.518  1.00  0.00    -0.003 C 
ATOM     26  C   UNL     1      29.991  23.335  27.914  1.00  0.00     0.004 C 
ENDBRANCH  24  25
ENDBRANCH  23  24
ENDBRANCH  22  23
ENDBRANCH  21  22
ENDBRANCH  20  21
ENDBRANCH  19  20
ENDBRANCH  18  19
ENDBRANCH  17  18
ENDBRANCH  16  17
ENDBRANCH  15  16
ENDBRANCH   1  15
TORSDOF 22
ENDMDL
MODEL 5
REMARK VINA RESULT:     9.913      1.515      3.143
REMARK INTER + INTRA:          21.588
REMARK INTER:                  22.840
REMARK INTRA:                  -1.252
REMARK UNBOUND:                -1.074
REMARK SMILES CCCCCCCCCCCCCCCCCCCCCCCC(=O)[O-]
REMARK SMILES IDX 13 1 14 2 15 3 16 4 17 5 18 6 19 7 20 8 21 9 22 10 23 11
REMARK SMILES IDX 24 12 25 13 26 14 12 15 11 16 10 17 9 18 8 19 7 20 6 21 5 22
REMARK SMILES IDX 4 23 3 24 2 25 1 26
REMARK H PARENT
REMARK Flexibility Score: inf
ROOT
ATOM      1  C   UNL     1      33.728  17.330  39.749  1.00  0.00     0.000 C 
ENDROOT
BRANCH   1   2
ATOM      2  C   UNL     1      33.386  18.569  38.909  1.00  0.00     0.000 C 
BRANCH   2   3
ATOM      3  C   UNL     1      31.989  18.496  38.266  1.00  0.00     0.000 C 
BRANCH   3   4
ATOM      4  C   UNL     1      31.191  19.813  38.279  1.00  0.00     0.000 C 
BRANCH   4   5
ATOM      5  C   UNL     1      31.543  20.741  37.105  1.00  0.00     0.000 C 
BRANCH   5   6
ATOM      6  C   UNL     1      31.823  22.188  37.550  1.00  0.00     0.000 C 
BRANCH   6   7
ATOM      7  C   UNL     1      31.477  23.273  36.510  1.00  0.00     0.000 C 
BRANCH   7   8
ATOM      8  C   UNL     1      32.485  24.436  36.414  1.00  0.00     0.000 C 
BRANCH   8   9
ATOM      9  C   UNL     1      32.549  25.125  35.039  1.00  0.00     0.000 C 
BRANCH   9  10
ATOM     10  C   UNL     1      31.840  24.322  33.935  1.00  0.00     0.006 C 
BRANCH  10  11
ATOM     11  C   UNL     1      31.930  25.013  32.569  1.00  0.00     0.053 C 
BRANCH  11  12
ATOM     12  C   UNL     1      30.644  24.908  31.810  1.00  0.00     0.041 C 
ATOM     13  O   UNL     1      30.643  24.954  30.552  1.00  0.00    -0.550 OA
ATOM     14  O   UNL     1      29.447  24.722  32.491  1.00  0.00    -0.550 OA
ENDBRANCH  11  12
ENDBRANCH  10  11
ENDBRANCH   9  10
ENDBRANCH   8   9
ENDBRANCH   7   8
ENDBRANCH   6   7
ENDBRANCH   5   6
ENDBRANCH   4   5
ENDBRANCH   3   4
ENDBRANCH   2   3
ENDBRANCH   1   2
BRANCH   1  15
ATOM     15  C   UNL     1      33.430  17.574  41.235  1.00  0.00     0.000 C 
BRANCH  15  16
ATOM     16  C   UNL     1      34.532  18.382  41.942  1.00  0.00     0.000 C 
BRANCH  16  17
ATOM     17  C   UNL     1      35.252  17.642  43.088  1.00  0.00     0.000 C 
BRANCH  17  18
ATOM     18  C   UNL     1      34.859  16.164  43.258  1.00  0.00    -0.000 C 
BRANCH  18  19
ATOM     19  C   UNL     1      36.051  15.268  43.625  1.00  0.00    -0.000 C 
BRANCH  19  20
ATOM     20  C   UNL     1      35.882  13.860  43.032  1.00  0.00    -0.000 C 
BRANCH  20  21
ATOM     21  C   UNL     1      34.702  13.768  42.052  1.00  0.00    -0.000 C 
BRANCH  21  22
ATOM     22  C   UNL     1      34.475  12.340  41.528  1.00  0.00    -0.000 C 
BRANCH  22  23
ATOM     23  C   UNL     1      32.976  11.980  41.441  1.00  0.00    -0.000 C 
BRANCH  23  24
ATOM     24  C   UNL     1      32.713  10.521  41.022  1.00  0.00    -0.000 C 
BRANCH  24  25
ATOM     25  C   UNL     1      33.150  10.174  39.589  1.00  0.00    -0.003 C 
ATOM     26  C   UNL     1      34.042   8.934  39.523  1.00  0.00     0.004 C 
ENDBRANCH  24  25
ENDBRANCH  23  24
ENDBRANCH  22  23
ENDBRANCH  21  22
ENDBRANCH  20  21
ENDBRANCH  19  20
ENDBRANCH  18  19
ENDBRANCH  17  18
ENDBRANCH  16  17
ENDBRANCH  15  16
ENDBRANCH   1  15
TORSDOF 22
ENDMDL
MODEL 6
REMARK VINA RESULT:    10.348      1.551      2.117
REMARK INTER + INTRA:          22.583
REMARK INTER:                  23.606
REMARK INTRA:                  -1.023
REMARK UNBOUND:                -1.074
REMARK SMILES CCCCCCCCCCCCCCCCCCCCCCCC(=O)[O-]
REMARK SMILES IDX 13 1 14 2 15 3 16 4 17 5 18 6 19 7 20 8 21 9 22 10 23 11
REMARK SMILES IDX 24 12 25 13 26 14 12 15 11 16 10 17 9 18 8 19 7 20 6 21 5 22
REMARK SMILES IDX 4 23 3 24 2 25 1 26
REMARK H PARENT
REMARK Flexibility Score: inf
ROOT
ATOM      1  C   UNL     1      31.485  20.758  36.637  1.00  0.00     0.000 C 
ENDROOT
BRANCH   1   2
ATOM      2  C   UNL     1      32.049  21.681  37.727  1.00  0.00     0.000 C 
BRANCH   2   3
ATOM      3  C   UNL     1      31.965  23.173  37.358  1.00  0.00     0.000 C 
BRANCH   3   4
ATOM      4  C   UNL     1      31.767  23.468  35.859  1.00  0.00     0.000 C 
BRANCH   4   5
ATOM      5  C   UNL     1      32.725  24.547  35.328  1.00  0.00     0.000 C 
BRANCH   5   6
ATOM      6  C   UNL     1      32.281  25.123  33.971  1.00  0.00     0.000 C 
BRANCH   6   7
ATOM      7  C   UNL     1      31.406  24.184  33.115  1.00  0.00     0.000 C 
BRANCH   7   8
ATOM      8  C   UNL     1      30.277  24.878  32.325  1.00  0.00     0.000 C 
BRANCH   8   9
ATOM      9  C   UNL     1      30.369  24.724  30.797  1.00  0.00     0.000 C 
BRANCH   9  10
ATOM     10  C   UNL     1      31.812  24.821  30.272  1.00  0.00     0.006 C 
BRANCH  10  11
ATOM     11  C   UNL     1      31.895  24.584  28.759  1.00  0.00     0.053 C 
BRANCH  11  12
ATOM     12  C   UNL     1      31.073  23.404  28.339  1.00  0.00     0.041 C 
ATOM     13  O   UNL     1      31.571  22.248  28.349  1.00  0.00    -0.550 OA
ATOM     14  O   UNL     1      29.745  23.577  27.970  1.00  0.00    -0.550 OA
ENDBRANCH  11  12
ENDBRANCH  10  11
ENDBRANCH   9  10
ENDBRANCH   8   9
ENDBRANCH   7   8
ENDBRANCH   6   7
ENDBRANCH   5   6
ENDBRANCH   4   5
ENDBRANCH   3   4
ENDBRANCH   2   3
ENDBRANCH   1   2
BRANCH   1  15
ATOM     15  C   UNL     1      30.831  19.513  37.255  1.00  0.00     0.000 C 
BRANCH  15  16
ATOM     16  C   UNL     1      31.507  19.071  38.566  1.00  0.00     0.000 C 
BRANCH  16  17
ATOM     17  C   UNL     1      32.583  17.978  38.410  1.00  0.00     0.000 C 
BRANCH  17  18
ATOM     18  C   UNL     1      33.714  18.023  39.453  1.00  0.00    -0.000 C 
BRANCH  18  19
ATOM     19  C   UNL     1      33.702  16.813  40.398  1.00  0.00    -0.000 C 
BRANCH  19  20
ATOM     20  C   UNL     1      34.222  15.555  39.683  1.00  0.00    -0.000 C 
BRANCH  20  21
ATOM     21  C   UNL     1      34.101  14.290  40.548  1.00  0.00    -0.000 C 
BRANCH  21  22
ATOM     22  C   UNL     1      34.788  13.069  39.914  1.00  0.00    -0.000 C 
BRANCH  22  23
ATOM     23  C   UNL     1      34.562  11.780  40.733  1.00  0.00    -0.000 C 
BRANCH  23  24
ATOM     24  C   UNL     1      33.407  10.906  40.207  1.00  0.00    -0.000 C 
BRANCH  24  25
ATOM     25  C   UNL     1      32.356  10.524  41.263  1.00  0.00    -0.003 C 
ATOM     26  C   UNL     1      31.927  11.709  42.129  1.00  0.00     0.004 C 
ENDBRANCH  24  25
ENDBRANCH  23  24
ENDBRANCH  22  23
ENDBRANCH  21  22
ENDBRANCH  20  21
ENDBRANCH  19  20
ENDBRANCH  18  19
ENDBRANCH  17  18
ENDBRANCH  16  17
ENDBRANCH  15  16
ENDBRANCH   1  15
TORSDOF 22
ENDMDL
