MODEL 1
REMARK VINA RESULT:    -4.048      0.000      0.000
REMARK INTER + INTRA:          -9.884
REMARK INTER:                  -7.361
REMARK INTRA:                  -2.523
REMARK UNBOUND:                -2.523
REMARK SMILES CCCCCCCCCCCCCCCC(=O)[O-]
REMARK SMILES IDX 9 1 10 2 11 3 12 4 13 5 14 6 15 7 16 8 17 9 18 10 8 11 7 12
REMARK SMILES IDX 6 13 5 14 4 15 3 16 2 17 1 18
REMARK H PARENT
REMARK Flexibility Score: inf
ROOT
ATOM      1  C   UNL     1       7.765 -16.535  23.954  1.00  0.00     0.000 C 
ENDROOT
BRANCH   1   2
ATOM      2  C   UNL     1       6.705 -17.646  24.057  1.00  0.00     0.000 C 
BRANCH   2   3
ATOM      3  C   UNL     1       6.857 -18.489  25.333  1.00  0.00     0.000 C 
BRANCH   3   4
ATOM      4  C   UNL     1       7.012 -19.988  25.036  1.00  0.00     0.000 C 
BRANCH   4   5
ATOM      5  C   UNL     1       6.474 -20.330  23.639  1.00  0.00     0.000 C 
BRANCH   5   6
ATOM      6  C   UNL     1       7.430 -21.220  22.824  1.00  0.00     0.006 C 
BRANCH   6   7
ATOM      7  C   UNL     1       6.938 -21.524  21.399  1.00  0.00     0.053 C 
BRANCH   7   8
ATOM      8  C   UNL     1       7.910 -22.357  20.620  1.00  0.00     0.041 C 
ATOM      9  O   UNL     1       8.268 -22.002  19.466  1.00  0.00    -0.550 OA
ATOM     10  O   UNL     1       8.452 -23.507  21.180  1.00  0.00    -0.550 OA
ENDBRANCH   7   8
ENDBRANCH   6   7
ENDBRANCH   5   6
ENDBRANCH   4   5
ENDBRANCH   3   4
ENDBRANCH   2   3
ENDBRANCH   1   2
BRANCH   1  11
ATOM     11  C   UNL     1       7.433 -15.502  22.865  1.00  0.00     0.000 C 
BRANCH  11  12
ATOM     12  C   UNL     1       7.149 -16.150  21.502  1.00  0.00    -0.000 C 
BRANCH  12  13
ATOM     13  C   UNL     1       8.438 -16.684  20.869  1.00  0.00    -0.000 C 
BRANCH  13  14
ATOM     14  C   UNL     1       8.340 -18.196  20.613  1.00  0.00    -0.000 C 
BRANCH  14  15
ATOM     15  C   UNL     1       9.607 -18.961  21.039  1.00  0.00    -0.000 C 
BRANCH  15  16
ATOM     16  C   UNL     1      10.401 -18.315  22.188  1.00  0.00    -0.000 C 
BRANCH  16  17
ATOM     17  C   UNL     1      10.323 -19.117  23.495  1.00  0.00    -0.003 C 
ATOM     18  C   UNL     1      10.968 -18.353  24.648  1.00  0.00     0.004 C 
ENDBRANCH  16  17
ENDBRANCH  15  16
ENDBRANCH  14  15
ENDBRANCH  13  14
ENDBRANCH  12  13
ENDBRANCH  11  12
ENDBRANCH   1  11
TORSDOF 14
ENDMDL
MODEL 2
REMARK VINA RESULT:    -3.992      1.669      2.948
REMARK INTER + INTRA:          -9.782
REMARK INTER:                  -7.601
REMARK INTRA:                  -2.182
REMARK UNBOUND:                -2.523
REMARK SMILES CCCCCCCCCCCCCCCC(=O)[O-]
REMARK SMILES IDX 9 1 10 2 11 3 12 4 13 5 14 6 15 7 16 8 17 9 18 10 8 11 7 12
REMARK SMILES IDX 6 13 5 14 4 15 3 16 2 17 1 18
REMARK H PARENT
REMARK Flexibility Score: inf
ROOT
ATOM      1  C   UNL     1       7.545 -17.641  22.369  1.00  0.00     0.000 C 
ENDROOT
BRANCH   1   2
ATOM      2  C   UNL     1       6.891 -18.061  23.697  1.00  0.00     0.000 C 
BRANCH   2   3
ATOM      3  C   UNL     1       7.272 -19.490  24.116  1.00  0.00     0.000 C 
BRANCH   3   4
ATOM      4  C   UNL     1       6.948 -20.529  23.032  1.00  0.00     0.000 C 
BRANCH   4   5
ATOM      5  C   UNL     1       8.212 -21.290  22.606  1.00  0.00     0.000 C 
BRANCH   5   6
ATOM      6  C   UNL     1       7.925 -22.425  21.606  1.00  0.00     0.006 C 
BRANCH   6   7
ATOM      7  C   UNL     1       9.136 -23.329  21.323  1.00  0.00     0.053 C 
BRANCH   7   8
ATOM      8  C   UNL     1      10.429 -22.571  21.307  1.00  0.00     0.041 C 
ATOM      9  O   UNL     1      11.251 -22.698  22.253  1.00  0.00    -0.550 OA
ATOM     10  O   UNL     1      10.746 -21.751  20.231  1.00  0.00    -0.550 OA
ENDBRANCH   7   8
ENDBRANCH   6   7
ENDBRANCH   5   6
ENDBRANCH   4   5
ENDBRANCH   3   4
ENDBRANCH   2   3
ENDBRANCH   1   2
BRANCH   1  11
ATOM     11  C   UNL     1       8.203 -16.254  22.447  1.00  0.00     0.000 C 
BRANCH  11  12
ATOM     12  C   UNL     1       7.977 -15.568  23.803  1.00  0.00    -0.000 C 
BRANCH  12  13
ATOM     13  C   UNL     1       9.284 -15.477  24.597  1.00  0.00    -0.000 C 
BRANCH  13  14
ATOM     14  C   UNL     1       9.239 -16.380  25.839  1.00  0.00    -0.000 C 
BRANCH  14  15
ATOM     15  C   UNL     1      10.473 -17.292  25.965  1.00  0.00    -0.000 C 
BRANCH  15  16
ATOM     16  C   UNL     1      11.226 -17.551  24.648  1.00  0.00    -0.000 C 
BRANCH  16  17
ATOM     17  C   UNL     1      10.855 -18.893  23.999  1.00  0.00    -0.003 C 
ATOM     18  C   UNL     1      10.986 -18.824  22.480  1.00  0.00     0.004 C 
ENDBRANCH  16  17
ENDBRANCH  15  16
ENDBRANCH  14  15
ENDBRANCH  13  14
ENDBRANCH  12  13
ENDBRANCH  11  12
ENDBRANCH   1  11
TORSDOF 14
ENDMDL
MODEL 3
REMARK VINA RESULT:    -3.987      2.107      3.606
REMARK INTER + INTRA:          -9.772
REMARK INTER:                  -7.774
REMARK INTRA:                  -1.999
REMARK UNBOUND:                -2.523
REMARK SMILES CCCCCCCCCCCCCCCC(=O)[O-]
REMARK SMILES IDX 9 1 10 2 11 3 12 4 13 5 14 6 15 7 16 8 17 9 18 10 8 11 7 12
REMARK SMILES IDX 6 13 5 14 4 15 3 16 2 17 1 18
REMARK H PARENT
REMARK Flexibility Score: inf
ROOT
ATOM      1  C   UNL     1       7.879 -19.123  23.128  1.00  0.00     0.000 C 
ENDROOT
BRANCH   1   2
ATOM      2  C   UNL     1       7.531 -20.622  23.090  1.00  0.00     0.000 C 
BRANCH   2   3
ATOM      3  C   UNL     1       6.731 -21.010  21.836  1.00  0.00     0.000 C 
BRANCH   3   4
ATOM      4  C   UNL     1       7.500 -21.974  20.920  1.00  0.00     0.000 C 
BRANCH   4   5
ATOM      5  C   UNL     1       8.320 -22.978  21.743  1.00  0.00     0.000 C 
BRANCH   5   6
ATOM      6  C   UNL     1       9.801 -23.031  21.328  1.00  0.00     0.006 C 
BRANCH   6   7
ATOM      7  C   UNL     1      10.307 -21.747  20.649  1.00  0.00     0.053 C 
BRANCH   7   8
ATOM      8  C   UNL     1      11.081 -20.867  21.584  1.00  0.00     0.041 C 
ATOM      9  O   UNL     1      11.044 -21.075  22.826  1.00  0.00    -0.550 OA
ATOM     10  O   UNL     1      11.873 -19.841  21.085  1.00  0.00    -0.550 OA
ENDBRANCH   7   8
ENDBRANCH   6   7
ENDBRANCH   5   6
ENDBRANCH   4   5
ENDBRANCH   3   4
ENDBRANCH   2   3
ENDBRANCH   1   2
BRANCH   1  11
ATOM     11  C   UNL     1       8.123 -18.537  21.728  1.00  0.00     0.000 C 
BRANCH  11  12
ATOM     12  C   UNL     1       7.728 -17.055  21.632  1.00  0.00    -0.000 C 
BRANCH  12  13
ATOM     13  C   UNL     1       7.229 -16.531  22.983  1.00  0.00    -0.000 C 
BRANCH  13  14
ATOM     14  C   UNL     1       7.831 -15.153  23.295  1.00  0.00    -0.000 C 
BRANCH  14  15
ATOM     15  C   UNL     1       8.918 -15.205  24.385  1.00  0.00    -0.000 C 
BRANCH  15  16
ATOM     16  C   UNL     1      10.327 -15.563  23.881  1.00  0.00    -0.000 C 
BRANCH  16  17
ATOM     17  C   UNL     1      10.896 -16.828  24.540  1.00  0.00    -0.003 C 
ATOM     18  C   UNL     1      10.111 -17.193  25.797  1.00  0.00     0.004 C 
ENDBRANCH  16  17
ENDBRANCH  15  16
ENDBRANCH  14  15
ENDBRANCH  13  14
ENDBRANCH  12  13
ENDBRANCH  11  12
ENDBRANCH   1  11
TORSDOF 14
ENDMDL
MODEL 4
REMARK VINA RESULT:    -3.971      1.467      3.327
REMARK INTER + INTRA:          -9.744
REMARK INTER:                  -7.739
REMARK INTRA:                  -2.006
REMARK UNBOUND:                -2.523
REMARK SMILES CCCCCCCCCCCCCCCC(=O)[O-]
REMARK SMILES IDX 9 1 10 2 11 3 12 4 13 5 14 6 15 7 16 8 17 9 18 10 8 11 7 12
REMARK SMILES IDX 6 13 5 14 4 15 3 16 2 17 1 18
REMARK H PARENT
REMARK Flexibility Score: inf
ROOT
ATOM      1  C   UNL     1       9.518 -18.203  23.932  1.00  0.00     0.000 C 
ENDROOT
BRANCH   1   2
ATOM      2  C   UNL     1       9.068 -19.605  23.485  1.00  0.00     0.000 C 
BRANCH   2   3
ATOM      3  C   UNL     1       7.540 -19.724  23.365  1.00  0.00     0.000 C 
BRANCH   3   4
ATOM      4  C   UNL     1       7.085 -21.144  22.999  1.00  0.00     0.000 C 
BRANCH   4   5
ATOM      5  C   UNL     1       6.783 -21.255  21.498  1.00  0.00     0.000 C 
BRANCH   5   6
ATOM      6  C   UNL     1       7.660 -22.296  20.780  1.00  0.00     0.006 C 
BRANCH   6   7
ATOM      7  C   UNL     1       8.616 -23.057  21.713  1.00  0.00     0.053 C 
BRANCH   7   8
ATOM      8  C   UNL     1      10.054 -22.714  21.468  1.00  0.00     0.041 C 
ATOM      9  O   UNL     1      10.946 -23.111  22.265  1.00  0.00    -0.550 OA
ATOM     10  O   UNL     1      10.418 -21.989  20.341  1.00  0.00    -0.550 OA
ENDBRANCH   7   8
ENDBRANCH   6   7
ENDBRANCH   5   6
ENDBRANCH   4   5
ENDBRANCH   3   4
ENDBRANCH   2   3
ENDBRANCH   1   2
BRANCH   1  11
ATOM     11  C   UNL     1       8.345 -17.322  24.388  1.00  0.00     0.000 C 
BRANCH  11  12
ATOM     12  C   UNL     1       8.718 -15.834  24.466  1.00  0.00    -0.000 C 
BRANCH  12  13
ATOM     13  C   UNL     1       8.005 -15.031  23.373  1.00  0.00    -0.000 C 
BRANCH  13  14
ATOM     14  C   UNL     1       6.918 -15.876  22.690  1.00  0.00    -0.000 C 
BRANCH  14  15
ATOM     15  C   UNL     1       7.015 -15.851  21.153  1.00  0.00    -0.000 C 
BRANCH  15  16
ATOM     16  C   UNL     1       8.251 -16.558  20.568  1.00  0.00    -0.000 C 
BRANCH  16  17
ATOM     17  C   UNL     1       8.021 -18.055  20.315  1.00  0.00    -0.003 C 
ATOM     18  C   UNL     1       7.140 -18.276  19.089  1.00  0.00     0.004 C 
ENDBRANCH  16  17
ENDBRANCH  15  16
ENDBRANCH  14  15
ENDBRANCH  13  14
ENDBRANCH  12  13
ENDBRANCH  11  12
ENDBRANCH   1  11
TORSDOF 14
ENDMDL
MODEL 5
REMARK VINA RESULT:    -3.969      1.348      3.066
REMARK INTER + INTRA:          -9.740
REMARK INTER:                  -7.654
REMARK INTRA:                  -2.086
REMARK UNBOUND:                -2.523
REMARK SMILES CCCCCCCCCCCCCCCC(=O)[O-]
REMARK SMILES IDX 9 1 10 2 11 3 12 4 13 5 14 6 15 7 16 8 17 9 18 10 8 11 7 12
REMARK SMILES IDX 6 13 5 14 4 15 3 16 2 17 1 18
REMARK H PARENT
REMARK Flexibility Score: inf
ROOT
ATOM      1  C   UNL     1       6.753 -18.151  25.268  1.00  0.00     0.000 C 
ENDROOT
BRANCH   1   2
ATOM      2  C   UNL     1       7.178 -19.505  25.864  1.00  0.00     0.000 C 
BRANCH   2   3
ATOM      3  C   UNL     1       6.662 -20.699  25.046  1.00  0.00     0.000 C 
BRANCH   3   4
ATOM      4  C   UNL     1       6.640 -20.414  23.537  1.00  0.00     0.000 C 
BRANCH   4   5
ATOM      5  C   UNL     1       7.888 -20.990  22.851  1.00  0.00     0.000 C 
BRANCH   5   6
ATOM      6  C   UNL     1       7.557 -21.860  21.625  1.00  0.00     0.006 C 
BRANCH   6   7
ATOM      7  C   UNL     1       8.475 -23.083  21.461  1.00  0.00     0.053 C 
BRANCH   7   8
ATOM      8  C   UNL     1       9.921 -22.707  21.347  1.00  0.00     0.041 C 
ATOM      9  O   UNL     1      10.751 -23.109  22.205  1.00  0.00    -0.550 OA
ATOM     10  O   UNL     1      10.362 -21.943  20.274  1.00  0.00    -0.550 OA
ENDBRANCH   7   8
ENDBRANCH   6   7
ENDBRANCH   5   6
ENDBRANCH   4   5
ENDBRANCH   3   4
ENDBRANCH   2   3
ENDBRANCH   1   2
BRANCH   1  11
ATOM     11  C   UNL     1       7.919 -17.154  25.174  1.00  0.00     0.000 C 
BRANCH  11  12
ATOM     12  C   UNL     1       9.284 -17.850  25.061  1.00  0.00    -0.000 C 
BRANCH  12  13
ATOM     13  C   UNL     1      10.088 -17.293  23.882  1.00  0.00    -0.000 C 
BRANCH  13  14
ATOM     14  C   UNL     1      10.030 -18.244  22.677  1.00  0.00    -0.000 C 
BRANCH  14  15
ATOM     15  C   UNL     1       9.371 -17.607  21.439  1.00  0.00    -0.000 C 
BRANCH  15  16
ATOM     16  C   UNL     1       7.839 -17.476  21.514  1.00  0.00    -0.000 C 
BRANCH  16  17
ATOM     17  C   UNL     1       7.337 -16.081  21.114  1.00  0.00    -0.003 C 
ATOM     18  C   UNL     1       6.825 -15.312  22.329  1.00  0.00     0.004 C 
ENDBRANCH  16  17
ENDBRANCH  15  16
ENDBRANCH  14  15
ENDBRANCH  13  14
ENDBRANCH  12  13
ENDBRANCH  11  12
ENDBRANCH   1  11
TORSDOF 14
ENDMDL
MODEL 6
REMARK VINA RESULT:    -3.935      2.883      5.343
REMARK INTER + INTRA:          -9.677
REMARK INTER:                  -7.035
REMARK INTRA:                  -2.642
REMARK UNBOUND:                -2.523
REMARK SMILES CCCCCCCCCCCCCCCC(=O)[O-]
REMARK SMILES IDX 9 1 10 2 11 3 12 4 13 5 14 6 15 7 16 8 17 9 18 10 8 11 7 12
REMARK SMILES IDX 6 13 5 14 4 15 3 16 2 17 1 18
REMARK H PARENT
REMARK Flexibility Score: inf
ROOT
ATOM      1  C   UNL     1       7.433 -22.347  21.030  1.00  0.00     0.000 C 
ENDROOT
BRANCH   1   2
ATOM      2  C   UNL     1       7.079 -21.026  21.735  1.00  0.00     0.000 C 
BRANCH   2   3
ATOM      3  C   UNL     1       7.020 -21.171  23.264  1.00  0.00     0.000 C 
BRANCH   3   4
ATOM      4  C   UNL     1       6.783 -19.830  23.975  1.00  0.00     0.000 C 
BRANCH   4   5
ATOM      5  C   UNL     1       8.110 -19.217  24.448  1.00  0.00     0.000 C 
BRANCH   5   6
ATOM      6  C   UNL     1       8.177 -17.693  24.246  1.00  0.00     0.006 C 
BRANCH   6   7
ATOM      7  C   UNL     1       7.040 -17.127  23.379  1.00  0.00     0.053 C 
BRANCH   7   8
ATOM      8  C   UNL     1       7.337 -15.750  22.867  1.00  0.00     0.041 C 
ATOM      9  O   UNL     1       7.965 -14.928  23.586  1.00  0.00    -0.550 OA
ATOM     10  O   UNL     1       6.955 -15.383  21.583  1.00  0.00    -0.550 OA
ENDBRANCH   7   8
ENDBRANCH   6   7
ENDBRANCH   5   6
ENDBRANCH   4   5
ENDBRANCH   3   4
ENDBRANCH   2   3
ENDBRANCH   1   2
BRANCH   1  11
ATOM     11  C   UNL     1       8.660 -23.037  21.646  1.00  0.00     0.000 C 
BRANCH  11  12
ATOM     12  C   UNL     1       9.985 -22.457  21.129  1.00  0.00    -0.000 C 
BRANCH  12  13
ATOM     13  C   UNL     1      10.847 -21.940  22.286  1.00  0.00    -0.000 C 
BRANCH  13  14
ATOM     14  C   UNL     1      10.811 -20.406  22.355  1.00  0.00    -0.000 C 
BRANCH  14  15
ATOM     15  C   UNL     1      10.544 -19.748  20.988  1.00  0.00    -0.000 C 
BRANCH  15  16
ATOM     16  C   UNL     1       9.784 -18.412  21.047  1.00  0.00    -0.000 C 
BRANCH  16  17
ATOM     17  C   UNL     1       8.634 -18.330  20.032  1.00  0.00    -0.003 C 
ATOM     18  C   UNL     1       8.820 -19.347  18.909  1.00  0.00     0.004 C 
ENDBRANCH  16  17
ENDBRANCH  15  16
ENDBRANCH  14  15
ENDBRANCH  13  14
ENDBRANCH  12  13
ENDBRANCH  11  12
ENDBRANCH   1  11
TORSDOF 14
ENDMDL
MODEL 7
REMARK VINA RESULT:    -3.921      2.083      4.281
REMARK INTER + INTRA:          -9.652
REMARK INTER:                  -7.982
REMARK INTRA:                  -1.670
REMARK UNBOUND:                -2.523
REMARK SMILES CCCCCCCCCCCCCCCC(=O)[O-]
REMARK SMILES IDX 9 1 10 2 11 3 12 4 13 5 14 6 15 7 16 8 17 9 18 10 8 11 7 12
REMARK SMILES IDX 6 13 5 14 4 15 3 16 2 17 1 18
REMARK H PARENT
REMARK Flexibility Score: inf
ROOT
ATOM      1  C   UNL     1       7.611 -19.683  23.481  1.00  0.00     0.000 C 
ENDROOT
BRANCH   1   2
ATOM      2  C   UNL     1       7.124 -21.012  22.876  1.00  0.00     0.000 C 
BRANCH   2   3
ATOM      3  C   UNL     1       7.014 -20.958  21.344  1.00  0.00     0.000 C 
BRANCH   3   4
ATOM      4  C   UNL     1       7.878 -22.023  20.653  1.00  0.00     0.000 C 
BRANCH   4   5
ATOM      5  C   UNL     1       8.478 -22.995  21.679  1.00  0.00     0.000 C 
BRANCH   5   6
ATOM      6  C   UNL     1      10.013 -23.073  21.612  1.00  0.00     0.006 C 
BRANCH   6   7
ATOM      7  C   UNL     1      10.723 -21.773  22.027  1.00  0.00     0.053 C 
BRANCH   7   8
ATOM      8  C   UNL     1      11.554 -21.192  20.923  1.00  0.00     0.041 C 
ATOM      9  O   UNL     1      11.505 -21.687  19.766  1.00  0.00    -0.550 OA
ATOM     10  O   UNL     1      12.354 -20.081  21.159  1.00  0.00    -0.550 OA
ENDBRANCH   7   8
ENDBRANCH   6   7
ENDBRANCH   5   6
ENDBRANCH   4   5
ENDBRANCH   3   4
ENDBRANCH   2   3
ENDBRANCH   1   2
BRANCH   1  11
ATOM     11  C   UNL     1       6.550 -19.014  24.369  1.00  0.00     0.000 C 
BRANCH  11  12
ATOM     12  C   UNL     1       7.135 -18.472  25.682  1.00  0.00    -0.000 C 
BRANCH  12  13
ATOM     13  C   UNL     1       8.538 -17.896  25.461  1.00  0.00    -0.000 C 
BRANCH  13  14
ATOM     14  C   UNL     1       8.582 -16.402  25.817  1.00  0.00    -0.000 C 
BRANCH  14  15
ATOM     15  C   UNL     1       8.853 -15.501  24.598  1.00  0.00    -0.000 C 
BRANCH  15  16
ATOM     16  C   UNL     1       9.241 -16.250  23.310  1.00  0.00    -0.000 C 
BRANCH  16  17
ATOM     17  C   UNL     1       8.101 -16.308  22.284  1.00  0.00    -0.003 C 
ATOM     18  C   UNL     1       7.063 -15.222  22.554  1.00  0.00     0.004 C 
ENDBRANCH  16  17
ENDBRANCH  15  16
ENDBRANCH  14  15
ENDBRANCH  13  14
ENDBRANCH  12  13
ENDBRANCH  11  12
ENDBRANCH   1  11
TORSDOF 14
ENDMDL
MODEL 8
REMARK VINA RESULT:    -3.920      3.221      5.417
REMARK INTER + INTRA:          -9.652
REMARK INTER:                  -7.505
REMARK INTRA:                  -2.146
REMARK UNBOUND:                -2.523
REMARK SMILES CCCCCCCCCCCCCCCC(=O)[O-]
REMARK SMILES IDX 9 1 10 2 11 3 12 4 13 5 14 6 15 7 16 8 17 9 18 10 8 11 7 12
REMARK SMILES IDX 6 13 5 14 4 15 3 16 2 17 1 18
REMARK H PARENT
REMARK Flexibility Score: inf
ROOT
ATOM      1  C   UNL     1       7.883 -20.668  23.163  1.00  0.00     0.000 C 
ENDROOT
BRANCH   1   2
ATOM      2  C   UNL     1       8.274 -19.205  23.439  1.00  0.00     0.000 C 
BRANCH   2   3
ATOM      3  C   UNL     1       7.633 -18.225  22.444  1.00  0.00     0.000 C 
BRANCH   3   4
ATOM      4  C   UNL     1       8.338 -16.861  22.422  1.00  0.00     0.000 C 
BRANCH   4   5
ATOM      5  C   UNL     1       8.073 -16.084  23.720  1.00  0.00     0.000 C 
BRANCH   5   6
ATOM      6  C   UNL     1       9.350 -15.487  24.338  1.00  0.00     0.006 C 
BRANCH   6   7
ATOM      7  C   UNL     1      10.653 -16.070  23.765  1.00  0.00     0.053 C 
BRANCH   7   8
ATOM      8  C   UNL     1      11.358 -16.969  24.735  1.00  0.00     0.041 C 
ATOM      9  O   UNL     1      10.808 -17.281  25.824  1.00  0.00    -0.550 OA
ATOM     10  O   UNL     1      12.607 -17.492  24.424  1.00  0.00    -0.550 OA
ENDBRANCH   7   8
ENDBRANCH   6   7
ENDBRANCH   5   6
ENDBRANCH   4   5
ENDBRANCH   3   4
ENDBRANCH   2   3
ENDBRANCH   1   2
BRANCH   1  11
ATOM     11  C   UNL     1       6.995 -20.817  21.918  1.00  0.00     0.000 C 
BRANCH  11  12
ATOM     12  C   UNL     1       7.424 -21.991  21.024  1.00  0.00    -0.000 C 
BRANCH  12  13
ATOM     13  C   UNL     1       8.328 -22.963  21.791  1.00  0.00    -0.000 C 
BRANCH  13  14
ATOM     14  C   UNL     1       9.731 -23.019  21.166  1.00  0.00    -0.000 C 
BRANCH  14  15
ATOM     15  C   UNL     1      10.855 -22.779  22.191  1.00  0.00    -0.000 C 
BRANCH  15  16
ATOM     16  C   UNL     1      11.587 -21.433  22.049  1.00  0.00    -0.000 C 
BRANCH  16  17
ATOM     17  C   UNL     1      10.942 -20.507  21.007  1.00  0.00    -0.003 C 
ATOM     18  C   UNL     1      11.242 -19.042  21.313  1.00  0.00     0.004 C 
ENDBRANCH  16  17
ENDBRANCH  15  16
ENDBRANCH  14  15
ENDBRANCH  13  14
ENDBRANCH  12  13
ENDBRANCH  11  12
ENDBRANCH   1  11
TORSDOF 14
ENDMDL
MODEL 9
REMARK VINA RESULT:    -3.907      1.572      3.327
REMARK INTER + INTRA:          -9.627
REMARK INTER:                  -7.311
REMARK INTRA:                  -2.316
REMARK UNBOUND:                -2.523
REMARK SMILES CCCCCCCCCCCCCCCC(=O)[O-]
REMARK SMILES IDX 9 1 10 2 11 3 12 4 13 5 14 6 15 7 16 8 17 9 18 10 8 11 7 12
REMARK SMILES IDX 6 13 5 14 4 15 3 16 2 17 1 18
REMARK H PARENT
REMARK Flexibility Score: inf
ROOT
ATOM      1  C   UNL     1       8.296 -15.278  23.631  1.00  0.00     0.000 C 
ENDROOT
BRANCH   1   2
ATOM      2  C   UNL     1       7.433 -16.481  23.211  1.00  0.00     0.000 C 
BRANCH   2   3
ATOM      3  C   UNL     1       7.617 -16.851  21.731  1.00  0.00     0.000 C 
BRANCH   3   4
ATOM      4  C   UNL     1       7.766 -18.364  21.515  1.00  0.00     0.000 C 
BRANCH   4   5
ATOM      5  C   UNL     1       8.665 -18.987  22.593  1.00  0.00     0.000 C 
BRANCH   5   6
ATOM      6  C   UNL     1       8.078 -20.275  23.199  1.00  0.00     0.006 C 
BRANCH   6   7
ATOM      7  C   UNL     1       7.338 -21.162  22.183  1.00  0.00     0.053 C 
BRANCH   7   8
ATOM      8  C   UNL     1       8.252 -22.123  21.485  1.00  0.00     0.041 C 
ATOM      9  O   UNL     1       8.200 -23.353  21.748  1.00  0.00    -0.550 OA
ATOM     10  O   UNL     1       9.137 -21.667  20.515  1.00  0.00    -0.550 OA
ENDBRANCH   7   8
ENDBRANCH   6   7
ENDBRANCH   5   6
ENDBRANCH   4   5
ENDBRANCH   3   4
ENDBRANCH   2   3
ENDBRANCH   1   2
BRANCH   1  11
ATOM     11  C   UNL     1       8.999 -15.498  24.980  1.00  0.00     0.000 C 
BRANCH  11  12
ATOM     12  C   UNL     1       8.396 -16.665  25.777  1.00  0.00    -0.000 C 
BRANCH  12  13
ATOM     13  C   UNL     1       9.411 -17.802  25.937  1.00  0.00    -0.000 C 
BRANCH  13  14
ATOM     14  C   UNL     1      10.849 -17.281  25.797  1.00  0.00    -0.000 C 
BRANCH  14  15
ATOM     15  C   UNL     1      11.672 -18.060  24.754  1.00  0.00    -0.000 C 
BRANCH  15  16
ATOM     16  C   UNL     1      12.730 -17.228  24.008  1.00  0.00    -0.000 C 
BRANCH  16  17
ATOM     17  C   UNL     1      12.120 -16.097  23.167  1.00  0.00    -0.003 C 
ATOM     18  C   UNL     1      11.376 -16.652  21.956  1.00  0.00     0.004 C 
ENDBRANCH  16  17
ENDBRANCH  15  16
ENDBRANCH  14  15
ENDBRANCH  13  14
ENDBRANCH  12  13
ENDBRANCH  11  12
ENDBRANCH   1  11
TORSDOF 14
ENDMDL
