MODEL 1
REMARK VINA RESULT:     0.672      0.000      0.000
REMARK INTER + INTRA:           4.733
REMARK INTER:                   1.105
REMARK INTRA:                   3.629
REMARK UNBOUND:                 3.629
REMARK SMILES C[C@H]1O[C@H](OC[C@H]2O[C@H](Oc3c(-c4ccc(O)c(O)c4)oc4cc(O)cc(O)c4c3=O)[C@H](O)[C@@H](O)[C@@H]2O)[C@@H](O)[C@@H](O)[C@H]1O
REMARK SMILES IDX 7 1 36 2 34 3 32 4 9 5 8 6 6 7 5 8 4 9 1 10 2 11 42 12 3 13
REMARK SMILES IDX 40 14 38 15 43 16 41 18 39 20 37 22 35 24 10 26 11 27 12 28
REMARK SMILES IDX 30 29 21 30 29 31 31 32 22 33 27 34 23 35 26 36 24 37 13 38
REMARK SMILES IDX 20 39 14 40 18 41 15 42 16 43 19 44 17 46 28 48 25 50 33 52
REMARK H PARENT 43 17 41 19 39 21 37 23 35 25 19 45 17 47 28 49 25 51 33 53
REMARK Flexibility Score: inf
ROOT
ATOM      1  C   UNL     1      96.260 102.771  98.446  1.00  0.00     0.180 C 
ATOM      2  C   UNL     1      96.848 102.267  97.105  1.00  0.00     0.177 C 
ATOM      3  C   UNL     1      97.975 103.204  96.643  1.00  0.00     0.180 C 
ATOM      4  C   UNL     1      98.987 103.414  97.780  1.00  0.00     0.214 C 
ATOM      5  C   UNL     1      98.260 103.841  99.067  1.00  0.00     0.339 C 
ATOM      6  O   UNL     1      97.277 102.884  99.430  1.00  0.00    -0.332 OA
ENDROOT
BRANCH   1   7
ATOM      7  C   UNL     1      95.189 101.812  98.990  1.00  0.00     0.198 C 
BRANCH   7   8
ATOM      8  O   UNL     1      95.204 100.577  98.296  1.00  0.00    -0.347 OA
BRANCH   8   9
ATOM      9  C   UNL     1      96.391  99.833  98.547  1.00  0.00     0.281 C 
ATOM     10  C   UNL     1      94.876  97.175 100.604  1.00  0.00     0.041 C 
ATOM     11  C   UNL     1      95.141  98.011  99.351  1.00  0.00     0.150 C 
ATOM     12  C   UNL     1      95.484  97.108  98.139  1.00  0.00     0.174 C 
ATOM     13  O   UNL     1      96.188  98.929  99.625  1.00  0.00    -0.344 OA
ATOM     14  C   UNL     1      95.836  97.974  96.913  1.00  0.00     0.179 C 
ATOM     15  C   UNL     1      96.847  99.083  97.275  1.00  0.00     0.202 C 
BRANCH  12  16
ATOM     16  O   UNL     1      96.510  96.184  98.429  1.00  0.00    -0.388 OA
ATOM     17  H   UNL     1      97.293  96.393  97.856  1.00  0.00     0.211 HD
ENDBRANCH  12  16
BRANCH  14  18
ATOM     18  O   UNL     1      96.341  97.162  95.884  1.00  0.00    -0.387 OA
ATOM     19  H   UNL     1      97.294  97.412  95.766  1.00  0.00     0.211 HD
ENDBRANCH  14  18
BRANCH  15  20
ATOM     20  O   UNL     1      98.120  98.524  97.476  1.00  0.00    -0.385 OA
ATOM     21  H   UNL     1      98.025  97.542  97.364  1.00  0.00     0.211 HD
ENDBRANCH  15  20
ENDBRANCH   8   9
ENDBRANCH   7   8
ENDBRANCH   1   7
BRANCH   2  22
ATOM     22  O   UNL     1      95.842 102.234  96.124  1.00  0.00    -0.387 OA
ATOM     23  H   UNL     1      95.891 101.343  95.688  1.00  0.00     0.211 HD
ENDBRANCH   2  22
BRANCH   3  24
ATOM     24  O   UNL     1      98.617 102.637  95.529  1.00  0.00    -0.387 OA
ATOM     25  H   UNL     1      99.571 102.514  95.777  1.00  0.00     0.211 HD
ENDBRANCH   3  24
BRANCH   5  26
ATOM     26  O   UNL     1      97.692 105.146  98.907  1.00  0.00    -0.454 OA
BRANCH  26  27
ATOM     27  C   UNL     1      97.560 106.152  99.888  1.00  0.00     0.214 A 
ATOM     28  C   UNL     1      97.417 105.749 101.234  1.00  0.00     0.180 A 
ATOM     29  C   UNL     1      97.531 107.536  99.598  1.00  0.00     0.239 A 
ATOM     30  O   UNL     1      97.205 106.655 102.187  1.00  0.00    -0.452 OA
ATOM     31  C   UNL     1      97.330 108.463 100.645  1.00  0.00     0.111 A 
ATOM     32  O   UNL     1      97.672 107.946  98.416  1.00  0.00    -0.285 OA
ATOM     33  C   UNL     1      97.156 107.959 101.954  1.00  0.00     0.146 A 
ATOM     34  C   UNL     1      97.298 109.865 100.440  1.00  0.00     0.134 A 
ATOM     35  C   UNL     1      96.945 108.831 103.026  1.00  0.00     0.094 A 
ATOM     36  C   UNL     1      97.091 110.724 101.529  1.00  0.00     0.093 A 
ATOM     37  C   UNL     1      96.915 110.213 102.817  1.00  0.00     0.123 A 
BRANCH  28  38
ATOM     38  C   UNL     1      97.474 104.325 101.639  1.00  0.00     0.025 A 
ATOM     39  C   UNL     1      98.705 103.651 101.629  1.00  0.00     0.062 A 
ATOM     40  C   UNL     1      96.310 103.608 101.963  1.00  0.00     0.016 A 
ATOM     41  C   UNL     1      98.784 102.298 101.976  1.00  0.00     0.158 A 
ATOM     42  C   UNL     1      96.383 102.259 102.317  1.00  0.00     0.051 A 
ATOM     43  C   UNL     1      97.619 101.599 102.329  1.00  0.00     0.157 A 
BRANCH  41  44
ATOM     44  O   UNL     1     100.025 101.663 101.958  1.00  0.00    -0.504 OA
ATOM     45  H   UNL     1     100.754 101.882 102.625  1.00  0.00     0.293 HD
ENDBRANCH  41  44
BRANCH  43  46
ATOM     46  O   UNL     1      97.691 100.254 102.687  1.00  0.00    -0.504 OA
ATOM     47  H   UNL     1      98.512  99.697 102.491  1.00  0.00     0.293 HD
ENDBRANCH  43  46
ENDBRANCH  28  38
BRANCH  34  48
ATOM     48  O   UNL     1      97.484 110.411  99.167  1.00  0.00    -0.507 OA
ATOM     49  H   UNL     1      98.315 110.941  98.932  1.00  0.00     0.293 HD
ENDBRANCH  34  48
BRANCH  37  50
ATOM     50  O   UNL     1      96.717 111.088 103.882  1.00  0.00    -0.508 OA
ATOM     51  H   UNL     1      96.499 112.064 103.729  1.00  0.00     0.293 HD
ENDBRANCH  37  50
ENDBRANCH  26  27
ENDBRANCH   5  26
BRANCH   4  52
ATOM     52  O   UNL     1      99.916 104.400  97.409  1.00  0.00    -0.384 OA
ATOM     53  H   UNL     1      99.512 105.276  97.634  1.00  0.00     0.211 HD
ENDBRANCH   4  52
TORSDOF 16
ENDMDL
MODEL 2
REMARK VINA RESULT:     0.696      1.730      8.813
REMARK INTER + INTRA:           4.771
REMARK INTER:                   1.594
REMARK INTRA:                   3.177
REMARK UNBOUND:                 3.629
REMARK SMILES C[C@H]1O[C@H](OC[C@H]2O[C@H](Oc3c(-c4ccc(O)c(O)c4)oc4cc(O)cc(O)c4c3=O)[C@H](O)[C@@H](O)[C@@H]2O)[C@@H](O)[C@@H](O)[C@H]1O
REMARK SMILES IDX 7 1 36 2 34 3 32 4 9 5 8 6 6 7 5 8 4 9 1 10 2 11 42 12 3 13
REMARK SMILES IDX 40 14 38 15 43 16 41 18 39 20 37 22 35 24 10 26 11 27 12 28
REMARK SMILES IDX 30 29 21 30 29 31 31 32 22 33 27 34 23 35 26 36 24 37 13 38
REMARK SMILES IDX 20 39 14 40 18 41 15 42 16 43 19 44 17 46 28 48 25 50 33 52
REMARK H PARENT 43 17 41 19 39 21 37 23 35 25 19 45 17 47 28 49 25 51 33 53
REMARK Flexibility Score: inf
ROOT
ATOM      1  C   UNL     1      96.205 103.627 100.138  1.00  0.00     0.180 C 
ATOM      2  C   UNL     1      97.190 104.222  99.102  1.00  0.00     0.177 C 
ATOM      3  C   UNL     1      97.319 103.275  97.898  1.00  0.00     0.180 C 
ATOM      4  C   UNL     1      95.925 102.909  97.363  1.00  0.00     0.214 C 
ATOM      5  C   UNL     1      95.032 102.403  98.508  1.00  0.00     0.339 C 
ATOM      6  O   UNL     1      94.943 103.372  99.542  1.00  0.00    -0.332 OA
ENDROOT
BRANCH   1   7
ATOM      7  C   UNL     1      95.980 104.585 101.318  1.00  0.00     0.198 C 
BRANCH   7   8
ATOM      8  O   UNL     1      96.081 105.938 100.910  1.00  0.00    -0.347 OA
BRANCH   8   9
ATOM      9  C   UNL     1      97.415 106.428 100.998  1.00  0.00     0.281 C 
ATOM     10  C   UNL     1      97.224 108.865  98.238  1.00  0.00     0.041 C 
ATOM     11  C   UNL     1      96.895 108.243  99.597  1.00  0.00     0.150 C 
ATOM     12  C   UNL     1      97.017 109.290 100.734  1.00  0.00     0.174 C 
ATOM     13  O   UNL     1      97.759 107.138  99.816  1.00  0.00    -0.344 OA
ATOM     14  C   UNL     1      96.771 108.620 102.100  1.00  0.00     0.179 C 
ATOM     15  C   UNL     1      97.589 107.320 102.249  1.00  0.00     0.202 C 
BRANCH  12  16
ATOM     16  O   UNL     1      98.250 109.973 100.709  1.00  0.00    -0.388 OA
ATOM     17  H   UNL     1      98.513 110.114  99.762  1.00  0.00     0.211 HD
ENDBRANCH  12  16
BRANCH  14  18
ATOM     18  O   UNL     1      97.081 109.519 103.135  1.00  0.00    -0.387 OA
ATOM     19  H   UNL     1      96.865 110.426 102.798  1.00  0.00     0.211 HD
ENDBRANCH  14  18
BRANCH  15  20
ATOM     20  O   UNL     1      98.947 107.626 102.436  1.00  0.00    -0.385 OA
ATOM     21  H   UNL     1      99.094 107.700 103.416  1.00  0.00     0.211 HD
ENDBRANCH  15  20
ENDBRANCH   8   9
ENDBRANCH   7   8
ENDBRANCH   1   7
BRANCH   2  22
ATOM     22  O   UNL     1      98.456 104.397  99.690  1.00  0.00    -0.387 OA
ATOM     23  H   UNL     1      99.131 104.191  98.991  1.00  0.00     0.211 HD
ENDBRANCH   2  22
BRANCH   3  24
ATOM     24  O   UNL     1      98.067 103.908  96.892  1.00  0.00    -0.387 OA
ATOM     25  H   UNL     1      97.719 103.579  96.022  1.00  0.00     0.211 HD
ENDBRANCH   3  24
BRANCH   5  26
ATOM     26  O   UNL     1      95.518 101.149  99.001  1.00  0.00    -0.454 OA
BRANCH  26  27
ATOM     27  C   UNL     1      96.391 100.251  98.352  1.00  0.00     0.214 A 
ATOM     28  C   UNL     1      97.704 100.122  98.856  1.00  0.00     0.180 A 
ATOM     29  C   UNL     1      96.038  99.498  97.207  1.00  0.00     0.239 A 
ATOM     30  O   UNL     1      98.591  99.352  98.230  1.00  0.00    -0.452 OA
ATOM     31  C   UNL     1      97.005  98.674  96.590  1.00  0.00     0.111 A 
ATOM     32  O   UNL     1      94.875  99.565  96.730  1.00  0.00    -0.285 OA
ATOM     33  C   UNL     1      98.305  98.643  97.148  1.00  0.00     0.146 A 
ATOM     34  C   UNL     1      96.730  97.881  95.449  1.00  0.00     0.134 A 
ATOM     35  C   UNL     1      99.303  97.851  96.572  1.00  0.00     0.094 A 
ATOM     36  C   UNL     1      97.743  97.088  94.890  1.00  0.00     0.093 A 
ATOM     37  C   UNL     1      99.024  97.072  95.446  1.00  0.00     0.123 A 
BRANCH  28  38
ATOM     38  C   UNL     1      98.152 100.841 100.072  1.00  0.00     0.025 A 
ATOM     39  C   UNL     1      97.239 101.080 101.111  1.00  0.00     0.062 A 
ATOM     40  C   UNL     1      99.455 101.355 100.181  1.00  0.00     0.016 A 
ATOM     41  C   UNL     1      97.626 101.784 102.257  1.00  0.00     0.158 A 
ATOM     42  C   UNL     1      99.849 102.051 101.326  1.00  0.00     0.051 A 
ATOM     43  C   UNL     1      98.940 102.265 102.370  1.00  0.00     0.157 A 
BRANCH  41  44
ATOM     44  O   UNL     1      96.692 101.999 103.269  1.00  0.00    -0.504 OA
ATOM     45  H   UNL     1      95.735 101.677 103.200  1.00  0.00     0.293 HD
ENDBRANCH  41  44
BRANCH  43  46
ATOM     46  O   UNL     1      99.336 102.957 103.513  1.00  0.00    -0.504 OA
ATOM     47  H   UNL     1      98.753 102.993 104.339  1.00  0.00     0.293 HD
ENDBRANCH  43  46
ENDBRANCH  28  38
BRANCH  34  48
ATOM     48  O   UNL     1      95.456  97.863  94.875  1.00  0.00    -0.507 OA
ATOM     49  H   UNL     1      95.165  97.121  94.250  1.00  0.00     0.293 HD
ENDBRANCH  34  48
BRANCH  37  50
ATOM     50  O   UNL     1     100.011  96.271  94.876  1.00  0.00    -0.508 OA
ATOM     51  H   UNL     1     100.116  95.299  95.136  1.00  0.00     0.293 HD
ENDBRANCH  37  50
ENDBRANCH  26  27
ENDBRANCH   5  26
BRANCH   4  52
ATOM     52  O   UNL     1      96.045 101.915  96.377  1.00  0.00    -0.384 OA
ATOM     53  H   UNL     1      96.955 101.998  95.993  1.00  0.00     0.211 HD
ENDBRANCH   4  52
TORSDOF 16
ENDMDL
MODEL 3
REMARK VINA RESULT:     1.915      1.460      2.313
REMARK INTER + INTRA:           6.775
REMARK INTER:                   7.408
REMARK INTRA:                  -0.633
REMARK UNBOUND:                 3.629
REMARK SMILES C[C@H]1O[C@H](OC[C@H]2O[C@H](Oc3c(-c4ccc(O)c(O)c4)oc4cc(O)cc(O)c4c3=O)[C@H](O)[C@@H](O)[C@@H]2O)[C@@H](O)[C@@H](O)[C@H]1O
REMARK SMILES IDX 7 1 36 2 34 3 32 4 9 5 8 6 6 7 5 8 4 9 1 10 2 11 42 12 3 13
REMARK SMILES IDX 40 14 38 15 43 16 41 18 39 20 37 22 35 24 10 26 11 27 12 28
REMARK SMILES IDX 30 29 21 30 29 31 31 32 22 33 27 34 23 35 26 36 24 37 13 38
REMARK SMILES IDX 20 39 14 40 18 41 15 42 16 43 19 44 17 46 28 48 25 50 33 52
REMARK H PARENT 43 17 41 19 39 21 37 23 35 25 19 45 17 47 28 49 25 51 33 53
REMARK Flexibility Score: inf
ROOT
ATOM      1  C   UNL     1      97.812 101.846  98.129  1.00  0.00     0.180 C 
ATOM      2  C   UNL     1      96.796 101.296  99.159  1.00  0.00     0.177 C 
ATOM      3  C   UNL     1      96.236 102.449 100.009  1.00  0.00     0.180 C 
ATOM      4  C   UNL     1      95.723 103.575  99.098  1.00  0.00     0.214 C 
ATOM      5  C   UNL     1      96.806 103.971  98.080  1.00  0.00     0.339 C 
ATOM      6  O   UNL     1      97.215 102.846  97.318  1.00  0.00    -0.332 OA
ENDROOT
BRANCH   1   7
ATOM      7  C   UNL     1      98.330 100.738  97.199  1.00  0.00     0.198 C 
BRANCH   7   8
ATOM      8  O   UNL     1      97.273  99.909  96.748  1.00  0.00    -0.347 OA
BRANCH   8   9
ATOM      9  C   UNL     1      97.567  98.526  96.910  1.00  0.00     0.281 C 
ATOM     10  C   UNL     1      95.250  97.859  99.700  1.00  0.00     0.041 C 
ATOM     11  C   UNL     1      95.677  98.233  98.280  1.00  0.00     0.150 C 
ATOM     12  C   UNL     1      94.917  97.387  97.227  1.00  0.00     0.174 C 
ATOM     13  O   UNL     1      97.082  98.063  98.163  1.00  0.00    -0.344 OA
ATOM     14  C   UNL     1      95.429  97.716  95.810  1.00  0.00     0.179 C 
ATOM     15  C   UNL     1      96.971  97.699  95.747  1.00  0.00     0.202 C 
BRANCH  12  16
ATOM     16  O   UNL     1      94.988  96.004  97.492  1.00  0.00    -0.388 OA
ATOM     17  H   UNL     1      94.195  95.564  97.089  1.00  0.00     0.211 HD
ENDBRANCH  12  16
BRANCH  14  18
ATOM     18  O   UNL     1      94.887  96.809  94.885  1.00  0.00    -0.387 OA
ATOM     19  H   UNL     1      94.699  97.324  94.058  1.00  0.00     0.211 HD
ENDBRANCH  14  18
BRANCH  15  20
ATOM     20  O   UNL     1      97.438  96.376  95.809  1.00  0.00    -0.385 OA
ATOM     21  H   UNL     1      96.936  95.860  95.125  1.00  0.00     0.211 HD
ENDBRANCH  15  20
ENDBRANCH   8   9
ENDBRANCH   7   8
ENDBRANCH   1   7
BRANCH   2  22
ATOM     22  O   UNL     1      97.425 100.364 100.002  1.00  0.00    -0.387 OA
ATOM     23  H   UNL     1      97.218 100.631 100.936  1.00  0.00     0.211 HD
ENDBRANCH   2  22
BRANCH   3  24
ATOM     24  O   UNL     1      95.188 101.964 100.808  1.00  0.00    -0.387 OA
ATOM     25  H   UNL     1      95.604 101.446 101.546  1.00  0.00     0.211 HD
ENDBRANCH   3  24
BRANCH   5  26
ATOM     26  O   UNL     1      97.915 104.587  98.747  1.00  0.00    -0.454 OA
BRANCH  26  27
ATOM     27  C   UNL     1      97.877 105.655  99.669  1.00  0.00     0.214 A 
ATOM     28  C   UNL     1      98.299 105.403 100.992  1.00  0.00     0.180 A 
ATOM     29  C   UNL     1      97.411 106.953  99.351  1.00  0.00     0.239 A 
ATOM     30  O   UNL     1      98.204 106.354 101.920  1.00  0.00    -0.452 OA
ATOM     31  C   UNL     1      97.352 107.938 100.361  1.00  0.00     0.111 A 
ATOM     32  O   UNL     1      97.040 107.232  98.181  1.00  0.00    -0.285 OA
ATOM     33  C   UNL     1      97.760 107.576 101.666  1.00  0.00     0.146 A 
ATOM     34  C   UNL     1      96.908 109.263 100.124  1.00  0.00     0.134 A 
ATOM     35  C   UNL     1      97.714 108.510 102.706  1.00  0.00     0.094 A 
ATOM     36  C   UNL     1      96.875 110.186 101.180  1.00  0.00     0.093 A 
ATOM     37  C   UNL     1      97.275 109.815 102.465  1.00  0.00     0.123 A 
BRANCH  28  38
ATOM     38  C   UNL     1      98.838 104.087 101.408  1.00  0.00     0.025 A 
ATOM     39  C   UNL     1     100.053 103.635 100.869  1.00  0.00     0.062 A 
ATOM     40  C   UNL     1      98.125 103.244 102.276  1.00  0.00     0.016 A 
ATOM     41  C   UNL     1     100.570 102.383 101.219  1.00  0.00     0.158 A 
ATOM     42  C   UNL     1      98.640 101.997 102.635  1.00  0.00     0.051 A 
ATOM     43  C   UNL     1      99.865 101.562 102.113  1.00  0.00     0.157 A 
BRANCH  41  44
ATOM     44  O   UNL     1     101.781 101.970 100.666  1.00  0.00    -0.504 OA
ATOM     45  H   UNL     1     102.422 101.361 101.160  1.00  0.00     0.293 HD
ENDBRANCH  41  44
BRANCH  43  46
ATOM     46  O   UNL     1     100.379 100.318 102.475  1.00  0.00    -0.504 OA
ATOM     47  H   UNL     1      99.850  99.672 103.047  1.00  0.00     0.293 HD
ENDBRANCH  43  46
ENDBRANCH  28  38
BRANCH  34  48
ATOM     48  O   UNL     1      96.515 109.672  98.848  1.00  0.00    -0.507 OA
ATOM     49  H   UNL     1      97.189 109.840  98.111  1.00  0.00     0.293 HD
ENDBRANCH  34  48
BRANCH  37  50
ATOM     50  O   UNL     1      97.238 110.753 103.494  1.00  0.00    -0.508 OA
ATOM     51  H   UNL     1      96.469 110.786 104.150  1.00  0.00     0.293 HD
ENDBRANCH  37  50
ENDBRANCH  26  27
ENDBRANCH   5  26
BRANCH   4  52
ATOM     52  O   UNL     1      95.373 104.690  99.878  1.00  0.00    -0.384 OA
ATOM     53  H   UNL     1      95.535 105.494  99.321  1.00  0.00     0.211 HD
ENDBRANCH   4  52
TORSDOF 16
ENDMDL
MODEL 4
REMARK VINA RESULT:     2.179      1.562      9.045
REMARK INTER + INTRA:           7.209
REMARK INTER:                   8.524
REMARK INTRA:                  -1.315
REMARK UNBOUND:                 3.629
REMARK SMILES C[C@H]1O[C@H](OC[C@H]2O[C@H](Oc3c(-c4ccc(O)c(O)c4)oc4cc(O)cc(O)c4c3=O)[C@H](O)[C@@H](O)[C@@H]2O)[C@@H](O)[C@@H](O)[C@H]1O
REMARK SMILES IDX 7 1 36 2 34 3 32 4 9 5 8 6 6 7 5 8 4 9 1 10 2 11 42 12 3 13
REMARK SMILES IDX 40 14 38 15 43 16 41 18 39 20 37 22 35 24 10 26 11 27 12 28
REMARK SMILES IDX 30 29 21 30 29 31 31 32 22 33 27 34 23 35 26 36 24 37 13 38
REMARK SMILES IDX 20 39 14 40 18 41 15 42 16 43 19 44 17 46 28 48 25 50 33 52
REMARK H PARENT 43 17 41 19 39 21 37 23 35 25 19 45 17 47 28 49 25 51 33 53
REMARK Flexibility Score: inf
ROOT
ATOM      1  C   UNL     1      98.488 105.497  99.682  1.00  0.00     0.180 C 
ATOM      2  C   UNL     1      99.045 105.173 101.090  1.00  0.00     0.177 C 
ATOM      3  C   UNL     1      98.914 103.668 101.371  1.00  0.00     0.180 C 
ATOM      4  C   UNL     1      99.516 102.859 100.211  1.00  0.00     0.214 C 
ATOM      5  C   UNL     1      98.928 103.334  98.871  1.00  0.00     0.339 C 
ATOM      6  O   UNL     1      99.147 104.724  98.690  1.00  0.00    -0.332 OA
ENDROOT
BRANCH   1   7
ATOM      7  C   UNL     1      98.681 106.979  99.324  1.00  0.00     0.198 C 
BRANCH   7   8
ATOM      8  O   UNL     1      98.401 107.816 100.432  1.00  0.00    -0.347 OA
BRANCH   8   9
ATOM      9  C   UNL     1      97.054 108.277 100.432  1.00  0.00     0.281 C 
ATOM     10  C   UNL     1      96.913 109.377 103.948  1.00  0.00     0.041 C 
ATOM     11  C   UNL     1      97.374 109.370 102.489  1.00  0.00     0.150 C 
ATOM     12  C   UNL     1      97.284 110.788 101.869  1.00  0.00     0.174 C 
ATOM     13  O   UNL     1      96.587 108.437 101.764  1.00  0.00    -0.344 OA
ATOM     14  C   UNL     1      97.665 110.739 100.376  1.00  0.00     0.179 C 
ATOM     15  C   UNL     1      96.929 109.599  99.640  1.00  0.00     0.202 C 
BRANCH  12  16
ATOM     16  O   UNL     1      96.018 111.380 102.058  1.00  0.00    -0.388 OA
ATOM     17  H   UNL     1      95.611 110.997 102.878  1.00  0.00     0.211 HD
ENDBRANCH  12  16
BRANCH  14  18
ATOM     18  O   UNL     1      97.387 111.976  99.772  1.00  0.00    -0.387 OA
ATOM     19  H   UNL     1      97.283 111.803  98.800  1.00  0.00     0.211 HD
ENDBRANCH  14  18
BRANCH  15  20
ATOM     20  O   UNL     1      95.574 109.933  99.473  1.00  0.00    -0.385 OA
ATOM     21  H   UNL     1      95.522 110.545  98.693  1.00  0.00     0.211 HD
ENDBRANCH  15  20
ENDBRANCH   8   9
ENDBRANCH   7   8
ENDBRANCH   1   7
BRANCH   2  22
ATOM     22  O   UNL     1      98.330 105.890 102.065  1.00  0.00    -0.387 OA
ATOM     23  H   UNL     1      97.674 105.260 102.464  1.00  0.00     0.211 HD
ENDBRANCH   2  22
BRANCH   3  24
ATOM     24  O   UNL     1      99.585 103.363 102.567  1.00  0.00    -0.387 OA
ATOM     25  H   UNL     1      99.874 104.226 102.964  1.00  0.00     0.211 HD
ENDBRANCH   3  24
BRANCH   5  26
ATOM     26  O   UNL     1      97.536 103.004  98.794  1.00  0.00    -0.454 OA
BRANCH  26  27
ATOM     27  C   UNL     1      96.965 101.739  98.542  1.00  0.00     0.214 A 
ATOM     28  C   UNL     1      96.122 101.184  99.529  1.00  0.00     0.180 A 
ATOM     29  C   UNL     1      97.215 100.982  97.373  1.00  0.00     0.239 A 
ATOM     30  O   UNL     1      95.626  99.958  99.376  1.00  0.00    -0.452 OA
ATOM     31  C   UNL     1      96.646  99.695  97.242  1.00  0.00     0.111 A 
ATOM     32  O   UNL     1      97.945 101.440  96.456  1.00  0.00    -0.285 OA
ATOM     33  C   UNL     1      95.847  99.211  98.304  1.00  0.00     0.146 A 
ATOM     34  C   UNL     1      96.838  98.878  96.100  1.00  0.00     0.134 A 
ATOM     35  C   UNL     1      95.267  97.941  98.231  1.00  0.00     0.094 A 
ATOM     36  C   UNL     1      96.242  97.609  96.043  1.00  0.00     0.093 A 
ATOM     37  C   UNL     1      95.461  97.140  97.102  1.00  0.00     0.123 A 
BRANCH  28  38
ATOM     38  C   UNL     1      95.772 101.919 100.767  1.00  0.00     0.025 A 
ATOM     39  C   UNL     1      95.694 103.321 100.742  1.00  0.00     0.062 A 
ATOM     40  C   UNL     1      95.589 101.251 101.989  1.00  0.00     0.016 A 
ATOM     41  C   UNL     1      95.397 104.043 101.903  1.00  0.00     0.158 A 
ATOM     42  C   UNL     1      95.284 101.965 103.149  1.00  0.00     0.051 A 
ATOM     43  C   UNL     1      95.183 103.362 103.112  1.00  0.00     0.157 A 
BRANCH  41  44
ATOM     44  O   UNL     1      95.325 105.433 101.838  1.00  0.00    -0.504 OA
ATOM     45  H   UNL     1      95.941 106.033 102.373  1.00  0.00     0.293 HD
ENDBRANCH  41  44
BRANCH  43  46
ATOM     46  O   UNL     1      94.876 104.073 104.271  1.00  0.00    -0.504 OA
ATOM     47  H   UNL     1      95.599 104.409 104.893  1.00  0.00     0.293 HD
ENDBRANCH  43  46
ENDBRANCH  28  38
BRANCH  34  48
ATOM     48  O   UNL     1      97.602  99.321  95.018  1.00  0.00    -0.507 OA
ATOM     49  H   UNL     1      97.536  98.885  94.106  1.00  0.00     0.293 HD
ENDBRANCH  34  48
BRANCH  37  50
ATOM     50  O   UNL     1      94.875  95.879  97.017  1.00  0.00    -0.508 OA
ATOM     51  H   UNL     1      94.537  95.399  97.841  1.00  0.00     0.293 HD
ENDBRANCH  37  50
ENDBRANCH  26  27
ENDBRANCH   5  26
BRANCH   4  52
ATOM     52  O   UNL     1      99.240 101.494 100.395  1.00  0.00    -0.384 OA
ATOM     53  H   UNL     1      98.802 101.405 101.280  1.00  0.00     0.211 HD
ENDBRANCH   4  52
TORSDOF 16
ENDMDL
MODEL 5
REMARK VINA RESULT:     2.500      1.489      4.049
REMARK INTER + INTRA:           7.736
REMARK INTER:                   9.041
REMARK INTRA:                  -1.305
REMARK UNBOUND:                 3.629
REMARK SMILES C[C@H]1O[C@H](OC[C@H]2O[C@H](Oc3c(-c4ccc(O)c(O)c4)oc4cc(O)cc(O)c4c3=O)[C@H](O)[C@@H](O)[C@@H]2O)[C@@H](O)[C@@H](O)[C@H]1O
REMARK SMILES IDX 7 1 36 2 34 3 32 4 9 5 8 6 6 7 5 8 4 9 1 10 2 11 42 12 3 13
REMARK SMILES IDX 40 14 38 15 43 16 41 18 39 20 37 22 35 24 10 26 11 27 12 28
REMARK SMILES IDX 30 29 21 30 29 31 31 32 22 33 27 34 23 35 26 36 24 37 13 38
REMARK SMILES IDX 20 39 14 40 18 41 15 42 16 43 19 44 17 46 28 48 25 50 33 52
REMARK H PARENT 43 17 41 19 39 21 37 23 35 25 19 45 17 47 28 49 25 51 33 53
REMARK Flexibility Score: inf
ROOT
ATOM      1  C   UNL     1      97.126 101.813 100.332  1.00  0.00     0.180 C 
ATOM      2  C   UNL     1      98.118 100.776 100.914  1.00  0.00     0.177 C 
ATOM      3  C   UNL     1      99.216 101.494 101.715  1.00  0.00     0.180 C 
ATOM      4  C   UNL     1      98.583 102.458 102.732  1.00  0.00     0.214 C 
ATOM      5  C   UNL     1      97.568 103.378 102.032  1.00  0.00     0.339 C 
ATOM      6  O   UNL     1      96.574 102.615 101.366  1.00  0.00    -0.332 OA
ENDROOT
BRANCH   1   7
ATOM      7  C   UNL     1      95.962 101.132  99.597  1.00  0.00     0.198 C 
BRANCH   7   8
ATOM      8  O   UNL     1      96.378  99.926  98.980  1.00  0.00    -0.347 OA
BRANCH   8   9
ATOM      9  C   UNL     1      96.162  99.939  97.573  1.00  0.00     0.281 C 
ATOM     10  C   UNL     1      99.517  98.803  96.553  1.00  0.00     0.041 C 
ATOM     11  C   UNL     1      98.137  98.718  97.207  1.00  0.00     0.150 C 
ATOM     12  C   UNL     1      97.386  97.438  96.760  1.00  0.00     0.174 C 
ATOM     13  O   UNL     1      97.403  99.889  96.883  1.00  0.00    -0.344 OA
ATOM     14  C   UNL     1      95.965  97.419  97.358  1.00  0.00     0.179 C 
ATOM     15  C   UNL     1      95.245  98.768  97.150  1.00  0.00     0.202 C 
BRANCH  12  16
ATOM     16  O   UNL     1      97.356  97.292  95.357  1.00  0.00    -0.388 OA
ATOM     17  H   UNL     1      98.068  97.862  94.966  1.00  0.00     0.211 HD
ENDBRANCH  12  16
BRANCH  14  18
ATOM     18  O   UNL     1      95.223  96.371  96.791  1.00  0.00    -0.387 OA
ATOM     19  H   UNL     1      94.657  95.998  97.516  1.00  0.00     0.211 HD
ENDBRANCH  14  18
BRANCH  15  20
ATOM     20  O   UNL     1      94.875  98.911  95.802  1.00  0.00    -0.385 OA
ATOM     21  H   UNL     1      94.675  98.000  95.460  1.00  0.00     0.211 HD
ENDBRANCH  15  20
ENDBRANCH   8   9
ENDBRANCH   7   8
ENDBRANCH   1   7
BRANCH   2  22
ATOM     22  O   UNL     1      98.711 100.044  99.871  1.00  0.00    -0.387 OA
ATOM     23  H   UNL     1      97.973  99.665  99.326  1.00  0.00     0.211 HD
ENDBRANCH   2  22
BRANCH   3  24
ATOM     24  O   UNL     1      99.997 100.538 102.384  1.00  0.00    -0.387 OA
ATOM     25  H   UNL     1      99.389  99.795 102.639  1.00  0.00     0.211 HD
ENDBRANCH   3  24
BRANCH   5  26
ATOM     26  O   UNL     1      98.242 104.268 101.133  1.00  0.00    -0.454 OA
BRANCH  26  27
ATOM     27  C   UNL     1      97.923 105.614 100.857  1.00  0.00     0.214 A 
ATOM     28  C   UNL     1      97.912 106.030  99.508  1.00  0.00     0.180 A 
ATOM     29  C   UNL     1      97.646 106.578 101.855  1.00  0.00     0.239 A 
ATOM     30  O   UNL     1      97.700 107.308  99.201  1.00  0.00    -0.452 OA
ATOM     31  C   UNL     1      97.401 107.918 101.481  1.00  0.00     0.111 A 
ATOM     32  O   UNL     1      97.627 106.253 103.072  1.00  0.00    -0.285 OA
ATOM     33  C   UNL     1      97.451 108.243 100.106  1.00  0.00     0.146 A 
ATOM     34  C   UNL     1      97.106 108.940 102.417  1.00  0.00     0.134 A 
ATOM     35  C   UNL     1      97.225 109.555  99.681  1.00  0.00     0.094 A 
ATOM     36  C   UNL     1      96.876 110.249 101.970  1.00  0.00     0.093 A 
ATOM     37  C   UNL     1      96.934 110.559 100.609  1.00  0.00     0.123 A 
BRANCH  28  38
ATOM     38  C   UNL     1      98.152 105.084  98.392  1.00  0.00     0.025 A 
ATOM     39  C   UNL     1      97.126 104.213  97.990  1.00  0.00     0.062 A 
ATOM     40  C   UNL     1      99.409 104.985  97.773  1.00  0.00     0.016 A 
ATOM     41  C   UNL     1      97.335 103.288  96.962  1.00  0.00     0.158 A 
ATOM     42  C   UNL     1      99.620 104.070  96.740  1.00  0.00     0.051 A 
ATOM     43  C   UNL     1      98.585 103.220  96.327  1.00  0.00     0.157 A 
BRANCH  41  44
ATOM     44  O   UNL     1      96.292 102.443  96.588  1.00  0.00    -0.504 OA
ATOM     45  H   UNL     1      96.059 102.267  95.618  1.00  0.00     0.293 HD
ENDBRANCH  41  44
BRANCH  43  46
ATOM     46  O   UNL     1      98.797 102.309  95.293  1.00  0.00    -0.504 OA
ATOM     47  H   UNL     1      99.726 101.990  95.051  1.00  0.00     0.293 HD
ENDBRANCH  43  46
ENDBRANCH  28  38
BRANCH  34  48
ATOM     48  O   UNL     1      97.025 108.663 103.784  1.00  0.00    -0.507 OA
ATOM     49  H   UNL     1      97.765 108.925 104.425  1.00  0.00     0.293 HD
ENDBRANCH  34  48
BRANCH  37  50
ATOM     50  O   UNL     1      96.695 111.865 100.191  1.00  0.00    -0.508 OA
ATOM     51  H   UNL     1      95.951 112.083  99.541  1.00  0.00     0.293 HD
ENDBRANCH  37  50
ENDBRANCH  26  27
ENDBRANCH   5  26
BRANCH   4  52
ATOM     52  O   UNL     1      99.588 103.231 103.338  1.00  0.00    -0.384 OA
ATOM     53  H   UNL     1     100.056 103.716 102.610  1.00  0.00     0.211 HD
ENDBRANCH   4  52
TORSDOF 16
ENDMDL
MODEL 6
REMARK VINA RESULT:     2.788      1.637      9.343
REMARK INTER + INTRA:           8.209
REMARK INTER:                   6.439
REMARK INTRA:                   1.770
REMARK UNBOUND:                 3.629
REMARK SMILES C[C@H]1O[C@H](OC[C@H]2O[C@H](Oc3c(-c4ccc(O)c(O)c4)oc4cc(O)cc(O)c4c3=O)[C@H](O)[C@@H](O)[C@@H]2O)[C@@H](O)[C@@H](O)[C@H]1O
REMARK SMILES IDX 7 1 36 2 34 3 32 4 9 5 8 6 6 7 5 8 4 9 1 10 2 11 42 12 3 13
REMARK SMILES IDX 40 14 38 15 43 16 41 18 39 20 37 22 35 24 10 26 11 27 12 28
REMARK SMILES IDX 30 29 21 30 29 31 31 32 22 33 27 34 23 35 26 36 24 37 13 38
REMARK SMILES IDX 20 39 14 40 18 41 15 42 16 43 19 44 17 46 28 48 25 50 33 52
REMARK H PARENT 43 17 41 19 39 21 37 23 35 25 19 45 17 47 28 49 25 51 33 53
REMARK Flexibility Score: inf
ROOT
ATOM      1  C   UNL     1      97.372 104.290 101.178  1.00  0.00     0.180 C 
ATOM      2  C   UNL     1      96.478 104.564 102.412  1.00  0.00     0.177 C 
ATOM      3  C   UNL     1      95.547 103.366 102.660  1.00  0.00     0.180 C 
ATOM      4  C   UNL     1      96.361 102.063 102.699  1.00  0.00     0.214 C 
ATOM      5  C   UNL     1      97.256 101.957 101.452  1.00  0.00     0.339 C 
ATOM      6  O   UNL     1      98.107 103.088 101.347  1.00  0.00    -0.332 OA
ENDROOT
BRANCH   1   7
ATOM      7  C   UNL     1      98.381 105.426 100.948  1.00  0.00     0.198 C 
BRANCH   7   8
ATOM      8  O   UNL     1      98.003 106.599 101.647  1.00  0.00    -0.347 OA
BRANCH   8   9
ATOM      9  C   UNL     1      96.853 107.217 101.079  1.00  0.00     0.281 C 
ATOM     10  C   UNL     1      96.585 110.026 103.452  1.00  0.00     0.041 C 
ATOM     11  C   UNL     1      97.205 109.162 102.352  1.00  0.00     0.150 C 
ATOM     12  C   UNL     1      97.599 110.020 101.123  1.00  0.00     0.174 C 
ATOM     13  O   UNL     1      96.285 108.141 101.997  1.00  0.00    -0.344 OA
ATOM     14  C   UNL     1      98.136 109.117  99.995  1.00  0.00     0.179 C 
ATOM     15  C   UNL     1      97.207 107.911  99.744  1.00  0.00     0.202 C 
BRANCH  12  16
ATOM     16  O   UNL     1      96.538 110.834 100.671  1.00  0.00    -0.388 OA
ATOM     17  H   UNL     1      95.792 110.247 100.381  1.00  0.00     0.211 HD
ENDBRANCH  12  16
BRANCH  14  18
ATOM     18  O   UNL     1      98.298 109.868  98.819  1.00  0.00    -0.387 OA
ATOM     19  H   UNL     1      98.207 110.823  99.075  1.00  0.00     0.211 HD
ENDBRANCH  14  18
BRANCH  15  20
ATOM     20  O   UNL     1      96.034 108.335  99.097  1.00  0.00    -0.385 OA
ATOM     21  H   UNL     1      95.357 107.622  99.230  1.00  0.00     0.211 HD
ENDBRANCH  15  20
ENDBRANCH   8   9
ENDBRANCH   7   8
ENDBRANCH   1   7
BRANCH   2  22
ATOM     22  O   UNL     1      95.702 105.716 102.195  1.00  0.00    -0.387 OA
ATOM     23  H   UNL     1      95.030 105.754 102.925  1.00  0.00     0.211 HD
ENDBRANCH   2  22
BRANCH   3  24
ATOM     24  O   UNL     1      94.876 103.549 103.880  1.00  0.00    -0.387 OA
ATOM     25  H   UNL     1      95.495 104.044 104.478  1.00  0.00     0.211 HD
ENDBRANCH   3  24
BRANCH   5  26
ATOM     26  O   UNL     1      96.453 101.790 100.277  1.00  0.00    -0.454 OA
BRANCH  26  27
ATOM     27  C   UNL     1      96.601 100.817  99.266  1.00  0.00     0.214 A 
ATOM     28  C   UNL     1      97.363 101.156  98.127  1.00  0.00     0.180 A 
ATOM     29  C   UNL     1      96.006  99.535  99.314  1.00  0.00     0.239 A 
ATOM     30  O   UNL     1      97.463 100.305  97.108  1.00  0.00    -0.452 OA
ATOM     31  C   UNL     1      96.161  98.653  98.222  1.00  0.00     0.111 A 
ATOM     32  O   UNL     1      95.332  99.178 100.317  1.00  0.00    -0.285 OA
ATOM     33  C   UNL     1      96.909  99.101  97.109  1.00  0.00     0.146 A 
ATOM     34  C   UNL     1      95.606  97.350  98.196  1.00  0.00     0.134 A 
ATOM     35  C   UNL     1      97.087  98.273  95.996  1.00  0.00     0.094 A 
ATOM     36  C   UNL     1      95.800  96.532  97.073  1.00  0.00     0.093 A 
ATOM     37  C   UNL     1      96.536  96.988  95.977  1.00  0.00     0.123 A 
BRANCH  28  38
ATOM     38  C   UNL     1      98.056 102.461  98.004  1.00  0.00     0.025 A 
ATOM     39  C   UNL     1      99.175 102.728  98.809  1.00  0.00     0.062 A 
ATOM     40  C   UNL     1      97.575 103.469  97.153  1.00  0.00     0.016 A 
ATOM     41  C   UNL     1      99.829 103.963  98.738  1.00  0.00     0.158 A 
ATOM     42  C   UNL     1      98.229 104.700  97.071  1.00  0.00     0.051 A 
ATOM     43  C   UNL     1      99.360 104.952  97.859  1.00  0.00     0.157 A 
BRANCH  41  44
ATOM     44  O   UNL     1     100.939 104.191  99.549  1.00  0.00    -0.504 OA
ATOM     45  H   UNL     1     100.899 104.789 100.366  1.00  0.00     0.293 HD
ENDBRANCH  41  44
BRANCH  43  46
ATOM     46  O   UNL     1     100.013 106.180  97.774  1.00  0.00    -0.504 OA
ATOM     47  H   UNL     1     100.590 106.419  96.977  1.00  0.00     0.293 HD
ENDBRANCH  43  46
ENDBRANCH  28  38
BRANCH  34  48
ATOM     48  O   UNL     1      94.876  96.856  99.280  1.00  0.00    -0.507 OA
ATOM     49  H   UNL     1      93.948  96.468  99.164  1.00  0.00     0.293 HD
ENDBRANCH  34  48
BRANCH  37  50
ATOM     50  O   UNL     1      96.720  96.153  94.877  1.00  0.00    -0.508 OA
ATOM     51  H   UNL     1      97.644  95.949  94.519  1.00  0.00     0.293 HD
ENDBRANCH  37  50
ENDBRANCH  26  27
ENDBRANCH   5  26
BRANCH   4  52
ATOM     52  O   UNL     1      95.488 100.963 102.754  1.00  0.00    -0.384 OA
ATOM     53  H   UNL     1      94.860 101.131 103.502  1.00  0.00     0.211 HD
ENDBRANCH   4  52
TORSDOF 16
ENDMDL
MODEL 7
REMARK VINA RESULT:     3.487      1.342      3.818
REMARK INTER + INTRA:           9.358
REMARK INTER:                   8.019
REMARK INTRA:                   1.339
REMARK UNBOUND:                 3.629
REMARK SMILES C[C@H]1O[C@H](OC[C@H]2O[C@H](Oc3c(-c4ccc(O)c(O)c4)oc4cc(O)cc(O)c4c3=O)[C@H](O)[C@@H](O)[C@@H]2O)[C@@H](O)[C@@H](O)[C@H]1O
REMARK SMILES IDX 7 1 36 2 34 3 32 4 9 5 8 6 6 7 5 8 4 9 1 10 2 11 42 12 3 13
REMARK SMILES IDX 40 14 38 15 43 16 41 18 39 20 37 22 35 24 10 26 11 27 12 28
REMARK SMILES IDX 30 29 21 30 29 31 31 32 22 33 27 34 23 35 26 36 24 37 13 38
REMARK SMILES IDX 20 39 14 40 18 41 15 42 16 43 19 44 17 46 28 48 25 50 33 52
REMARK H PARENT 43 17 41 19 39 21 37 23 35 25 19 45 17 47 28 49 25 51 33 53
REMARK Flexibility Score: inf
ROOT
ATOM      1  C   UNL     1      96.373 101.675 101.254  1.00  0.00     0.180 C 
ATOM      2  C   UNL     1      97.587 100.796 101.646  1.00  0.00     0.177 C 
ATOM      3  C   UNL     1      98.838 101.674 101.806  1.00  0.00     0.180 C 
ATOM      4  C   UNL     1      98.538 102.856 102.742  1.00  0.00     0.214 C 
ATOM      5  C   UNL     1      97.270 103.593 102.278  1.00  0.00     0.339 C 
ATOM      6  O   UNL     1      96.167 102.702 102.211  1.00  0.00    -0.332 OA
ENDROOT
BRANCH   1   7
ATOM      7  C   UNL     1      95.081 100.848 101.170  1.00  0.00     0.198 C 
BRANCH   7   8
ATOM      8  O   UNL     1      94.875 100.347  99.861  1.00  0.00    -0.347 OA
BRANCH   8   9
ATOM      9  C   UNL     1      96.035  99.706  99.342  1.00  0.00     0.281 C 
ATOM     10  C   UNL     1      94.902  96.224  99.768  1.00  0.00     0.041 C 
ATOM     11  C   UNL     1      94.903  97.649  99.212  1.00  0.00     0.150 C 
ATOM     12  C   UNL     1      94.875  97.644  97.662  1.00  0.00     0.174 C 
ATOM     13  O   UNL     1      96.045  98.332  99.707  1.00  0.00    -0.344 OA
ATOM     14  C   UNL     1      94.970  99.085  97.125  1.00  0.00     0.179 C 
ATOM     15  C   UNL     1      96.111  99.870  97.806  1.00  0.00     0.202 C 
BRANCH  12  16
ATOM     16  O   UNL     1      95.876  96.820  97.108  1.00  0.00    -0.388 OA
ATOM     17  H   UNL     1      95.458  95.970  96.812  1.00  0.00     0.211 HD
ENDBRANCH  12  16
BRANCH  14  18
ATOM     18  O   UNL     1      95.149  99.064  95.732  1.00  0.00    -0.387 OA
ATOM     19  H   UNL     1      95.236 100.009  95.441  1.00  0.00     0.211 HD
ENDBRANCH  14  18
BRANCH  15  20
ATOM     20  O   UNL     1      97.353  99.416  97.334  1.00  0.00    -0.385 OA
ATOM     21  H   UNL     1      97.230  99.178  96.378  1.00  0.00     0.211 HD
ENDBRANCH  15  20
ENDBRANCH   8   9
ENDBRANCH   7   8
ENDBRANCH   1   7
BRANCH   2  22
ATOM     22  O   UNL     1      97.823  99.833 100.649  1.00  0.00    -0.387 OA
ATOM     23  H   UNL     1      97.557 100.241  99.784  1.00  0.00     0.211 HD
ENDBRANCH   2  22
BRANCH   3  24
ATOM     24  O   UNL     1      99.881 100.897 102.336  1.00  0.00    -0.387 OA
ATOM     25  H   UNL     1      99.509 100.408 103.117  1.00  0.00     0.211 HD
ENDBRANCH   3  24
BRANCH   5  26
ATOM     26  O   UNL     1      97.503 104.240 101.020  1.00  0.00    -0.454 OA
BRANCH  26  27
ATOM     27  C   UNL     1      97.469 105.623 100.746  1.00  0.00     0.214 A 
ATOM     28  C   UNL     1      97.769 106.046  99.433  1.00  0.00     0.180 A 
ATOM     29  C   UNL     1      97.184 106.611 101.718  1.00  0.00     0.239 A 
ATOM     30  O   UNL     1      97.833 107.344  99.144  1.00  0.00    -0.452 OA
ATOM     31  C   UNL     1      97.238 107.977 101.360  1.00  0.00     0.111 A 
ATOM     32  O   UNL     1      96.894 106.284 102.899  1.00  0.00    -0.285 OA
ATOM     33  C   UNL     1      97.587 108.300 100.028  1.00  0.00     0.146 A 
ATOM     34  C   UNL     1      96.956 109.026 102.269  1.00  0.00     0.134 A 
ATOM     35  C   UNL     1      97.664 109.636  99.621  1.00  0.00     0.094 A 
ATOM     36  C   UNL     1      97.033 110.359 101.840  1.00  0.00     0.093 A 
ATOM     37  C   UNL     1      97.385 110.666 100.524  1.00  0.00     0.123 A 
BRANCH  28  38
ATOM     38  C   UNL     1      98.042 105.083  98.340  1.00  0.00     0.025 A 
ATOM     39  C   UNL     1      97.098 104.086  98.045  1.00  0.00     0.062 A 
ATOM     40  C   UNL     1      99.258 105.096  97.638  1.00  0.00     0.016 A 
ATOM     41  C   UNL     1      97.343 103.143  97.040  1.00  0.00     0.158 A 
ATOM     42  C   UNL     1      99.505 104.163  96.629  1.00  0.00     0.051 A 
ATOM     43  C   UNL     1      98.549 103.186  96.322  1.00  0.00     0.157 A 
BRANCH  41  44
ATOM     44  O   UNL     1      96.381 102.171  96.772  1.00  0.00    -0.504 OA
ATOM     45  H   UNL     1      95.428 102.406  96.523  1.00  0.00     0.293 HD
ENDBRANCH  41  44
BRANCH  43  46
ATOM     46  O   UNL     1      98.795 102.258  95.312  1.00  0.00    -0.504 OA
ATOM     47  H   UNL     1      99.040 102.549  94.374  1.00  0.00     0.293 HD
ENDBRANCH  43  46
ENDBRANCH  28  38
BRANCH  34  48
ATOM     48  O   UNL     1      96.588 108.755 103.589  1.00  0.00    -0.507 OA
ATOM     49  H   UNL     1      96.009 107.958 103.827  1.00  0.00     0.293 HD
ENDBRANCH  34  48
BRANCH  37  50
ATOM     50  O   UNL     1      97.447 111.998 100.122  1.00  0.00    -0.508 OA
ATOM     51  H   UNL     1      98.180 112.614 100.450  1.00  0.00     0.293 HD
ENDBRANCH  37  50
ENDBRANCH  26  27
ENDBRANCH   5  26
BRANCH   4  52
ATOM     52  O   UNL     1      99.629 103.742 102.747  1.00  0.00    -0.384 OA
ATOM     53  H   UNL     1      99.257 104.657 102.665  1.00  0.00     0.211 HD
ENDBRANCH   4  52
TORSDOF 16
ENDMDL
