MODEL 1
REMARK VINA RESULT:    -1.696      0.000      0.000
REMARK INTER + INTRA:          -8.616
REMARK INTER:                  -3.877
REMARK INTRA:                  -4.739
REMARK UNBOUND:                -4.739
REMARK SMILES CCCCCCCCCCCCCCCCCCCCCCCC(=O)[O-]
REMARK SMILES IDX 13 1 14 2 15 3 16 4 17 5 18 6 19 7 20 8 21 9 22 10 23 11
REMARK SMILES IDX 24 12 25 13 26 14 12 15 11 16 10 17 9 18 8 19 7 20 6 21 5 22
REMARK SMILES IDX 4 23 3 24 2 25 1 26
REMARK H PARENT
REMARK Flexibility Score: inf
ROOT
ATOM      1  C   UNL     1     176.906 203.270 199.355  1.00  0.00     0.000 C 
ENDROOT
BRANCH   1   2
ATOM      2  C   UNL     1     176.106 201.959 199.450  1.00  0.00     0.000 C 
BRANCH   2   3
ATOM      3  C   UNL     1     174.643 202.187 199.872  1.00  0.00     0.000 C 
BRANCH   3   4
ATOM      4  C   UNL     1     174.436 203.529 200.597  1.00  0.00     0.000 C 
BRANCH   4   5
ATOM      5  C   UNL     1     173.987 203.407 202.065  1.00  0.00     0.000 C 
BRANCH   5   6
ATOM      6  C   UNL     1     173.771 204.776 202.734  1.00  0.00     0.000 C 
BRANCH   6   7
ATOM      7  C   UNL     1     172.564 205.531 202.154  1.00  0.00     0.000 C 
BRANCH   7   8
ATOM      8  C   UNL     1     172.887 206.999 201.823  1.00  0.00     0.000 C 
BRANCH   8   9
ATOM      9  C   UNL     1     172.367 207.428 200.439  1.00  0.00     0.000 C 
BRANCH   9  10
ATOM     10  C   UNL     1     172.905 206.598 199.260  1.00  0.00     0.006 C 
BRANCH  10  11
ATOM     11  C   UNL     1     173.445 207.464 198.113  1.00  0.00     0.053 C 
BRANCH  11  12
ATOM     12  C   UNL     1     174.442 206.702 197.297  1.00  0.00     0.041 C 
ATOM     13  O   UNL     1     175.053 207.267 196.352  1.00  0.00    -0.550 OA
ATOM     14  O   UNL     1     174.708 205.370 197.591  1.00  0.00    -0.550 OA
ENDBRANCH  11  12
ENDBRANCH  10  11
ENDBRANCH   9  10
ENDBRANCH   8   9
ENDBRANCH   7   8
ENDBRANCH   6   7
ENDBRANCH   5   6
ENDBRANCH   4   5
ENDBRANCH   3   4
ENDBRANCH   2   3
ENDBRANCH   1   2
BRANCH   1  15
ATOM     15  C   UNL     1     177.674 203.394 198.029  1.00  0.00     0.000 C 
BRANCH  15  16
ATOM     16  C   UNL     1     178.618 204.609 197.997  1.00  0.00     0.000 C 
BRANCH  16  17
ATOM     17  C   UNL     1     178.157 205.726 197.035  1.00  0.00     0.000 C 
BRANCH  17  18
ATOM     18  C   UNL     1     178.558 207.124 197.533  1.00  0.00    -0.000 C 
BRANCH  18  19
ATOM     19  C   UNL     1     179.139 207.092 198.962  1.00  0.00    -0.000 C 
BRANCH  19  20
ATOM     20  C   UNL     1     178.380 207.986 199.958  1.00  0.00    -0.000 C 
BRANCH  20  21
ATOM     21  C   UNL     1     176.855 207.876 199.818  1.00  0.00    -0.000 C 
BRANCH  21  22
ATOM     22  C   UNL     1     176.326 206.643 200.567  1.00  0.00    -0.000 C 
BRANCH  22  23
ATOM     23  C   UNL     1     176.819 206.571 202.021  1.00  0.00    -0.000 C 
BRANCH  23  24
ATOM     24  C   UNL     1     177.477 205.222 202.356  1.00  0.00    -0.000 C 
BRANCH  24  25
ATOM     25  C   UNL     1     179.012 205.306 202.381  1.00  0.00    -0.003 C 
ATOM     26  C   UNL     1     179.682 204.202 201.563  1.00  0.00     0.004 C 
ENDBRANCH  24  25
ENDBRANCH  23  24
ENDBRANCH  22  23
ENDBRANCH  21  22
ENDBRANCH  20  21
ENDBRANCH  19  20
ENDBRANCH  18  19
ENDBRANCH  17  18
ENDBRANCH  16  17
ENDBRANCH  15  16
ENDBRANCH   1  15
TORSDOF 22
ENDMDL
MODEL 2
REMARK VINA RESULT:    -1.686      2.219      4.348
REMARK INTER + INTRA:          -8.592
REMARK INTER:                  -4.264
REMARK INTRA:                  -4.329
REMARK UNBOUND:                -4.739
REMARK SMILES CCCCCCCCCCCCCCCCCCCCCCCC(=O)[O-]
REMARK SMILES IDX 13 1 14 2 15 3 16 4 17 5 18 6 19 7 20 8 21 9 22 10 23 11
REMARK SMILES IDX 24 12 25 13 26 14 12 15 11 16 10 17 9 18 8 19 7 20 6 21 5 22
REMARK SMILES IDX 4 23 3 24 2 25 1 26
REMARK H PARENT
REMARK Flexibility Score: inf
ROOT
ATOM      1  C   UNL     1     174.331 207.221 199.037  1.00  0.00     0.000 C 
ENDROOT
BRANCH   1   2
ATOM      2  C   UNL     1     173.958 208.104 200.240  1.00  0.00     0.000 C 
BRANCH   2   3
ATOM      3  C   UNL     1     174.987 208.016 201.382  1.00  0.00     0.000 C 
BRANCH   3   4
ATOM      4  C   UNL     1     176.426 207.821 200.871  1.00  0.00     0.000 C 
BRANCH   4   5
ATOM      5  C   UNL     1     177.122 206.542 201.375  1.00  0.00     0.000 C 
BRANCH   5   6
ATOM      6  C   UNL     1     176.478 205.984 202.655  1.00  0.00     0.000 C 
BRANCH   6   7
ATOM      7  C   UNL     1     176.077 204.506 202.517  1.00  0.00     0.000 C 
BRANCH   7   8
ATOM      8  C   UNL     1     174.603 204.328 202.111  1.00  0.00     0.000 C 
BRANCH   8   9
ATOM      9  C   UNL     1     173.633 205.102 203.021  1.00  0.00     0.000 C 
BRANCH   9  10
ATOM     10  C   UNL     1     172.269 205.427 202.387  1.00  0.00     0.006 C 
BRANCH  10  11
ATOM     11  C   UNL     1     172.134 204.897 200.952  1.00  0.00     0.053 C 
BRANCH  11  12
ATOM     12  C   UNL     1     171.125 203.792 200.889  1.00  0.00     0.041 C 
ATOM     13  O   UNL     1     171.439 202.673 200.403  1.00  0.00    -0.550 OA
ATOM     14  O   UNL     1     169.841 203.994 201.381  1.00  0.00    -0.550 OA
ENDBRANCH  11  12
ENDBRANCH  10  11
ENDBRANCH   9  10
ENDBRANCH   8   9
ENDBRANCH   7   8
ENDBRANCH   6   7
ENDBRANCH   5   6
ENDBRANCH   4   5
ENDBRANCH   3   4
ENDBRANCH   2   3
ENDBRANCH   1   2
BRANCH   1  15
ATOM     15  C   UNL     1     174.480 208.030 197.738  1.00  0.00     0.000 C 
BRANCH  15  16
ATOM     16  C   UNL     1     175.938 208.125 197.256  1.00  0.00     0.000 C 
BRANCH  16  17
ATOM     17  C   UNL     1     176.450 206.835 196.579  1.00  0.00     0.000 C 
BRANCH  17  18
ATOM     18  C   UNL     1     177.657 206.231 197.316  1.00  0.00    -0.000 C 
BRANCH  18  19
ATOM     19  C   UNL     1     178.548 207.312 197.964  1.00  0.00    -0.000 C 
BRANCH  19  20
ATOM     20  C   UNL     1     179.925 206.790 198.411  1.00  0.00    -0.000 C 
BRANCH  20  21
ATOM     21  C   UNL     1     180.300 207.232 199.833  1.00  0.00    -0.000 C 
BRANCH  21  22
ATOM     22  C   UNL     1     180.740 206.029 200.681  1.00  0.00    -0.000 C 
BRANCH  22  23
ATOM     23  C   UNL     1     180.446 204.681 200.002  1.00  0.00    -0.000 C 
BRANCH  23  24
ATOM     24  C   UNL     1     179.407 203.848 200.770  1.00  0.00    -0.000 C 
BRANCH  24  25
ATOM     25  C   UNL     1     178.702 202.816 199.874  1.00  0.00    -0.003 C 
ATOM     26  C   UNL     1     177.351 203.306 199.351  1.00  0.00     0.004 C 
ENDBRANCH  24  25
ENDBRANCH  23  24
ENDBRANCH  22  23
ENDBRANCH  21  22
ENDBRANCH  20  21
ENDBRANCH  19  20
ENDBRANCH  18  19
ENDBRANCH  17  18
ENDBRANCH  16  17
ENDBRANCH  15  16
ENDBRANCH   1  15
TORSDOF 22
ENDMDL
MODEL 3
REMARK VINA RESULT:    -1.600      2.104      5.142
REMARK INTER + INTRA:          -8.396
REMARK INTER:                  -4.323
REMARK INTRA:                  -4.073
REMARK UNBOUND:                -4.739
REMARK SMILES CCCCCCCCCCCCCCCCCCCCCCCC(=O)[O-]
REMARK SMILES IDX 13 1 14 2 15 3 16 4 17 5 18 6 19 7 20 8 21 9 22 10 23 11
REMARK SMILES IDX 24 12 25 13 26 14 12 15 11 16 10 17 9 18 8 19 7 20 6 21 5 22
REMARK SMILES IDX 4 23 3 24 2 25 1 26
REMARK H PARENT
REMARK Flexibility Score: inf
ROOT
ATOM      1  C   UNL     1     178.350 207.180 197.033  1.00  0.00     0.000 C 
ENDROOT
BRANCH   1   2
ATOM      2  C   UNL     1     178.235 206.916 198.544  1.00  0.00     0.000 C 
BRANCH   2   3
ATOM      3  C   UNL     1     179.498 207.337 199.317  1.00  0.00     0.000 C 
BRANCH   3   4
ATOM      4  C   UNL     1     179.797 206.416 200.515  1.00  0.00     0.000 C 
BRANCH   4   5
ATOM      5  C   UNL     1     179.350 204.953 200.330  1.00  0.00     0.000 C 
BRANCH   5   6
ATOM      6  C   UNL     1     178.220 204.553 201.294  1.00  0.00     0.000 C 
BRANCH   6   7
ATOM      7  C   UNL     1     177.935 205.635 202.349  1.00  0.00     0.000 C 
BRANCH   7   8
ATOM      8  C   UNL     1     176.485 206.149 202.294  1.00  0.00     0.000 C 
BRANCH   8   9
ATOM      9  C   UNL     1     176.365 207.530 201.626  1.00  0.00     0.000 C 
BRANCH   9  10
ATOM     10  C   UNL     1     174.934 207.937 201.232  1.00  0.00     0.006 C 
BRANCH  10  11
ATOM     11  C   UNL     1     174.206 206.855 200.420  1.00  0.00     0.053 C 
BRANCH  11  12
ATOM     12  C   UNL     1     172.739 206.866 200.720  1.00  0.00     0.041 C 
ATOM     13  O   UNL     1     171.924 206.329 199.924  1.00  0.00    -0.550 OA
ATOM     14  O   UNL     1     172.272 207.457 201.888  1.00  0.00    -0.550 OA
ENDBRANCH  11  12
ENDBRANCH  10  11
ENDBRANCH   9  10
ENDBRANCH   8   9
ENDBRANCH   7   8
ENDBRANCH   6   7
ENDBRANCH   5   6
ENDBRANCH   4   5
ENDBRANCH   3   4
ENDBRANCH   2   3
ENDBRANCH   1   2
BRANCH   1  15
ATOM     15  C   UNL     1     177.086 207.836 196.453  1.00  0.00     0.000 C 
BRANCH  15  16
ATOM     16  C   UNL     1     176.007 208.097 197.518  1.00  0.00     0.000 C 
BRANCH  16  17
ATOM     17  C   UNL     1     174.571 208.125 196.950  1.00  0.00     0.000 C 
BRANCH  17  18
ATOM     18  C   UNL     1     174.553 208.076 195.413  1.00  0.00    -0.000 C 
BRANCH  18  19
ATOM     19  C   UNL     1     173.835 206.820 194.875  1.00  0.00    -0.000 C 
BRANCH  19  20
ATOM     20  C   UNL     1     174.083 205.558 195.721  1.00  0.00    -0.000 C 
BRANCH  20  21
ATOM     21  C   UNL     1     175.102 204.602 195.084  1.00  0.00    -0.000 C 
BRANCH  21  22
ATOM     22  C   UNL     1     176.111 204.104 196.131  1.00  0.00    -0.000 C 
BRANCH  22  23
ATOM     23  C   UNL     1     175.736 204.516 197.564  1.00  0.00    -0.000 C 
BRANCH  23  24
ATOM     24  C   UNL     1     175.897 203.364 198.570  1.00  0.00    -0.000 C 
BRANCH  24  25
ATOM     25  C   UNL     1     176.101 202.005 197.881  1.00  0.00    -0.003 C 
ATOM     26  C   UNL     1     176.091 200.832 198.863  1.00  0.00     0.004 C 
ENDBRANCH  24  25
ENDBRANCH  23  24
ENDBRANCH  22  23
ENDBRANCH  21  22
ENDBRANCH  20  21
ENDBRANCH  19  20
ENDBRANCH  18  19
ENDBRANCH  17  18
ENDBRANCH  16  17
ENDBRANCH  15  16
ENDBRANCH   1  15
TORSDOF 22
ENDMDL
MODEL 4
REMARK VINA RESULT:    -1.596      1.677      4.957
REMARK INTER + INTRA:          -8.386
REMARK INTER:                  -3.739
REMARK INTRA:                  -4.648
REMARK UNBOUND:                -4.739
REMARK SMILES CCCCCCCCCCCCCCCCCCCCCCCC(=O)[O-]
REMARK SMILES IDX 13 1 14 2 15 3 16 4 17 5 18 6 19 7 20 8 21 9 22 10 23 11
REMARK SMILES IDX 24 12 25 13 26 14 12 15 11 16 10 17 9 18 8 19 7 20 6 21 5 22
REMARK SMILES IDX 4 23 3 24 2 25 1 26
REMARK H PARENT
REMARK Flexibility Score: inf
ROOT
ATOM      1  C   UNL     1     175.325 204.170 199.363  1.00  0.00     0.000 C 
ENDROOT
BRANCH   1   2
ATOM      2  C   UNL     1     176.365 203.808 198.290  1.00  0.00     0.000 C 
BRANCH   2   3
ATOM      3  C   UNL     1     177.804 203.799 198.838  1.00  0.00     0.000 C 
BRANCH   3   4
ATOM      4  C   UNL     1     178.768 204.651 197.992  1.00  0.00     0.000 C 
BRANCH   4   5
ATOM      5  C   UNL     1     178.082 205.570 196.963  1.00  0.00     0.000 C 
BRANCH   5   6
ATOM      6  C   UNL     1     178.202 207.060 197.328  1.00  0.00     0.000 C 
BRANCH   6   7
ATOM      7  C   UNL     1     176.858 207.799 197.234  1.00  0.00     0.000 C 
BRANCH   7   8
ATOM      8  C   UNL     1     176.287 207.813 195.804  1.00  0.00     0.000 C 
BRANCH   8   9
ATOM      9  C   UNL     1     175.088 206.863 195.630  1.00  0.00     0.000 C 
BRANCH   9  10
ATOM     10  C   UNL     1     174.232 206.663 196.894  1.00  0.00     0.006 C 
BRANCH  10  11
ATOM     11  C   UNL     1     172.837 207.295 196.779  1.00  0.00     0.053 C 
BRANCH  11  12
ATOM     12  C   UNL     1     171.772 206.246 196.862  1.00  0.00     0.041 C 
ATOM     13  O   UNL     1     171.991 205.167 197.474  1.00  0.00    -0.550 OA
ATOM     14  O   UNL     1     170.532 206.466 196.275  1.00  0.00    -0.550 OA
ENDBRANCH  11  12
ENDBRANCH  10  11
ENDBRANCH   9  10
ENDBRANCH   8   9
ENDBRANCH   7   8
ENDBRANCH   6   7
ENDBRANCH   5   6
ENDBRANCH   4   5
ENDBRANCH   3   4
ENDBRANCH   2   3
ENDBRANCH   1   2
BRANCH   1  15
ATOM     15  C   UNL     1     175.464 203.309 200.630  1.00  0.00     0.000 C 
BRANCH  15  16
ATOM     16  C   UNL     1     174.369 203.598 201.672  1.00  0.00     0.000 C 
BRANCH  16  17
ATOM     17  C   UNL     1     174.781 204.650 202.725  1.00  0.00     0.000 C 
BRANCH  17  18
ATOM     18  C   UNL     1     176.282 204.587 203.054  1.00  0.00    -0.000 C 
BRANCH  18  19
ATOM     19  C   UNL     1     176.982 205.948 202.854  1.00  0.00    -0.000 C 
BRANCH  19  20
ATOM     20  C   UNL     1     177.720 206.071 201.509  1.00  0.00    -0.000 C 
BRANCH  20  21
ATOM     21  C   UNL     1     177.506 207.432 200.831  1.00  0.00    -0.000 C 
BRANCH  21  22
ATOM     22  C   UNL     1     176.205 208.087 201.320  1.00  0.00    -0.000 C 
BRANCH  22  23
ATOM     23  C   UNL     1     174.999 207.758 200.425  1.00  0.00    -0.000 C 
BRANCH  23  24
ATOM     24  C   UNL     1     173.666 207.805 201.191  1.00  0.00    -0.000 C 
BRANCH  24  25
ATOM     25  C   UNL     1     172.552 207.018 200.481  1.00  0.00    -0.003 C 
ATOM     26  C   UNL     1     171.696 206.197 201.446  1.00  0.00     0.004 C 
ENDBRANCH  24  25
ENDBRANCH  23  24
ENDBRANCH  22  23
ENDBRANCH  21  22
ENDBRANCH  20  21
ENDBRANCH  19  20
ENDBRANCH  18  19
ENDBRANCH  17  18
ENDBRANCH  16  17
ENDBRANCH  15  16
ENDBRANCH   1  15
TORSDOF 22
ENDMDL
MODEL 5
REMARK VINA RESULT:    -1.588      1.875      5.540
REMARK INTER + INTRA:          -8.370
REMARK INTER:                  -3.907
REMARK INTRA:                  -4.462
REMARK UNBOUND:                -4.739
REMARK SMILES CCCCCCCCCCCCCCCCCCCCCCCC(=O)[O-]
REMARK SMILES IDX 13 1 14 2 15 3 16 4 17 5 18 6 19 7 20 8 21 9 22 10 23 11
REMARK SMILES IDX 24 12 25 13 26 14 12 15 11 16 10 17 9 18 8 19 7 20 6 21 5 22
REMARK SMILES IDX 4 23 3 24 2 25 1 26
REMARK H PARENT
REMARK Flexibility Score: inf
ROOT
ATOM      1  C   UNL     1     175.948 202.704 199.451  1.00  0.00     0.000 C 
ENDROOT
BRANCH   1   2
ATOM      2  C   UNL     1     176.971 203.854 199.448  1.00  0.00     0.000 C 
BRANCH   2   3
ATOM      3  C   UNL     1     178.411 203.365 199.685  1.00  0.00     0.000 C 
BRANCH   3   4
ATOM      4  C   UNL     1     178.757 203.240 201.180  1.00  0.00     0.000 C 
BRANCH   4   5
ATOM      5  C   UNL     1     180.086 203.901 201.592  1.00  0.00     0.000 C 
BRANCH   5   6
ATOM      6  C   UNL     1     179.964 205.426 201.753  1.00  0.00     0.000 C 
BRANCH   6   7
ATOM      7  C   UNL     1     181.125 206.184 201.089  1.00  0.00     0.000 C 
BRANCH   7   8
ATOM      8  C   UNL     1     180.646 207.194 200.031  1.00  0.00     0.000 C 
BRANCH   8   9
ATOM      9  C   UNL     1     179.118 207.380 200.029  1.00  0.00     0.000 C 
BRANCH   9  10
ATOM     10  C   UNL     1     178.464 207.358 198.636  1.00  0.00     0.006 C 
BRANCH  10  11
ATOM     11  C   UNL     1     179.227 206.484 197.630  1.00  0.00     0.053 C 
BRANCH  11  12
ATOM     12  C   UNL     1     179.348 207.180 196.310  1.00  0.00     0.041 C 
ATOM     13  O   UNL     1     178.327 207.655 195.746  1.00  0.00    -0.550 OA
ATOM     14  O   UNL     1     180.593 207.317 195.707  1.00  0.00    -0.550 OA
ENDBRANCH  11  12
ENDBRANCH  10  11
ENDBRANCH   9  10
ENDBRANCH   8   9
ENDBRANCH   7   8
ENDBRANCH   6   7
ENDBRANCH   5   6
ENDBRANCH   4   5
ENDBRANCH   3   4
ENDBRANCH   2   3
ENDBRANCH   1   2
BRANCH   1  15
ATOM     15  C   UNL     1     174.975 202.787 200.638  1.00  0.00     0.000 C 
BRANCH  15  16
ATOM     16  C   UNL     1     175.514 202.096 201.902  1.00  0.00     0.000 C 
BRANCH  16  17
ATOM     17  C   UNL     1     175.622 203.036 203.123  1.00  0.00     0.000 C 
BRANCH  17  18
ATOM     18  C   UNL     1     175.139 204.460 202.805  1.00  0.00    -0.000 C 
BRANCH  18  19
ATOM     19  C   UNL     1     176.276 205.500 202.904  1.00  0.00    -0.000 C 
BRANCH  19  20
ATOM     20  C   UNL     1     176.321 206.480 201.718  1.00  0.00    -0.000 C 
BRANCH  20  21
ATOM     21  C   UNL     1     174.940 207.045 201.356  1.00  0.00    -0.000 C 
BRANCH  21  22
ATOM     22  C   UNL     1     174.429 206.436 200.042  1.00  0.00    -0.000 C 
BRANCH  22  23
ATOM     23  C   UNL     1     174.748 207.307 198.816  1.00  0.00    -0.000 C 
BRANCH  23  24
ATOM     24  C   UNL     1     175.151 206.474 197.588  1.00  0.00    -0.000 C 
BRANCH  24  25
ATOM     25  C   UNL     1     173.939 206.041 196.747  1.00  0.00    -0.003 C 
ATOM     26  C   UNL     1     173.774 204.523 196.677  1.00  0.00     0.004 C 
ENDBRANCH  24  25
ENDBRANCH  23  24
ENDBRANCH  22  23
ENDBRANCH  21  22
ENDBRANCH  20  21
ENDBRANCH  19  20
ENDBRANCH  18  19
ENDBRANCH  17  18
ENDBRANCH  16  17
ENDBRANCH  15  16
ENDBRANCH   1  15
TORSDOF 22
ENDMDL
MODEL 6
REMARK VINA RESULT:    -1.586      2.148      5.011
REMARK INTER + INTRA:          -8.365
REMARK INTER:                  -3.317
REMARK INTRA:                  -5.047
REMARK UNBOUND:                -4.739
REMARK SMILES CCCCCCCCCCCCCCCCCCCCCCCC(=O)[O-]
REMARK SMILES IDX 13 1 14 2 15 3 16 4 17 5 18 6 19 7 20 8 21 9 22 10 23 11
REMARK SMILES IDX 24 12 25 13 26 14 12 15 11 16 10 17 9 18 8 19 7 20 6 21 5 22
REMARK SMILES IDX 4 23 3 24 2 25 1 26
REMARK H PARENT
REMARK Flexibility Score: inf
ROOT
ATOM      1  C   UNL     1     176.295 203.192 198.471  1.00  0.00     0.000 C 
ENDROOT
BRANCH   1   2
ATOM      2  C   UNL     1     177.560 203.781 199.118  1.00  0.00     0.000 C 
BRANCH   2   3
ATOM      3  C   UNL     1     178.855 203.289 198.445  1.00  0.00     0.000 C 
BRANCH   3   4
ATOM      4  C   UNL     1     180.121 203.893 199.079  1.00  0.00     0.000 C 
BRANCH   4   5
ATOM      5  C   UNL     1     180.058 204.064 200.609  1.00  0.00     0.000 C 
BRANCH   5   6
ATOM      6  C   UNL     1     180.379 202.762 201.363  1.00  0.00     0.000 C 
BRANCH   6   7
ATOM      7  C   UNL     1     179.193 202.257 202.199  1.00  0.00     0.000 C 
BRANCH   7   8
ATOM      8  C   UNL     1     178.298 203.401 202.711  1.00  0.00     0.000 C 
BRANCH   8   9
ATOM      9  C   UNL     1     176.806 203.024 202.743  1.00  0.00     0.000 C 
BRANCH   9  10
ATOM     10  C   UNL     1     176.447 201.736 201.981  1.00  0.00     0.006 C 
BRANCH  10  11
ATOM     11  C   UNL     1     175.044 201.211 202.319  1.00  0.00     0.053 C 
BRANCH  11  12
ATOM     12  C   UNL     1     174.017 202.283 202.124  1.00  0.00     0.041 C 
ATOM     13  O   UNL     1     173.425 202.781 203.118  1.00  0.00    -0.550 OA
ATOM     14  O   UNL     1     173.724 202.742 200.846  1.00  0.00    -0.550 OA
ENDBRANCH  11  12
ENDBRANCH  10  11
ENDBRANCH   9  10
ENDBRANCH   8   9
ENDBRANCH   7   8
ENDBRANCH   6   7
ENDBRANCH   5   6
ENDBRANCH   4   5
ENDBRANCH   3   4
ENDBRANCH   2   3
ENDBRANCH   1   2
BRANCH   1  15
ATOM     15  C   UNL     1     175.240 204.266 198.160  1.00  0.00     0.000 C 
BRANCH  15  16
ATOM     16  C   UNL     1     175.792 205.413 197.296  1.00  0.00     0.000 C 
BRANCH  16  17
ATOM     17  C   UNL     1     175.327 206.812 197.756  1.00  0.00     0.000 C 
BRANCH  17  18
ATOM     18  C   UNL     1     176.474 207.836 197.756  1.00  0.00    -0.000 C 
BRANCH  18  19
ATOM     19  C   UNL     1     177.851 207.173 197.536  1.00  0.00    -0.000 C 
BRANCH  19  20
ATOM     20  C   UNL     1     178.805 207.319 198.735  1.00  0.00    -0.000 C 
BRANCH  20  21
ATOM     21  C   UNL     1     178.123 207.919 199.973  1.00  0.00    -0.000 C 
BRANCH  21  22
ATOM     22  C   UNL     1     177.644 206.811 200.923  1.00  0.00    -0.000 C 
BRANCH  22  23
ATOM     23  C   UNL     1     176.290 207.129 201.577  1.00  0.00    -0.000 C 
BRANCH  23  24
ATOM     24  C   UNL     1     175.273 205.987 201.415  1.00  0.00    -0.000 C 
BRANCH  24  25
ATOM     25  C   UNL     1     173.848 206.500 201.154  1.00  0.00    -0.003 C 
ATOM     26  C   UNL     1     173.779 208.020 201.012  1.00  0.00     0.004 C 
ENDBRANCH  24  25
ENDBRANCH  23  24
ENDBRANCH  22  23
ENDBRANCH  21  22
ENDBRANCH  20  21
ENDBRANCH  19  20
ENDBRANCH  18  19
ENDBRANCH  17  18
ENDBRANCH  16  17
ENDBRANCH  15  16
ENDBRANCH   1  15
TORSDOF 22
ENDMDL
MODEL 7
REMARK VINA RESULT:    -1.572     17.811     20.400
REMARK INTER + INTRA:          -8.333
REMARK INTER:                  -3.769
REMARK INTRA:                  -4.564
REMARK UNBOUND:                -4.739
REMARK SMILES CCCCCCCCCCCCCCCCCCCCCCCC(=O)[O-]
REMARK SMILES IDX 13 1 14 2 15 3 16 4 17 5 18 6 19 7 20 8 21 9 22 10 23 11
REMARK SMILES IDX 24 12 25 13 26 14 12 15 11 16 10 17 9 18 8 19 7 20 6 21 5 22
REMARK SMILES IDX 4 23 3 24 2 25 1 26
REMARK H PARENT
REMARK Flexibility Score: inf
ROOT
ATOM      1  C   UNL     1     166.717 198.599 187.063  1.00  0.00     0.000 C 
ENDROOT
BRANCH   1   2
ATOM      2  C   UNL     1     167.765 198.672 185.939  1.00  0.00     0.000 C 
BRANCH   2   3
ATOM      3  C   UNL     1     167.885 197.353 185.154  1.00  0.00     0.000 C 
BRANCH   3   4
ATOM      4  C   UNL     1     167.343 197.466 183.717  1.00  0.00     0.000 C 
BRANCH   4   5
ATOM      5  C   UNL     1     165.863 197.073 183.554  1.00  0.00     0.000 C 
BRANCH   5   6
ATOM      6  C   UNL     1     165.013 198.205 182.951  1.00  0.00     0.000 C 
BRANCH   6   7
ATOM      7  C   UNL     1     164.679 199.301 183.976  1.00  0.00     0.000 C 
BRANCH   7   8
ATOM      8  C   UNL     1     165.380 200.636 183.666  1.00  0.00     0.000 C 
BRANCH   8   9
ATOM      9  C   UNL     1     165.537 201.531 184.908  1.00  0.00     0.000 C 
BRANCH   9  10
ATOM     10  C   UNL     1     164.370 201.461 185.909  1.00  0.00     0.006 C 
BRANCH  10  11
ATOM     11  C   UNL     1     163.663 202.811 186.100  1.00  0.00     0.053 C 
BRANCH  11  12
ATOM     12  C   UNL     1     162.350 202.626 186.797  1.00  0.00     0.041 C 
ATOM     13  O   UNL     1     162.286 201.958 187.863  1.00  0.00    -0.550 OA
ATOM     14  O   UNL     1     161.199 203.204 186.276  1.00  0.00    -0.550 OA
ENDBRANCH  11  12
ENDBRANCH  10  11
ENDBRANCH   9  10
ENDBRANCH   8   9
ENDBRANCH   7   8
ENDBRANCH   6   7
ENDBRANCH   5   6
ENDBRANCH   4   5
ENDBRANCH   3   4
ENDBRANCH   2   3
ENDBRANCH   1   2
BRANCH   1  15
ATOM     15  C   UNL     1     166.164 197.177 187.258  1.00  0.00     0.000 C 
BRANCH  15  16
ATOM     16  C   UNL     1     164.705 197.165 187.747  1.00  0.00     0.000 C 
BRANCH  16  17
ATOM     17  C   UNL     1     164.012 198.543 187.659  1.00  0.00     0.000 C 
BRANCH  17  18
ATOM     18  C   UNL     1     162.559 198.432 187.170  1.00  0.00    -0.000 C 
BRANCH  18  19
ATOM     19  C   UNL     1     162.006 196.996 187.295  1.00  0.00    -0.000 C 
BRANCH  19  20
ATOM     20  C   UNL     1     161.280 196.502 186.031  1.00  0.00    -0.000 C 
BRANCH  20  21
ATOM     21  C   UNL     1     161.993 196.910 184.734  1.00  0.00    -0.000 C 
BRANCH  21  22
ATOM     22  C   UNL     1     162.379 195.671 183.911  1.00  0.00    -0.000 C 
BRANCH  22  23
ATOM     23  C   UNL     1     162.675 194.442 184.787  1.00  0.00    -0.000 C 
BRANCH  23  24
ATOM     24  C   UNL     1     164.173 194.287 185.100  1.00  0.00    -0.000 C 
BRANCH  24  25
ATOM     25  C   UNL     1     164.424 193.677 186.488  1.00  0.00    -0.003 C 
ATOM     26  C   UNL     1     165.910 193.507 186.804  1.00  0.00     0.004 C 
ENDBRANCH  24  25
ENDBRANCH  23  24
ENDBRANCH  22  23
ENDBRANCH  21  22
ENDBRANCH  20  21
ENDBRANCH  19  20
ENDBRANCH  18  19
ENDBRANCH  17  18
ENDBRANCH  16  17
ENDBRANCH  15  16
ENDBRANCH   1  15
TORSDOF 22
ENDMDL
MODEL 8
REMARK VINA RESULT:    -1.491      2.452      6.062
REMARK INTER + INTRA:          -8.148
REMARK INTER:                  -3.542
REMARK INTRA:                  -4.606
REMARK UNBOUND:                -4.739
REMARK SMILES CCCCCCCCCCCCCCCCCCCCCCCC(=O)[O-]
REMARK SMILES IDX 13 1 14 2 15 3 16 4 17 5 18 6 19 7 20 8 21 9 22 10 23 11
REMARK SMILES IDX 24 12 25 13 26 14 12 15 11 16 10 17 9 18 8 19 7 20 6 21 5 22
REMARK SMILES IDX 4 23 3 24 2 25 1 26
REMARK H PARENT
REMARK Flexibility Score: inf
ROOT
ATOM      1  C   UNL     1     175.608 204.123 197.849  1.00  0.00     0.000 C 
ENDROOT
BRANCH   1   2
ATOM      2  C   UNL     1     176.930 204.234 197.071  1.00  0.00     0.000 C 
BRANCH   2   3
ATOM      3  C   UNL     1     178.156 204.332 197.997  1.00  0.00     0.000 C 
BRANCH   3   4
ATOM      4  C   UNL     1     179.392 203.614 197.424  1.00  0.00     0.000 C 
BRANCH   4   5
ATOM      5  C   UNL     1     180.739 204.281 197.762  1.00  0.00     0.000 C 
BRANCH   5   6
ATOM      6  C   UNL     1     180.638 205.248 198.954  1.00  0.00     0.000 C 
BRANCH   6   7
ATOM      7  C   UNL     1     181.039 206.685 198.582  1.00  0.00     0.000 C 
BRANCH   7   8
ATOM      8  C   UNL     1     181.042 206.926 197.062  1.00  0.00     0.000 C 
BRANCH   8   9
ATOM      9  C   UNL     1     179.653 207.300 196.513  1.00  0.00     0.000 C 
BRANCH   9  10
ATOM     10  C   UNL     1     179.515 207.205 194.983  1.00  0.00     0.006 C 
BRANCH  10  11
ATOM     11  C   UNL     1     178.569 206.081 194.535  1.00  0.00     0.053 C 
BRANCH  11  12
ATOM     12  C   UNL     1     179.303 205.069 193.712  1.00  0.00     0.041 C 
ATOM     13  O   UNL     1     180.416 204.624 194.098  1.00  0.00    -0.550 OA
ATOM     14  O   UNL     1     178.749 204.605 192.524  1.00  0.00    -0.550 OA
ENDBRANCH  11  12
ENDBRANCH  10  11
ENDBRANCH   9  10
ENDBRANCH   8   9
ENDBRANCH   7   8
ENDBRANCH   6   7
ENDBRANCH   5   6
ENDBRANCH   4   5
ENDBRANCH   3   4
ENDBRANCH   2   3
ENDBRANCH   1   2
BRANCH   1  15
ATOM     15  C   UNL     1     175.830 203.910 199.356  1.00  0.00     0.000 C 
BRANCH  15  16
ATOM     16  C   UNL     1     174.531 204.023 200.173  1.00  0.00     0.000 C 
BRANCH  16  17
ATOM     17  C   UNL     1     174.574 205.125 201.253  1.00  0.00     0.000 C 
BRANCH  17  18
ATOM     18  C   UNL     1     175.845 205.045 202.116  1.00  0.00    -0.000 C 
BRANCH  18  19
ATOM     19  C   UNL     1     176.634 206.371 202.120  1.00  0.00    -0.000 C 
BRANCH  19  20
ATOM     20  C   UNL     1     177.899 206.340 201.245  1.00  0.00    -0.000 C 
BRANCH  20  21
ATOM     21  C   UNL     1     177.869 207.377 200.113  1.00  0.00    -0.000 C 
BRANCH  21  22
ATOM     22  C   UNL     1     176.444 207.909 199.897  1.00  0.00    -0.000 C 
BRANCH  22  23
ATOM     23  C   UNL     1     176.105 208.123 198.413  1.00  0.00    -0.000 C 
BRANCH  23  24
ATOM     24  C   UNL     1     174.719 207.574 198.039  1.00  0.00    -0.000 C 
BRANCH  24  25
ATOM     25  C   UNL     1     174.518 207.469 196.519  1.00  0.00    -0.003 C 
ATOM     26  C   UNL     1     175.656 208.108 195.722  1.00  0.00     0.004 C 
ENDBRANCH  24  25
ENDBRANCH  23  24
ENDBRANCH  22  23
ENDBRANCH  21  22
ENDBRANCH  20  21
ENDBRANCH  19  20
ENDBRANCH  18  19
ENDBRANCH  17  18
ENDBRANCH  16  17
ENDBRANCH  15  16
ENDBRANCH   1  15
TORSDOF 22
ENDMDL
