MODEL 1
REMARK VINA RESULT:    -4.700      0.000      0.000
REMARK INTER + INTRA:         -10.957
REMARK INTER:                  -8.821
REMARK INTRA:                  -2.137
REMARK UNBOUND:                -2.137
REMARK SMILES CCCCCCCCC=CCCCCCCCC(=O)[O-]
REMARK SMILES IDX 10 1 9 2 11 3 12 4 13 5 14 6 15 7 16 8 17 9 18 10 19 11
REMARK SMILES IDX 20 12 8 13 7 14 6 15 5 16 4 17 3 18 2 19 1 20
REMARK H PARENT
REMARK Flexibility Score: inf
ROOT
ATOM      1  C   UNL     1       7.514  44.255  16.006  1.00  0.00    -0.031 C 
ATOM      2  C   UNL     1       6.457  45.041  16.261  1.00  0.00    -0.031 C 
ENDROOT
BRANCH   1   3
ATOM      3  C   UNL     1       8.853  44.499  16.648  1.00  0.00     0.027 C 
BRANCH   3   4
ATOM      4  C   UNL     1       9.316  43.325  17.527  1.00  0.00     0.004 C 
BRANCH   4   5
ATOM      5  C   UNL     1       8.356  42.980  18.682  1.00  0.00     0.000 C 
BRANCH   5   6
ATOM      6  C   UNL     1       7.850  41.531  18.627  1.00  0.00     0.000 C 
BRANCH   6   7
ATOM      7  C   UNL     1       6.315  41.486  18.636  1.00  0.00     0.000 C 
BRANCH   7   8
ATOM      8  C   UNL     1       5.683  42.855  18.936  1.00  0.00     0.006 C 
BRANCH   8   9
ATOM      9  C   UNL     1       4.183  42.898  18.621  1.00  0.00     0.053 C 
BRANCH   9  10
ATOM     10  C   UNL     1       3.551  44.098  19.252  1.00  0.00     0.041 C 
ATOM     11  O   UNL     1       3.792  44.384  20.454  1.00  0.00    -0.550 OA
ATOM     12  O   UNL     1       2.659  44.877  18.525  1.00  0.00    -0.550 OA
ENDBRANCH   9  10
ENDBRANCH   8   9
ENDBRANCH   7   8
ENDBRANCH   6   7
ENDBRANCH   5   6
ENDBRANCH   4   5
ENDBRANCH   3   4
ENDBRANCH   1   3
BRANCH   2  13
ATOM     13  C   UNL     1       5.119  44.799  15.613  1.00  0.00     0.027 C 
BRANCH  13  14
ATOM     14  C   UNL     1       5.202  43.777  14.465  1.00  0.00     0.004 C 
BRANCH  14  15
ATOM     15  C   UNL     1       4.241  42.583  14.640  1.00  0.00     0.000 C 
BRANCH  15  16
ATOM     16  C   UNL     1       4.898  41.361  15.314  1.00  0.00     0.000 C 
BRANCH  16  17
ATOM     17  C   UNL     1       4.793  40.060  14.493  1.00  0.00    -0.000 C 
BRANCH  17  18
ATOM     18  C   UNL     1       4.729  40.281  12.967  1.00  0.00    -0.000 C 
BRANCH  18  19
ATOM     19  C   UNL     1       3.350  39.978  12.354  1.00  0.00    -0.003 C 
ATOM     20  C   UNL     1       3.443  39.537  10.892  1.00  0.00     0.004 C 
ENDBRANCH  18  19
ENDBRANCH  17  18
ENDBRANCH  16  17
ENDBRANCH  15  16
ENDBRANCH  14  15
ENDBRANCH  13  14
ENDBRANCH   2  13
TORSDOF 15
ENDMDL
MODEL 2
REMARK VINA RESULT:    -4.544     13.170     15.539
REMARK INTER + INTRA:         -10.665
REMARK INTER:                  -7.893
REMARK INTRA:                  -2.772
REMARK UNBOUND:                -2.137
REMARK SMILES CCCCCCCCC=CCCCCCCCC(=O)[O-]
REMARK SMILES IDX 10 1 9 2 11 3 12 4 13 5 14 6 15 7 16 8 17 9 18 10 19 11
REMARK SMILES IDX 20 12 8 13 7 14 6 15 5 16 4 17 3 18 2 19 1 20
REMARK H PARENT
REMARK Flexibility Score: inf
ROOT
ATOM      1  C   UNL     1       3.793  30.041   7.371  1.00  0.00    -0.031 C 
ATOM      2  C   UNL     1       3.683  29.666   6.088  1.00  0.00    -0.031 C 
ENDROOT
BRANCH   1   3
ATOM      3  C   UNL     1       5.134  30.234   8.027  1.00  0.00     0.027 C 
BRANCH   3   4
ATOM      4  C   UNL     1       5.379  31.688   8.467  1.00  0.00     0.004 C 
BRANCH   4   5
ATOM      5  C   UNL     1       5.582  32.677   7.304  1.00  0.00     0.000 C 
BRANCH   5   6
ATOM      6  C   UNL     1       4.427  33.679   7.162  1.00  0.00     0.000 C 
BRANCH   6   7
ATOM      7  C   UNL     1       3.675  33.464   5.840  1.00  0.00     0.000 C 
BRANCH   7   8
ATOM      8  C   UNL     1       2.163  33.273   6.043  1.00  0.00     0.006 C 
BRANCH   8   9
ATOM      9  C   UNL     1       1.769  33.192   7.523  1.00  0.00     0.053 C 
BRANCH   9  10
ATOM     10  C   UNL     1       0.866  34.328   7.886  1.00  0.00     0.041 C 
ATOM     11  O   UNL     1       0.098  34.236   8.879  1.00  0.00    -0.550 OA
ATOM     12  O   UNL     1       0.839  35.474   7.099  1.00  0.00    -0.550 OA
ENDBRANCH   9  10
ENDBRANCH   8   9
ENDBRANCH   7   8
ENDBRANCH   6   7
ENDBRANCH   5   6
ENDBRANCH   4   5
ENDBRANCH   3   4
ENDBRANCH   1   3
BRANCH   2  13
ATOM     13  C   UNL     1       2.340  29.467   5.437  1.00  0.00     0.027 C 
BRANCH  13  14
ATOM     14  C   UNL     1       2.288  30.048   4.013  1.00  0.00     0.004 C 
BRANCH  14  15
ATOM     15  C   UNL     1       0.976  30.798   3.708  1.00  0.00     0.000 C 
BRANCH  15  16
ATOM     16  C   UNL     1      -0.123  30.569   4.767  1.00  0.00     0.000 C 
BRANCH  16  17
ATOM     17  C   UNL     1      -1.482  31.199   4.407  1.00  0.00    -0.000 C 
BRANCH  17  18
ATOM     18  C   UNL     1      -1.378  32.601   3.767  1.00  0.00    -0.000 C 
BRANCH  18  19
ATOM     19  C   UNL     1      -1.308  33.747   4.792  1.00  0.00    -0.003 C 
ATOM     20  C   UNL     1      -2.191  33.494   6.014  1.00  0.00     0.004 C 
ENDBRANCH  18  19
ENDBRANCH  17  18
ENDBRANCH  16  17
ENDBRANCH  15  16
ENDBRANCH  14  15
ENDBRANCH  13  14
ENDBRANCH   2  13
TORSDOF 15
ENDMDL
MODEL 3
REMARK VINA RESULT:    -4.529     13.837     15.579
REMARK INTER + INTRA:         -10.637
REMARK INTER:                  -7.958
REMARK INTRA:                  -2.679
REMARK UNBOUND:                -2.137
REMARK SMILES CCCCCCCCC=CCCCCCCCC(=O)[O-]
REMARK SMILES IDX 10 1 9 2 11 3 12 4 13 5 14 6 15 7 16 8 17 9 18 10 19 11
REMARK SMILES IDX 20 12 8 13 7 14 6 15 5 16 4 17 3 18 2 19 1 20
REMARK H PARENT
REMARK Flexibility Score: inf
ROOT
ATOM      1  C   UNL     1       5.196  33.731   6.968  1.00  0.00    -0.031 C 
ATOM      2  C   UNL     1       5.769  32.537   7.177  1.00  0.00    -0.031 C 
ENDROOT
BRANCH   1   3
ATOM      3  C   UNL     1       5.292  34.432   5.640  1.00  0.00     0.027 C 
BRANCH   3   4
ATOM      4  C   UNL     1       4.078  34.163   4.734  1.00  0.00     0.004 C 
BRANCH   4   5
ATOM      5  C   UNL     1       3.409  35.433   4.175  1.00  0.00     0.000 C 
BRANCH   5   6
ATOM      6  C   UNL     1       2.091  35.776   4.885  1.00  0.00     0.000 C 
BRANCH   6   7
ATOM      7  C   UNL     1       1.006  34.739   4.559  1.00  0.00     0.000 C 
BRANCH   7   8
ATOM      8  C   UNL     1      -0.232  34.873   5.460  1.00  0.00     0.006 C 
BRANCH   8   9
ATOM      9  C   UNL     1      -1.305  33.822   5.153  1.00  0.00     0.053 C 
BRANCH   9  10
ATOM     10  C   UNL     1      -2.188  34.287   4.039  1.00  0.00     0.041 C 
ATOM     11  O   UNL     1      -2.531  33.489   3.126  1.00  0.00    -0.550 OA
ATOM     12  O   UNL     1      -2.596  35.614   3.982  1.00  0.00    -0.550 OA
ENDBRANCH   9  10
ENDBRANCH   8   9
ENDBRANCH   7   8
ENDBRANCH   6   7
ENDBRANCH   5   6
ENDBRANCH   4   5
ENDBRANCH   3   4
ENDBRANCH   1   3
BRANCH   2  13
ATOM     13  C   UNL     1       5.677  31.841   8.510  1.00  0.00     0.027 C 
BRANCH  13  14
ATOM     14  C   UNL     1       4.936  30.495   8.417  1.00  0.00     0.004 C 
BRANCH  14  15
ATOM     15  C   UNL     1       4.974  29.874   7.007  1.00  0.00     0.000 C 
BRANCH  15  16
ATOM     16  C   UNL     1       3.588  29.426   6.497  1.00  0.00     0.000 C 
BRANCH  16  17
ATOM     17  C   UNL     1       3.109  30.179   5.240  1.00  0.00    -0.000 C 
BRANCH  17  18
ATOM     18  C   UNL     1       2.143  31.347   5.534  1.00  0.00    -0.000 C 
BRANCH  18  19
ATOM     19  C   UNL     1       1.574  31.336   6.964  1.00  0.00    -0.003 C 
ATOM     20  C   UNL     1       1.798  32.661   7.693  1.00  0.00     0.004 C 
ENDBRANCH  18  19
ENDBRANCH  17  18
ENDBRANCH  16  17
ENDBRANCH  15  16
ENDBRANCH  14  15
ENDBRANCH  13  14
ENDBRANCH   2  13
TORSDOF 15
ENDMDL
MODEL 4
REMARK VINA RESULT:    -4.526     13.650     15.589
REMARK INTER + INTRA:         -10.632
REMARK INTER:                  -7.872
REMARK INTRA:                  -2.760
REMARK UNBOUND:                -2.137
REMARK SMILES CCCCCCCCC=CCCCCCCCC(=O)[O-]
REMARK SMILES IDX 10 1 9 2 11 3 12 4 13 5 14 6 15 7 16 8 17 9 18 10 19 11
REMARK SMILES IDX 20 12 8 13 7 14 6 15 5 16 4 17 3 18 2 19 1 20
REMARK H PARENT
REMARK Flexibility Score: inf
ROOT
ATOM      1  C   UNL     1       2.858  35.564   4.974  1.00  0.00    -0.031 C 
ATOM      2  C   UNL     1       3.499  35.036   3.921  1.00  0.00    -0.031 C 
ENDROOT
BRANCH   1   3
ATOM      3  C   UNL     1       1.446  36.073   4.866  1.00  0.00     0.027 C 
BRANCH   3   4
ATOM      4  C   UNL     1       0.500  35.425   5.892  1.00  0.00     0.004 C 
BRANCH   4   5
ATOM      5  C   UNL     1       0.106  33.973   5.564  1.00  0.00     0.000 C 
BRANCH   5   6
ATOM      6  C   UNL     1      -0.171  33.751   4.070  1.00  0.00     0.000 C 
BRANCH   6   7
ATOM      7  C   UNL     1      -1.577  33.173   3.853  1.00  0.00     0.000 C 
BRANCH   7   8
ATOM      8  C   UNL     1      -2.541  34.185   3.213  1.00  0.00     0.006 C 
BRANCH   8   9
ATOM      9  C   UNL     1      -1.893  35.555   2.980  1.00  0.00     0.053 C 
BRANCH   9  10
ATOM     10  C   UNL     1      -2.567  36.600   3.811  1.00  0.00     0.041 C 
ATOM     11  O   UNL     1      -2.831  36.375   5.022  1.00  0.00    -0.550 OA
ATOM     12  O   UNL     1      -2.947  37.808   3.237  1.00  0.00    -0.550 OA
ENDBRANCH   9  10
ENDBRANCH   8   9
ENDBRANCH   7   8
ENDBRANCH   6   7
ENDBRANCH   5   6
ENDBRANCH   4   5
ENDBRANCH   3   4
ENDBRANCH   1   3
BRANCH   2  13
ATOM     13  C   UNL     1       4.915  34.534   4.030  1.00  0.00     0.027 C 
BRANCH  13  14
ATOM     14  C   UNL     1       5.501  34.737   5.438  1.00  0.00     0.004 C 
BRANCH  14  15
ATOM     15  C   UNL     1       6.407  33.576   5.895  1.00  0.00     0.000 C 
BRANCH  15  16
ATOM     16  C   UNL     1       5.758  32.678   6.968  1.00  0.00     0.000 C 
BRANCH  16  17
ATOM     17  C   UNL     1       4.477  33.269   7.591  1.00  0.00    -0.000 C 
BRANCH  17  18
ATOM     18  C   UNL     1       3.183  32.526   7.196  1.00  0.00    -0.000 C 
BRANCH  18  19
ATOM     19  C   UNL     1       3.416  31.335   6.249  1.00  0.00    -0.003 C 
ATOM     20  C   UNL     1       2.789  31.552   4.871  1.00  0.00     0.004 C 
ENDBRANCH  18  19
ENDBRANCH  17  18
ENDBRANCH  16  17
ENDBRANCH  15  16
ENDBRANCH  14  15
ENDBRANCH  13  14
ENDBRANCH   2  13
TORSDOF 15
ENDMDL
MODEL 5
REMARK VINA RESULT:    -4.517     13.339     15.684
REMARK INTER + INTRA:         -10.614
REMARK INTER:                  -8.171
REMARK INTRA:                  -2.443
REMARK UNBOUND:                -2.137
REMARK SMILES CCCCCCCCC=CCCCCCCCC(=O)[O-]
REMARK SMILES IDX 10 1 9 2 11 3 12 4 13 5 14 6 15 7 16 8 17 9 18 10 19 11
REMARK SMILES IDX 20 12 8 13 7 14 6 15 5 16 4 17 3 18 2 19 1 20
REMARK H PARENT
REMARK Flexibility Score: inf
ROOT
ATOM      1  C   UNL     1       1.514  32.944   7.461  1.00  0.00    -0.031 C 
ATOM      2  C   UNL     1       0.906  32.152   6.565  1.00  0.00    -0.031 C 
ENDROOT
BRANCH   1   3
ATOM      3  C   UNL     1       1.548  34.440   7.300  1.00  0.00     0.027 C 
BRANCH   3   4
ATOM      4  C   UNL     1       2.960  34.976   7.008  1.00  0.00     0.004 C 
BRANCH   4   5
ATOM      5  C   UNL     1       3.187  35.405   5.546  1.00  0.00     0.000 C 
BRANCH   5   6
ATOM      6  C   UNL     1       3.184  34.222   4.567  1.00  0.00     0.000 C 
BRANCH   6   7
ATOM      7  C   UNL     1       4.616  33.838   4.167  1.00  0.00     0.000 C 
BRANCH   7   8
ATOM      8  C   UNL     1       5.675  34.746   4.812  1.00  0.00     0.006 C 
BRANCH   8   9
ATOM      9  C   UNL     1       7.025  34.042   4.999  1.00  0.00     0.053 C 
BRANCH   9  10
ATOM     10  C   UNL     1       7.929  34.330   3.843  1.00  0.00     0.041 C 
ATOM     11  O   UNL     1       8.196  33.427   3.006  1.00  0.00    -0.550 OA
ATOM     12  O   UNL     1       8.513  35.584   3.712  1.00  0.00    -0.550 OA
ENDBRANCH   9  10
ENDBRANCH   8   9
ENDBRANCH   7   8
ENDBRANCH   6   7
ENDBRANCH   5   6
ENDBRANCH   4   5
ENDBRANCH   3   4
ENDBRANCH   1   3
BRANCH   2  13
ATOM     13  C   UNL     1       0.880  30.655   6.726  1.00  0.00     0.027 C 
BRANCH  13  14
ATOM     14  C   UNL     1       1.528  29.927   5.535  1.00  0.00     0.004 C 
BRANCH  14  15
ATOM     15  C   UNL     1       3.030  30.235   5.376  1.00  0.00     0.000 C 
BRANCH  15  16
ATOM     16  C   UNL     1       3.933  29.364   6.274  1.00  0.00     0.000 C 
BRANCH  16  17
ATOM     17  C   UNL     1       4.757  30.165   7.301  1.00  0.00    -0.000 C 
BRANCH  17  18
ATOM     18  C   UNL     1       4.781  31.687   7.041  1.00  0.00    -0.000 C 
BRANCH  18  19
ATOM     19  C   UNL     1       5.589  32.481   8.083  1.00  0.00    -0.003 C 
ATOM     20  C   UNL     1       5.803  31.698   9.378  1.00  0.00     0.004 C 
ENDBRANCH  18  19
ENDBRANCH  17  18
ENDBRANCH  16  17
ENDBRANCH  15  16
ENDBRANCH  14  15
ENDBRANCH  13  14
ENDBRANCH   2  13
TORSDOF 15
ENDMDL
MODEL 6
REMARK VINA RESULT:    -4.493     13.311     16.192
REMARK INTER + INTRA:         -10.569
REMARK INTER:                  -8.620
REMARK INTRA:                  -1.949
REMARK UNBOUND:                -2.137
REMARK SMILES CCCCCCCCC=CCCCCCCCC(=O)[O-]
REMARK SMILES IDX 10 1 9 2 11 3 12 4 13 5 14 6 15 7 16 8 17 9 18 10 19 11
REMARK SMILES IDX 20 12 8 13 7 14 6 15 5 16 4 17 3 18 2 19 1 20
REMARK H PARENT
REMARK Flexibility Score: inf
ROOT
ATOM      1  C   UNL     1       4.975  30.161   7.391  1.00  0.00    -0.031 C 
ATOM      2  C   UNL     1       3.720  29.898   6.999  1.00  0.00    -0.031 C 
ENDROOT
BRANCH   1   3
ATOM      3  C   UNL     1       5.263  30.951   8.640  1.00  0.00     0.027 C 
BRANCH   3   4
ATOM      4  C   UNL     1       5.242  32.471   8.401  1.00  0.00     0.004 C 
BRANCH   4   5
ATOM      5  C   UNL     1       5.719  32.901   7.001  1.00  0.00     0.000 C 
BRANCH   5   6
ATOM      6  C   UNL     1       4.588  33.467   6.131  1.00  0.00     0.000 C 
BRANCH   6   7
ATOM      7  C   UNL     1       3.332  33.737   6.972  1.00  0.00     0.000 C 
BRANCH   7   8
ATOM      8  C   UNL     1       2.050  33.201   6.313  1.00  0.00     0.006 C 
BRANCH   8   9
ATOM      9  C   UNL     1       1.129  32.484   7.307  1.00  0.00     0.053 C 
BRANCH   9  10
ATOM     10  C   UNL     1       0.022  33.392   7.742  1.00  0.00     0.041 C 
ATOM     11  O   UNL     1      -1.133  33.260   7.259  1.00  0.00    -0.550 OA
ATOM     12  O   UNL     1       0.277  34.414   8.648  1.00  0.00    -0.550 OA
ENDBRANCH   9  10
ENDBRANCH   8   9
ENDBRANCH   7   8
ENDBRANCH   6   7
ENDBRANCH   5   6
ENDBRANCH   4   5
ENDBRANCH   3   4
ENDBRANCH   1   3
BRANCH   2  13
ATOM     13  C   UNL     1       3.434  29.114   5.745  1.00  0.00     0.027 C 
BRANCH  13  14
ATOM     14  C   UNL     1       2.286  29.724   4.922  1.00  0.00     0.004 C 
BRANCH  14  15
ATOM     15  C   UNL     1       0.894  29.214   5.345  1.00  0.00     0.000 C 
BRANCH  15  16
ATOM     16  C   UNL     1      -0.150  29.265   4.210  1.00  0.00     0.000 C 
BRANCH  16  17
ATOM     17  C   UNL     1      -1.110  30.467   4.293  1.00  0.00    -0.000 C 
BRANCH  17  18
ATOM     18  C   UNL     1      -2.531  30.177   3.764  1.00  0.00    -0.000 C 
BRANCH  18  19
ATOM     19  C   UNL     1      -2.635  28.877   2.947  1.00  0.00    -0.003 C 
ATOM     20  C   UNL     1      -3.911  28.093   3.255  1.00  0.00     0.004 C 
ENDBRANCH  18  19
ENDBRANCH  17  18
ENDBRANCH  16  17
ENDBRANCH  15  16
ENDBRANCH  14  15
ENDBRANCH  13  14
ENDBRANCH   2  13
TORSDOF 15
ENDMDL
MODEL 7
REMARK VINA RESULT:    -4.480     13.332     15.345
REMARK INTER + INTRA:         -10.545
REMARK INTER:                  -7.618
REMARK INTRA:                  -2.927
REMARK UNBOUND:                -2.137
REMARK SMILES CCCCCCCCC=CCCCCCCCC(=O)[O-]
REMARK SMILES IDX 10 1 9 2 11 3 12 4 13 5 14 6 15 7 16 8 17 9 18 10 19 11
REMARK SMILES IDX 20 12 8 13 7 14 6 15 5 16 4 17 3 18 2 19 1 20
REMARK H PARENT
REMARK Flexibility Score: inf
ROOT
ATOM      1  C   UNL     1       5.550  32.161   7.717  1.00  0.00    -0.031 C 
ATOM      2  C   UNL     1       4.679  33.180   7.759  1.00  0.00    -0.031 C 
ENDROOT
BRANCH   1   3
ATOM      3  C   UNL     1       5.410  30.964   8.619  1.00  0.00     0.027 C 
BRANCH   3   4
ATOM      4  C   UNL     1       4.424  29.918   8.071  1.00  0.00     0.004 C 
BRANCH   4   5
ATOM      5  C   UNL     1       4.534  29.675   6.553  1.00  0.00     0.000 C 
BRANCH   5   6
ATOM      6  C   UNL     1       3.200  29.871   5.818  1.00  0.00     0.000 C 
BRANCH   6   7
ATOM      7  C   UNL     1       2.190  30.616   6.703  1.00  0.00     0.000 C 
BRANCH   7   8
ATOM      8  C   UNL     1       1.751  31.960   6.099  1.00  0.00     0.006 C 
BRANCH   8   9
ATOM      9  C   UNL     1       1.090  31.804   4.725  1.00  0.00     0.053 C 
BRANCH   9  10
ATOM     10  C   UNL     1      -0.359  31.464   4.878  1.00  0.00     0.041 C 
ATOM     11  O   UNL     1      -0.803  30.369   4.443  1.00  0.00    -0.550 OA
ATOM     12  O   UNL     1      -1.230  32.377   5.461  1.00  0.00    -0.550 OA
ENDBRANCH   9  10
ENDBRANCH   8   9
ENDBRANCH   7   8
ENDBRANCH   6   7
ENDBRANCH   5   6
ENDBRANCH   4   5
ENDBRANCH   3   4
ENDBRANCH   1   3
BRANCH   2  13
ATOM     13  C   UNL     1       4.826  34.380   6.861  1.00  0.00     0.027 C 
BRANCH  13  14
ATOM     14  C   UNL     1       4.761  34.006   5.370  1.00  0.00     0.004 C 
BRANCH  14  15
ATOM     15  C   UNL     1       3.658  34.759   4.599  1.00  0.00     0.000 C 
BRANCH  15  16
ATOM     16  C   UNL     1       2.773  35.642   5.502  1.00  0.00     0.000 C 
BRANCH  16  17
ATOM     17  C   UNL     1       1.292  35.687   5.077  1.00  0.00    -0.000 C 
BRANCH  17  18
ATOM     18  C   UNL     1       0.296  35.464   6.236  1.00  0.00    -0.000 C 
BRANCH  18  19
ATOM     19  C   UNL     1       0.970  35.287   7.608  1.00  0.00    -0.003 C 
ATOM     20  C   UNL     1       0.245  34.270   8.490  1.00  0.00     0.004 C 
ENDBRANCH  18  19
ENDBRANCH  17  18
ENDBRANCH  16  17
ENDBRANCH  15  16
ENDBRANCH  14  15
ENDBRANCH  13  14
ENDBRANCH   2  13
TORSDOF 15
ENDMDL
MODEL 8
REMARK VINA RESULT:    -4.458     12.706     15.674
REMARK INTER + INTRA:         -10.503
REMARK INTER:                  -7.855
REMARK INTRA:                  -2.648
REMARK UNBOUND:                -2.137
REMARK SMILES CCCCCCCCC=CCCCCCCCC(=O)[O-]
REMARK SMILES IDX 10 1 9 2 11 3 12 4 13 5 14 6 15 7 16 8 17 9 18 10 19 11
REMARK SMILES IDX 20 12 8 13 7 14 6 15 5 16 4 17 3 18 2 19 1 20
REMARK H PARENT
REMARK Flexibility Score: inf
ROOT
ATOM      1  C   UNL     1       0.609  34.261   7.009  1.00  0.00    -0.031 C 
ATOM      2  C   UNL     1       1.053  34.896   5.914  1.00  0.00    -0.031 C 
ENDROOT
BRANCH   1   3
ATOM      3  C   UNL     1      -0.572  33.329   6.957  1.00  0.00     0.027 C 
BRANCH   3   4
ATOM      4  C   UNL     1      -0.403  32.210   5.915  1.00  0.00     0.004 C 
BRANCH   4   5
ATOM      5  C   UNL     1      -1.509  32.169   4.843  1.00  0.00     0.000 C 
BRANCH   5   6
ATOM      6  C   UNL     1      -2.226  33.516   4.671  1.00  0.00     0.000 C 
BRANCH   6   7
ATOM      7  C   UNL     1      -2.138  34.003   3.217  1.00  0.00     0.000 C 
BRANCH   7   8
ATOM      8  C   UNL     1      -1.967  35.527   3.111  1.00  0.00     0.006 C 
BRANCH   8   9
ATOM      9  C   UNL     1      -2.353  36.257   4.402  1.00  0.00     0.053 C 
BRANCH   9  10
ATOM     10  C   UNL     1      -3.365  37.322   4.117  1.00  0.00     0.041 C 
ATOM     11  O   UNL     1      -3.125  38.213   3.260  1.00  0.00    -0.550 OA
ATOM     12  O   UNL     1      -4.557  37.358   4.831  1.00  0.00    -0.550 OA
ENDBRANCH   9  10
ENDBRANCH   8   9
ENDBRANCH   7   8
ENDBRANCH   6   7
ENDBRANCH   5   6
ENDBRANCH   4   5
ENDBRANCH   3   4
ENDBRANCH   1   3
BRANCH   2  13
ATOM     13  C   UNL     1       2.231  35.833   5.970  1.00  0.00     0.027 C 
BRANCH  13  14
ATOM     14  C   UNL     1       2.967  35.769   7.320  1.00  0.00     0.004 C 
BRANCH  14  15
ATOM     15  C   UNL     1       4.316  35.026   7.245  1.00  0.00     0.000 C 
BRANCH  15  16
ATOM     16  C   UNL     1       4.191  33.503   7.462  1.00  0.00     0.000 C 
BRANCH  16  17
ATOM     17  C   UNL     1       4.519  32.662   6.213  1.00  0.00    -0.000 C 
BRANCH  17  18
ATOM     18  C   UNL     1       3.317  31.873   5.650  1.00  0.00    -0.000 C 
BRANCH  18  19
ATOM     19  C   UNL     1       2.846  32.363   4.269  1.00  0.00    -0.003 C 
ATOM     20  C   UNL     1       3.821  33.358   3.637  1.00  0.00     0.004 C 
ENDBRANCH  18  19
ENDBRANCH  17  18
ENDBRANCH  16  17
ENDBRANCH  15  16
ENDBRANCH  14  15
ENDBRANCH  13  14
ENDBRANCH   2  13
TORSDOF 15
ENDMDL
MODEL 9
REMARK VINA RESULT:    -4.453     13.038     15.414
REMARK INTER + INTRA:         -10.494
REMARK INTER:                  -7.517
REMARK INTRA:                  -2.977
REMARK UNBOUND:                -2.137
REMARK SMILES CCCCCCCCC=CCCCCCCCC(=O)[O-]
REMARK SMILES IDX 10 1 9 2 11 3 12 4 13 5 14 6 15 7 16 8 17 9 18 10 19 11
REMARK SMILES IDX 20 12 8 13 7 14 6 15 5 16 4 17 3 18 2 19 1 20
REMARK H PARENT
REMARK Flexibility Score: inf
ROOT
ATOM      1  C   UNL     1       2.003  33.027   3.812  1.00  0.00    -0.031 C 
ATOM      2  C   UNL     1       2.614  32.027   4.464  1.00  0.00    -0.031 C 
ENDROOT
BRANCH   1   3
ATOM      3  C   UNL     1       2.742  34.272   3.402  1.00  0.00     0.027 C 
BRANCH   3   4
ATOM      4  C   UNL     1       3.605  34.853   4.536  1.00  0.00     0.004 C 
BRANCH   4   5
ATOM      5  C   UNL     1       2.798  35.481   5.689  1.00  0.00     0.000 C 
BRANCH   5   6
ATOM      6  C   UNL     1       3.406  35.195   7.069  1.00  0.00     0.000 C 
BRANCH   6   7
ATOM      7  C   UNL     1       4.595  34.230   6.956  1.00  0.00     0.000 C 
BRANCH   7   8
ATOM      8  C   UNL     1       4.333  32.882   7.647  1.00  0.00     0.006 C 
BRANCH   8   9
ATOM      9  C   UNL     1       5.306  31.786   7.197  1.00  0.00     0.053 C 
BRANCH   9  10
ATOM     10  C   UNL     1       4.950  30.479   7.831  1.00  0.00     0.041 C 
ATOM     11  O   UNL     1       4.240  29.644   7.210  1.00  0.00    -0.550 OA
ATOM     12  O   UNL     1       5.365  30.199   9.128  1.00  0.00    -0.550 OA
ENDBRANCH   9  10
ENDBRANCH   8   9
ENDBRANCH   7   8
ENDBRANCH   6   7
ENDBRANCH   5   6
ENDBRANCH   4   5
ENDBRANCH   3   4
ENDBRANCH   1   3
BRANCH   2  13
ATOM     13  C   UNL     1       1.869  30.785   4.880  1.00  0.00     0.027 C 
BRANCH  13  14
ATOM     14  C   UNL     1       0.581  31.108   5.657  1.00  0.00     0.004 C 
BRANCH  14  15
ATOM     15  C   UNL     1       0.845  31.637   7.081  1.00  0.00     0.000 C 
BRANCH  15  16
ATOM     16  C   UNL     1       0.435  33.112   7.273  1.00  0.00     0.000 C 
BRANCH  16  17
ATOM     17  C   UNL     1      -1.032  33.306   7.703  1.00  0.00    -0.000 C 
BRANCH  17  18
ATOM     18  C   UNL     1      -1.989  33.656   6.543  1.00  0.00    -0.000 C 
BRANCH  18  19
ATOM     19  C   UNL     1      -1.313  34.419   5.391  1.00  0.00    -0.003 C 
ATOM     20  C   UNL     1      -1.601  33.793   4.025  1.00  0.00     0.004 C 
ENDBRANCH  18  19
ENDBRANCH  17  18
ENDBRANCH  16  17
ENDBRANCH  15  16
ENDBRANCH  14  15
ENDBRANCH  13  14
ENDBRANCH   2  13
TORSDOF 15
ENDMDL
