MODEL 1
REMARK VINA RESULT:    -3.665      0.000      0.000
REMARK INTER + INTRA:          -4.441
REMARK INTER:                  -5.272
REMARK INTRA:                   0.831
REMARK UNBOUND:                 0.831
REMARK SMILES O=c1c(O[C@H]2O[C@@H](CO)[C@@H](O)[C@H](O)[C@@H]2O)c(-c2ccc(O)cc2)oc2cc(O)cc(O)c12
REMARK SMILES IDX 4 1 3 2 16 3 24 4 2 5 25 6 1 7 32 8 26 9 30 10 27 11 29 12
REMARK SMILES IDX 17 13 18 14 19 15 20 16 23 17 22 18 21 19 31 21 28 23 5 25
REMARK SMILES IDX 14 26 6 27 12 28 7 29 10 30 15 31 13 33 8 35 9 36 11 38
REMARK H PARENT 21 20 31 22 28 24 15 32 13 34 9 37 11 39
REMARK Flexibility Score: inf
ROOT
ATOM      1  O   UNL     1     -14.672  13.896  10.057  1.00  0.00    -0.454 OA
ENDROOT
BRANCH   1   2
ATOM      2  C   UNL     1     -14.107  14.509  11.199  1.00  0.00     0.214 A 
ATOM      3  C   UNL     1     -12.772  14.965  11.211  1.00  0.00     0.180 A 
ATOM      4  O   UNL     1     -12.230  15.429  12.354  1.00  0.00    -0.452 OA
ATOM      5  C   UNL     1     -14.814  14.451  12.397  1.00  0.00     0.239 A 
ATOM      6  C   UNL     1     -12.886  15.440  13.498  1.00  0.00     0.146 A 
ATOM      7  O   UNL     1     -16.033  14.114  12.427  1.00  0.00    -0.285 OA
ATOM      8  C   UNL     1     -14.151  14.835  13.608  1.00  0.00     0.111 A 
ATOM      9  C   UNL     1     -12.309  16.049  14.598  1.00  0.00     0.094 A 
ATOM     10  C   UNL     1     -14.724  14.644  14.939  1.00  0.00     0.134 A 
ATOM     11  C   UNL     1     -12.964  16.075  15.833  1.00  0.00     0.123 A 
ATOM     12  C   UNL     1     -14.091  15.261  16.033  1.00  0.00     0.093 A 
BRANCH   3  13
ATOM     13  C   UNL     1     -11.915  14.950  10.000  1.00  0.00     0.021 A 
ATOM     14  C   UNL     1     -12.108  13.883   9.127  1.00  0.00     0.016 A 
ATOM     15  C   UNL     1     -12.179  14.124   7.700  1.00  0.00     0.047 A 
ATOM     16  C   UNL     1     -12.442  15.427   7.267  1.00  0.00     0.115 A 
ATOM     17  C   UNL     1     -11.875  16.218   9.447  1.00  0.00     0.016 A 
ATOM     18  C   UNL     1     -12.520  16.459   8.227  1.00  0.00     0.047 A 
BRANCH  16  19
ATOM     19  O   UNL     1     -12.548  15.723   5.907  1.00  0.00    -0.508 OA
ATOM     20  H   UNL     1     -12.018  15.191   5.193  1.00  0.00     0.293 HD
ENDBRANCH  16  19
ENDBRANCH   3  13
BRANCH  10  21
ATOM     21  O   UNL     1     -15.945  13.950  15.154  1.00  0.00    -0.507 OA
ATOM     22  H   UNL     1     -16.843  14.414  14.985  1.00  0.00     0.293 HD
ENDBRANCH  10  21
BRANCH  11  23
ATOM     23  O   UNL     1     -12.441  16.815  16.902  1.00  0.00    -0.508 OA
ATOM     24  H   UNL     1     -11.434  16.788  17.100  1.00  0.00     0.293 HD
ENDBRANCH  11  23
ENDBRANCH   1   2
BRANCH   1  25
ATOM     25  C   UNL     1     -15.185  14.764   9.090  1.00  0.00     0.339 C 
ATOM     26  C   UNL     1     -16.340  15.698   9.650  1.00  0.00     0.214 C 
ATOM     27  O   UNL     1     -15.626  14.015   7.976  1.00  0.00    -0.332 OA
ATOM     28  C   UNL     1     -17.185  16.134   8.425  1.00  0.00     0.180 C 
ATOM     29  C   UNL     1     -15.749  14.841   6.838  1.00  0.00     0.179 C 
ATOM     30  C   UNL     1     -16.265  16.308   7.205  1.00  0.00     0.177 C 
BRANCH  26  31
ATOM     31  O   UNL     1     -15.822  16.844  10.285  1.00  0.00    -0.384 OA
ATOM     32  H   UNL     1     -15.006  16.591  10.830  1.00  0.00     0.211 HD
ENDBRANCH  26  31
BRANCH  28  33
ATOM     33  O   UNL     1     -17.992  17.283   8.659  1.00  0.00    -0.387 OA
ATOM     34  H   UNL     1     -18.878  16.987   9.041  1.00  0.00     0.211 HD
ENDBRANCH  28  33
BRANCH  29  35
ATOM     35  C   UNL     1     -16.782  14.119   5.894  1.00  0.00     0.191 C 
BRANCH  35  36
ATOM     36  O   UNL     1     -18.098  14.302   6.398  1.00  0.00    -0.394 OA
ATOM     37  H   UNL     1     -18.166  15.276   6.388  1.00  0.00     0.210 HD
ENDBRANCH  35  36
ENDBRANCH  29  35
BRANCH  30  38
ATOM     38  O   UNL     1     -16.923  16.902   6.117  1.00  0.00    -0.387 OA
ATOM     39  H   UNL     1     -16.285  17.527   5.628  1.00  0.00     0.211 HD
ENDBRANCH  30  38
ENDBRANCH   1  25
TORSDOF 11
ENDMDL
