MODEL 1
REMARK VINA RESULT:    -4.371      0.000      0.000
REMARK INTER + INTRA:          -5.509
REMARK INTER:                  -5.266
REMARK INTRA:                  -0.244
REMARK UNBOUND:                -0.244
REMARK SMILES O=c1c(O)c(-c2ccc(O)c(O)c2)oc2cc(O)cc(O)c12
REMARK SMILES IDX 5 1 3 2 2 3 1 4 22 5 20 6 19 7 17 8 16 9 15 10 14 11 6 12
REMARK SMILES IDX 7 13 8 14 9 15 13 16 11 17 10 18 12 20 4 22 21 24 18 26
REMARK H PARENT 10 19 12 21 4 23 21 25 18 27
REMARK Flexibility Score: inf
ROOT
ATOM      1  C   UNL     1     -22.243  35.187  21.961  1.00  0.00     0.180 A 
ATOM      2  C   UNL     1     -23.043  34.335  21.181  1.00  0.00     0.208 A 
ATOM      3  C   UNL     1     -22.726  32.968  21.121  1.00  0.00     0.238 A 
ATOM      4  O   UNL     1     -23.490  32.199  20.482  1.00  0.00    -0.285 OA
ATOM      5  C   UNL     1     -21.581  32.480  21.797  1.00  0.00     0.111 A 
ATOM      6  C   UNL     1     -21.139  31.122  21.769  1.00  0.00     0.134 A 
ATOM      7  C   UNL     1     -20.052  30.734  22.561  1.00  0.00     0.093 A 
ATOM      8  C   UNL     1     -19.352  31.666  23.332  1.00  0.00     0.123 A 
ATOM      9  C   UNL     1     -19.741  33.002  23.322  1.00  0.00     0.094 A 
ATOM     10  C   UNL     1     -20.845  33.414  22.572  1.00  0.00     0.146 A 
ATOM     11  O   UNL     1     -21.195  34.695  22.609  1.00  0.00    -0.452 OA
ENDROOT
BRANCH   1  12
ATOM     12  C   UNL     1     -22.522  36.636  22.084  1.00  0.00     0.025 A 
ATOM     13  C   UNL     1     -23.097  37.129  23.265  1.00  0.00     0.016 A 
ATOM     14  C   UNL     1     -23.389  38.490  23.395  1.00  0.00     0.051 A 
ATOM     15  C   UNL     1     -23.126  39.373  22.345  1.00  0.00     0.157 A 
ATOM     16  C   UNL     1     -22.277  37.523  21.020  1.00  0.00     0.062 A 
ATOM     17  C   UNL     1     -22.571  38.888  21.148  1.00  0.00     0.158 A 
BRANCH  15  18
ATOM     18  O   UNL     1     -23.425  40.725  22.505  1.00  0.00    -0.504 OA
ATOM     19  H   UNL     1     -24.338  41.042  22.810  1.00  0.00     0.293 HD
ENDBRANCH  15  18
BRANCH  17  20
ATOM     20  O   UNL     1     -22.320  39.761  20.091  1.00  0.00    -0.504 OA
ATOM     21  H   UNL     1     -22.258  40.763  20.232  1.00  0.00     0.293 HD
ENDBRANCH  17  20
ENDBRANCH   1  12
BRANCH   2  22
ATOM     22  O   UNL     1     -24.125  34.849  20.460  1.00  0.00    -0.502 OA
ATOM     23  H   UNL     1     -24.889  34.269  20.137  1.00  0.00     0.293 HD
ENDBRANCH   2  22
BRANCH   6  24
ATOM     24  O   UNL     1     -21.710  30.128  20.968  1.00  0.00    -0.507 OA
ATOM     25  H   UNL     1     -21.304  29.221  20.795  1.00  0.00     0.293 HD
ENDBRANCH   6  24
BRANCH   8  26
ATOM     26  O   UNL     1     -18.261  31.274  24.104  1.00  0.00    -0.508 OA
ATOM     27  H   UNL     1     -18.221  31.461  25.100  1.00  0.00     0.293 HD
ENDBRANCH   8  26
TORSDOF 6
ENDMDL
MODEL 2
REMARK VINA RESULT:    -4.332      2.407      4.517
REMARK INTER + INTRA:          -5.462
REMARK INTER:                  -5.171
REMARK INTRA:                  -0.291
REMARK UNBOUND:                -0.244
REMARK SMILES O=c1c(O)c(-c2ccc(O)c(O)c2)oc2cc(O)cc(O)c12
REMARK SMILES IDX 5 1 3 2 2 3 1 4 22 5 20 6 19 7 17 8 16 9 15 10 14 11 6 12
REMARK SMILES IDX 7 13 8 14 9 15 13 16 11 17 10 18 12 20 4 22 21 24 18 26
REMARK H PARENT 10 19 12 21 4 23 21 25 18 27
REMARK Flexibility Score: inf
ROOT
ATOM      1  C   UNL     1     -21.621  32.181  21.686  1.00  0.00     0.180 A 
ATOM      2  C   UNL     1     -20.461  31.776  22.368  1.00  0.00     0.208 A 
ATOM      3  C   UNL     1     -20.001  30.459  22.206  1.00  0.00     0.238 A 
ATOM      4  O   UNL     1     -18.920  30.126  22.759  1.00  0.00    -0.285 OA
ATOM      5  C   UNL     1     -20.737  29.548  21.411  1.00  0.00     0.111 A 
ATOM      6  C   UNL     1     -20.389  28.176  21.213  1.00  0.00     0.134 A 
ATOM      7  C   UNL     1     -21.134  27.397  20.320  1.00  0.00     0.093 A 
ATOM      8  C   UNL     1     -22.252  27.920  19.665  1.00  0.00     0.123 A 
ATOM      9  C   UNL     1     -22.632  29.240  19.894  1.00  0.00     0.094 A 
ATOM     10  C   UNL     1     -21.887  30.054  20.750  1.00  0.00     0.146 A 
ATOM     11  O   UNL     1     -22.273  31.313  20.922  1.00  0.00    -0.452 OA
ENDROOT
BRANCH   1  12
ATOM     12  C   UNL     1     -22.160  33.556  21.795  1.00  0.00     0.025 A 
ATOM     13  C   UNL     1     -21.875  34.490  20.788  1.00  0.00     0.016 A 
ATOM     14  C   UNL     1     -22.355  35.799  20.881  1.00  0.00     0.051 A 
ATOM     15  C   UNL     1     -23.111  36.199  21.986  1.00  0.00     0.157 A 
ATOM     16  C   UNL     1     -22.903  33.965  22.918  1.00  0.00     0.062 A 
ATOM     17  C   UNL     1     -23.383  35.280  23.013  1.00  0.00     0.158 A 
BRANCH  15  18
ATOM     18  O   UNL     1     -23.578  37.511  22.049  1.00  0.00    -0.504 OA
ATOM     19  H   UNL     1     -24.424  37.805  21.576  1.00  0.00     0.293 HD
ENDBRANCH  15  18
BRANCH  17  20
ATOM     20  O   UNL     1     -24.124  35.675  24.125  1.00  0.00    -0.504 OA
ATOM     21  H   UNL     1     -23.803  36.411  24.744  1.00  0.00     0.293 HD
ENDBRANCH  17  20
ENDBRANCH   1  12
BRANCH   2  22
ATOM     22  O   UNL     1     -19.790  32.669  23.209  1.00  0.00    -0.502 OA
ATOM     23  H   UNL     1     -19.352  33.515  22.866  1.00  0.00     0.293 HD
ENDBRANCH   2  22
BRANCH   6  24
ATOM     24  O   UNL     1     -19.346  27.529  21.882  1.00  0.00    -0.507 OA
ATOM     25  H   UNL     1     -19.346  27.295  22.863  1.00  0.00     0.293 HD
ENDBRANCH   6  24
BRANCH   8  26
ATOM     26  O   UNL     1     -22.998  27.132  18.791  1.00  0.00    -0.508 OA
ATOM     27  H   UNL     1     -23.338  27.496  17.909  1.00  0.00     0.293 HD
ENDBRANCH   8  26
TORSDOF 6
ENDMDL
MODEL 3
REMARK VINA RESULT:    -4.263      2.491      4.495
REMARK INTER + INTRA:          -5.379
REMARK INTER:                  -5.046
REMARK INTRA:                  -0.333
REMARK UNBOUND:                -0.244
REMARK SMILES O=c1c(O)c(-c2ccc(O)c(O)c2)oc2cc(O)cc(O)c12
REMARK SMILES IDX 5 1 3 2 2 3 1 4 22 5 20 6 19 7 17 8 16 9 15 10 14 11 6 12
REMARK SMILES IDX 7 13 8 14 9 15 13 16 11 17 10 18 12 20 4 22 21 24 18 26
REMARK H PARENT 10 19 12 21 4 23 21 25 18 27
REMARK Flexibility Score: inf
ROOT
ATOM      1  C   UNL     1     -21.692  31.884  21.834  1.00  0.00     0.180 A 
ATOM      2  C   UNL     1     -20.464  31.500  22.400  1.00  0.00     0.208 A 
ATOM      3  C   UNL     1     -19.946  30.228  22.102  1.00  0.00     0.238 A 
ATOM      4  O   UNL     1     -18.811  29.920  22.551  1.00  0.00    -0.285 OA
ATOM      5  C   UNL     1     -20.687  29.338  21.288  1.00  0.00     0.111 A 
ATOM      6  C   UNL     1     -20.281  28.009  20.958  1.00  0.00     0.134 A 
ATOM      7  C   UNL     1     -21.045  27.257  20.058  1.00  0.00     0.093 A 
ATOM      8  C   UNL     1     -22.235  27.760  19.526  1.00  0.00     0.123 A 
ATOM      9  C   UNL     1     -22.668  29.033  19.885  1.00  0.00     0.094 A 
ATOM     10  C   UNL     1     -21.908  29.824  20.750  1.00  0.00     0.146 A 
ATOM     11  O   UNL     1     -22.349  31.040  21.049  1.00  0.00    -0.452 OA
ENDROOT
BRANCH   1  12
ATOM     12  C   UNL     1     -22.295  33.212  22.090  1.00  0.00     0.025 A 
ATOM     13  C   UNL     1     -23.248  33.352  23.110  1.00  0.00     0.016 A 
ATOM     14  C   UNL     1     -23.846  34.591  23.355  1.00  0.00     0.051 A 
ATOM     15  C   UNL     1     -23.514  35.703  22.577  1.00  0.00     0.157 A 
ATOM     16  C   UNL     1     -21.977  34.328  21.293  1.00  0.00     0.062 A 
ATOM     17  C   UNL     1     -22.578  35.572  21.536  1.00  0.00     0.158 A 
BRANCH  15  18
ATOM     18  O   UNL     1     -24.125  36.927  22.846  1.00  0.00    -0.504 OA
ATOM     19  H   UNL     1     -23.603  37.726  23.185  1.00  0.00     0.293 HD
ENDBRANCH  15  18
BRANCH  17  20
ATOM     20  O   UNL     1     -22.252  36.673  20.747  1.00  0.00    -0.504 OA
ATOM     21  H   UNL     1     -22.904  37.436  20.605  1.00  0.00     0.293 HD
ENDBRANCH  17  20
ENDBRANCH   1  12
BRANCH   2  22
ATOM     22  O   UNL     1     -19.783  32.364  23.261  1.00  0.00    -0.502 OA
ATOM     23  H   UNL     1     -18.886  32.771  23.028  1.00  0.00     0.293 HD
ENDBRANCH   2  22
BRANCH   6  24
ATOM     24  O   UNL     1     -19.157  27.376  21.499  1.00  0.00    -0.507 OA
ATOM     25  H   UNL     1     -18.318  27.150  20.987  1.00  0.00     0.293 HD
ENDBRANCH   6  24
BRANCH   8  26
ATOM     26  O   UNL     1     -22.998  26.998  18.644  1.00  0.00    -0.508 OA
ATOM     27  H   UNL     1     -22.967  27.155  17.644  1.00  0.00     0.293 HD
ENDBRANCH   8  26
TORSDOF 6
ENDMDL
MODEL 4
REMARK VINA RESULT:    -4.263      2.374      3.520
REMARK INTER + INTRA:          -5.378
REMARK INTER:                  -5.416
REMARK INTRA:                   0.038
REMARK UNBOUND:                -0.244
REMARK SMILES O=c1c(O)c(-c2ccc(O)c(O)c2)oc2cc(O)cc(O)c12
REMARK SMILES IDX 5 1 3 2 2 3 1 4 22 5 20 6 19 7 17 8 16 9 15 10 14 11 6 12
REMARK SMILES IDX 7 13 8 14 9 15 13 16 11 17 10 18 12 20 4 22 21 24 18 26
REMARK H PARENT 10 19 12 21 4 23 21 25 18 27
REMARK Flexibility Score: inf
ROOT
ATOM      1  C   UNL     1     -21.956  32.100  21.478  1.00  0.00     0.180 A 
ATOM      2  C   UNL     1     -23.051  31.657  20.716  1.00  0.00     0.208 A 
ATOM      3  C   UNL     1     -23.038  30.351  20.200  1.00  0.00     0.238 A 
ATOM      4  O   UNL     1     -24.053  29.936  19.583  1.00  0.00    -0.285 OA
ATOM      5  C   UNL     1     -21.907  29.523  20.406  1.00  0.00     0.111 A 
ATOM      6  C   UNL     1     -21.766  28.199  19.891  1.00  0.00     0.134 A 
ATOM      7  C   UNL     1     -20.647  27.436  20.246  1.00  0.00     0.093 A 
ATOM      8  C   UNL     1     -19.634  27.971  21.047  1.00  0.00     0.123 A 
ATOM      9  C   UNL     1     -19.737  29.280  21.508  1.00  0.00     0.094 A 
ATOM     10  C   UNL     1     -20.858  30.054  21.202  1.00  0.00     0.146 A 
ATOM     11  O   UNL     1     -20.925  31.291  21.681  1.00  0.00    -0.452 OA
ENDROOT
BRANCH   1  12
ATOM     12  C   UNL     1     -21.904  33.458  22.067  1.00  0.00     0.025 A 
ATOM     13  C   UNL     1     -21.606  33.608  23.429  1.00  0.00     0.016 A 
ATOM     14  C   UNL     1     -21.572  34.878  24.011  1.00  0.00     0.051 A 
ATOM     15  C   UNL     1     -21.850  36.014  23.245  1.00  0.00     0.157 A 
ATOM     16  C   UNL     1     -22.205  34.600  21.302  1.00  0.00     0.062 A 
ATOM     17  C   UNL     1     -22.173  35.876  21.884  1.00  0.00     0.158 A 
BRANCH  15  18
ATOM     18  O   UNL     1     -21.806  37.268  23.852  1.00  0.00    -0.504 OA
ATOM     19  H   UNL     1     -21.547  37.388  24.824  1.00  0.00     0.293 HD
ENDBRANCH  15  18
BRANCH  17  20
ATOM     20  O   UNL     1     -22.466  37.002  21.119  1.00  0.00    -0.504 OA
ATOM     21  H   UNL     1     -22.547  37.923  21.536  1.00  0.00     0.293 HD
ENDBRANCH  17  20
ENDBRANCH   1  12
BRANCH   2  22
ATOM     22  O   UNL     1     -24.125  32.515  20.460  1.00  0.00    -0.502 OA
ATOM     23  H   UNL     1     -24.242  32.991  19.575  1.00  0.00     0.293 HD
ENDBRANCH   2  22
BRANCH   6  24
ATOM     24  O   UNL     1     -22.674  27.598  19.013  1.00  0.00    -0.507 OA
ATOM     25  H   UNL     1     -22.974  27.991  18.134  1.00  0.00     0.293 HD
ENDBRANCH   6  24
BRANCH   8  26
ATOM     26  O   UNL     1     -18.516  27.209  21.382  1.00  0.00    -0.508 OA
ATOM     27  H   UNL     1     -17.720  27.618  21.857  1.00  0.00     0.293 HD
ENDBRANCH   8  26
TORSDOF 6
ENDMDL
MODEL 5
REMARK VINA RESULT:    -4.251     12.468     14.210
REMARK INTER + INTRA:          -5.364
REMARK INTER:                  -5.348
REMARK INTRA:                  -0.016
REMARK UNBOUND:                -0.244
REMARK SMILES O=c1c(O)c(-c2ccc(O)c(O)c2)oc2cc(O)cc(O)c12
REMARK SMILES IDX 5 1 3 2 2 3 1 4 22 5 20 6 19 7 17 8 16 9 15 10 14 11 6 12
REMARK SMILES IDX 7 13 8 14 9 15 13 16 11 17 10 18 12 20 4 22 21 24 18 26
REMARK H PARENT 10 19 12 21 4 23 21 25 18 27
REMARK Flexibility Score: inf
ROOT
ATOM      1  C   UNL     1     -21.863  23.625  14.280  1.00  0.00     0.180 A 
ATOM      2  C   UNL     1     -20.490  23.510  14.557  1.00  0.00     0.208 A 
ATOM      3  C   UNL     1     -20.075  23.357  15.890  1.00  0.00     0.238 A 
ATOM      4  O   UNL     1     -18.851  23.179  16.124  1.00  0.00    -0.285 OA
ATOM      5  C   UNL     1     -21.033  23.376  16.933  1.00  0.00     0.111 A 
ATOM      6  C   UNL     1     -20.722  23.275  18.324  1.00  0.00     0.134 A 
ATOM      7  C   UNL     1     -21.760  23.200  19.260  1.00  0.00     0.093 A 
ATOM      8  C   UNL     1     -23.097  23.287  18.862  1.00  0.00     0.123 A 
ATOM      9  C   UNL     1     -23.408  23.442  17.514  1.00  0.00     0.094 A 
ATOM     10  C   UNL     1     -22.396  23.481  16.552  1.00  0.00     0.146 A 
ATOM     11  O   UNL     1     -22.739  23.608  15.276  1.00  0.00    -0.452 OA
ENDROOT
BRANCH   1  12
ATOM     12  C   UNL     1     -22.377  23.775  12.900  1.00  0.00     0.025 A 
ATOM     13  C   UNL     1     -23.341  22.875  12.421  1.00  0.00     0.016 A 
ATOM     14  C   UNL     1     -23.825  22.985  11.115  1.00  0.00     0.051 A 
ATOM     15  C   UNL     1     -23.344  23.983  10.264  1.00  0.00     0.157 A 
ATOM     16  C   UNL     1     -21.878  24.766  12.035  1.00  0.00     0.062 A 
ATOM     17  C   UNL     1     -22.362  24.877  10.723  1.00  0.00     0.158 A 
BRANCH  15  18
ATOM     18  O   UNL     1     -23.848  24.069   8.967  1.00  0.00    -0.504 OA
ATOM     19  H   UNL     1     -23.586  23.411   8.242  1.00  0.00     0.293 HD
ENDBRANCH  15  18
BRANCH  17  20
ATOM     20  O   UNL     1     -21.867  25.866   9.875  1.00  0.00    -0.504 OA
ATOM     21  H   UNL     1     -22.050  26.849  10.041  1.00  0.00     0.293 HD
ENDBRANCH  17  20
ENDBRANCH   1  12
BRANCH   2  22
ATOM     22  O   UNL     1     -19.554  23.569  13.521  1.00  0.00    -0.502 OA
ATOM     23  H   UNL     1     -18.892  24.329  13.427  1.00  0.00     0.293 HD
ENDBRANCH   2  22
BRANCH   6  24
ATOM     24  O   UNL     1     -19.421  23.269  18.837  1.00  0.00    -0.507 OA
ATOM     25  H   UNL     1     -19.140  23.703  19.704  1.00  0.00     0.293 HD
ENDBRANCH   6  24
BRANCH   8  26
ATOM     26  O   UNL     1     -24.124  23.229  19.802  1.00  0.00    -0.508 OA
ATOM     27  H   UNL     1     -23.973  23.495  20.768  1.00  0.00     0.293 HD
ENDBRANCH   8  26
TORSDOF 6
ENDMDL
MODEL 6
REMARK VINA RESULT:    -4.240     10.977     12.959
REMARK INTER + INTRA:          -5.351
REMARK INTER:                  -5.137
REMARK INTRA:                  -0.215
REMARK UNBOUND:                -0.244
REMARK SMILES O=c1c(O)c(-c2ccc(O)c(O)c2)oc2cc(O)cc(O)c12
REMARK SMILES IDX 5 1 3 2 2 3 1 4 22 5 20 6 19 7 17 8 16 9 15 10 14 11 6 12
REMARK SMILES IDX 7 13 8 14 9 15 13 16 11 17 10 18 12 20 4 22 21 24 18 26
REMARK H PARENT 10 19 12 21 4 23 21 25 18 27
REMARK Flexibility Score: inf
ROOT
ATOM      1  C   UNL     1     -19.255  23.671  19.257  1.00  0.00     0.180 A 
ATOM      2  C   UNL     1     -20.589  23.392  19.599  1.00  0.00     0.208 A 
ATOM      3  C   UNL     1     -21.530  23.201  18.573  1.00  0.00     0.238 A 
ATOM      4  O   UNL     1     -22.706  22.877  18.885  1.00  0.00    -0.285 OA
ATOM      5  C   UNL     1     -21.137  23.347  17.220  1.00  0.00     0.111 A 
ATOM      6  C   UNL     1     -22.015  23.222  16.101  1.00  0.00     0.134 A 
ATOM      7  C   UNL     1     -21.493  23.283  14.803  1.00  0.00     0.093 A 
ATOM      8  C   UNL     1     -20.135  23.528  14.583  1.00  0.00     0.123 A 
ATOM      9  C   UNL     1     -19.281  23.707  15.667  1.00  0.00     0.094 A 
ATOM     10  C   UNL     1     -19.764  23.614  16.975  1.00  0.00     0.146 A 
ATOM     11  O   UNL     1     -18.910  23.770  17.979  1.00  0.00    -0.452 OA
ENDROOT
BRANCH   1  12
ATOM     12  C   UNL     1     -18.205  23.870  20.281  1.00  0.00     0.025 A 
ATOM     13  C   UNL     1     -17.230  22.879  20.469  1.00  0.00     0.016 A 
ATOM     14  C   UNL     1     -16.241  23.036  21.445  1.00  0.00     0.051 A 
ATOM     15  C   UNL     1     -16.221  24.174  22.255  1.00  0.00     0.157 A 
ATOM     16  C   UNL     1     -18.197  25.005  21.112  1.00  0.00     0.062 A 
ATOM     17  C   UNL     1     -17.206  25.163  22.093  1.00  0.00     0.158 A 
BRANCH  15  18
ATOM     18  O   UNL     1     -15.222  24.304  23.218  1.00  0.00    -0.504 OA
ATOM     19  H   UNL     1     -15.419  24.245  24.211  1.00  0.00     0.293 HD
ENDBRANCH  15  18
BRANCH  17  20
ATOM     20  O   UNL     1     -17.202  26.294  22.907  1.00  0.00    -0.504 OA
ATOM     21  H   UNL     1     -17.110  27.227  22.521  1.00  0.00     0.293 HD
ENDBRANCH  17  20
ENDBRANCH   1  12
BRANCH   2  22
ATOM     22  O   UNL     1     -20.974  23.326  20.941  1.00  0.00    -0.502 OA
ATOM     23  H   UNL     1     -20.718  24.036  21.616  1.00  0.00     0.293 HD
ENDBRANCH   2  22
BRANCH   6  24
ATOM     24  O   UNL     1     -23.401  23.062  16.206  1.00  0.00    -0.507 OA
ATOM     25  H   UNL     1     -24.018  22.849  15.437  1.00  0.00     0.293 HD
ENDBRANCH   6  24
BRANCH   8  26
ATOM     26  O   UNL     1     -19.627  23.604  13.288  1.00  0.00    -0.508 OA
ATOM     27  H   UNL     1     -18.990  22.904  12.927  1.00  0.00     0.293 HD
ENDBRANCH   8  26
TORSDOF 6
ENDMDL
MODEL 7
REMARK VINA RESULT:    -4.215      2.453      3.660
REMARK INTER + INTRA:          -5.321
REMARK INTER:                  -5.016
REMARK INTRA:                  -0.305
REMARK UNBOUND:                -0.244
REMARK SMILES O=c1c(O)c(-c2ccc(O)c(O)c2)oc2cc(O)cc(O)c12
REMARK SMILES IDX 5 1 3 2 2 3 1 4 22 5 20 6 19 7 17 8 16 9 15 10 14 11 6 12
REMARK SMILES IDX 7 13 8 14 9 15 13 16 11 17 10 18 12 20 4 22 21 24 18 26
REMARK H PARENT 10 19 12 21 4 23 21 25 18 27
REMARK Flexibility Score: inf
ROOT
ATOM      1  C   UNL     1     -22.192  31.612  21.403  1.00  0.00     0.180 A 
ATOM      2  C   UNL     1     -22.924  30.776  20.542  1.00  0.00     0.208 A 
ATOM      3  C   UNL     1     -22.422  29.499  20.243  1.00  0.00     0.238 A 
ATOM      4  O   UNL     1     -23.119  28.729  19.532  1.00  0.00    -0.285 OA
ATOM      5  C   UNL     1     -21.168  29.095  20.762  1.00  0.00     0.111 A 
ATOM      6  C   UNL     1     -20.541  27.842  20.488  1.00  0.00     0.134 A 
ATOM      7  C   UNL     1     -19.348  27.509  21.142  1.00  0.00     0.093 A 
ATOM      8  C   UNL     1     -18.727  28.409  22.012  1.00  0.00     0.123 A 
ATOM      9  C   UNL     1     -19.302  29.655  22.243  1.00  0.00     0.094 A 
ATOM     10  C   UNL     1     -20.511  30.002  21.635  1.00  0.00     0.146 A 
ATOM     11  O   UNL     1     -21.035  31.194  21.900  1.00  0.00    -0.452 OA
ENDROOT
BRANCH   1  12
ATOM     12  C   UNL     1     -22.663  32.965  21.777  1.00  0.00     0.025 A 
ATOM     13  C   UNL     1     -23.614  33.106  22.798  1.00  0.00     0.016 A 
ATOM     14  C   UNL     1     -24.089  34.372  23.153  1.00  0.00     0.051 A 
ATOM     15  C   UNL     1     -23.635  35.511  22.483  1.00  0.00     0.157 A 
ATOM     16  C   UNL     1     -22.223  34.110  21.089  1.00  0.00     0.062 A 
ATOM     17  C   UNL     1     -22.700  35.382  21.442  1.00  0.00     0.158 A 
BRANCH  15  18
ATOM     18  O   UNL     1     -24.125  36.760  22.861  1.00  0.00    -0.504 OA
ATOM     19  H   UNL     1     -24.280  37.503  22.189  1.00  0.00     0.293 HD
ENDBRANCH  15  18
BRANCH  17  20
ATOM     20  O   UNL     1     -22.253  36.511  20.760  1.00  0.00    -0.504 OA
ATOM     21  H   UNL     1     -22.880  37.075  20.197  1.00  0.00     0.293 HD
ENDBRANCH  17  20
ENDBRANCH   1  12
BRANCH   2  22
ATOM     22  O   UNL     1     -24.123  31.222  19.979  1.00  0.00    -0.502 OA
ATOM     23  H   UNL     1     -25.005  30.746  20.128  1.00  0.00     0.293 HD
ENDBRANCH   2  22
BRANCH   6  24
ATOM     24  O   UNL     1     -21.029  26.906  19.571  1.00  0.00    -0.507 OA
ATOM     25  H   UNL     1     -20.516  26.103  19.237  1.00  0.00     0.293 HD
ENDBRANCH   6  24
BRANCH   8  26
ATOM     26  O   UNL     1     -17.532  28.076  22.646  1.00  0.00    -0.508 OA
ATOM     27  H   UNL     1     -16.726  28.689  22.612  1.00  0.00     0.293 HD
ENDBRANCH   8  26
TORSDOF 6
ENDMDL
MODEL 8
REMARK VINA RESULT:    -4.205      2.074      3.149
REMARK INTER + INTRA:          -5.309
REMARK INTER:                  -5.001
REMARK INTRA:                  -0.308
REMARK UNBOUND:                -0.244
REMARK SMILES O=c1c(O)c(-c2ccc(O)c(O)c2)oc2cc(O)cc(O)c12
REMARK SMILES IDX 5 1 3 2 2 3 1 4 22 5 20 6 19 7 17 8 16 9 15 10 14 11 6 12
REMARK SMILES IDX 7 13 8 14 9 15 13 16 11 17 10 18 12 20 4 22 21 24 18 26
REMARK H PARENT 10 19 12 21 4 23 21 25 18 27
REMARK Flexibility Score: inf
ROOT
ATOM      1  C   UNL     1     -21.439  32.243  22.246  1.00  0.00     0.180 A 
ATOM      2  C   UNL     1     -22.001  31.317  21.350  1.00  0.00     0.208 A 
ATOM      3  C   UNL     1     -21.339  30.099  21.126  1.00  0.00     0.238 A 
ATOM      4  O   UNL     1     -21.886  29.243  20.382  1.00  0.00    -0.285 OA
ATOM      5  C   UNL     1     -20.097  29.845  21.757  1.00  0.00     0.111 A 
ATOM      6  C   UNL     1     -19.316  28.664  21.567  1.00  0.00     0.134 A 
ATOM      7  C   UNL     1     -18.153  28.477  22.325  1.00  0.00     0.093 A 
ATOM      8  C   UNL     1     -17.709  29.455  23.219  1.00  0.00     0.123 A 
ATOM      9  C   UNL     1     -18.434  30.633  23.369  1.00  0.00     0.094 A 
ATOM     10  C   UNL     1     -19.619  30.834  22.656  1.00  0.00     0.146 A 
ATOM     11  O   UNL     1     -20.290  31.964  22.846  1.00  0.00    -0.452 OA
ENDROOT
BRANCH   1  12
ATOM     12  C   UNL     1     -22.085  33.541  22.544  1.00  0.00     0.025 A 
ATOM     13  C   UNL     1     -22.908  33.659  23.674  1.00  0.00     0.016 A 
ATOM     14  C   UNL     1     -23.545  34.869  23.963  1.00  0.00     0.051 A 
ATOM     15  C   UNL     1     -23.382  35.972  23.122  1.00  0.00     0.157 A 
ATOM     16  C   UNL     1     -21.940  34.647  21.686  1.00  0.00     0.062 A 
ATOM     17  C   UNL     1     -22.579  35.862  21.974  1.00  0.00     0.158 A 
BRANCH  15  18
ATOM     18  O   UNL     1     -24.028  37.167  23.437  1.00  0.00    -0.504 OA
ATOM     19  H   UNL     1     -24.319  37.827  22.725  1.00  0.00     0.293 HD
ENDBRANCH  15  18
BRANCH  17  20
ATOM     20  O   UNL     1     -22.424  36.954  21.122  1.00  0.00    -0.504 OA
ATOM     21  H   UNL     1     -22.436  36.848  20.114  1.00  0.00     0.293 HD
ENDBRANCH  17  20
ENDBRANCH   1  12
BRANCH   2  22
ATOM     22  O   UNL     1     -23.190  31.617  20.680  1.00  0.00    -0.502 OA
ATOM     23  H   UNL     1     -23.484  31.124  19.845  1.00  0.00     0.293 HD
ENDBRANCH   2  22
BRANCH   6  24
ATOM     24  O   UNL     1     -19.620  27.664  20.638  1.00  0.00    -0.507 OA
ATOM     25  H   UNL     1     -19.836  26.707  20.870  1.00  0.00     0.293 HD
ENDBRANCH   6  24
BRANCH   8  26
ATOM     26  O   UNL     1     -16.542  29.267  23.956  1.00  0.00    -0.508 OA
ATOM     27  H   UNL     1     -16.019  30.051  24.329  1.00  0.00     0.293 HD
ENDBRANCH   8  26
TORSDOF 6
ENDMDL
MODEL 9
REMARK VINA RESULT:    -4.020      5.249      8.521
REMARK INTER + INTRA:          -5.086
REMARK INTER:                  -4.810
REMARK INTRA:                  -0.276
REMARK UNBOUND:                -0.244
REMARK SMILES O=c1c(O)c(-c2ccc(O)c(O)c2)oc2cc(O)cc(O)c12
REMARK SMILES IDX 5 1 3 2 2 3 1 4 22 5 20 6 19 7 17 8 16 9 15 10 14 11 6 12
REMARK SMILES IDX 7 13 8 14 9 15 13 16 11 17 10 18 12 20 4 22 21 24 18 26
REMARK H PARENT 10 19 12 21 4 23 21 25 18 27
REMARK Flexibility Score: inf
ROOT
ATOM      1  C   UNL     1     -19.914  27.205  21.136  1.00  0.00     0.180 A 
ATOM      2  C   UNL     1     -20.174  26.200  20.188  1.00  0.00     0.208 A 
ATOM      3  C   UNL     1     -19.333  25.076  20.139  1.00  0.00     0.238 A 
ATOM      4  O   UNL     1     -19.616  24.146  19.339  1.00  0.00    -0.285 OA
ATOM      5  C   UNL     1     -18.211  24.997  21.000  1.00  0.00     0.111 A 
ATOM      6  C   UNL     1     -17.266  23.926  21.006  1.00  0.00     0.134 A 
ATOM      7  C   UNL     1     -16.255  23.903  21.974  1.00  0.00     0.093 A 
ATOM      8  C   UNL     1     -16.116  24.944  22.896  1.00  0.00     0.123 A 
ATOM      9  C   UNL     1     -16.999  26.019  22.863  1.00  0.00     0.094 A 
ATOM     10  C   UNL     1     -18.042  26.052  21.933  1.00  0.00     0.146 A 
ATOM     11  O   UNL     1     -18.874  27.088  21.951  1.00  0.00    -0.452 OA
ENDROOT
BRANCH   1  12
ATOM     12  C   UNL     1     -20.763  28.411  21.257  1.00  0.00     0.025 A 
ATOM     13  C   UNL     1     -20.266  29.650  20.827  1.00  0.00     0.016 A 
ATOM     14  C   UNL     1     -21.041  30.807  20.951  1.00  0.00     0.051 A 
ATOM     15  C   UNL     1     -22.316  30.745  21.521  1.00  0.00     0.157 A 
ATOM     16  C   UNL     1     -22.038  28.355  21.850  1.00  0.00     0.062 A 
ATOM     17  C   UNL     1     -22.817  29.514  21.978  1.00  0.00     0.158 A 
BRANCH  15  18
ATOM     18  O   UNL     1     -23.067  31.914  21.630  1.00  0.00    -0.504 OA
ATOM     19  H   UNL     1     -23.898  31.968  22.207  1.00  0.00     0.293 HD
ENDBRANCH  15  18
BRANCH  17  20
ATOM     20  O   UNL     1     -24.081  29.448  22.560  1.00  0.00    -0.504 OA
ATOM     21  H   UNL     1     -24.286  28.802  23.314  1.00  0.00     0.293 HD
ENDBRANCH  17  20
ENDBRANCH   1  12
BRANCH   2  22
ATOM     22  O   UNL     1     -21.242  26.332  19.296  1.00  0.00    -0.502 OA
ATOM     23  H   UNL     1     -22.152  25.924  19.471  1.00  0.00     0.293 HD
ENDBRANCH   2  22
BRANCH   6  24
ATOM     24  O   UNL     1     -17.260  22.881  20.076  1.00  0.00    -0.507 OA
ATOM     25  H   UNL     1     -17.194  21.902  20.308  1.00  0.00     0.293 HD
ENDBRANCH   6  24
BRANCH   8  26
ATOM     26  O   UNL     1     -15.097  24.921  23.845  1.00  0.00    -0.508 OA
ATOM     27  H   UNL     1     -15.162  25.454  24.706  1.00  0.00     0.293 HD
ENDBRANCH   8  26
TORSDOF 6
ENDMDL
