MODEL 1
REMARK VINA RESULT:     4.868      0.000      0.000
REMARK INTER + INTRA:           9.295
REMARK INTER:                   9.421
REMARK INTRA:                  -0.126
REMARK UNBOUND:                -0.126
REMARK SMILES CCCCCCCCCCCCCCCCCC(=O)[O-]
REMARK SMILES IDX 10 1 11 2 12 3 13 4 14 5 15 6 16 7 17 8 18 9 19 10 20 11
REMARK SMILES IDX 9 12 8 13 7 14 6 15 5 16 4 17 3 18 2 19 1 20
REMARK H PARENT
REMARK Flexibility Score: inf
ROOT
ATOM      1  C   UNL     1      -3.289 -30.132  -3.675  1.00  0.00     0.000 C 
ENDROOT
BRANCH   1   2
ATOM      2  C   UNL     1      -2.718 -31.561  -3.605  1.00  0.00     0.000 C 
BRANCH   2   3
ATOM      3  C   UNL     1      -1.501 -31.763  -4.522  1.00  0.00     0.000 C 
BRANCH   3   4
ATOM      4  C   UNL     1      -0.238 -31.041  -4.014  1.00  0.00     0.000 C 
BRANCH   4   5
ATOM      5  C   UNL     1       1.042 -31.897  -3.974  1.00  0.00     0.000 C 
BRANCH   5   6
ATOM      6  C   UNL     1       1.740 -31.868  -2.603  1.00  0.00     0.000 C 
BRANCH   6   7
ATOM      7  C   UNL     1       1.168 -30.787  -1.668  1.00  0.00     0.006 C 
BRANCH   7   8
ATOM      8  C   UNL     1       1.837 -30.725  -0.284  1.00  0.00     0.053 C 
BRANCH   8   9
ATOM      9  C   UNL     1       1.618 -29.404   0.388  1.00  0.00     0.041 C 
ATOM     10  O   UNL     1       1.587 -29.331   1.644  1.00  0.00    -0.550 OA
ATOM     11  O   UNL     1       1.481 -28.250  -0.373  1.00  0.00    -0.550 OA
ENDBRANCH   8   9
ENDBRANCH   7   8
ENDBRANCH   6   7
ENDBRANCH   5   6
ENDBRANCH   4   5
ENDBRANCH   3   4
ENDBRANCH   2   3
ENDBRANCH   1   2
BRANCH   1  12
ATOM     12  C   UNL     1      -3.500 -29.579  -5.099  1.00  0.00     0.000 C 
BRANCH  12  13
ATOM     13  C   UNL     1      -4.494 -30.371  -5.972  1.00  0.00    -0.000 C 
BRANCH  13  14
ATOM     14  C   UNL     1      -3.989 -30.725  -7.383  1.00  0.00    -0.000 C 
BRANCH  14  15
ATOM     15  C   UNL     1      -3.358 -32.125  -7.458  1.00  0.00    -0.000 C 
BRANCH  15  16
ATOM     16  C   UNL     1      -1.942 -32.113  -8.064  1.00  0.00    -0.000 C 
BRANCH  16  17
ATOM     17  C   UNL     1      -0.804 -31.843  -7.063  1.00  0.00    -0.000 C 
BRANCH  17  18
ATOM     18  C   UNL     1       0.590 -32.122  -7.651  1.00  0.00    -0.000 C 
BRANCH  18  19
ATOM     19  C   UNL     1       1.688 -31.275  -6.990  1.00  0.00    -0.003 C 
ATOM     20  C   UNL     1       3.095 -31.741  -7.362  1.00  0.00     0.004 C 
ENDBRANCH  18  19
ENDBRANCH  17  18
ENDBRANCH  16  17
ENDBRANCH  15  16
ENDBRANCH  14  15
ENDBRANCH  13  14
ENDBRANCH  12  13
ENDBRANCH   1  12
TORSDOF 16
ENDMDL
MODEL 2
REMARK VINA RESULT:     5.074      6.082      8.351
REMARK INTER + INTRA:           9.695
REMARK INTER:                  10.232
REMARK INTRA:                  -0.538
REMARK UNBOUND:                -0.126
REMARK SMILES CCCCCCCCCCCCCCCCCC(=O)[O-]
REMARK SMILES IDX 10 1 11 2 12 3 13 4 14 5 15 6 16 7 17 8 18 9 19 10 20 11
REMARK SMILES IDX 9 12 8 13 7 14 6 15 5 16 4 17 3 18 2 19 1 20
REMARK H PARENT
REMARK Flexibility Score: inf
ROOT
ATOM      1  C   UNL     1       1.672 -27.126  -7.511  1.00  0.00     0.000 C 
ENDROOT
BRANCH   1   2
ATOM      2  C   UNL     1       2.525 -28.098  -6.675  1.00  0.00     0.000 C 
BRANCH   2   3
ATOM      3  C   UNL     1       2.789 -29.431  -7.395  1.00  0.00     0.000 C 
BRANCH   3   4
ATOM      4  C   UNL     1       2.686 -30.650  -6.460  1.00  0.00     0.000 C 
BRANCH   4   5
ATOM      5  C   UNL     1       1.538 -30.602  -5.433  1.00  0.00     0.000 C 
BRANCH   5   6
ATOM      6  C   UNL     1       0.771 -31.932  -5.328  1.00  0.00     0.000 C 
BRANCH   6   7
ATOM      7  C   UNL     1      -0.711 -31.794  -5.723  1.00  0.00     0.006 C 
BRANCH   7   8
ATOM      8  C   UNL     1      -1.681 -31.710  -4.533  1.00  0.00     0.053 C 
BRANCH   8   9
ATOM      9  C   UNL     1      -3.108 -31.876  -4.956  1.00  0.00     0.041 C 
ATOM     10  O   UNL     1      -4.036 -31.761  -4.114  1.00  0.00    -0.550 OA
ATOM     11  O   UNL     1      -3.414 -32.124  -6.288  1.00  0.00    -0.550 OA
ENDBRANCH   8   9
ENDBRANCH   7   8
ENDBRANCH   6   7
ENDBRANCH   5   6
ENDBRANCH   4   5
ENDBRANCH   3   4
ENDBRANCH   2   3
ENDBRANCH   1   2
BRANCH   1  12
ATOM     12  C   UNL     1       1.705 -25.657  -7.043  1.00  0.00     0.000 C 
BRANCH  12  13
ATOM     13  C   UNL     1       0.497 -24.801  -7.477  1.00  0.00    -0.000 C 
BRANCH  13  14
ATOM     14  C   UNL     1       0.296 -23.500  -6.678  1.00  0.00    -0.000 C 
BRANCH  14  15
ATOM     15  C   UNL     1      -0.991 -22.755  -7.065  1.00  0.00    -0.000 C 
BRANCH  15  16
ATOM     16  C   UNL     1      -1.991 -22.638  -5.900  1.00  0.00    -0.000 C 
BRANCH  16  17
ATOM     17  C   UNL     1      -2.964 -21.448  -5.991  1.00  0.00    -0.000 C 
BRANCH  17  18
ATOM     18  C   UNL     1      -4.244 -21.781  -6.777  1.00  0.00    -0.000 C 
BRANCH  18  19
ATOM     19  C   UNL     1      -5.096 -20.536  -7.069  1.00  0.00    -0.003 C 
ATOM     20  C   UNL     1      -4.539 -19.273  -6.413  1.00  0.00     0.004 C 
ENDBRANCH  18  19
ENDBRANCH  17  18
ENDBRANCH  16  17
ENDBRANCH  15  16
ENDBRANCH  14  15
ENDBRANCH  13  14
ENDBRANCH  12  13
ENDBRANCH   1  12
TORSDOF 16
ENDMDL
MODEL 3
REMARK VINA RESULT:     5.236      5.082      7.497
REMARK INTER + INTRA:          10.008
REMARK INTER:                  10.955
REMARK INTRA:                  -0.947
REMARK UNBOUND:                -0.126
REMARK SMILES CCCCCCCCCCCCCCCCCC(=O)[O-]
REMARK SMILES IDX 10 1 11 2 12 3 13 4 14 5 15 6 16 7 17 8 18 9 19 10 20 11
REMARK SMILES IDX 9 12 8 13 7 14 6 15 5 16 4 17 3 18 2 19 1 20
REMARK H PARENT
REMARK Flexibility Score: inf
ROOT
ATOM      1  C   UNL     1       1.742 -30.126  -7.598  1.00  0.00     0.000 C 
ENDROOT
BRANCH   1   2
ATOM      2  C   UNL     1       2.031 -31.574  -7.164  1.00  0.00     0.000 C 
BRANCH   2   3
ATOM      3  C   UNL     1       2.631 -31.667  -5.752  1.00  0.00     0.000 C 
BRANCH   3   4
ATOM      4  C   UNL     1       1.587 -32.021  -4.676  1.00  0.00     0.000 C 
BRANCH   4   5
ATOM      5  C   UNL     1       0.847 -30.823  -4.053  1.00  0.00     0.000 C 
BRANCH   5   6
ATOM      6  C   UNL     1      -0.540 -31.196  -3.499  1.00  0.00     0.000 C 
BRANCH   6   7
ATOM      7  C   UNL     1      -1.546 -31.552  -4.609  1.00  0.00     0.006 C 
BRANCH   7   8
ATOM      8  C   UNL     1      -2.702 -30.550  -4.765  1.00  0.00     0.053 C 
BRANCH   8   9
ATOM      9  C   UNL     1      -3.898 -31.167  -5.422  1.00  0.00     0.041 C 
ATOM     10  O   UNL     1      -4.510 -32.114  -4.862  1.00  0.00    -0.550 OA
ATOM     11  O   UNL     1      -4.355 -30.674  -6.638  1.00  0.00    -0.550 OA
ENDBRANCH   8   9
ENDBRANCH   7   8
ENDBRANCH   6   7
ENDBRANCH   5   6
ENDBRANCH   4   5
ENDBRANCH   3   4
ENDBRANCH   2   3
ENDBRANCH   1   2
BRANCH   1  12
ATOM     12  C   UNL     1       2.468 -29.039  -6.780  1.00  0.00     0.000 C 
BRANCH  12  13
ATOM     13  C   UNL     1       2.730 -27.717  -7.530  1.00  0.00    -0.000 C 
BRANCH  13  14
ATOM     14  C   UNL     1       2.383 -26.439  -6.745  1.00  0.00    -0.000 C 
BRANCH  14  15
ATOM     15  C   UNL     1       3.442 -26.079  -5.690  1.00  0.00    -0.000 C 
BRANCH  15  16
ATOM     16  C   UNL     1       4.246 -24.818  -6.053  1.00  0.00    -0.000 C 
BRANCH  16  17
ATOM     17  C   UNL     1       3.986 -23.595  -5.155  1.00  0.00    -0.000 C 
BRANCH  17  18
ATOM     18  C   UNL     1       3.031 -23.901  -3.988  1.00  0.00    -0.000 C 
BRANCH  18  19
ATOM     19  C   UNL     1       3.069 -22.820  -2.897  1.00  0.00    -0.003 C 
ATOM     20  C   UNL     1       1.675 -22.425  -2.410  1.00  0.00     0.004 C 
ENDBRANCH  18  19
ENDBRANCH  17  18
ENDBRANCH  16  17
ENDBRANCH  15  16
ENDBRANCH  14  15
ENDBRANCH  13  14
ENDBRANCH  12  13
ENDBRANCH   1  12
TORSDOF 16
ENDMDL
MODEL 4
REMARK VINA RESULT:     5.546      6.349      8.533
REMARK INTER + INTRA:          10.607
REMARK INTER:                  11.303
REMARK INTRA:                  -0.696
REMARK UNBOUND:                -0.126
REMARK SMILES CCCCCCCCCCCCCCCCCC(=O)[O-]
REMARK SMILES IDX 10 1 11 2 12 3 13 4 14 5 15 6 16 7 17 8 18 9 19 10 20 11
REMARK SMILES IDX 9 12 8 13 7 14 6 15 5 16 4 17 3 18 2 19 1 20
REMARK H PARENT
REMARK Flexibility Score: inf
ROOT
ATOM      1  C   UNL     1       3.398 -26.397  -5.756  1.00  0.00     0.000 C 
ENDROOT
BRANCH   1   2
ATOM      2  C   UNL     1       3.753 -24.914  -5.545  1.00  0.00     0.000 C 
BRANCH   2   3
ATOM      3  C   UNL     1       2.577 -24.092  -4.991  1.00  0.00     0.000 C 
BRANCH   3   4
ATOM      4  C   UNL     1       1.676 -23.510  -6.096  1.00  0.00     0.000 C 
BRANCH   4   5
ATOM      5  C   UNL     1       0.169 -23.493  -5.780  1.00  0.00     0.000 C 
BRANCH   5   6
ATOM      6  C   UNL     1      -0.656 -22.721  -6.825  1.00  0.00     0.000 C 
BRANCH   6   7
ATOM      7  C   UNL     1      -2.162 -22.711  -6.505  1.00  0.00     0.006 C 
BRANCH   7   8
ATOM      8  C   UNL     1      -2.667 -21.405  -5.868  1.00  0.00     0.053 C 
BRANCH   8   9
ATOM      9  C   UNL     1      -4.005 -20.998  -6.405  1.00  0.00     0.041 C 
ATOM     10  O   UNL     1      -4.782 -21.862  -6.889  1.00  0.00    -0.550 OA
ATOM     11  O   UNL     1      -4.406 -19.670  -6.340  1.00  0.00    -0.550 OA
ENDBRANCH   8   9
ENDBRANCH   7   8
ENDBRANCH   6   7
ENDBRANCH   5   6
ENDBRANCH   4   5
ENDBRANCH   3   4
ENDBRANCH   2   3
ENDBRANCH   1   2
BRANCH   1  12
ATOM     12  C   UNL     1       2.542 -26.696  -7.003  1.00  0.00     0.000 C 
BRANCH  12  13
ATOM     13  C   UNL     1       2.427 -28.186  -7.381  1.00  0.00    -0.000 C 
BRANCH  13  14
ATOM     14  C   UNL     1       2.317 -29.157  -6.191  1.00  0.00    -0.000 C 
BRANCH  14  15
ATOM     15  C   UNL     1       2.238 -30.629  -6.626  1.00  0.00    -0.000 C 
BRANCH  15  16
ATOM     16  C   UNL     1       1.483 -31.513  -5.618  1.00  0.00    -0.000 C 
BRANCH  16  17
ATOM     17  C   UNL     1       1.067 -30.809  -4.314  1.00  0.00    -0.000 C 
BRANCH  17  18
ATOM     18  C   UNL     1      -0.287 -31.302  -3.772  1.00  0.00    -0.000 C 
BRANCH  18  19
ATOM     19  C   UNL     1      -1.280 -31.645  -4.893  1.00  0.00    -0.003 C 
ATOM     20  C   UNL     1      -2.644 -30.984  -4.695  1.00  0.00     0.004 C 
ENDBRANCH  18  19
ENDBRANCH  17  18
ENDBRANCH  16  17
ENDBRANCH  15  16
ENDBRANCH  14  15
ENDBRANCH  13  14
ENDBRANCH  12  13
ENDBRANCH   1  12
TORSDOF 16
ENDMDL
MODEL 5
REMARK VINA RESULT:     5.595      6.500      8.658
REMARK INTER + INTRA:          10.702
REMARK INTER:                  11.567
REMARK INTRA:                  -0.865
REMARK UNBOUND:                -0.126
REMARK SMILES CCCCCCCCCCCCCCCCCC(=O)[O-]
REMARK SMILES IDX 10 1 11 2 12 3 13 4 14 5 15 6 16 7 17 8 18 9 19 10 20 11
REMARK SMILES IDX 9 12 8 13 7 14 6 15 5 16 4 17 3 18 2 19 1 20
REMARK H PARENT
REMARK Flexibility Score: inf
ROOT
ATOM      1  C   UNL     1       2.990 -24.286  -4.785  1.00  0.00     0.000 C 
ENDROOT
BRANCH   1   2
ATOM      2  C   UNL     1       3.601 -25.047  -5.976  1.00  0.00     0.000 C 
BRANCH   2   3
ATOM      3  C   UNL     1       3.224 -26.537  -5.990  1.00  0.00     0.000 C 
BRANCH   3   4
ATOM      4  C   UNL     1       2.410 -26.940  -7.234  1.00  0.00     0.000 C 
BRANCH   4   5
ATOM      5  C   UNL     1       2.391 -28.447  -7.552  1.00  0.00     0.000 C 
BRANCH   5   6
ATOM      6  C   UNL     1       2.409 -29.327  -6.289  1.00  0.00     0.000 C 
BRANCH   6   7
ATOM      7  C   UNL     1       2.601 -30.821  -6.610  1.00  0.00     0.006 C 
BRANCH   7   8
ATOM      8  C   UNL     1       2.341 -31.764  -5.423  1.00  0.00     0.053 C 
BRANCH   8   9
ATOM      9  C   UNL     1       1.027 -31.485  -4.760  1.00  0.00     0.041 C 
ATOM     10  O   UNL     1       0.995 -31.000  -3.599  1.00  0.00    -0.550 OA
ATOM     11  O   UNL     1      -0.160 -31.730  -5.438  1.00  0.00    -0.550 OA
ENDBRANCH   8   9
ENDBRANCH   7   8
ENDBRANCH   6   7
ENDBRANCH   5   6
ENDBRANCH   4   5
ENDBRANCH   3   4
ENDBRANCH   2   3
ENDBRANCH   1   2
BRANCH   1  12
ATOM     12  C   UNL     1       1.856 -23.305  -5.146  1.00  0.00     0.000 C 
BRANCH  12  13
ATOM     13  C   UNL     1       0.821 -23.839  -6.157  1.00  0.00    -0.000 C 
BRANCH  13  14
ATOM     14  C   UNL     1       0.073 -22.759  -6.960  1.00  0.00    -0.000 C 
BRANCH  14  15
ATOM     15  C   UNL     1      -1.455 -22.869  -6.831  1.00  0.00    -0.000 C 
BRANCH  15  16
ATOM     16  C   UNL     1      -1.991 -22.263  -5.521  1.00  0.00    -0.000 C 
BRANCH  16  17
ATOM     17  C   UNL     1      -3.122 -21.232  -5.693  1.00  0.00    -0.000 C 
BRANCH  17  18
ATOM     18  C   UNL     1      -4.189 -21.677  -6.709  1.00  0.00    -0.000 C 
BRANCH  18  19
ATOM     19  C   UNL     1      -5.122 -20.529  -7.123  1.00  0.00    -0.003 C 
ATOM     20  C   UNL     1      -4.817 -19.225  -6.386  1.00  0.00     0.004 C 
ENDBRANCH  18  19
ENDBRANCH  17  18
ENDBRANCH  16  17
ENDBRANCH  15  16
ENDBRANCH  14  15
ENDBRANCH  13  14
ENDBRANCH  12  13
ENDBRANCH   1  12
TORSDOF 16
ENDMDL
MODEL 6
REMARK VINA RESULT:     5.603      6.516      9.073
REMARK INTER + INTRA:          10.718
REMARK INTER:                  11.409
REMARK INTRA:                  -0.691
REMARK UNBOUND:                -0.126
REMARK SMILES CCCCCCCCCCCCCCCCCC(=O)[O-]
REMARK SMILES IDX 10 1 11 2 12 3 13 4 14 5 15 6 16 7 17 8 18 9 19 10 20 11
REMARK SMILES IDX 9 12 8 13 7 14 6 15 5 16 4 17 3 18 2 19 1 20
REMARK H PARENT
REMARK Flexibility Score: inf
ROOT
ATOM      1  C   UNL     1       3.541 -23.903  -3.976  1.00  0.00     0.000 C 
ENDROOT
BRANCH   1   2
ATOM      2  C   UNL     1       3.745 -24.301  -5.449  1.00  0.00     0.000 C 
BRANCH   2   3
ATOM      3  C   UNL     1       3.534 -25.804  -5.697  1.00  0.00     0.000 C 
BRANCH   3   4
ATOM      4  C   UNL     1       2.559 -26.093  -6.854  1.00  0.00     0.000 C 
BRANCH   4   5
ATOM      5  C   UNL     1       2.648 -27.508  -7.456  1.00  0.00     0.000 C 
BRANCH   5   6
ATOM      6  C   UNL     1       2.448 -28.619  -6.410  1.00  0.00     0.000 C 
BRANCH   6   7
ATOM      7  C   UNL     1       2.296 -30.013  -7.046  1.00  0.00     0.006 C 
BRANCH   7   8
ATOM      8  C   UNL     1       2.526 -31.183  -6.075  1.00  0.00     0.053 C 
BRANCH   8   9
ATOM      9  C   UNL     1       1.273 -31.570  -5.352  1.00  0.00     0.041 C 
ATOM     10  O   UNL     1       0.320 -32.105  -5.978  1.00  0.00    -0.550 OA
ATOM     11  O   UNL     1       1.170 -31.371  -3.981  1.00  0.00    -0.550 OA
ENDBRANCH   8   9
ENDBRANCH   7   8
ENDBRANCH   6   7
ENDBRANCH   5   6
ENDBRANCH   4   5
ENDBRANCH   3   4
ENDBRANCH   2   3
ENDBRANCH   1   2
BRANCH   1  12
ATOM     12  C   UNL     1       2.191 -23.228  -3.660  1.00  0.00     0.000 C 
BRANCH  12  13
ATOM     13  C   UNL     1       2.147 -22.433  -2.339  1.00  0.00    -0.000 C 
BRANCH  13  14
ATOM     14  C   UNL     1       0.753 -21.923  -1.928  1.00  0.00    -0.000 C 
BRANCH  14  15
ATOM     15  C   UNL     1      -0.355 -22.368  -2.897  1.00  0.00    -0.000 C 
BRANCH  15  16
ATOM     16  C   UNL     1      -1.509 -21.354  -2.995  1.00  0.00    -0.000 C 
BRANCH  16  17
ATOM     17  C   UNL     1      -2.001 -21.059  -4.424  1.00  0.00    -0.000 C 
BRANCH  17  18
ATOM     18  C   UNL     1      -2.500 -22.317  -5.157  1.00  0.00    -0.000 C 
BRANCH  18  19
ATOM     19  C   UNL     1      -3.098 -21.997  -6.535  1.00  0.00    -0.003 C 
ATOM     20  C   UNL     1      -4.216 -20.957  -6.465  1.00  0.00     0.004 C 
ENDBRANCH  18  19
ENDBRANCH  17  18
ENDBRANCH  16  17
ENDBRANCH  15  16
ENDBRANCH  14  15
ENDBRANCH  13  14
ENDBRANCH  12  13
ENDBRANCH   1  12
TORSDOF 16
ENDMDL
MODEL 7
REMARK VINA RESULT:     5.646      5.977      8.234
REMARK INTER + INTRA:          10.802
REMARK INTER:                  11.519
REMARK INTRA:                  -0.717
REMARK UNBOUND:                -0.126
REMARK SMILES CCCCCCCCCCCCCCCCCC(=O)[O-]
REMARK SMILES IDX 10 1 11 2 12 3 13 4 14 5 15 6 16 7 17 8 18 9 19 10 20 11
REMARK SMILES IDX 9 12 8 13 7 14 6 15 5 16 4 17 3 18 2 19 1 20
REMARK H PARENT
REMARK Flexibility Score: inf
ROOT
ATOM      1  C   UNL     1       3.334 -26.282  -5.802  1.00  0.00     0.000 C 
ENDROOT
BRANCH   1   2
ATOM      2  C   UNL     1       2.425 -26.659  -6.986  1.00  0.00     0.000 C 
BRANCH   2   3
ATOM      3  C   UNL     1       2.695 -28.076  -7.517  1.00  0.00     0.000 C 
BRANCH   3   4
ATOM      4  C   UNL     1       2.179 -29.181  -6.576  1.00  0.00     0.000 C 
BRANCH   4   5
ATOM      5  C   UNL     1       2.824 -30.567  -6.765  1.00  0.00     0.000 C 
BRANCH   5   6
ATOM      6  C   UNL     1       2.023 -31.698  -6.098  1.00  0.00     0.000 C 
BRANCH   6   7
ATOM      7  C   UNL     1       1.037 -31.181  -5.035  1.00  0.00     0.006 C 
BRANCH   7   8
ATOM      8  C   UNL     1      -0.410 -31.669  -5.220  1.00  0.00     0.053 C 
BRANCH   8   9
ATOM      9  C   UNL     1      -1.309 -31.195  -4.119  1.00  0.00     0.041 C 
ATOM     10  O   UNL     1      -2.543 -31.053  -4.326  1.00  0.00    -0.550 OA
ATOM     11  O   UNL     1      -0.789 -30.942  -2.856  1.00  0.00    -0.550 OA
ENDBRANCH   8   9
ENDBRANCH   7   8
ENDBRANCH   6   7
ENDBRANCH   5   6
ENDBRANCH   4   5
ENDBRANCH   3   4
ENDBRANCH   2   3
ENDBRANCH   1   2
BRANCH   1  12
ATOM     12  C   UNL     1       3.564 -24.769  -5.607  1.00  0.00     0.000 C 
BRANCH  12  13
ATOM     13  C   UNL     1       2.371 -23.994  -5.011  1.00  0.00    -0.000 C 
BRANCH  13  14
ATOM     14  C   UNL     1       1.532 -23.201  -6.029  1.00  0.00    -0.000 C 
BRANCH  14  15
ATOM     15  C   UNL     1       0.061 -23.647  -6.068  1.00  0.00    -0.000 C 
BRANCH  15  16
ATOM     16  C   UNL     1      -0.841 -22.675  -6.850  1.00  0.00    -0.000 C 
BRANCH  16  17
ATOM     17  C   UNL     1      -2.311 -22.637  -6.395  1.00  0.00    -0.000 C 
BRANCH  17  18
ATOM     18  C   UNL     1      -2.789 -21.219  -6.036  1.00  0.00    -0.000 C 
BRANCH  18  19
ATOM     19  C   UNL     1      -4.220 -20.940  -6.520  1.00  0.00    -0.003 C 
ATOM     20  C   UNL     1      -4.636 -19.483  -6.321  1.00  0.00     0.004 C 
ENDBRANCH  18  19
ENDBRANCH  17  18
ENDBRANCH  16  17
ENDBRANCH  15  16
ENDBRANCH  14  15
ENDBRANCH  13  14
ENDBRANCH  12  13
ENDBRANCH   1  12
TORSDOF 16
ENDMDL
MODEL 8
REMARK VINA RESULT:     5.750     17.727     21.515
REMARK INTER + INTRA:          11.003
REMARK INTER:                  11.663
REMARK INTRA:                  -0.660
REMARK UNBOUND:                -0.126
REMARK SMILES CCCCCCCCCCCCCCCCCC(=O)[O-]
REMARK SMILES IDX 10 1 11 2 12 3 13 4 14 5 15 6 16 7 17 8 18 9 19 10 20 11
REMARK SMILES IDX 9 12 8 13 7 14 6 15 5 16 4 17 3 18 2 19 1 20
REMARK H PARENT
REMARK Flexibility Score: inf
ROOT
ATOM      1  C   UNL     1       3.333 -15.013   6.981  1.00  0.00     0.000 C 
ENDROOT
BRANCH   1   2
ATOM      2  C   UNL     1       2.982 -14.129   8.192  1.00  0.00     0.000 C 
BRANCH   2   3
ATOM      3  C   UNL     1       3.565 -12.711   8.086  1.00  0.00     0.000 C 
BRANCH   3   4
ATOM      4  C   UNL     1       3.356 -11.876   9.363  1.00  0.00     0.000 C 
BRANCH   4   5
ATOM      5  C   UNL     1       1.941 -11.939   9.970  1.00  0.00     0.000 C 
BRANCH   5   6
ATOM      6  C   UNL     1       1.931 -12.463  11.416  1.00  0.00     0.000 C 
BRANCH   6   7
ATOM      7  C   UNL     1       3.294 -12.303  12.115  1.00  0.00     0.006 C 
BRANCH   7   8
ATOM      8  C   UNL     1       4.157 -13.576  12.123  1.00  0.00     0.053 C 
BRANCH   8   9
ATOM      9  C   UNL     1       5.596 -13.282  11.829  1.00  0.00     0.041 C 
ATOM     10  O   UNL     1       6.017 -12.096  11.851  1.00  0.00    -0.550 OA
ATOM     11  O   UNL     1       6.478 -14.322  11.565  1.00  0.00    -0.550 OA
ENDBRANCH   8   9
ENDBRANCH   7   8
ENDBRANCH   6   7
ENDBRANCH   5   6
ENDBRANCH   4   5
ENDBRANCH   3   4
ENDBRANCH   2   3
ENDBRANCH   1   2
BRANCH   1  12
ATOM     12  C   UNL     1       3.685 -14.246   5.690  1.00  0.00     0.000 C 
BRANCH  12  13
ATOM     13  C   UNL     1       2.506 -14.007   4.725  1.00  0.00    -0.000 C 
BRANCH  13  14
ATOM     14  C   UNL     1       1.385 -13.104   5.272  1.00  0.00    -0.000 C 
BRANCH  14  15
ATOM     15  C   UNL     1       0.364 -13.872   6.127  1.00  0.00    -0.000 C 
BRANCH  15  16
ATOM     16  C   UNL     1      -0.902 -14.263   5.343  1.00  0.00    -0.000 C 
BRANCH  16  17
ATOM     17  C   UNL     1      -0.646 -14.929   3.979  1.00  0.00    -0.000 C 
BRANCH  17  18
ATOM     18  C   UNL     1      -1.930 -15.476   3.330  1.00  0.00    -0.000 C 
BRANCH  18  19
ATOM     19  C   UNL     1      -2.911 -16.055   4.360  1.00  0.00    -0.003 C 
ATOM     20  C   UNL     1      -3.848 -17.102   3.759  1.00  0.00     0.004 C 
ENDBRANCH  18  19
ENDBRANCH  17  18
ENDBRANCH  16  17
ENDBRANCH  15  16
ENDBRANCH  14  15
ENDBRANCH  13  14
ENDBRANCH  12  13
ENDBRANCH   1  12
TORSDOF 16
ENDMDL
MODEL 9
REMARK VINA RESULT:     6.026      5.164      7.231
REMARK INTER + INTRA:          11.536
REMARK INTER:                  12.173
REMARK INTRA:                  -0.637
REMARK UNBOUND:                -0.126
REMARK SMILES CCCCCCCCCCCCCCCCCC(=O)[O-]
REMARK SMILES IDX 10 1 11 2 12 3 13 4 14 5 15 6 16 7 17 8 18 9 19 10 20 11
REMARK SMILES IDX 9 12 8 13 7 14 6 15 5 16 4 17 3 18 2 19 1 20
REMARK H PARENT
REMARK Flexibility Score: inf
ROOT
ATOM      1  C   UNL     1       2.614 -27.754  -7.429  1.00  0.00     0.000 C 
ENDROOT
BRANCH   1   2
ATOM      2  C   UNL     1       2.062 -28.917  -6.585  1.00  0.00     0.000 C 
BRANCH   2   3
ATOM      3  C   UNL     1       2.583 -30.289  -7.043  1.00  0.00     0.000 C 
BRANCH   3   4
ATOM      4  C   UNL     1       1.717 -31.460  -6.544  1.00  0.00     0.000 C 
BRANCH   4   5
ATOM      5  C   UNL     1       1.475 -31.503  -5.023  1.00  0.00     0.000 C 
BRANCH   5   6
ATOM      6  C   UNL     1       0.013 -31.215  -4.640  1.00  0.00     0.000 C 
BRANCH   6   7
ATOM      7  C   UNL     1      -0.217 -31.232  -3.117  1.00  0.00     0.006 C 
BRANCH   7   8
ATOM      8  C   UNL     1       0.773 -30.369  -2.316  1.00  0.00     0.053 C 
BRANCH   8   9
ATOM      9  C   UNL     1       0.810 -30.752  -0.869  1.00  0.00     0.041 C 
ATOM     10  O   UNL     1       0.284 -31.830  -0.486  1.00  0.00    -0.550 OA
ATOM     11  O   UNL     1       1.456 -29.936   0.051  1.00  0.00    -0.550 OA
ENDBRANCH   8   9
ENDBRANCH   7   8
ENDBRANCH   6   7
ENDBRANCH   5   6
ENDBRANCH   4   5
ENDBRANCH   3   4
ENDBRANCH   2   3
ENDBRANCH   1   2
BRANCH   1  12
ATOM     12  C   UNL     1       2.313 -26.345  -6.880  1.00  0.00     0.000 C 
BRANCH  12  13
ATOM     13  C   UNL     1       1.092 -25.642  -7.507  1.00  0.00    -0.000 C 
BRANCH  13  14
ATOM     14  C   UNL     1       0.676 -24.324  -6.830  1.00  0.00    -0.000 C 
BRANCH  14  15
ATOM     15  C   UNL     1      -0.285 -23.487  -7.690  1.00  0.00    -0.000 C 
BRANCH  15  16
ATOM     16  C   UNL     1      -0.947 -22.339  -6.907  1.00  0.00    -0.000 C 
BRANCH  16  17
ATOM     17  C   UNL     1      -2.260 -22.707  -6.192  1.00  0.00    -0.000 C 
BRANCH  17  18
ATOM     18  C   UNL     1      -2.811 -21.561  -5.325  1.00  0.00    -0.000 C 
BRANCH  18  19
ATOM     19  C   UNL     1      -3.673 -20.575  -6.128  1.00  0.00    -0.003 C 
ATOM     20  C   UNL     1      -4.758 -21.273  -6.947  1.00  0.00     0.004 C 
ENDBRANCH  18  19
ENDBRANCH  17  18
ENDBRANCH  16  17
ENDBRANCH  15  16
ENDBRANCH  14  15
ENDBRANCH  13  14
ENDBRANCH  12  13
ENDBRANCH   1  12
TORSDOF 16
ENDMDL
