MODEL 1
REMARK VINA RESULT:    -2.452      0.000      0.000
REMARK INTER + INTRA:          -7.258
REMARK INTER:                  -6.178
REMARK INTRA:                  -1.080
REMARK UNBOUND:                -1.080
REMARK SMILES CCCCCCCCCCCCCCCCCCCCCCCCCCCC(=O)[O-]
REMARK SMILES IDX 15 1 16 2 17 3 18 4 19 5 20 6 21 7 22 8 23 9 24 10 25 11
REMARK SMILES IDX 26 12 27 13 28 14 29 15 30 16 14 17 13 18 12 19 11 20 10 21
REMARK SMILES IDX 9 22 8 23 7 24 6 25 5 26 4 27 3 28 2 29 1 30
REMARK H PARENT
REMARK Flexibility Score: inf
ROOT
ATOM      1  C   UNL     1      -0.705  24.328   3.461  1.00  0.00     0.000 C 
ENDROOT
BRANCH   1   2
ATOM      2  C   UNL     1      -0.708  23.260   4.568  1.00  0.00     0.000 C 
BRANCH   2   3
ATOM      3  C   UNL     1      -0.434  21.843   4.039  1.00  0.00     0.000 C 
BRANCH   3   4
ATOM      4  C   UNL     1      -1.688  20.949   4.041  1.00  0.00     0.000 C 
BRANCH   4   5
ATOM      5  C   UNL     1      -2.951  21.646   3.494  1.00  0.00     0.000 C 
BRANCH   5   6
ATOM      6  C   UNL     1      -3.300  21.195   2.062  1.00  0.00     0.000 C 
BRANCH   6   7
ATOM      7  C   UNL     1      -4.800  20.905   1.887  1.00  0.00     0.000 C 
BRANCH   7   8
ATOM      8  C   UNL     1      -5.598  21.132   3.184  1.00  0.00     0.000 C 
BRANCH   8   9
ATOM      9  C   UNL     1      -6.982  21.764   2.936  1.00  0.00     0.000 C 
BRANCH   9  10
ATOM     10  C   UNL     1      -8.131  21.162   3.765  1.00  0.00     0.000 C 
BRANCH  10  11
ATOM     11  C   UNL     1      -9.519  21.439   3.158  1.00  0.00     0.000 C 
BRANCH  11  12
ATOM     12  C   UNL     1     -10.517  21.968   4.201  1.00  0.00     0.006 C 
BRANCH  12  13
ATOM     13  C   UNL     1     -10.676  23.491   4.137  1.00  0.00     0.053 C 
BRANCH  13  14
ATOM     14  C   UNL     1     -11.134  23.910   2.775  1.00  0.00     0.041 C 
ATOM     15  O   UNL     1     -10.411  24.653   2.063  1.00  0.00    -0.550 OA
ATOM     16  O   UNL     1     -12.332  23.417   2.263  1.00  0.00    -0.550 OA
ENDBRANCH  13  14
ENDBRANCH  12  13
ENDBRANCH  11  12
ENDBRANCH  10  11
ENDBRANCH   9  10
ENDBRANCH   8   9
ENDBRANCH   7   8
ENDBRANCH   6   7
ENDBRANCH   5   6
ENDBRANCH   4   5
ENDBRANCH   3   4
ENDBRANCH   2   3
ENDBRANCH   1   2
BRANCH   1  17
ATOM     17  C   UNL     1       0.470  24.194   2.469  1.00  0.00     0.000 C 
BRANCH  17  18
ATOM     18  C   UNL     1       0.893  22.734   2.241  1.00  0.00     0.000 C 
BRANCH  18  19
ATOM     19  C   UNL     1       2.420  22.616   2.123  1.00  0.00     0.000 C 
BRANCH  19  20
ATOM     20  C   UNL     1       3.163  23.240   3.316  1.00  0.00     0.000 C 
BRANCH  20  21
ATOM     21  C   UNL     1       4.581  23.723   2.951  1.00  0.00     0.000 C 
BRANCH  21  22
ATOM     22  C   UNL     1       5.007  24.989   3.725  1.00  0.00    -0.000 C 
BRANCH  22  23
ATOM     23  C   UNL     1       6.446  24.950   4.277  1.00  0.00    -0.000 C 
BRANCH  23  24
ATOM     24  C   UNL     1       6.570  24.716   5.792  1.00  0.00    -0.000 C 
BRANCH  24  25
ATOM     25  C   UNL     1       6.700  23.227   6.160  1.00  0.00    -0.000 C 
BRANCH  25  26
ATOM     26  C   UNL     1       6.133  22.907   7.550  1.00  0.00    -0.000 C 
BRANCH  26  27
ATOM     27  C   UNL     1       4.596  22.882   7.575  1.00  0.00    -0.000 C 
BRANCH  27  28
ATOM     28  C   UNL     1       4.004  21.791   6.665  1.00  0.00    -0.000 C 
BRANCH  28  29
ATOM     29  C   UNL     1       2.463  21.726   6.694  1.00  0.00    -0.003 C 
ATOM     30  C   UNL     1       1.817  23.111   6.774  1.00  0.00     0.004 C 
ENDBRANCH  28  29
ENDBRANCH  27  28
ENDBRANCH  26  27
ENDBRANCH  25  26
ENDBRANCH  24  25
ENDBRANCH  23  24
ENDBRANCH  22  23
ENDBRANCH  21  22
ENDBRANCH  20  21
ENDBRANCH  19  20
ENDBRANCH  18  19
ENDBRANCH  17  18
ENDBRANCH   1  17
TORSDOF 26
ENDMDL
MODEL 2
REMARK VINA RESULT:    -2.439      1.524      3.235
REMARK INTER + INTRA:          -7.227
REMARK INTER:                  -4.641
REMARK INTRA:                  -2.586
REMARK UNBOUND:                -1.080
REMARK SMILES CCCCCCCCCCCCCCCCCCCCCCCCCCCC(=O)[O-]
REMARK SMILES IDX 15 1 16 2 17 3 18 4 19 5 20 6 21 7 22 8 23 9 24 10 25 11
REMARK SMILES IDX 26 12 27 13 28 14 29 15 30 16 14 17 13 18 12 19 11 20 10 21
REMARK SMILES IDX 9 22 8 23 7 24 6 25 5 26 4 27 3 28 2 29 1 30
REMARK H PARENT
REMARK Flexibility Score: inf
ROOT
ATOM      1  C   UNL     1       0.785  23.226   5.374  1.00  0.00     0.000 C 
ENDROOT
BRANCH   1   2
ATOM      2  C   UNL     1      -0.535  23.179   4.584  1.00  0.00     0.000 C 
BRANCH   2   3
ATOM      3  C   UNL     1      -0.456  22.293   3.331  1.00  0.00     0.000 C 
BRANCH   3   4
ATOM      4  C   UNL     1      -1.791  22.211   2.569  1.00  0.00     0.000 C 
BRANCH   4   5
ATOM      5  C   UNL     1      -2.981  21.764   3.444  1.00  0.00     0.000 C 
BRANCH   5   6
ATOM      6  C   UNL     1      -4.342  22.077   2.792  1.00  0.00     0.000 C 
BRANCH   6   7
ATOM      7  C   UNL     1      -4.879  20.901   1.960  1.00  0.00     0.000 C 
BRANCH   7   8
ATOM      8  C   UNL     1      -6.418  20.875   1.905  1.00  0.00     0.000 C 
BRANCH   8   9
ATOM      9  C   UNL     1      -7.062  22.178   2.417  1.00  0.00     0.000 C 
BRANCH   9  10
ATOM     10  C   UNL     1      -8.496  22.436   1.919  1.00  0.00     0.000 C 
BRANCH  10  11
ATOM     11  C   UNL     1      -8.994  23.859   2.233  1.00  0.00     0.000 C 
BRANCH  11  12
ATOM     12  C   UNL     1     -10.365  23.857   2.929  1.00  0.00     0.006 C 
BRANCH  12  13
ATOM     13  C   UNL     1     -10.977  22.453   3.009  1.00  0.00     0.053 C 
BRANCH  13  14
ATOM     14  C   UNL     1     -10.910  21.935   4.411  1.00  0.00     0.041 C 
ATOM     15  O   UNL     1      -9.855  22.061   5.085  1.00  0.00    -0.550 OA
ATOM     16  O   UNL     1     -12.042  21.377   5.000  1.00  0.00    -0.550 OA
ENDBRANCH  13  14
ENDBRANCH  12  13
ENDBRANCH  11  12
ENDBRANCH  10  11
ENDBRANCH   9  10
ENDBRANCH   8   9
ENDBRANCH   7   8
ENDBRANCH   6   7
ENDBRANCH   5   6
ENDBRANCH   4   5
ENDBRANCH   3   4
ENDBRANCH   2   3
ENDBRANCH   1   2
BRANCH   1  17
ATOM     17  C   UNL     1       0.783  22.350   6.645  1.00  0.00     0.000 C 
BRANCH  17  18
ATOM     18  C   UNL     1       1.689  21.115   6.518  1.00  0.00     0.000 C 
BRANCH  18  19
ATOM     19  C   UNL     1       2.749  21.095   7.629  1.00  0.00     0.000 C 
BRANCH  19  20
ATOM     20  C   UNL     1       4.171  21.361   7.106  1.00  0.00     0.000 C 
BRANCH  20  21
ATOM     21  C   UNL     1       4.478  22.863   6.943  1.00  0.00     0.000 C 
BRANCH  21  22
ATOM     22  C   UNL     1       5.946  23.142   6.556  1.00  0.00    -0.000 C 
BRANCH  22  23
ATOM     23  C   UNL     1       6.298  24.636   6.407  1.00  0.00    -0.000 C 
BRANCH  23  24
ATOM     24  C   UNL     1       7.124  25.003   5.162  1.00  0.00    -0.000 C 
BRANCH  24  25
ATOM     25  C   UNL     1       6.736  24.178   3.921  1.00  0.00    -0.000 C 
BRANCH  25  26
ATOM     26  C   UNL     1       6.056  25.024   2.835  1.00  0.00    -0.000 C 
BRANCH  26  27
ATOM     27  C   UNL     1       4.836  24.325   2.215  1.00  0.00    -0.000 C 
BRANCH  27  28
ATOM     28  C   UNL     1       4.777  22.824   2.548  1.00  0.00    -0.000 C 
BRANCH  28  29
ATOM     29  C   UNL     1       3.482  22.397   3.270  1.00  0.00    -0.003 C 
ATOM     30  C   UNL     1       3.330  20.876   3.357  1.00  0.00     0.004 C 
ENDBRANCH  28  29
ENDBRANCH  27  28
ENDBRANCH  26  27
ENDBRANCH  25  26
ENDBRANCH  24  25
ENDBRANCH  23  24
ENDBRANCH  22  23
ENDBRANCH  21  22
ENDBRANCH  20  21
ENDBRANCH  19  20
ENDBRANCH  18  19
ENDBRANCH  17  18
ENDBRANCH   1  17
TORSDOF 26
ENDMDL
MODEL 3
REMARK VINA RESULT:    -2.379      3.353     11.535
REMARK INTER + INTRA:          -7.076
REMARK INTER:                  -5.142
REMARK INTRA:                  -1.935
REMARK UNBOUND:                -1.080
REMARK SMILES CCCCCCCCCCCCCCCCCCCCCCCCCCCC(=O)[O-]
REMARK SMILES IDX 15 1 16 2 17 3 18 4 19 5 20 6 21 7 22 8 23 9 24 10 25 11
REMARK SMILES IDX 26 12 27 13 28 14 29 15 30 16 14 17 13 18 12 19 11 20 10 21
REMARK SMILES IDX 9 22 8 23 7 24 6 25 5 26 4 27 3 28 2 29 1 30
REMARK H PARENT
REMARK Flexibility Score: inf
ROOT
ATOM      1  C   UNL     1       1.614  23.672   3.472  1.00  0.00     0.000 C 
ENDROOT
BRANCH   1   2
ATOM      2  C   UNL     1       2.976  24.054   2.865  1.00  0.00     0.000 C 
BRANCH   2   3
ATOM      3  C   UNL     1       4.064  22.997   3.115  1.00  0.00     0.000 C 
BRANCH   3   4
ATOM      4  C   UNL     1       5.490  23.557   2.966  1.00  0.00     0.000 C 
BRANCH   4   5
ATOM      5  C   UNL     1       6.171  23.894   4.309  1.00  0.00     0.000 C 
BRANCH   5   6
ATOM      6  C   UNL     1       5.209  24.575   5.302  1.00  0.00     0.000 C 
BRANCH   6   7
ATOM      7  C   UNL     1       5.606  24.328   6.767  1.00  0.00     0.000 C 
BRANCH   7   8
ATOM      8  C   UNL     1       7.011  23.713   6.900  1.00  0.00     0.000 C 
BRANCH   8   9
ATOM      9  C   UNL     1       6.982  22.202   7.202  1.00  0.00     0.000 C 
BRANCH   9  10
ATOM     10  C   UNL     1       5.677  21.691   7.840  1.00  0.00     0.000 C 
BRANCH  10  11
ATOM     11  C   UNL     1       4.688  21.120   6.807  1.00  0.00     0.000 C 
BRANCH  11  12
ATOM     12  C   UNL     1       3.294  21.758   6.919  1.00  0.00     0.006 C 
BRANCH  12  13
ATOM     13  C   UNL     1       2.201  20.887   6.289  1.00  0.00     0.053 C 
BRANCH  13  14
ATOM     14  C   UNL     1       0.846  21.381   6.689  1.00  0.00     0.041 C 
ATOM     15  O   UNL     1       0.725  22.211   7.625  1.00  0.00    -0.550 OA
ATOM     16  O   UNL     1      -0.279  20.978   5.974  1.00  0.00    -0.550 OA
ENDBRANCH  13  14
ENDBRANCH  12  13
ENDBRANCH  11  12
ENDBRANCH  10  11
ENDBRANCH   9  10
ENDBRANCH   8   9
ENDBRANCH   7   8
ENDBRANCH   6   7
ENDBRANCH   5   6
ENDBRANCH   4   5
ENDBRANCH   3   4
ENDBRANCH   2   3
ENDBRANCH   1   2
BRANCH   1  17
ATOM     17  C   UNL     1       0.432  24.497   2.919  1.00  0.00     0.000 C 
BRANCH  17  18
ATOM     18  C   UNL     1      -0.895  24.182   3.626  1.00  0.00     0.000 C 
BRANCH  18  19
ATOM     19  C   UNL     1      -1.756  23.232   2.780  1.00  0.00     0.000 C 
BRANCH  19  20
ATOM     20  C   UNL     1      -2.465  22.156   3.620  1.00  0.00     0.000 C 
BRANCH  20  21
ATOM     21  C   UNL     1      -3.174  21.093   2.757  1.00  0.00     0.000 C 
BRANCH  21  22
ATOM     22  C   UNL     1      -4.296  21.680   1.875  1.00  0.00    -0.000 C 
BRANCH  22  23
ATOM     23  C   UNL     1      -5.615  20.883   1.899  1.00  0.00    -0.000 C 
BRANCH  23  24
ATOM     24  C   UNL     1      -6.711  21.438   2.824  1.00  0.00    -0.000 C 
BRANCH  24  25
ATOM     25  C   UNL     1      -7.502  22.596   2.188  1.00  0.00    -0.000 C 
BRANCH  25  26
ATOM     26  C   UNL     1      -9.016  22.343   2.171  1.00  0.00    -0.000 C 
BRANCH  26  27
ATOM     27  C   UNL     1      -9.478  21.419   3.310  1.00  0.00    -0.000 C 
BRANCH  27  28
ATOM     28  C   UNL     1      -9.952  22.197   4.551  1.00  0.00    -0.000 C 
BRANCH  28  29
ATOM     29  C   UNL     1     -10.837  23.417   4.219  1.00  0.00    -0.003 C 
ATOM     30  C   UNL     1     -12.305  23.038   4.008  1.00  0.00     0.004 C 
ENDBRANCH  28  29
ENDBRANCH  27  28
ENDBRANCH  26  27
ENDBRANCH  25  26
ENDBRANCH  24  25
ENDBRANCH  23  24
ENDBRANCH  22  23
ENDBRANCH  21  22
ENDBRANCH  20  21
ENDBRANCH  19  20
ENDBRANCH  18  19
ENDBRANCH  17  18
ENDBRANCH   1  17
TORSDOF 26
ENDMDL
MODEL 4
REMARK VINA RESULT:    -2.330      1.320      3.474
REMARK INTER + INTRA:          -6.951
REMARK INTER:                  -4.770
REMARK INTRA:                  -2.181
REMARK UNBOUND:                -1.080
REMARK SMILES CCCCCCCCCCCCCCCCCCCCCCCCCCCC(=O)[O-]
REMARK SMILES IDX 15 1 16 2 17 3 18 4 19 5 20 6 21 7 22 8 23 9 24 10 25 11
REMARK SMILES IDX 26 12 27 13 28 14 29 15 30 16 14 17 13 18 12 19 11 20 10 21
REMARK SMILES IDX 9 22 8 23 7 24 6 25 5 26 4 27 3 28 2 29 1 30
REMARK H PARENT
REMARK Flexibility Score: inf
ROOT
ATOM      1  C   UNL     1       1.432  23.398   5.820  1.00  0.00     0.000 C 
ENDROOT
BRANCH   1   2
ATOM      2  C   UNL     1       0.289  22.646   5.114  1.00  0.00     0.000 C 
BRANCH   2   3
ATOM      3  C   UNL     1       0.695  22.083   3.743  1.00  0.00     0.000 C 
BRANCH   3   4
ATOM      4  C   UNL     1      -0.424  22.199   2.692  1.00  0.00     0.000 C 
BRANCH   4   5
ATOM      5  C   UNL     1      -1.521  21.122   2.829  1.00  0.00     0.000 C 
BRANCH   5   6
ATOM      6  C   UNL     1      -2.939  21.725   2.846  1.00  0.00     0.000 C 
BRANCH   6   7
ATOM      7  C   UNL     1      -3.894  21.009   1.876  1.00  0.00     0.000 C 
BRANCH   7   8
ATOM      8  C   UNL     1      -5.349  21.002   2.381  1.00  0.00     0.000 C 
BRANCH   8   9
ATOM      9  C   UNL     1      -5.455  20.876   3.913  1.00  0.00     0.000 C 
BRANCH   9  10
ATOM     10  C   UNL     1      -6.824  21.257   4.505  1.00  0.00     0.000 C 
BRANCH  10  11
ATOM     11  C   UNL     1      -7.660  22.141   3.561  1.00  0.00     0.000 C 
BRANCH  11  12
ATOM     12  C   UNL     1      -9.085  21.598   3.363  1.00  0.00     0.006 C 
BRANCH  12  13
ATOM     13  C   UNL     1      -9.830  21.416   4.690  1.00  0.00     0.053 C 
BRANCH  13  14
ATOM     14  C   UNL     1     -11.086  22.228   4.698  1.00  0.00     0.041 C 
ATOM     15  O   UNL     1     -11.075  23.419   4.292  1.00  0.00    -0.550 OA
ATOM     16  O   UNL     1     -12.289  21.644   5.086  1.00  0.00    -0.550 OA
ENDBRANCH  13  14
ENDBRANCH  12  13
ENDBRANCH  11  12
ENDBRANCH  10  11
ENDBRANCH   9  10
ENDBRANCH   8   9
ENDBRANCH   7   8
ENDBRANCH   6   7
ENDBRANCH   5   6
ENDBRANCH   4   5
ENDBRANCH   3   4
ENDBRANCH   2   3
ENDBRANCH   1   2
BRANCH   1  17
ATOM     17  C   UNL     1       2.093  22.597   6.962  1.00  0.00     0.000 C 
BRANCH  17  18
ATOM     18  C   UNL     1       3.199  21.653   6.464  1.00  0.00     0.000 C 
BRANCH  18  19
ATOM     19  C   UNL     1       3.872  20.927   7.639  1.00  0.00     0.000 C 
BRANCH  19  20
ATOM     20  C   UNL     1       5.222  21.550   8.034  1.00  0.00     0.000 C 
BRANCH  20  21
ATOM     21  C   UNL     1       5.329  23.040   7.654  1.00  0.00     0.000 C 
BRANCH  21  22
ATOM     22  C   UNL     1       6.546  23.350   6.757  1.00  0.00    -0.000 C 
BRANCH  22  23
ATOM     23  C   UNL     1       6.556  24.769   6.156  1.00  0.00    -0.000 C 
BRANCH  23  24
ATOM     24  C   UNL     1       6.229  24.858   4.656  1.00  0.00    -0.000 C 
BRANCH  24  25
ATOM     25  C   UNL     1       6.559  23.562   3.893  1.00  0.00    -0.000 C 
BRANCH  25  26
ATOM     26  C   UNL     1       6.113  23.607   2.424  1.00  0.00    -0.000 C 
BRANCH  26  27
ATOM     27  C   UNL     1       4.762  22.913   2.191  1.00  0.00    -0.000 C 
BRANCH  27  28
ATOM     28  C   UNL     1       3.583  23.682   2.813  1.00  0.00    -0.000 C 
BRANCH  28  29
ATOM     29  C   UNL     1       3.220  24.980   2.060  1.00  0.00    -0.003 C 
ATOM     30  C   UNL     1       1.772  25.413   2.299  1.00  0.00     0.004 C 
ENDBRANCH  28  29
ENDBRANCH  27  28
ENDBRANCH  26  27
ENDBRANCH  25  26
ENDBRANCH  24  25
ENDBRANCH  23  24
ENDBRANCH  22  23
ENDBRANCH  21  22
ENDBRANCH  20  21
ENDBRANCH  19  20
ENDBRANCH  18  19
ENDBRANCH  17  18
ENDBRANCH   1  17
TORSDOF 26
ENDMDL
MODEL 5
REMARK VINA RESULT:    -2.258      1.682      3.570
REMARK INTER + INTRA:          -6.771
REMARK INTER:                  -5.775
REMARK INTRA:                  -0.995
REMARK UNBOUND:                -1.080
REMARK SMILES CCCCCCCCCCCCCCCCCCCCCCCCCCCC(=O)[O-]
REMARK SMILES IDX 15 1 16 2 17 3 18 4 19 5 20 6 21 7 22 8 23 9 24 10 25 11
REMARK SMILES IDX 26 12 27 13 28 14 29 15 30 16 14 17 13 18 12 19 11 20 10 21
REMARK SMILES IDX 9 22 8 23 7 24 6 25 5 26 4 27 3 28 2 29 1 30
REMARK H PARENT
REMARK Flexibility Score: inf
ROOT
ATOM      1  C   UNL     1      -0.298  21.906   7.233  1.00  0.00     0.000 C 
ENDROOT
BRANCH   1   2
ATOM      2  C   UNL     1      -1.080  20.952   6.314  1.00  0.00     0.000 C 
BRANCH   2   3
ATOM      3  C   UNL     1      -1.649  21.648   5.067  1.00  0.00     0.000 C 
BRANCH   3   4
ATOM      4  C   UNL     1      -2.872  20.920   4.479  1.00  0.00     0.000 C 
BRANCH   4   5
ATOM      5  C   UNL     1      -3.097  21.194   2.977  1.00  0.00     0.000 C 
BRANCH   5   6
ATOM      6  C   UNL     1      -4.331  22.079   2.718  1.00  0.00     0.000 C 
BRANCH   6   7
ATOM      7  C   UNL     1      -5.401  21.365   1.876  1.00  0.00     0.000 C 
BRANCH   7   8
ATOM      8  C   UNL     1      -6.594  20.885   2.723  1.00  0.00     0.000 C 
BRANCH   8   9
ATOM      9  C   UNL     1      -7.923  20.875   1.941  1.00  0.00     0.000 C 
BRANCH   9  10
ATOM     10  C   UNL     1      -9.191  20.920   2.812  1.00  0.00     0.000 C 
BRANCH  10  11
ATOM     11  C   UNL     1      -9.605  22.353   3.195  1.00  0.00     0.000 C 
BRANCH  11  12
ATOM     12  C   UNL     1     -10.114  22.446   4.643  1.00  0.00     0.006 C 
BRANCH  12  13
ATOM     13  C   UNL     1     -10.842  21.173   5.088  1.00  0.00     0.053 C 
BRANCH  13  14
ATOM     14  C   UNL     1     -12.324  21.378   5.044  1.00  0.00     0.041 C 
ATOM     15  O   UNL     1     -12.979  21.500   6.111  1.00  0.00    -0.550 OA
ATOM     16  O   UNL     1     -12.971  21.509   3.819  1.00  0.00    -0.550 OA
ENDBRANCH  13  14
ENDBRANCH  12  13
ENDBRANCH  11  12
ENDBRANCH  10  11
ENDBRANCH   9  10
ENDBRANCH   8   9
ENDBRANCH   7   8
ENDBRANCH   6   7
ENDBRANCH   5   6
ENDBRANCH   4   5
ENDBRANCH   3   4
ENDBRANCH   2   3
ENDBRANCH   1   2
BRANCH   1  17
ATOM     17  C   UNL     1       1.235  21.800   7.082  1.00  0.00     0.000 C 
BRANCH  17  18
ATOM     18  C   UNL     1       1.908  23.167   6.880  1.00  0.00     0.000 C 
BRANCH  18  19
ATOM     19  C   UNL     1       3.437  23.023   6.828  1.00  0.00     0.000 C 
BRANCH  19  20
ATOM     20  C   UNL     1       3.909  21.569   6.990  1.00  0.00     0.000 C 
BRANCH  20  21
ATOM     21  C   UNL     1       4.902  21.387   8.154  1.00  0.00     0.000 C 
BRANCH  21  22
ATOM     22  C   UNL     1       6.337  21.070   7.682  1.00  0.00    -0.000 C 
BRANCH  22  23
ATOM     23  C   UNL     1       6.517  21.036   6.151  1.00  0.00    -0.000 C 
BRANCH  23  24
ATOM     24  C   UNL     1       6.993  22.351   5.509  1.00  0.00    -0.000 C 
BRANCH  24  25
ATOM     25  C   UNL     1       6.407  23.599   6.194  1.00  0.00    -0.000 C 
BRANCH  25  26
ATOM     26  C   UNL     1       6.769  24.901   5.465  1.00  0.00    -0.000 C 
BRANCH  26  27
ATOM     27  C   UNL     1       6.235  24.946   4.025  1.00  0.00    -0.000 C 
BRANCH  27  28
ATOM     28  C   UNL     1       4.719  24.693   3.945  1.00  0.00    -0.000 C 
BRANCH  28  29
ATOM     29  C   UNL     1       4.086  25.122   2.604  1.00  0.00    -0.003 C 
ATOM     30  C   UNL     1       2.930  24.213   2.182  1.00  0.00     0.004 C 
ENDBRANCH  28  29
ENDBRANCH  27  28
ENDBRANCH  26  27
ENDBRANCH  25  26
ENDBRANCH  24  25
ENDBRANCH  23  24
ENDBRANCH  22  23
ENDBRANCH  21  22
ENDBRANCH  20  21
ENDBRANCH  19  20
ENDBRANCH  18  19
ENDBRANCH  17  18
ENDBRANCH   1  17
TORSDOF 26
ENDMDL
MODEL 6
REMARK VINA RESULT:    -2.107      1.089      3.298
REMARK INTER + INTRA:          -6.390
REMARK INTER:                  -4.982
REMARK INTRA:                  -1.407
REMARK UNBOUND:                -1.080
REMARK SMILES CCCCCCCCCCCCCCCCCCCCCCCCCCCC(=O)[O-]
REMARK SMILES IDX 15 1 16 2 17 3 18 4 19 5 20 6 21 7 22 8 23 9 24 10 25 11
REMARK SMILES IDX 26 12 27 13 28 14 29 15 30 16 14 17 13 18 12 19 11 20 10 21
REMARK SMILES IDX 9 22 8 23 7 24 6 25 5 26 4 27 3 28 2 29 1 30
REMARK H PARENT
REMARK Flexibility Score: inf
ROOT
ATOM      1  C   UNL     1       0.527  21.261   7.051  1.00  0.00     0.000 C 
ENDROOT
BRANCH   1   2
ATOM      2  C   UNL     1       0.224  20.877   5.592  1.00  0.00     0.000 C 
BRANCH   2   3
ATOM      3  C   UNL     1      -0.580  21.950   4.841  1.00  0.00     0.000 C 
BRANCH   3   4
ATOM      4  C   UNL     1      -2.101  21.730   4.927  1.00  0.00     0.000 C 
BRANCH   4   5
ATOM      5  C   UNL     1      -2.679  20.910   3.754  1.00  0.00     0.000 C 
BRANCH   5   6
ATOM      6  C   UNL     1      -3.125  21.799   2.577  1.00  0.00     0.000 C 
BRANCH   6   7
ATOM      7  C   UNL     1      -4.508  21.405   2.034  1.00  0.00     0.000 C 
BRANCH   7   8
ATOM      8  C   UNL     1      -5.624  21.585   3.080  1.00  0.00     0.000 C 
BRANCH   8   9
ATOM      9  C   UNL     1      -7.008  21.138   2.569  1.00  0.00     0.000 C 
BRANCH   9  10
ATOM     10  C   UNL     1      -8.134  21.180   3.617  1.00  0.00     0.000 C 
BRANCH  10  11
ATOM     11  C   UNL     1      -9.518  21.456   3.001  1.00  0.00     0.000 C 
BRANCH  11  12
ATOM     12  C   UNL     1      -9.857  22.956   2.976  1.00  0.00     0.006 C 
BRANCH  12  13
ATOM     13  C   UNL     1     -11.273  23.243   3.488  1.00  0.00     0.053 C 
BRANCH  13  14
ATOM     14  C   UNL     1     -12.087  23.906   2.423  1.00  0.00     0.041 C 
ATOM     15  O   UNL     1     -13.081  23.317   1.925  1.00  0.00    -0.550 OA
ATOM     16  O   UNL     1     -11.791  25.210   2.033  1.00  0.00    -0.550 OA
ENDBRANCH  13  14
ENDBRANCH  12  13
ENDBRANCH  11  12
ENDBRANCH  10  11
ENDBRANCH   9  10
ENDBRANCH   8   9
ENDBRANCH   7   8
ENDBRANCH   6   7
ENDBRANCH   5   6
ENDBRANCH   4   5
ENDBRANCH   3   4
ENDBRANCH   2   3
ENDBRANCH   1   2
BRANCH   1  17
ATOM     17  C   UNL     1       1.998  21.657   7.300  1.00  0.00     0.000 C 
BRANCH  17  18
ATOM     18  C   UNL     1       2.280  23.132   6.972  1.00  0.00     0.000 C 
BRANCH  18  19
ATOM     19  C   UNL     1       3.746  23.333   6.560  1.00  0.00     0.000 C 
BRANCH  19  20
ATOM     20  C   UNL     1       4.522  22.011   6.442  1.00  0.00     0.000 C 
BRANCH  20  21
ATOM     21  C   UNL     1       5.721  21.932   7.408  1.00  0.00     0.000 C 
BRANCH  21  22
ATOM     22  C   UNL     1       6.695  23.121   7.261  1.00  0.00    -0.000 C 
BRANCH  22  23
ATOM     23  C   UNL     1       7.089  23.452   5.808  1.00  0.00    -0.000 C 
BRANCH  23  24
ATOM     24  C   UNL     1       6.189  24.473   5.092  1.00  0.00    -0.000 C 
BRANCH  24  25
ATOM     25  C   UNL     1       6.740  24.898   3.719  1.00  0.00    -0.000 C 
BRANCH  25  26
ATOM     26  C   UNL     1       5.730  24.687   2.582  1.00  0.00    -0.000 C 
BRANCH  26  27
ATOM     27  C   UNL     1       4.332  24.302   3.092  1.00  0.00    -0.000 C 
BRANCH  27  28
ATOM     28  C   UNL     1       3.207  24.774   2.153  1.00  0.00    -0.000 C 
BRANCH  28  29
ATOM     29  C   UNL     1       2.137  23.697   1.875  1.00  0.00    -0.003 C 
ATOM     30  C   UNL     1       2.256  22.493   2.812  1.00  0.00     0.004 C 
ENDBRANCH  28  29
ENDBRANCH  27  28
ENDBRANCH  26  27
ENDBRANCH  25  26
ENDBRANCH  24  25
ENDBRANCH  23  24
ENDBRANCH  22  23
ENDBRANCH  21  22
ENDBRANCH  20  21
ENDBRANCH  19  20
ENDBRANCH  18  19
ENDBRANCH  17  18
ENDBRANCH   1  17
TORSDOF 26
ENDMDL
MODEL 7
REMARK VINA RESULT:    -1.698      4.552     12.671
REMARK INTER + INTRA:          -5.359
REMARK INTER:                  -5.554
REMARK INTRA:                   0.195
REMARK UNBOUND:                -1.080
REMARK SMILES CCCCCCCCCCCCCCCCCCCCCCCCCCCC(=O)[O-]
REMARK SMILES IDX 15 1 16 2 17 3 18 4 19 5 20 6 21 7 22 8 23 9 24 10 25 11
REMARK SMILES IDX 26 12 27 13 28 14 29 15 30 16 14 17 13 18 12 19 11 20 10 21
REMARK SMILES IDX 9 22 8 23 7 24 6 25 5 26 4 27 3 28 2 29 1 30
REMARK H PARENT
REMARK Flexibility Score: inf
ROOT
ATOM      1  C   UNL     1      -0.558  22.366   5.118  1.00  0.00     0.000 C 
ENDROOT
BRANCH   1   2
ATOM      2  C   UNL     1      -0.319  23.778   4.553  1.00  0.00     0.000 C 
BRANCH   2   3
ATOM      3  C   UNL     1      -0.237  23.806   3.018  1.00  0.00     0.000 C 
BRANCH   3   4
ATOM      4  C   UNL     1       0.595  22.647   2.441  1.00  0.00     0.000 C 
BRANCH   4   5
ATOM      5  C   UNL     1       2.092  22.711   2.808  1.00  0.00     0.000 C 
BRANCH   5   6
ATOM      6  C   UNL     1       2.960  21.818   1.901  1.00  0.00     0.000 C 
BRANCH   6   7
ATOM      7  C   UNL     1       4.301  21.442   2.554  1.00  0.00     0.000 C 
BRANCH   7   8
ATOM      8  C   UNL     1       4.794  22.515   3.543  1.00  0.00     0.000 C 
BRANCH   8   9
ATOM      9  C   UNL     1       6.214  23.022   3.223  1.00  0.00     0.000 C 
BRANCH   9  10
ATOM     10  C   UNL     1       6.941  23.705   4.395  1.00  0.00     0.000 C 
BRANCH  10  11
ATOM     11  C   UNL     1       6.082  24.778   5.090  1.00  0.00     0.000 C 
BRANCH  11  12
ATOM     12  C   UNL     1       4.951  24.165   5.931  1.00  0.00     0.006 C 
BRANCH  12  13
ATOM     13  C   UNL     1       5.438  23.686   7.304  1.00  0.00     0.053 C 
BRANCH  13  14
ATOM     14  C   UNL     1       5.393  22.192   7.380  1.00  0.00     0.041 C 
ATOM     15  O   UNL     1       6.438  21.516   7.196  1.00  0.00    -0.550 OA
ATOM     16  O   UNL     1       4.208  21.550   7.729  1.00  0.00    -0.550 OA
ENDBRANCH  13  14
ENDBRANCH  12  13
ENDBRANCH  11  12
ENDBRANCH  10  11
ENDBRANCH   9  10
ENDBRANCH   8   9
ENDBRANCH   7   8
ENDBRANCH   6   7
ENDBRANCH   5   6
ENDBRANCH   4   5
ENDBRANCH   3   4
ENDBRANCH   2   3
ENDBRANCH   1   2
BRANCH   1  17
ATOM     17  C   UNL     1      -1.186  21.387   4.104  1.00  0.00     0.000 C 
BRANCH  17  18
ATOM     18  C   UNL     1      -2.575  21.838   3.623  1.00  0.00     0.000 C 
BRANCH  18  19
ATOM     19  C   UNL     1      -3.128  20.876   2.560  1.00  0.00     0.000 C 
BRANCH  19  20
ATOM     20  C   UNL     1      -4.415  21.393   1.896  1.00  0.00     0.000 C 
BRANCH  20  21
ATOM     21  C   UNL     1      -5.667  21.179   2.770  1.00  0.00     0.000 C 
BRANCH  21  22
ATOM     22  C   UNL     1      -6.896  21.968   2.269  1.00  0.00    -0.000 C 
BRANCH  22  23
ATOM     23  C   UNL     1      -8.166  21.118   2.069  1.00  0.00    -0.000 C 
BRANCH  23  24
ATOM     24  C   UNL     1      -9.492  21.898   2.058  1.00  0.00    -0.000 C 
BRANCH  24  25
ATOM     25  C   UNL     1      -9.290  23.423   2.012  1.00  0.00    -0.000 C 
BRANCH  25  26
ATOM     26  C   UNL     1     -10.287  24.181   2.901  1.00  0.00    -0.000 C 
BRANCH  26  27
ATOM     27  C   UNL     1     -10.856  23.310   4.033  1.00  0.00    -0.000 C 
BRANCH  27  28
ATOM     28  C   UNL     1     -12.278  22.801   3.733  1.00  0.00    -0.000 C 
BRANCH  28  29
ATOM     29  C   UNL     1     -12.841  21.855   4.814  1.00  0.00    -0.003 C 
ATOM     30  C   UNL     1     -11.791  20.875   5.343  1.00  0.00     0.004 C 
ENDBRANCH  28  29
ENDBRANCH  27  28
ENDBRANCH  26  27
ENDBRANCH  25  26
ENDBRANCH  24  25
ENDBRANCH  23  24
ENDBRANCH  22  23
ENDBRANCH  21  22
ENDBRANCH  20  21
ENDBRANCH  19  20
ENDBRANCH  18  19
ENDBRANCH  17  18
ENDBRANCH   1  17
TORSDOF 26
ENDMDL
