MODEL 1
REMARK VINA RESULT:    -4.437      0.000      0.000
REMARK INTER + INTRA:         -12.376
REMARK INTER:                  -9.625
REMARK INTRA:                  -2.751
REMARK UNBOUND:                -2.751
REMARK SMILES CCCCCCCCCCCCCCCCCCCCCC(=O)[O-]
REMARK SMILES IDX 12 1 11 2 10 3 9 4 8 5 7 6 6 7 5 8 4 9 3 10 2 11 1 12 13 13
REMARK SMILES IDX 14 14 15 15 16 16 17 17 18 18 19 19 20 20 21 21 22 22 23 23
REMARK SMILES IDX 24 24
REMARK H PARENT
REMARK Flexibility Score: inf
ROOT
ATOM      1  C   UNL     1     -11.593 -24.225 -32.270  1.00  0.00     0.000 C 
ENDROOT
BRANCH   1   2
ATOM      2  C   UNL     1     -11.716 -22.693 -32.221  1.00  0.00     0.000 C 
BRANCH   2   3
ATOM      3  C   UNL     1     -10.718 -22.046 -31.244  1.00  0.00     0.000 C 
BRANCH   3   4
ATOM      4  C   UNL     1     -10.184 -20.662 -31.667  1.00  0.00    -0.000 C 
BRANCH   4   5
ATOM      5  C   UNL     1     -10.914 -20.008 -32.853  1.00  0.00    -0.000 C 
BRANCH   5   6
ATOM      6  C   UNL     1     -11.860 -18.875 -32.420  1.00  0.00    -0.000 C 
BRANCH   6   7
ATOM      7  C   UNL     1     -13.348 -19.266 -32.510  1.00  0.00    -0.000 C 
BRANCH   7   8
ATOM      8  C   UNL     1     -13.991 -19.070 -33.895  1.00  0.00    -0.000 C 
BRANCH   8   9
ATOM      9  C   UNL     1     -14.096 -20.378 -34.698  1.00  0.00    -0.000 C 
BRANCH   9  10
ATOM     10  C   UNL     1     -13.116 -20.432 -35.884  1.00  0.00    -0.000 C 
BRANCH  10  11
ATOM     11  C   UNL     1     -12.589 -19.062 -36.346  1.00  0.00    -0.003 C 
ATOM     12  C   UNL     1     -11.064 -19.010 -36.453  1.00  0.00     0.004 C 
ENDBRANCH  10  11
ENDBRANCH   9  10
ENDBRANCH   8   9
ENDBRANCH   7   8
ENDBRANCH   6   7
ENDBRANCH   5   6
ENDBRANCH   4   5
ENDBRANCH   3   4
ENDBRANCH   2   3
ENDBRANCH   1   2
BRANCH   1  13
ATOM     13  C   UNL     1     -10.826 -24.807 -31.069  1.00  0.00     0.000 C 
BRANCH  13  14
ATOM     14  C   UNL     1     -10.025 -26.093 -31.352  1.00  0.00     0.000 C 
BRANCH  14  15
ATOM     15  C   UNL     1     -10.563 -27.316 -30.591  1.00  0.00     0.000 C 
BRANCH  15  16
ATOM     16  C   UNL     1     -12.036 -27.162 -30.166  1.00  0.00     0.000 C 
BRANCH  16  17
ATOM     17  C   UNL     1     -13.024 -28.123 -30.854  1.00  0.00     0.000 C 
BRANCH  17  18
ATOM     18  C   UNL     1     -12.676 -28.393 -32.326  1.00  0.00     0.000 C 
BRANCH  18  19
ATOM     19  C   UNL     1     -13.343 -27.367 -33.249  1.00  0.00     0.000 C 
BRANCH  19  20
ATOM     20  C   UNL     1     -12.860 -27.535 -34.695  1.00  0.00     0.006 C 
BRANCH  20  21
ATOM     21  C   UNL     1     -11.981 -26.356 -35.125  1.00  0.00     0.053 C 
BRANCH  21  22
ATOM     22  C   UNL     1     -12.811 -25.302 -35.788  1.00  0.00     0.041 C 
ATOM     23  O   UNL     1     -13.724 -25.625 -36.593  1.00  0.00    -0.550 OA
ATOM     24  O   UNL     1     -12.541 -23.959 -35.555  1.00  0.00    -0.550 OA
ENDBRANCH  21  22
ENDBRANCH  20  21
ENDBRANCH  19  20
ENDBRANCH  18  19
ENDBRANCH  17  18
ENDBRANCH  16  17
ENDBRANCH  15  16
ENDBRANCH  14  15
ENDBRANCH  13  14
ENDBRANCH   1  13
TORSDOF 20
ENDMDL
MODEL 2
REMARK VINA RESULT:    -4.385      2.615      7.183
REMARK INTER + INTRA:         -12.263
REMARK INTER:                  -9.845
REMARK INTRA:                  -2.418
REMARK UNBOUND:                -2.751
REMARK SMILES CCCCCCCCCCCCCCCCCCCCCC(=O)[O-]
REMARK SMILES IDX 12 1 11 2 10 3 9 4 8 5 7 6 6 7 5 8 4 9 3 10 2 11 1 12 13 13
REMARK SMILES IDX 14 14 15 15 16 16 17 17 18 18 19 19 20 20 21 21 22 22 23 23
REMARK SMILES IDX 24 24
REMARK H PARENT
REMARK Flexibility Score: inf
ROOT
ATOM      1  C   UNL     1     -13.634 -27.480 -35.360  1.00  0.00     0.000 C 
ENDROOT
BRANCH   1   2
ATOM      2  C   UNL     1     -13.866 -28.122 -33.982  1.00  0.00     0.000 C 
BRANCH   2   3
ATOM      3  C   UNL     1     -13.512 -27.179 -32.817  1.00  0.00     0.000 C 
BRANCH   3   4
ATOM      4  C   UNL     1     -13.086 -27.876 -31.509  1.00  0.00    -0.000 C 
BRANCH   4   5
ATOM      5  C   UNL     1     -11.587 -28.204 -31.396  1.00  0.00    -0.000 C 
BRANCH   5   6
ATOM      6  C   UNL     1     -10.976 -27.750 -30.059  1.00  0.00    -0.000 C 
BRANCH   6   7
ATOM      7  C   UNL     1     -10.650 -26.245 -30.027  1.00  0.00    -0.000 C 
BRANCH   7   8
ATOM      8  C   UNL     1      -9.966 -25.697 -31.293  1.00  0.00    -0.000 C 
BRANCH   8   9
ATOM      9  C   UNL     1     -10.863 -24.734 -32.090  1.00  0.00    -0.000 C 
BRANCH   9  10
ATOM     10  C   UNL     1     -11.870 -23.982 -31.201  1.00  0.00    -0.000 C 
BRANCH  10  11
ATOM     11  C   UNL     1     -11.361 -22.639 -30.645  1.00  0.00    -0.003 C 
ATOM     12  C   UNL     1     -10.870 -21.686 -31.735  1.00  0.00     0.004 C 
ENDBRANCH  10  11
ENDBRANCH   9  10
ENDBRANCH   8   9
ENDBRANCH   7   8
ENDBRANCH   6   7
ENDBRANCH   5   6
ENDBRANCH   4   5
ENDBRANCH   3   4
ENDBRANCH   2   3
ENDBRANCH   1   2
BRANCH   1  13
ATOM     13  C   UNL     1     -12.658 -26.291 -35.314  1.00  0.00     0.000 C 
BRANCH  13  14
ATOM     14  C   UNL     1     -13.008 -25.109 -36.239  1.00  0.00     0.000 C 
BRANCH  14  15
ATOM     15  C   UNL     1     -12.269 -23.813 -35.865  1.00  0.00     0.000 C 
BRANCH  15  16
ATOM     16  C   UNL     1     -12.957 -23.034 -34.728  1.00  0.00     0.000 C 
BRANCH  16  17
ATOM     17  C   UNL     1     -12.657 -21.523 -34.689  1.00  0.00     0.000 C 
BRANCH  17  18
ATOM     18  C   UNL     1     -11.856 -21.037 -35.906  1.00  0.00     0.000 C 
BRANCH  18  19
ATOM     19  C   UNL     1     -12.082 -19.542 -36.155  1.00  0.00     0.000 C 
BRANCH  19  20
ATOM     20  C   UNL     1     -10.806 -18.875 -36.685  1.00  0.00     0.006 C 
BRANCH  20  21
ATOM     21  C   UNL     1      -9.571 -19.358 -35.918  1.00  0.00     0.053 C 
BRANCH  21  22
ATOM     22  C   UNL     1      -8.387 -19.433 -36.829  1.00  0.00     0.041 C 
ATOM     23  O   UNL     1      -8.527 -19.255 -38.068  1.00  0.00    -0.550 OA
ATOM     24  O   UNL     1      -7.135 -19.749 -36.317  1.00  0.00    -0.550 OA
ENDBRANCH  21  22
ENDBRANCH  20  21
ENDBRANCH  19  20
ENDBRANCH  18  19
ENDBRANCH  17  18
ENDBRANCH  16  17
ENDBRANCH  15  16
ENDBRANCH  14  15
ENDBRANCH  13  14
ENDBRANCH   1  13
TORSDOF 20
ENDMDL
MODEL 3
REMARK VINA RESULT:    -4.275      2.175      6.367
REMARK INTER + INTRA:         -12.025
REMARK INTER:                  -9.490
REMARK INTRA:                  -2.535
REMARK UNBOUND:                -2.751
REMARK SMILES CCCCCCCCCCCCCCCCCCCCCC(=O)[O-]
REMARK SMILES IDX 12 1 11 2 10 3 9 4 8 5 7 6 6 7 5 8 4 9 3 10 2 11 1 12 13 13
REMARK SMILES IDX 14 14 15 15 16 16 17 17 18 18 19 19 20 20 21 21 22 22 23 23
REMARK SMILES IDX 24 24
REMARK H PARENT
REMARK Flexibility Score: inf
ROOT
ATOM      1  C   UNL     1     -11.904 -27.997 -33.107  1.00  0.00     0.000 C 
ENDROOT
BRANCH   1   2
ATOM      2  C   UNL     1     -11.597 -28.178 -31.611  1.00  0.00     0.000 C 
BRANCH   2   3
ATOM      3  C   UNL     1     -12.868 -28.278 -30.748  1.00  0.00     0.000 C 
BRANCH   3   4
ATOM      4  C   UNL     1     -13.172 -27.043 -29.875  1.00  0.00    -0.000 C 
BRANCH   4   5
ATOM      5  C   UNL     1     -13.655 -25.799 -30.640  1.00  0.00    -0.000 C 
BRANCH   5   6
ATOM      6  C   UNL     1     -12.853 -24.534 -30.288  1.00  0.00    -0.000 C 
BRANCH   6   7
ATOM      7  C   UNL     1     -12.219 -23.861 -31.520  1.00  0.00    -0.000 C 
BRANCH   7   8
ATOM      8  C   UNL     1     -10.943 -24.539 -32.051  1.00  0.00    -0.000 C 
BRANCH   8   9
ATOM      9  C   UNL     1      -9.955 -24.917 -30.934  1.00  0.00    -0.000 C 
BRANCH   9  10
ATOM     10  C   UNL     1      -9.606 -23.730 -30.018  1.00  0.00    -0.000 C 
BRANCH  10  11
ATOM     11  C   UNL     1      -8.198 -23.146 -30.231  1.00  0.00    -0.003 C 
ATOM     12  C   UNL     1      -8.198 -21.626 -30.397  1.00  0.00     0.004 C 
ENDBRANCH  10  11
ENDBRANCH   9  10
ENDBRANCH   8   9
ENDBRANCH   7   8
ENDBRANCH   6   7
ENDBRANCH   5   6
ENDBRANCH   4   5
ENDBRANCH   3   4
ENDBRANCH   2   3
ENDBRANCH   1   2
BRANCH   1  13
ATOM     13  C   UNL     1     -13.411 -28.019 -33.419  1.00  0.00     0.000 C 
BRANCH  13  14
ATOM     14  C   UNL     1     -13.824 -27.352 -34.745  1.00  0.00     0.000 C 
BRANCH  14  15
ATOM     15  C   UNL     1     -12.677 -26.570 -35.409  1.00  0.00     0.000 C 
BRANCH  15  16
ATOM     16  C   UNL     1     -13.153 -25.289 -36.118  1.00  0.00     0.000 C 
BRANCH  16  17
ATOM     17  C   UNL     1     -12.226 -24.068 -35.963  1.00  0.00     0.000 C 
BRANCH  17  18
ATOM     18  C   UNL     1     -12.910 -22.875 -35.278  1.00  0.00     0.000 C 
BRANCH  18  19
ATOM     19  C   UNL     1     -12.274 -21.549 -35.711  1.00  0.00     0.000 C 
BRANCH  19  20
ATOM     20  C   UNL     1     -13.082 -20.356 -35.185  1.00  0.00     0.006 C 
BRANCH  20  21
ATOM     21  C   UNL     1     -12.771 -20.086 -33.709  1.00  0.00     0.053 C 
BRANCH  21  22
ATOM     22  C   UNL     1     -11.293 -20.080 -33.480  1.00  0.00     0.041 C 
ATOM     23  O   UNL     1     -10.783 -20.827 -32.603  1.00  0.00    -0.550 OA
ATOM     24  O   UNL     1     -10.482 -19.212 -34.201  1.00  0.00    -0.550 OA
ENDBRANCH  21  22
ENDBRANCH  20  21
ENDBRANCH  19  20
ENDBRANCH  18  19
ENDBRANCH  17  18
ENDBRANCH  16  17
ENDBRANCH  15  16
ENDBRANCH  14  15
ENDBRANCH  13  14
ENDBRANCH   1  13
TORSDOF 20
ENDMDL
MODEL 4
REMARK VINA RESULT:    -4.261      2.082      4.254
REMARK INTER + INTRA:         -11.994
REMARK INTER:                 -10.298
REMARK INTRA:                  -1.696
REMARK UNBOUND:                -2.751
REMARK SMILES CCCCCCCCCCCCCCCCCCCCCC(=O)[O-]
REMARK SMILES IDX 12 1 11 2 10 3 9 4 8 5 7 6 6 7 5 8 4 9 3 10 2 11 1 12 13 13
REMARK SMILES IDX 14 14 15 15 16 16 17 17 18 18 19 19 20 20 21 21 22 22 23 23
REMARK SMILES IDX 24 24
REMARK H PARENT
REMARK Flexibility Score: inf
ROOT
ATOM      1  C   UNL     1     -13.506 -25.988 -36.307  1.00  0.00     0.000 C 
ENDROOT
BRANCH   1   2
ATOM      2  C   UNL     1     -12.348 -25.020 -36.010  1.00  0.00     0.000 C 
BRANCH   2   3
ATOM      3  C   UNL     1     -12.795 -23.781 -35.212  1.00  0.00     0.000 C 
BRANCH   3   4
ATOM      4  C   UNL     1     -12.367 -22.424 -35.807  1.00  0.00    -0.000 C 
BRANCH   4   5
ATOM      5  C   UNL     1     -13.161 -21.205 -35.305  1.00  0.00    -0.000 C 
BRANCH   5   6
ATOM      6  C   UNL     1     -12.593 -20.618 -34.002  1.00  0.00    -0.000 C 
BRANCH   6   7
ATOM      7  C   UNL     1     -12.160 -19.146 -34.143  1.00  0.00    -0.000 C 
BRANCH   7   8
ATOM      8  C   UNL     1     -10.733 -18.934 -34.680  1.00  0.00    -0.000 C 
BRANCH   8   9
ATOM      9  C   UNL     1     -10.636 -19.102 -36.206  1.00  0.00    -0.000 C 
BRANCH   9  10
ATOM     10  C   UNL     1      -9.379 -19.876 -36.643  1.00  0.00    -0.000 C 
BRANCH  10  11
ATOM     11  C   UNL     1      -8.047 -19.175 -36.323  1.00  0.00    -0.003 C 
ATOM     12  C   UNL     1      -6.925 -19.546 -37.294  1.00  0.00     0.004 C 
ENDBRANCH  10  11
ENDBRANCH   9  10
ENDBRANCH   8   9
ENDBRANCH   7   8
ENDBRANCH   6   7
ENDBRANCH   5   6
ENDBRANCH   4   5
ENDBRANCH   3   4
ENDBRANCH   2   3
ENDBRANCH   1   2
BRANCH   1  13
ATOM     13  C   UNL     1     -13.366 -27.335 -35.576  1.00  0.00     0.000 C 
BRANCH  13  14
ATOM     14  C   UNL     1     -14.285 -27.525 -34.354  1.00  0.00     0.000 C 
BRANCH  14  15
ATOM     15  C   UNL     1     -13.608 -27.145 -33.026  1.00  0.00     0.000 C 
BRANCH  15  16
ATOM     16  C   UNL     1     -12.568 -28.182 -32.562  1.00  0.00     0.000 C 
BRANCH  16  17
ATOM     17  C   UNL     1     -12.839 -28.813 -31.183  1.00  0.00     0.000 C 
BRANCH  17  18
ATOM     18  C   UNL     1     -11.676 -28.629 -30.198  1.00  0.00     0.000 C 
BRANCH  18  19
ATOM     19  C   UNL     1     -10.600 -27.703 -30.776  1.00  0.00     0.000 C 
BRANCH  19  20
ATOM     20  C   UNL     1     -10.449 -26.438 -29.923  1.00  0.00     0.006 C 
BRANCH  20  21
ATOM     21  C   UNL     1     -10.502 -25.176 -30.791  1.00  0.00     0.053 C 
BRANCH  21  22
ATOM     22  C   UNL     1     -11.906 -24.669 -30.889  1.00  0.00     0.041 C 
ATOM     23  O   UNL     1     -12.757 -24.982 -30.015  1.00  0.00    -0.550 OA
ATOM     24  O   UNL     1     -12.288 -23.891 -31.975  1.00  0.00    -0.550 OA
ENDBRANCH  21  22
ENDBRANCH  20  21
ENDBRANCH  19  20
ENDBRANCH  18  19
ENDBRANCH  17  18
ENDBRANCH  16  17
ENDBRANCH  15  16
ENDBRANCH  14  15
ENDBRANCH  13  14
ENDBRANCH   1  13
TORSDOF 20
ENDMDL
MODEL 5
REMARK VINA RESULT:    -4.261      1.387      2.145
REMARK INTER + INTRA:         -11.994
REMARK INTER:                  -9.401
REMARK INTRA:                  -2.592
REMARK UNBOUND:                -2.751
REMARK SMILES CCCCCCCCCCCCCCCCCCCCCC(=O)[O-]
REMARK SMILES IDX 12 1 11 2 10 3 9 4 8 5 7 6 6 7 5 8 4 9 3 10 2 11 1 12 13 13
REMARK SMILES IDX 14 14 15 15 16 16 17 17 18 18 19 19 20 20 21 21 22 22 23 23
REMARK SMILES IDX 24 24
REMARK H PARENT
REMARK Flexibility Score: inf
ROOT
ATOM      1  C   UNL     1      -9.966 -24.104 -31.018  1.00  0.00     0.000 C 
ENDROOT
BRANCH   1   2
ATOM      2  C   UNL     1     -10.733 -23.261 -29.986  1.00  0.00     0.000 C 
BRANCH   2   3
ATOM      3  C   UNL     1     -10.420 -21.758 -30.091  1.00  0.00     0.000 C 
BRANCH   3   4
ATOM      4  C   UNL     1     -10.430 -21.180 -31.521  1.00  0.00    -0.000 C 
BRANCH   4   5
ATOM      5  C   UNL     1     -11.823 -20.985 -32.143  1.00  0.00    -0.000 C 
BRANCH   5   6
ATOM      6  C   UNL     1     -11.900 -21.474 -33.600  1.00  0.00    -0.000 C 
BRANCH   6   7
ATOM      7  C   UNL     1     -12.898 -20.668 -34.453  1.00  0.00    -0.000 C 
BRANCH   7   8
ATOM      8  C   UNL     1     -12.285 -19.945 -35.666  1.00  0.00    -0.000 C 
BRANCH   8   9
ATOM      9  C   UNL     1     -10.900 -19.344 -35.369  1.00  0.00    -0.000 C 
BRANCH   9  10
ATOM     10  C   UNL     1     -10.088 -19.056 -36.644  1.00  0.00    -0.000 C 
BRANCH  10  11
ATOM     11  C   UNL     1      -8.774 -19.850 -36.764  1.00  0.00    -0.003 C 
ATOM     12  C   UNL     1      -7.576 -18.976 -37.134  1.00  0.00     0.004 C 
ENDBRANCH  10  11
ENDBRANCH   9  10
ENDBRANCH   8   9
ENDBRANCH   7   8
ENDBRANCH   6   7
ENDBRANCH   5   6
ENDBRANCH   4   5
ENDBRANCH   3   4
ENDBRANCH   2   3
ENDBRANCH   1   2
BRANCH   1  13
ATOM     13  C   UNL     1     -10.865 -25.105 -31.766  1.00  0.00     0.000 C 
BRANCH  13  14
ATOM     14  C   UNL     1     -12.362 -24.742 -31.818  1.00  0.00     0.000 C 
BRANCH  14  15
ATOM     15  C   UNL     1     -13.272 -25.862 -31.285  1.00  0.00     0.000 C 
BRANCH  15  16
ATOM     16  C   UNL     1     -12.499 -26.954 -30.522  1.00  0.00     0.000 C 
BRANCH  16  17
ATOM     17  C   UNL     1     -12.378 -28.306 -31.250  1.00  0.00     0.000 C 
BRANCH  17  18
ATOM     18  C   UNL     1     -12.960 -28.279 -32.671  1.00  0.00     0.000 C 
BRANCH  18  19
ATOM     19  C   UNL     1     -11.852 -28.387 -33.725  1.00  0.00     0.000 C 
BRANCH  19  20
ATOM     20  C   UNL     1     -12.288 -27.742 -35.046  1.00  0.00     0.006 C 
BRANCH  20  21
ATOM     21  C   UNL     1     -11.737 -26.317 -35.173  1.00  0.00     0.053 C 
BRANCH  21  22
ATOM     22  C   UNL     1     -12.773 -25.407 -35.753  1.00  0.00     0.041 C 
ATOM     23  O   UNL     1     -13.838 -25.881 -36.232  1.00  0.00    -0.550 OA
ATOM     24  O   UNL     1     -12.541 -24.039 -35.812  1.00  0.00    -0.550 OA
ENDBRANCH  21  22
ENDBRANCH  20  21
ENDBRANCH  19  20
ENDBRANCH  18  19
ENDBRANCH  17  18
ENDBRANCH  16  17
ENDBRANCH  15  16
ENDBRANCH  14  15
ENDBRANCH  13  14
ENDBRANCH   1  13
TORSDOF 20
ENDMDL
MODEL 6
REMARK VINA RESULT:    -4.238      1.194      1.960
REMARK INTER + INTRA:         -11.944
REMARK INTER:                  -9.350
REMARK INTRA:                  -2.594
REMARK UNBOUND:                -2.751
REMARK SMILES CCCCCCCCCCCCCCCCCCCCCC(=O)[O-]
REMARK SMILES IDX 12 1 11 2 10 3 9 4 8 5 7 6 6 7 5 8 4 9 3 10 2 11 1 12 13 13
REMARK SMILES IDX 14 14 15 15 16 16 17 17 18 18 19 19 20 20 21 21 22 22 23 23
REMARK SMILES IDX 24 24
REMARK H PARENT
REMARK Flexibility Score: inf
ROOT
ATOM      1  C   UNL     1     -10.905 -24.865 -31.746  1.00  0.00     0.000 C 
ENDROOT
BRANCH   1   2
ATOM      2  C   UNL     1     -10.026 -23.811 -31.051  1.00  0.00     0.000 C 
BRANCH   2   3
ATOM      3  C   UNL     1     -10.684 -22.420 -31.009  1.00  0.00     0.000 C 
BRANCH   3   4
ATOM      4  C   UNL     1      -9.709 -21.234 -30.860  1.00  0.00    -0.000 C 
BRANCH   4   5
ATOM      5  C   UNL     1      -9.935 -20.068 -31.838  1.00  0.00    -0.000 C 
BRANCH   5   6
ATOM      6  C   UNL     1     -11.423 -19.825 -32.143  1.00  0.00    -0.000 C 
BRANCH   6   7
ATOM      7  C   UNL     1     -11.652 -19.088 -33.476  1.00  0.00    -0.000 C 
BRANCH   7   8
ATOM      8  C   UNL     1     -10.654 -19.437 -34.595  1.00  0.00    -0.000 C 
BRANCH   8   9
ATOM      9  C   UNL     1     -11.343 -19.876 -35.898  1.00  0.00    -0.000 C 
BRANCH   9  10
ATOM     10  C   UNL     1     -12.694 -20.573 -35.654  1.00  0.00    -0.000 C 
BRANCH  10  11
ATOM     11  C   UNL     1     -12.620 -22.108 -35.570  1.00  0.00    -0.003 C 
ATOM     12  C   UNL     1     -12.724 -22.637 -34.139  1.00  0.00     0.004 C 
ENDBRANCH  10  11
ENDBRANCH   9  10
ENDBRANCH   8   9
ENDBRANCH   7   8
ENDBRANCH   6   7
ENDBRANCH   5   6
ENDBRANCH   4   5
ENDBRANCH   3   4
ENDBRANCH   2   3
ENDBRANCH   1   2
BRANCH   1  13
ATOM     13  C   UNL     1     -12.275 -25.048 -31.068  1.00  0.00     0.000 C 
BRANCH  13  14
ATOM     14  C   UNL     1     -12.339 -26.141 -29.984  1.00  0.00     0.000 C 
BRANCH  14  15
ATOM     15  C   UNL     1     -11.246 -27.212 -30.144  1.00  0.00     0.000 C 
BRANCH  15  16
ATOM     16  C   UNL     1     -11.806 -28.587 -30.553  1.00  0.00     0.000 C 
BRANCH  16  17
ATOM     17  C   UNL     1     -13.192 -28.559 -31.225  1.00  0.00     0.000 C 
BRANCH  17  18
ATOM     18  C   UNL     1     -13.138 -28.135 -32.700  1.00  0.00     0.000 C 
BRANCH  18  19
ATOM     19  C   UNL     1     -11.876 -28.669 -33.385  1.00  0.00     0.000 C 
BRANCH  19  20
ATOM     20  C   UNL     1     -11.599 -27.916 -34.692  1.00  0.00     0.006 C 
BRANCH  20  21
ATOM     21  C   UNL     1     -12.895 -27.365 -35.297  1.00  0.00     0.053 C 
BRANCH  21  22
ATOM     22  C   UNL     1     -12.673 -25.988 -35.839  1.00  0.00     0.041 C 
ATOM     23  O   UNL     1     -13.628 -25.347 -36.353  1.00  0.00    -0.550 OA
ATOM     24  O   UNL     1     -11.400 -25.432 -35.821  1.00  0.00    -0.550 OA
ENDBRANCH  21  22
ENDBRANCH  20  21
ENDBRANCH  19  20
ENDBRANCH  18  19
ENDBRANCH  17  18
ENDBRANCH  16  17
ENDBRANCH  15  16
ENDBRANCH  14  15
ENDBRANCH  13  14
ENDBRANCH   1  13
TORSDOF 20
ENDMDL
MODEL 7
REMARK VINA RESULT:    -4.184      2.603      7.507
REMARK INTER + INTRA:         -11.826
REMARK INTER:                  -8.581
REMARK INTRA:                  -3.245
REMARK UNBOUND:                -2.751
REMARK SMILES CCCCCCCCCCCCCCCCCCCCCC(=O)[O-]
REMARK SMILES IDX 12 1 11 2 10 3 9 4 8 5 7 6 6 7 5 8 4 9 3 10 2 11 1 12 13 13
REMARK SMILES IDX 14 14 15 15 16 16 17 17 18 18 19 19 20 20 21 21 22 22 23 23
REMARK SMILES IDX 24 24
REMARK H PARENT
REMARK Flexibility Score: inf
ROOT
ATOM      1  C   UNL     1     -12.561 -23.274 -34.606  1.00  0.00     0.000 C 
ENDROOT
BRANCH   1   2
ATOM      2  C   UNL     1     -12.224 -23.107 -33.115  1.00  0.00     0.000 C 
BRANCH   2   3
ATOM      3  C   UNL     1     -12.049 -24.453 -32.388  1.00  0.00     0.000 C 
BRANCH   3   4
ATOM      4  C   UNL     1     -10.630 -24.733 -31.852  1.00  0.00    -0.000 C 
BRANCH   4   5
ATOM      5  C   UNL     1     -10.393 -26.161 -31.331  1.00  0.00    -0.000 C 
BRANCH   5   6
ATOM      6  C   UNL     1     -11.565 -26.691 -30.487  1.00  0.00    -0.000 C 
BRANCH   6   7
ATOM      7  C   UNL     1     -11.736 -28.219 -30.586  1.00  0.00    -0.000 C 
BRANCH   7   8
ATOM      8  C   UNL     1     -12.866 -28.691 -31.519  1.00  0.00    -0.000 C 
BRANCH   8   9
ATOM      9  C   UNL     1     -12.506 -28.562 -33.010  1.00  0.00    -0.000 C 
BRANCH   9  10
ATOM     10  C   UNL     1     -13.384 -27.537 -33.750  1.00  0.00    -0.000 C 
BRANCH  10  11
ATOM     11  C   UNL     1     -12.743 -26.932 -35.012  1.00  0.00    -0.003 C 
ATOM     12  C   UNL     1     -11.215 -26.973 -34.988  1.00  0.00     0.004 C 
ENDBRANCH  10  11
ENDBRANCH   9  10
ENDBRANCH   8   9
ENDBRANCH   7   8
ENDBRANCH   6   7
ENDBRANCH   5   6
ENDBRANCH   4   5
ENDBRANCH   3   4
ENDBRANCH   2   3
ENDBRANCH   1   2
BRANCH   1  13
ATOM     13  C   UNL     1     -13.013 -21.962 -35.272  1.00  0.00     0.000 C 
BRANCH  13  14
ATOM     14  C   UNL     1     -11.878 -21.037 -35.754  1.00  0.00     0.000 C 
BRANCH  14  15
ATOM     15  C   UNL     1     -11.430 -20.026 -34.686  1.00  0.00     0.000 C 
BRANCH  15  16
ATOM     16  C   UNL     1     -12.589 -19.167 -34.146  1.00  0.00     0.000 C 
BRANCH  16  17
ATOM     17  C   UNL     1     -12.942 -19.394 -32.663  1.00  0.00     0.000 C 
BRANCH  17  18
ATOM     18  C   UNL     1     -11.709 -19.648 -31.783  1.00  0.00     0.000 C 
BRANCH  18  19
ATOM     19  C   UNL     1     -12.061 -20.525 -30.577  1.00  0.00     0.000 C 
BRANCH  19  20
ATOM     20  C   UNL     1     -10.843 -21.334 -30.112  1.00  0.00     0.006 C 
BRANCH  20  21
ATOM     21  C   UNL     1      -9.672 -21.179 -31.089  1.00  0.00     0.053 C 
BRANCH  21  22
ATOM     22  C   UNL     1      -8.388 -21.572 -30.430  1.00  0.00     0.041 C 
ATOM     23  O   UNL     1      -7.534 -20.696 -30.131  1.00  0.00    -0.550 OA
ATOM     24  O   UNL     1      -8.112 -22.912 -30.191  1.00  0.00    -0.550 OA
ENDBRANCH  21  22
ENDBRANCH  20  21
ENDBRANCH  19  20
ENDBRANCH  18  19
ENDBRANCH  17  18
ENDBRANCH  16  17
ENDBRANCH  15  16
ENDBRANCH  14  15
ENDBRANCH  13  14
ENDBRANCH   1  13
TORSDOF 20
ENDMDL
MODEL 8
REMARK VINA RESULT:    -4.178      2.617      6.753
REMARK INTER + INTRA:         -11.813
REMARK INTER:                  -9.646
REMARK INTRA:                  -2.167
REMARK UNBOUND:                -2.751
REMARK SMILES CCCCCCCCCCCCCCCCCCCCCC(=O)[O-]
REMARK SMILES IDX 12 1 11 2 10 3 9 4 8 5 7 6 6 7 5 8 4 9 3 10 2 11 1 12 13 13
REMARK SMILES IDX 14 14 15 15 16 16 17 17 18 18 19 19 20 20 21 21 22 22 23 23
REMARK SMILES IDX 24 24
REMARK H PARENT
REMARK Flexibility Score: inf
ROOT
ATOM      1  C   UNL     1     -11.935 -27.899 -34.752  1.00  0.00     0.000 C 
ENDROOT
BRANCH   1   2
ATOM      2  C   UNL     1     -12.296 -28.376 -33.335  1.00  0.00     0.000 C 
BRANCH   2   3
ATOM      3  C   UNL     1     -11.926 -27.350 -32.248  1.00  0.00     0.000 C 
BRANCH   3   4
ATOM      4  C   UNL     1     -13.010 -26.299 -31.936  1.00  0.00    -0.000 C 
BRANCH   4   5
ATOM      5  C   UNL     1     -12.486 -24.938 -31.444  1.00  0.00    -0.000 C 
BRANCH   5   6
ATOM      6  C   UNL     1     -11.094 -24.597 -32.005  1.00  0.00    -0.000 C 
BRANCH   6   7
ATOM      7  C   UNL     1     -10.022 -24.454 -30.908  1.00  0.00    -0.000 C 
BRANCH   7   8
ATOM      8  C   UNL     1      -9.476 -23.028 -30.710  1.00  0.00    -0.000 C 
BRANCH   8   9
ATOM      9  C   UNL     1      -8.022 -23.008 -30.206  1.00  0.00    -0.000 C 
BRANCH   9  10
ATOM     10  C   UNL     1      -7.274 -21.719 -30.590  1.00  0.00    -0.000 C 
BRANCH  10  11
ATOM     11  C   UNL     1      -5.747 -21.871 -30.708  1.00  0.00    -0.003 C 
ATOM     12  C   UNL     1      -5.171 -21.193 -31.952  1.00  0.00     0.004 C 
ENDBRANCH  10  11
ENDBRANCH   9  10
ENDBRANCH   8   9
ENDBRANCH   7   8
ENDBRANCH   6   7
ENDBRANCH   5   6
ENDBRANCH   4   5
ENDBRANCH   3   4
ENDBRANCH   2   3
ENDBRANCH   1   2
BRANCH   1  13
ATOM     13  C   UNL     1     -13.172 -27.601 -35.619  1.00  0.00     0.000 C 
BRANCH  13  14
ATOM     14  C   UNL     1     -13.511 -26.109 -35.801  1.00  0.00     0.000 C 
BRANCH  14  15
ATOM     15  C   UNL     1     -12.343 -25.177 -35.437  1.00  0.00     0.000 C 
BRANCH  15  16
ATOM     16  C   UNL     1     -12.568 -23.723 -35.893  1.00  0.00     0.000 C 
BRANCH  16  17
ATOM     17  C   UNL     1     -12.901 -22.724 -34.768  1.00  0.00     0.000 C 
BRANCH  17  18
ATOM     18  C   UNL     1     -13.036 -21.278 -35.268  1.00  0.00     0.000 C 
BRANCH  18  19
ATOM     19  C   UNL     1     -11.731 -20.787 -35.903  1.00  0.00     0.000 C 
BRANCH  19  20
ATOM     20  C   UNL     1     -10.878 -20.023 -34.883  1.00  0.00     0.006 C 
BRANCH  20  21
ATOM     21  C   UNL     1     -11.735 -19.501 -33.725  1.00  0.00     0.053 C 
BRANCH  21  22
ATOM     22  C   UNL     1     -11.168 -19.947 -32.415  1.00  0.00     0.041 C 
ATOM     23  O   UNL     1      -9.949 -19.766 -32.156  1.00  0.00    -0.550 OA
ATOM     24  O   UNL     1     -11.976 -20.609 -31.498  1.00  0.00    -0.550 OA
ENDBRANCH  21  22
ENDBRANCH  20  21
ENDBRANCH  19  20
ENDBRANCH  18  19
ENDBRANCH  17  18
ENDBRANCH  16  17
ENDBRANCH  15  16
ENDBRANCH  14  15
ENDBRANCH  13  14
ENDBRANCH   1  13
TORSDOF 20
ENDMDL
MODEL 9
REMARK VINA RESULT:    -4.057      2.437      6.568
REMARK INTER + INTRA:         -11.551
REMARK INTER:                  -8.926
REMARK INTRA:                  -2.625
REMARK UNBOUND:                -2.751
REMARK SMILES CCCCCCCCCCCCCCCCCCCCCC(=O)[O-]
REMARK SMILES IDX 12 1 11 2 10 3 9 4 8 5 7 6 6 7 5 8 4 9 3 10 2 11 1 12 13 13
REMARK SMILES IDX 14 14 15 15 16 16 17 17 18 18 19 19 20 20 21 21 22 22 23 23
REMARK SMILES IDX 24 24
REMARK H PARENT
REMARK Flexibility Score: inf
ROOT
ATOM      1  C   UNL     1     -11.953 -27.619 -35.116  1.00  0.00     0.000 C 
ENDROOT
BRANCH   1   2
ATOM      2  C   UNL     1     -11.898 -28.622 -33.951  1.00  0.00     0.000 C 
BRANCH   2   3
ATOM      3  C   UNL     1     -12.465 -28.047 -32.640  1.00  0.00     0.000 C 
BRANCH   3   4
ATOM      4  C   UNL     1     -11.441 -27.867 -31.501  1.00  0.00    -0.000 C 
BRANCH   4   5
ATOM      5  C   UNL     1     -10.845 -26.455 -31.368  1.00  0.00    -0.000 C 
BRANCH   5   6
ATOM      6  C   UNL     1     -11.607 -25.405 -32.195  1.00  0.00    -0.000 C 
BRANCH   6   7
ATOM      7  C   UNL     1     -12.594 -24.575 -31.352  1.00  0.00    -0.000 C 
BRANCH   7   8
ATOM      8  C   UNL     1     -12.006 -23.294 -30.732  1.00  0.00    -0.000 C 
BRANCH   8   9
ATOM      9  C   UNL     1     -10.819 -22.730 -31.533  1.00  0.00    -0.000 C 
BRANCH   9  10
ATOM     10  C   UNL     1     -10.085 -21.596 -30.794  1.00  0.00    -0.000 C 
BRANCH  10  11
ATOM     11  C   UNL     1      -8.900 -22.055 -29.926  1.00  0.00    -0.003 C 
ATOM     12  C   UNL     1      -8.185 -23.285 -30.487  1.00  0.00     0.004 C 
ENDBRANCH  10  11
ENDBRANCH   9  10
ENDBRANCH   8   9
ENDBRANCH   7   8
ENDBRANCH   6   7
ENDBRANCH   5   6
ENDBRANCH   4   5
ENDBRANCH   3   4
ENDBRANCH   2   3
ENDBRANCH   1   2
BRANCH   1  13
ATOM     13  C   UNL     1     -13.391 -27.242 -35.517  1.00  0.00     0.000 C 
BRANCH  13  14
ATOM     14  C   UNL     1     -13.711 -25.735 -35.503  1.00  0.00     0.000 C 
BRANCH  14  15
ATOM     15  C   UNL     1     -12.884 -24.934 -36.524  1.00  0.00     0.000 C 
BRANCH  15  16
ATOM     16  C   UNL     1     -12.284 -23.645 -35.933  1.00  0.00     0.000 C 
BRANCH  16  17
ATOM     17  C   UNL     1     -13.011 -23.088 -34.694  1.00  0.00     0.000 C 
BRANCH  17  18
ATOM     18  C   UNL     1     -12.714 -21.604 -34.437  1.00  0.00     0.000 C 
BRANCH  18  19
ATOM     19  C   UNL     1     -13.339 -20.718 -35.520  1.00  0.00     0.000 C 
BRANCH  19  20
ATOM     20  C   UNL     1     -12.633 -19.359 -35.592  1.00  0.00     0.006 C 
BRANCH  20  21
ATOM     21  C   UNL     1     -11.518 -19.371 -36.643  1.00  0.00     0.053 C 
BRANCH  21  22
ATOM     22  C   UNL     1     -10.177 -19.328 -35.980  1.00  0.00     0.041 C 
ATOM     23  O   UNL     1      -9.125 -19.410 -36.669  1.00  0.00    -0.550 OA
ATOM     24  O   UNL     1     -10.089 -19.247 -34.596  1.00  0.00    -0.550 OA
ENDBRANCH  21  22
ENDBRANCH  20  21
ENDBRANCH  19  20
ENDBRANCH  18  19
ENDBRANCH  17  18
ENDBRANCH  16  17
ENDBRANCH  15  16
ENDBRANCH  14  15
ENDBRANCH  13  14
ENDBRANCH   1  13
TORSDOF 20
ENDMDL
