MODEL 1
REMARK VINA RESULT:    -4.429      0.000      0.000
REMARK INTER + INTRA:         -16.620
REMARK INTER:                 -11.680
REMARK INTRA:                  -4.940
REMARK UNBOUND:                -4.940
REMARK SMILES CCCCCCCCCCCCCCCCCCCCCCCCCCCCCC(=O)[O-]
REMARK SMILES IDX 16 1 17 2 18 3 19 4 20 5 21 6 22 7 23 8 24 9 25 10 26 11
REMARK SMILES IDX 27 12 28 13 29 14 30 15 31 16 32 17 15 18 14 19 13 20 12 21
REMARK SMILES IDX 11 22 10 23 9 24 8 25 7 26 6 27 5 28 4 29 3 30 2 31 1 32
REMARK H PARENT
REMARK Flexibility Score: inf
ROOT
ATOM      1  C   UNL     1      62.113  28.592   9.511  1.00  0.00     0.000 C 
ENDROOT
BRANCH   1   2
ATOM      2  C   UNL     1      61.064  29.612   9.024  1.00  0.00     0.000 C 
BRANCH   2   3
ATOM      3  C   UNL     1      59.859  29.735   9.971  1.00  0.00     0.000 C 
BRANCH   3   4
ATOM      4  C   UNL     1      59.405  28.385  10.555  1.00  0.00     0.000 C 
BRANCH   4   5
ATOM      5  C   UNL     1      58.924  28.456  12.024  1.00  0.00     0.000 C 
BRANCH   5   6
ATOM      6  C   UNL     1      59.848  27.667  12.970  1.00  0.00     0.000 C 
BRANCH   6   7
ATOM      7  C   UNL     1      60.761  28.577  13.810  1.00  0.00     0.000 C 
BRANCH   7   8
ATOM      8  C   UNL     1      62.197  28.632  13.269  1.00  0.00     0.000 C 
BRANCH   8   9
ATOM      9  C   UNL     1      62.590  30.068  12.888  1.00  0.00     0.000 C 
BRANCH   9  10
ATOM     10  C   UNL     1      63.643  30.668  13.839  1.00  0.00     0.000 C 
BRANCH  10  11
ATOM     11  C   UNL     1      63.073  31.276  15.137  1.00  0.00     0.000 C 
BRANCH  11  12
ATOM     12  C   UNL     1      62.816  32.793  15.089  1.00  0.00     0.000 C 
BRANCH  12  13
ATOM     13  C   UNL     1      61.427  33.146  14.526  1.00  0.00     0.006 C 
BRANCH  13  14
ATOM     14  C   UNL     1      60.307  32.325  15.182  1.00  0.00     0.053 C 
BRANCH  14  15
ATOM     15  C   UNL     1      59.323  31.820  14.173  1.00  0.00     0.041 C 
ATOM     16  O   UNL     1      58.221  31.339  14.549  1.00  0.00    -0.550 OA
ATOM     17  O   UNL     1      59.639  31.839  12.821  1.00  0.00    -0.550 OA
ENDBRANCH  14  15
ENDBRANCH  13  14
ENDBRANCH  12  13
ENDBRANCH  11  12
ENDBRANCH  10  11
ENDBRANCH   9  10
ENDBRANCH   8   9
ENDBRANCH   7   8
ENDBRANCH   6   7
ENDBRANCH   5   6
ENDBRANCH   4   5
ENDBRANCH   3   4
ENDBRANCH   2   3
ENDBRANCH   1   2
BRANCH   1  18
ATOM     18  C   UNL     1      63.566  29.111   9.487  1.00  0.00     0.000 C 
BRANCH  18  19
ATOM     19  C   UNL     1      63.743  30.586   9.073  1.00  0.00     0.000 C 
BRANCH  19  20
ATOM     20  C   UNL     1      64.490  31.451  10.107  1.00  0.00     0.000 C 
BRANCH  20  21
ATOM     21  C   UNL     1      65.845  31.966   9.584  1.00  0.00     0.000 C 
BRANCH  21  22
ATOM     22  C   UNL     1      66.498  32.971  10.551  1.00  0.00     0.000 C 
BRANCH  22  23
ATOM     23  C   UNL     1      65.536  33.364  11.686  1.00  0.00     0.000 C 
BRANCH  23  24
ATOM     24  C   UNL     1      66.249  34.025  12.875  1.00  0.00    -0.000 C 
BRANCH  24  25
ATOM     25  C   UNL     1      66.288  33.128  14.124  1.00  0.00    -0.000 C 
BRANCH  25  26
ATOM     26  C   UNL     1      66.163  33.971  15.403  1.00  0.00    -0.000 C 
BRANCH  26  27
ATOM     27  C   UNL     1      66.203  33.120  16.686  1.00  0.00    -0.000 C 
BRANCH  27  28
ATOM     28  C   UNL     1      66.160  33.930  17.995  1.00  0.00    -0.000 C 
BRANCH  28  29
ATOM     29  C   UNL     1      64.957  33.559  18.882  1.00  0.00    -0.000 C 
BRANCH  29  30
ATOM     30  C   UNL     1      63.651  34.219  18.415  1.00  0.00    -0.000 C 
BRANCH  30  31
ATOM     31  C   UNL     1      62.414  33.364  18.722  1.00  0.00    -0.003 C 
ATOM     32  C   UNL     1      61.131  34.088  18.316  1.00  0.00     0.004 C 
ENDBRANCH  30  31
ENDBRANCH  29  30
ENDBRANCH  28  29
ENDBRANCH  27  28
ENDBRANCH  26  27
ENDBRANCH  25  26
ENDBRANCH  24  25
ENDBRANCH  23  24
ENDBRANCH  22  23
ENDBRANCH  21  22
ENDBRANCH  20  21
ENDBRANCH  19  20
ENDBRANCH  18  19
ENDBRANCH   1  18
TORSDOF 28
ENDMDL
MODEL 2
REMARK VINA RESULT:    -4.381      6.559     11.721
REMARK INTER + INTRA:         -16.493
REMARK INTER:                 -13.675
REMARK INTRA:                  -2.818
REMARK UNBOUND:                -4.940
REMARK SMILES CCCCCCCCCCCCCCCCCCCCCCCCCCCCCC(=O)[O-]
REMARK SMILES IDX 16 1 17 2 18 3 19 4 20 5 21 6 22 7 23 8 24 9 25 10 26 11
REMARK SMILES IDX 27 12 28 13 29 14 30 15 31 16 32 17 15 18 14 19 13 20 12 21
REMARK SMILES IDX 11 22 10 23 9 24 8 25 7 26 6 27 5 28 4 29 3 30 2 31 1 32
REMARK H PARENT
REMARK Flexibility Score: inf
ROOT
ATOM      1  C   UNL     1      63.564  30.643  24.119  1.00  0.00     0.000 C 
ENDROOT
BRANCH   1   2
ATOM      2  C   UNL     1      65.022  30.183  23.914  1.00  0.00     0.000 C 
BRANCH   2   3
ATOM      3  C   UNL     1      65.802  31.076  22.935  1.00  0.00     0.000 C 
BRANCH   3   4
ATOM      4  C   UNL     1      64.998  32.298  22.455  1.00  0.00     0.000 C 
BRANCH   4   5
ATOM      5  C   UNL     1      65.608  33.021  21.231  1.00  0.00     0.000 C 
BRANCH   5   6
ATOM      6  C   UNL     1      64.619  34.017  20.598  1.00  0.00     0.000 C 
BRANCH   6   7
ATOM      7  C   UNL     1      64.741  34.090  19.067  1.00  0.00     0.000 C 
BRANCH   7   8
ATOM      8  C   UNL     1      63.507  33.519  18.351  1.00  0.00     0.000 C 
BRANCH   8   9
ATOM      9  C   UNL     1      62.303  33.440  19.303  1.00  0.00     0.000 C 
BRANCH   9  10
ATOM     10  C   UNL     1      60.957  33.394  18.556  1.00  0.00     0.000 C 
BRANCH  10  11
ATOM     11  C   UNL     1      61.023  33.812  17.073  1.00  0.00     0.000 C 
BRANCH  11  12
ATOM     12  C   UNL     1      60.738  32.684  16.064  1.00  0.00     0.000 C 
BRANCH  12  13
ATOM     13  C   UNL     1      60.392  33.213  14.659  1.00  0.00     0.006 C 
BRANCH  13  14
ATOM     14  C   UNL     1      61.093  32.417  13.549  1.00  0.00     0.053 C 
BRANCH  14  15
ATOM     15  C   UNL     1      60.290  31.226  13.126  1.00  0.00     0.041 C 
ATOM     16  O   UNL     1      59.582  30.609  13.965  1.00  0.00    -0.550 OA
ATOM     17  O   UNL     1      60.357  30.769  11.816  1.00  0.00    -0.550 OA
ENDBRANCH  14  15
ENDBRANCH  13  14
ENDBRANCH  12  13
ENDBRANCH  11  12
ENDBRANCH  10  11
ENDBRANCH   9  10
ENDBRANCH   8   9
ENDBRANCH   7   8
ENDBRANCH   6   7
ENDBRANCH   5   6
ENDBRANCH   4   5
ENDBRANCH   3   4
ENDBRANCH   2   3
ENDBRANCH   1   2
BRANCH   1  18
ATOM     18  C   UNL     1      63.037  30.470  25.559  1.00  0.00     0.000 C 
BRANCH  18  19
ATOM     19  C   UNL     1      64.035  29.866  26.568  1.00  0.00     0.000 C 
BRANCH  19  20
ATOM     20  C   UNL     1      63.390  29.364  27.876  1.00  0.00     0.000 C 
BRANCH  20  21
ATOM     21  C   UNL     1      61.882  29.671  27.951  1.00  0.00     0.000 C 
BRANCH  21  22
ATOM     22  C   UNL     1      61.052  28.426  28.314  1.00  0.00     0.000 C 
BRANCH  22  23
ATOM     23  C   UNL     1      61.475  27.206  27.476  1.00  0.00     0.000 C 
BRANCH  23  24
ATOM     24  C   UNL     1      60.915  27.237  26.046  1.00  0.00    -0.000 C 
BRANCH  24  25
ATOM     25  C   UNL     1      62.007  27.101  24.972  1.00  0.00    -0.000 C 
BRANCH  25  26
ATOM     26  C   UNL     1      63.115  26.145  25.440  1.00  0.00    -0.000 C 
BRANCH  26  27
ATOM     27  C   UNL     1      64.520  26.596  24.999  1.00  0.00    -0.000 C 
BRANCH  27  28
ATOM     28  C   UNL     1      65.148  25.741  23.882  1.00  0.00    -0.000 C 
BRANCH  28  29
ATOM     29  C   UNL     1      65.738  26.594  22.744  1.00  0.00    -0.000 C 
BRANCH  29  30
ATOM     30  C   UNL     1      66.078  25.764  21.497  1.00  0.00    -0.000 C 
BRANCH  30  31
ATOM     31  C   UNL     1      66.238  26.628  20.238  1.00  0.00    -0.003 C 
ATOM     32  C   UNL     1      65.738  25.888  18.998  1.00  0.00     0.004 C 
ENDBRANCH  30  31
ENDBRANCH  29  30
ENDBRANCH  28  29
ENDBRANCH  27  28
ENDBRANCH  26  27
ENDBRANCH  25  26
ENDBRANCH  24  25
ENDBRANCH  23  24
ENDBRANCH  22  23
ENDBRANCH  21  22
ENDBRANCH  20  21
ENDBRANCH  19  20
ENDBRANCH  18  19
ENDBRANCH   1  18
TORSDOF 28
ENDMDL
MODEL 3
REMARK VINA RESULT:    -4.378      6.057     10.999
REMARK INTER + INTRA:         -16.484
REMARK INTER:                 -12.821
REMARK INTRA:                  -3.663
REMARK UNBOUND:                -4.940
REMARK SMILES CCCCCCCCCCCCCCCCCCCCCCCCCCCCCC(=O)[O-]
REMARK SMILES IDX 16 1 17 2 18 3 19 4 20 5 21 6 22 7 23 8 24 9 25 10 26 11
REMARK SMILES IDX 27 12 28 13 29 14 30 15 31 16 32 17 15 18 14 19 13 20 12 21
REMARK SMILES IDX 11 22 10 23 9 24 8 25 7 26 6 27 5 28 4 29 3 30 2 31 1 32
REMARK H PARENT
REMARK Flexibility Score: inf
ROOT
ATOM      1  C   UNL     1      65.225  30.220  23.338  1.00  0.00     0.000 C 
ENDROOT
BRANCH   1   2
ATOM      2  C   UNL     1      65.119  31.649  22.765  1.00  0.00     0.000 C 
BRANCH   2   3
ATOM      3  C   UNL     1      63.763  32.314  23.053  1.00  0.00     0.000 C 
BRANCH   3   4
ATOM      4  C   UNL     1      63.367  33.366  22.002  1.00  0.00     0.000 C 
BRANCH   4   5
ATOM      5  C   UNL     1      64.400  33.551  20.866  1.00  0.00     0.000 C 
BRANCH   5   6
ATOM      6  C   UNL     1      63.734  33.565  19.478  1.00  0.00     0.000 C 
BRANCH   6   7
ATOM      7  C   UNL     1      62.197  33.538  19.552  1.00  0.00     0.000 C 
BRANCH   7   8
ATOM      8  C   UNL     1      61.543  33.440  18.166  1.00  0.00     0.000 C 
BRANCH   8   9
ATOM      9  C   UNL     1      62.600  33.486  17.051  1.00  0.00     0.000 C 
BRANCH   9  10
ATOM     10  C   UNL     1      61.980  33.455  15.642  1.00  0.00     0.000 C 
BRANCH  10  11
ATOM     11  C   UNL     1      62.169  32.128  14.879  1.00  0.00     0.000 C 
BRANCH  11  12
ATOM     12  C   UNL     1      61.045  31.095  15.078  1.00  0.00     0.000 C 
BRANCH  12  13
ATOM     13  C   UNL     1      59.684  31.584  14.545  1.00  0.00     0.006 C 
BRANCH  13  14
ATOM     14  C   UNL     1      59.620  31.570  13.011  1.00  0.00     0.053 C 
BRANCH  14  15
ATOM     15  C   UNL     1      59.920  30.213  12.454  1.00  0.00     0.041 C 
ATOM     16  O   UNL     1      59.279  29.207  12.857  1.00  0.00    -0.550 OA
ATOM     17  O   UNL     1      60.939  30.051  11.524  1.00  0.00    -0.550 OA
ENDBRANCH  14  15
ENDBRANCH  13  14
ENDBRANCH  12  13
ENDBRANCH  11  12
ENDBRANCH  10  11
ENDBRANCH   9  10
ENDBRANCH   8   9
ENDBRANCH   7   8
ENDBRANCH   6   7
ENDBRANCH   5   6
ENDBRANCH   4   5
ENDBRANCH   3   4
ENDBRANCH   2   3
ENDBRANCH   1   2
BRANCH   1  18
ATOM     18  C   UNL     1      66.514  29.950  24.141  1.00  0.00     0.000 C 
BRANCH  18  19
ATOM     19  C   UNL     1      66.359  29.020  25.362  1.00  0.00     0.000 C 
BRANCH  19  20
ATOM     20  C   UNL     1      65.961  29.742  26.665  1.00  0.00     0.000 C 
BRANCH  20  21
ATOM     21  C   UNL     1      64.536  29.388  27.131  1.00  0.00     0.000 C 
BRANCH  21  22
ATOM     22  C   UNL     1      63.483  30.364  26.577  1.00  0.00     0.000 C 
BRANCH  22  23
ATOM     23  C   UNL     1      62.117  29.676  26.400  1.00  0.00     0.000 C 
BRANCH  23  24
ATOM     24  C   UNL     1      61.700  29.543  24.928  1.00  0.00    -0.000 C 
BRANCH  24  25
ATOM     25  C   UNL     1      61.736  28.090  24.424  1.00  0.00    -0.000 C 
BRANCH  25  26
ATOM     26  C   UNL     1      61.986  27.117  25.587  1.00  0.00    -0.000 C 
BRANCH  26  27
ATOM     27  C   UNL     1      63.240  26.247  25.379  1.00  0.00    -0.000 C 
BRANCH  27  28
ATOM     28  C   UNL     1      63.994  26.511  24.062  1.00  0.00    -0.000 C 
BRANCH  28  29
ATOM     29  C   UNL     1      65.236  25.615  23.902  1.00  0.00    -0.000 C 
BRANCH  29  30
ATOM     30  C   UNL     1      65.720  25.529  22.446  1.00  0.00    -0.000 C 
BRANCH  30  31
ATOM     31  C   UNL     1      66.004  26.909  21.836  1.00  0.00    -0.003 C 
ATOM     32  C   UNL     1      66.404  26.788  20.367  1.00  0.00     0.004 C 
ENDBRANCH  30  31
ENDBRANCH  29  30
ENDBRANCH  28  29
ENDBRANCH  27  28
ENDBRANCH  26  27
ENDBRANCH  25  26
ENDBRANCH  24  25
ENDBRANCH  23  24
ENDBRANCH  22  23
ENDBRANCH  21  22
ENDBRANCH  20  21
ENDBRANCH  19  20
ENDBRANCH  18  19
ENDBRANCH   1  18
TORSDOF 28
ENDMDL
MODEL 4
REMARK VINA RESULT:    -4.370      7.518     12.304
REMARK INTER + INTRA:         -16.464
REMARK INTER:                 -12.930
REMARK INTRA:                  -3.534
REMARK UNBOUND:                -4.940
REMARK SMILES CCCCCCCCCCCCCCCCCCCCCCCCCCCCCC(=O)[O-]
REMARK SMILES IDX 16 1 17 2 18 3 19 4 20 5 21 6 22 7 23 8 24 9 25 10 26 11
REMARK SMILES IDX 27 12 28 13 29 14 30 15 31 16 32 17 15 18 14 19 13 20 12 21
REMARK SMILES IDX 11 22 10 23 9 24 8 25 7 26 6 27 5 28 4 29 3 30 2 31 1 32
REMARK H PARENT
REMARK Flexibility Score: inf
ROOT
ATOM      1  C   UNL     1      65.556  29.697  26.131  1.00  0.00     0.000 C 
ENDROOT
BRANCH   1   2
ATOM      2  C   UNL     1      65.700  30.032  27.630  1.00  0.00     0.000 C 
BRANCH   2   3
ATOM      3  C   UNL     1      64.479  30.771  28.202  1.00  0.00     0.000 C 
BRANCH   3   4
ATOM      4  C   UNL     1      63.137  30.171  27.745  1.00  0.00     0.000 C 
BRANCH   4   5
ATOM      5  C   UNL     1      62.140  29.893  28.894  1.00  0.00     0.000 C 
BRANCH   5   6
ATOM      6  C   UNL     1      60.985  28.979  28.444  1.00  0.00     0.000 C 
BRANCH   6   7
ATOM      7  C   UNL     1      61.368  27.490  28.438  1.00  0.00     0.000 C 
BRANCH   7   8
ATOM      8  C   UNL     1      61.696  26.972  27.030  1.00  0.00     0.000 C 
BRANCH   8   9
ATOM      9  C   UNL     1      60.430  26.895  26.160  1.00  0.00     0.000 C 
BRANCH   9  10
ATOM     10  C   UNL     1      60.595  27.605  24.804  1.00  0.00     0.000 C 
BRANCH  10  11
ATOM     11  C   UNL     1      61.307  28.972  24.871  1.00  0.00     0.000 C 
BRANCH  11  12
ATOM     12  C   UNL     1      62.601  29.074  24.043  1.00  0.00     0.000 C 
BRANCH  12  13
ATOM     13  C   UNL     1      62.753  27.926  23.028  1.00  0.00     0.006 C 
BRANCH  13  14
ATOM     14  C   UNL     1      64.101  27.203  23.163  1.00  0.00     0.053 C 
BRANCH  14  15
ATOM     15  C   UNL     1      64.083  26.196  24.271  1.00  0.00     0.041 C 
ATOM     16  O   UNL     1      64.943  26.250  25.190  1.00  0.00    -0.550 OA
ATOM     17  O   UNL     1      63.147  25.170  24.267  1.00  0.00    -0.550 OA
ENDBRANCH  14  15
ENDBRANCH  13  14
ENDBRANCH  12  13
ENDBRANCH  11  12
ENDBRANCH  10  11
ENDBRANCH   9  10
ENDBRANCH   8   9
ENDBRANCH   7   8
ENDBRANCH   6   7
ENDBRANCH   5   6
ENDBRANCH   4   5
ENDBRANCH   3   4
ENDBRANCH   2   3
ENDBRANCH   1   2
BRANCH   1  18
ATOM     18  C   UNL     1      66.895  29.530  25.384  1.00  0.00     0.000 C 
BRANCH  18  19
ATOM     19  C   UNL     1      66.825  29.661  23.848  1.00  0.00     0.000 C 
BRANCH  19  20
ATOM     20  C   UNL     1      65.688  30.569  23.339  1.00  0.00     0.000 C 
BRANCH  20  21
ATOM     21  C   UNL     1      66.202  31.741  22.481  1.00  0.00     0.000 C 
BRANCH  21  22
ATOM     22  C   UNL     1      65.074  32.709  22.081  1.00  0.00     0.000 C 
BRANCH  22  23
ATOM     23  C   UNL     1      65.322  33.314  20.687  1.00  0.00     0.000 C 
BRANCH  23  24
ATOM     24  C   UNL     1      64.144  34.161  20.183  1.00  0.00    -0.000 C 
BRANCH  24  25
ATOM     25  C   UNL     1      63.370  33.490  19.036  1.00  0.00    -0.000 C 
BRANCH  25  26
ATOM     26  C   UNL     1      61.882  33.349  19.392  1.00  0.00    -0.000 C 
BRANCH  26  27
ATOM     27  C   UNL     1      60.960  34.107  18.419  1.00  0.00    -0.000 C 
BRANCH  27  28
ATOM     28  C   UNL     1      61.267  33.871  16.929  1.00  0.00    -0.000 C 
BRANCH  28  29
ATOM     29  C   UNL     1      60.848  32.467  16.452  1.00  0.00    -0.000 C 
BRANCH  29  30
ATOM     30  C   UNL     1      61.848  31.856  15.460  1.00  0.00    -0.000 C 
BRANCH  30  31
ATOM     31  C   UNL     1      62.875  32.877  14.952  1.00  0.00    -0.003 C 
ATOM     32  C   UNL     1      64.287  32.507  15.404  1.00  0.00     0.004 C 
ENDBRANCH  30  31
ENDBRANCH  29  30
ENDBRANCH  28  29
ENDBRANCH  27  28
ENDBRANCH  26  27
ENDBRANCH  25  26
ENDBRANCH  24  25
ENDBRANCH  23  24
ENDBRANCH  22  23
ENDBRANCH  21  22
ENDBRANCH  20  21
ENDBRANCH  19  20
ENDBRANCH  18  19
ENDBRANCH   1  18
TORSDOF 28
ENDMDL
MODEL 5
REMARK VINA RESULT:    -4.362      7.107     12.628
REMARK INTER + INTRA:         -16.441
REMARK INTER:                 -12.537
REMARK INTRA:                  -3.904
REMARK UNBOUND:                -4.940
REMARK SMILES CCCCCCCCCCCCCCCCCCCCCCCCCCCCCC(=O)[O-]
REMARK SMILES IDX 16 1 17 2 18 3 19 4 20 5 21 6 22 7 23 8 24 9 25 10 26 11
REMARK SMILES IDX 27 12 28 13 29 14 30 15 31 16 32 17 15 18 14 19 13 20 12 21
REMARK SMILES IDX 11 22 10 23 9 24 8 25 7 26 6 27 5 28 4 29 3 30 2 31 1 32
REMARK H PARENT
REMARK Flexibility Score: inf
ROOT
ATOM      1  C   UNL     1      64.832  30.363  28.723  1.00  0.00     0.000 C 
ENDROOT
BRANCH   1   2
ATOM      2  C   UNL     1      66.026  30.113  27.779  1.00  0.00     0.000 C 
BRANCH   2   3
ATOM      3  C   UNL     1      65.603  29.561  26.408  1.00  0.00     0.000 C 
BRANCH   3   4
ATOM      4  C   UNL     1      66.788  29.343  25.449  1.00  0.00     0.000 C 
BRANCH   4   5
ATOM      5  C   UNL     1      66.986  30.476  24.415  1.00  0.00     0.000 C 
BRANCH   5   6
ATOM      6  C   UNL     1      65.836  30.532  23.394  1.00  0.00     0.000 C 
BRANCH   6   7
ATOM      7  C   UNL     1      65.959  31.714  22.418  1.00  0.00     0.000 C 
BRANCH   7   8
ATOM      8  C   UNL     1      64.691  32.581  22.380  1.00  0.00     0.000 C 
BRANCH   8   9
ATOM      9  C   UNL     1      64.647  33.441  21.106  1.00  0.00     0.000 C 
BRANCH   9  10
ATOM     10  C   UNL     1      63.236  33.972  20.796  1.00  0.00     0.000 C 
BRANCH  10  11
ATOM     11  C   UNL     1      62.599  33.409  19.508  1.00  0.00     0.000 C 
BRANCH  11  12
ATOM     12  C   UNL     1      61.121  33.781  19.295  1.00  0.00     0.000 C 
BRANCH  12  13
ATOM     13  C   UNL     1      60.796  34.117  17.827  1.00  0.00     0.006 C 
BRANCH  13  14
ATOM     14  C   UNL     1      62.026  33.993  16.915  1.00  0.00     0.053 C 
BRANCH  14  15
ATOM     15  C   UNL     1      61.765  33.091  15.749  1.00  0.00     0.041 C 
ATOM     16  O   UNL     1      62.521  33.123  14.742  1.00  0.00    -0.550 OA
ATOM     17  O   UNL     1      60.660  32.248  15.752  1.00  0.00    -0.550 OA
ENDBRANCH  14  15
ENDBRANCH  13  14
ENDBRANCH  12  13
ENDBRANCH  11  12
ENDBRANCH  10  11
ENDBRANCH   9  10
ENDBRANCH   8   9
ENDBRANCH   7   8
ENDBRANCH   6   7
ENDBRANCH   5   6
ENDBRANCH   4   5
ENDBRANCH   3   4
ENDBRANCH   2   3
ENDBRANCH   1   2
BRANCH   1  18
ATOM     18  C   UNL     1      63.466  30.464  28.011  1.00  0.00     0.000 C 
BRANCH  18  19
ATOM     19  C   UNL     1      62.227  30.298  28.915  1.00  0.00     0.000 C 
BRANCH  19  20
ATOM     20  C   UNL     1      61.343  29.084  28.563  1.00  0.00     0.000 C 
BRANCH  20  21
ATOM     21  C   UNL     1      61.975  28.181  27.486  1.00  0.00     0.000 C 
BRANCH  21  22
ATOM     22  C   UNL     1      60.915  27.513  26.591  1.00  0.00     0.000 C 
BRANCH  22  23
ATOM     23  C   UNL     1      60.731  28.282  25.270  1.00  0.00     0.000 C 
BRANCH  23  24
ATOM     24  C   UNL     1      61.800  29.363  25.051  1.00  0.00    -0.000 C 
BRANCH  24  25
ATOM     25  C   UNL     1      62.832  28.977  23.978  1.00  0.00    -0.000 C 
BRANCH  25  26
ATOM     26  C   UNL     1      62.303  27.830  23.102  1.00  0.00    -0.000 C 
BRANCH  26  27
ATOM     27  C   UNL     1      63.115  26.532  23.264  1.00  0.00    -0.000 C 
BRANCH  27  28
ATOM     28  C   UNL     1      64.106  26.536  24.443  1.00  0.00    -0.000 C 
BRANCH  28  29
ATOM     29  C   UNL     1      65.547  26.214  24.006  1.00  0.00    -0.000 C 
BRANCH  29  30
ATOM     30  C   UNL     1      65.733  26.277  22.483  1.00  0.00    -0.000 C 
BRANCH  30  31
ATOM     31  C   UNL     1      66.720  27.372  22.054  1.00  0.00    -0.003 C 
ATOM     32  C   UNL     1      66.376  27.907  20.664  1.00  0.00     0.004 C 
ENDBRANCH  30  31
ENDBRANCH  29  30
ENDBRANCH  28  29
ENDBRANCH  27  28
ENDBRANCH  26  27
ENDBRANCH  25  26
ENDBRANCH  24  25
ENDBRANCH  23  24
ENDBRANCH  22  23
ENDBRANCH  21  22
ENDBRANCH  20  21
ENDBRANCH  19  20
ENDBRANCH  18  19
ENDBRANCH   1  18
TORSDOF 28
ENDMDL
MODEL 6
REMARK VINA RESULT:    -4.326      6.477     11.482
REMARK INTER + INTRA:         -16.346
REMARK INTER:                 -13.279
REMARK INTRA:                  -3.067
REMARK UNBOUND:                -4.940
REMARK SMILES CCCCCCCCCCCCCCCCCCCCCCCCCCCCCC(=O)[O-]
REMARK SMILES IDX 16 1 17 2 18 3 19 4 20 5 21 6 22 7 23 8 24 9 25 10 26 11
REMARK SMILES IDX 27 12 28 13 29 14 30 15 31 16 32 17 15 18 14 19 13 20 12 21
REMARK SMILES IDX 11 22 10 23 9 24 8 25 7 26 6 27 5 28 4 29 3 30 2 31 1 32
REMARK H PARENT
REMARK Flexibility Score: inf
ROOT
ATOM      1  C   UNL     1      65.193  30.499  23.180  1.00  0.00     0.000 C 
ENDROOT
BRANCH   1   2
ATOM      2  C   UNL     1      65.157  31.948  22.652  1.00  0.00     0.000 C 
BRANCH   2   3
ATOM      3  C   UNL     1      63.771  32.602  22.782  1.00  0.00     0.000 C 
BRANCH   3   4
ATOM      4  C   UNL     1      63.434  33.547  21.615  1.00  0.00     0.000 C 
BRANCH   4   5
ATOM      5  C   UNL     1      64.418  33.465  20.424  1.00  0.00     0.000 C 
BRANCH   5   6
ATOM      6  C   UNL     1      63.711  33.699  19.077  1.00  0.00     0.000 C 
BRANCH   6   7
ATOM      7  C   UNL     1      62.182  33.571  19.173  1.00  0.00     0.000 C 
BRANCH   7   8
ATOM      8  C   UNL     1      61.469  34.047  17.898  1.00  0.00     0.000 C 
BRANCH   8   9
ATOM      9  C   UNL     1      61.243  32.880  16.923  1.00  0.00     0.000 C 
BRANCH   9  10
ATOM     10  C   UNL     1      62.236  32.887  15.746  1.00  0.00     0.000 C 
BRANCH  10  11
ATOM     11  C   UNL     1      61.588  32.784  14.350  1.00  0.00     0.000 C 
BRANCH  11  12
ATOM     12  C   UNL     1      60.062  32.986  14.323  1.00  0.00     0.000 C 
BRANCH  12  13
ATOM     13  C   UNL     1      59.295  31.694  13.982  1.00  0.00     0.006 C 
BRANCH  13  14
ATOM     14  C   UNL     1      59.949  30.915  12.832  1.00  0.00     0.053 C 
BRANCH  14  15
ATOM     15  C   UNL     1      60.002  29.445  13.115  1.00  0.00     0.041 C 
ATOM     16  O   UNL     1      60.831  28.990  13.946  1.00  0.00    -0.550 OA
ATOM     17  O   UNL     1      59.168  28.572  12.428  1.00  0.00    -0.550 OA
ENDBRANCH  14  15
ENDBRANCH  13  14
ENDBRANCH  12  13
ENDBRANCH  11  12
ENDBRANCH  10  11
ENDBRANCH   9  10
ENDBRANCH   8   9
ENDBRANCH   7   8
ENDBRANCH   6   7
ENDBRANCH   5   6
ENDBRANCH   4   5
ENDBRANCH   3   4
ENDBRANCH   2   3
ENDBRANCH   1   2
BRANCH   1  18
ATOM     18  C   UNL     1      66.262  30.242  24.263  1.00  0.00     0.000 C 
BRANCH  18  19
ATOM     19  C   UNL     1      65.780  29.473  25.510  1.00  0.00     0.000 C 
BRANCH  19  20
ATOM     20  C   UNL     1      66.426  29.936  26.831  1.00  0.00     0.000 C 
BRANCH  20  21
ATOM     21  C   UNL     1      65.394  30.142  27.958  1.00  0.00     0.000 C 
BRANCH  21  22
ATOM     22  C   UNL     1      63.961  30.286  27.415  1.00  0.00     0.000 C 
BRANCH  22  23
ATOM     23  C   UNL     1      62.916  30.077  28.526  1.00  0.00     0.000 C 
BRANCH  23  24
ATOM     24  C   UNL     1      61.567  29.572  27.994  1.00  0.00    -0.000 C 
BRANCH  24  25
ATOM     25  C   UNL     1      61.323  28.084  28.296  1.00  0.00    -0.000 C 
BRANCH  25  26
ATOM     26  C   UNL     1      61.776  27.208  27.117  1.00  0.00    -0.000 C 
BRANCH  26  27
ATOM     27  C   UNL     1      60.684  27.038  26.044  1.00  0.00    -0.000 C 
BRANCH  27  28
ATOM     28  C   UNL     1      60.847  27.949  24.813  1.00  0.00    -0.000 C 
BRANCH  28  29
ATOM     29  C   UNL     1      62.307  28.383  24.586  1.00  0.00    -0.000 C 
BRANCH  29  30
ATOM     30  C   UNL     1      63.046  27.478  23.589  1.00  0.00    -0.000 C 
BRANCH  30  31
ATOM     31  C   UNL     1      64.018  26.509  24.279  1.00  0.00    -0.003 C 
ATOM     32  C   UNL     1      65.283  26.315  23.445  1.00  0.00     0.004 C 
ENDBRANCH  30  31
ENDBRANCH  29  30
ENDBRANCH  28  29
ENDBRANCH  27  28
ENDBRANCH  26  27
ENDBRANCH  25  26
ENDBRANCH  24  25
ENDBRANCH  23  24
ENDBRANCH  22  23
ENDBRANCH  21  22
ENDBRANCH  20  21
ENDBRANCH  19  20
ENDBRANCH  18  19
ENDBRANCH   1  18
TORSDOF 28
ENDMDL
MODEL 7
REMARK VINA RESULT:    -4.311      6.817     11.310
REMARK INTER + INTRA:         -16.307
REMARK INTER:                 -12.969
REMARK INTRA:                  -3.338
REMARK UNBOUND:                -4.940
REMARK SMILES CCCCCCCCCCCCCCCCCCCCCCCCCCCCCC(=O)[O-]
REMARK SMILES IDX 16 1 17 2 18 3 19 4 20 5 21 6 22 7 23 8 24 9 25 10 26 11
REMARK SMILES IDX 27 12 28 13 29 14 30 15 31 16 32 17 15 18 14 19 13 20 12 21
REMARK SMILES IDX 11 22 10 23 9 24 8 25 7 26 6 27 5 28 4 29 3 30 2 31 1 32
REMARK H PARENT
REMARK Flexibility Score: inf
ROOT
ATOM      1  C   UNL     1      66.244  28.366  21.677  1.00  0.00     0.000 C 
ENDROOT
BRANCH   1   2
ATOM      2  C   UNL     1      66.761  29.507  22.577  1.00  0.00     0.000 C 
BRANCH   2   3
ATOM      3  C   UNL     1      66.899  30.845  21.832  1.00  0.00     0.000 C 
BRANCH   3   4
ATOM      4  C   UNL     1      65.905  31.916  22.318  1.00  0.00     0.000 C 
BRANCH   4   5
ATOM      5  C   UNL     1      65.916  33.219  21.485  1.00  0.00     0.000 C 
BRANCH   5   6
ATOM      6  C   UNL     1      64.696  33.315  20.551  1.00  0.00     0.000 C 
BRANCH   6   7
ATOM      7  C   UNL     1      65.079  33.282  19.061  1.00  0.00     0.000 C 
BRANCH   7   8
ATOM      8  C   UNL     1      63.851  33.246  18.138  1.00  0.00     0.000 C 
BRANCH   8   9
ATOM      9  C   UNL     1      62.558  33.501  18.929  1.00  0.00     0.000 C 
BRANCH   9  10
ATOM     10  C   UNL     1      61.333  33.703  18.017  1.00  0.00     0.000 C 
BRANCH  10  11
ATOM     11  C   UNL     1      61.619  33.565  16.508  1.00  0.00     0.000 C 
BRANCH  11  12
ATOM     12  C   UNL     1      60.377  33.347  15.626  1.00  0.00     0.000 C 
BRANCH  12  13
ATOM     13  C   UNL     1      60.105  31.859  15.334  1.00  0.00     0.006 C 
BRANCH  13  14
ATOM     14  C   UNL     1      59.290  31.657  14.049  1.00  0.00     0.053 C 
BRANCH  14  15
ATOM     15  C   UNL     1      60.146  31.184  12.915  1.00  0.00     0.041 C 
ATOM     16  O   UNL     1      59.636  30.537  11.963  1.00  0.00    -0.550 OA
ATOM     17  O   UNL     1      61.516  31.418  12.931  1.00  0.00    -0.550 OA
ENDBRANCH  14  15
ENDBRANCH  13  14
ENDBRANCH  12  13
ENDBRANCH  11  12
ENDBRANCH  10  11
ENDBRANCH   9  10
ENDBRANCH   8   9
ENDBRANCH   7   8
ENDBRANCH   6   7
ENDBRANCH   5   6
ENDBRANCH   4   5
ENDBRANCH   3   4
ENDBRANCH   2   3
ENDBRANCH   1   2
BRANCH   1  18
ATOM     18  C   UNL     1      65.133  27.505  22.314  1.00  0.00     0.000 C 
BRANCH  18  19
ATOM     19  C   UNL     1      65.591  26.162  22.919  1.00  0.00     0.000 C 
BRANCH  19  20
ATOM     20  C   UNL     1      64.966  25.837  24.291  1.00  0.00     0.000 C 
BRANCH  20  21
ATOM     21  C   UNL     1      63.426  25.882  24.268  1.00  0.00     0.000 C 
BRANCH  21  22
ATOM     22  C   UNL     1      62.839  26.388  25.598  1.00  0.00     0.000 C 
BRANCH  22  23
ATOM     23  C   UNL     1      61.452  27.024  25.393  1.00  0.00     0.000 C 
BRANCH  23  24
ATOM     24  C   UNL     1      60.780  27.435  26.712  1.00  0.00    -0.000 C 
BRANCH  24  25
ATOM     25  C   UNL     1      61.414  26.765  27.942  1.00  0.00    -0.000 C 
BRANCH  25  26
ATOM     26  C   UNL     1      61.829  27.817  28.982  1.00  0.00    -0.000 C 
BRANCH  26  27
ATOM     27  C   UNL     1      61.218  29.204  28.707  1.00  0.00    -0.000 C 
BRANCH  27  28
ATOM     28  C   UNL     1      62.242  30.350  28.615  1.00  0.00    -0.000 C 
BRANCH  28  29
ATOM     29  C   UNL     1      63.418  30.021  27.676  1.00  0.00    -0.000 C 
BRANCH  29  30
ATOM     30  C   UNL     1      63.089  30.290  26.200  1.00  0.00    -0.000 C 
BRANCH  30  31
ATOM     31  C   UNL     1      64.189  29.793  25.251  1.00  0.00    -0.003 C 
ATOM     32  C   UNL     1      65.324  29.126  26.027  1.00  0.00     0.004 C 
ENDBRANCH  30  31
ENDBRANCH  29  30
ENDBRANCH  28  29
ENDBRANCH  27  28
ENDBRANCH  26  27
ENDBRANCH  25  26
ENDBRANCH  24  25
ENDBRANCH  23  24
ENDBRANCH  22  23
ENDBRANCH  21  22
ENDBRANCH  20  21
ENDBRANCH  19  20
ENDBRANCH  18  19
ENDBRANCH   1  18
TORSDOF 28
ENDMDL
MODEL 8
REMARK VINA RESULT:    -4.282      6.111     10.917
REMARK INTER + INTRA:         -16.230
REMARK INTER:                 -12.837
REMARK INTRA:                  -3.393
REMARK UNBOUND:                -4.940
REMARK SMILES CCCCCCCCCCCCCCCCCCCCCCCCCCCCCC(=O)[O-]
REMARK SMILES IDX 16 1 17 2 18 3 19 4 20 5 21 6 22 7 23 8 24 9 25 10 26 11
REMARK SMILES IDX 27 12 28 13 29 14 30 15 31 16 32 17 15 18 14 19 13 20 12 21
REMARK SMILES IDX 11 22 10 23 9 24 8 25 7 26 6 27 5 28 4 29 3 30 2 31 1 32
REMARK H PARENT
REMARK Flexibility Score: inf
ROOT
ATOM      1  C   UNL     1      64.066  31.800  23.100  1.00  0.00     0.000 C 
ENDROOT
BRANCH   1   2
ATOM      2  C   UNL     1      65.500  31.230  23.104  1.00  0.00     0.000 C 
BRANCH   2   3
ATOM      3  C   UNL     1      65.539  29.700  23.253  1.00  0.00     0.000 C 
BRANCH   3   4
ATOM      4  C   UNL     1      66.343  29.229  24.478  1.00  0.00     0.000 C 
BRANCH   4   5
ATOM      5  C   UNL     1      65.485  28.592  25.597  1.00  0.00     0.000 C 
BRANCH   5   6
ATOM      6  C   UNL     1      64.412  29.563  26.123  1.00  0.00     0.000 C 
BRANCH   6   7
ATOM      7  C   UNL     1      63.008  28.937  26.166  1.00  0.00     0.000 C 
BRANCH   7   8
ATOM      8  C   UNL     1      62.219  29.169  24.869  1.00  0.00     0.000 C 
BRANCH   8   9
ATOM      9  C   UNL     1      61.904  27.837  24.168  1.00  0.00     0.000 C 
BRANCH   9  10
ATOM     10  C   UNL     1      62.423  26.616  24.950  1.00  0.00     0.000 C 
BRANCH  10  11
ATOM     11  C   UNL     1      63.324  25.662  24.139  1.00  0.00     0.000 C 
BRANCH  11  12
ATOM     12  C   UNL     1      64.066  26.313  22.958  1.00  0.00     0.000 C 
BRANCH  12  13
ATOM     13  C   UNL     1      65.561  25.945  22.916  1.00  0.00     0.006 C 
BRANCH  13  14
ATOM     14  C   UNL     1      65.960  25.281  21.590  1.00  0.00     0.053 C 
BRANCH  14  15
ATOM     15  C   UNL     1      66.386  26.290  20.568  1.00  0.00     0.041 C 
ATOM     16  O   UNL     1      66.349  26.005  19.343  1.00  0.00    -0.550 OA
ATOM     17  O   UNL     1      66.867  27.530  20.970  1.00  0.00    -0.550 OA
ENDBRANCH  14  15
ENDBRANCH  13  14
ENDBRANCH  12  13
ENDBRANCH  11  12
ENDBRANCH  10  11
ENDBRANCH   9  10
ENDBRANCH   8   9
ENDBRANCH   7   8
ENDBRANCH   6   7
ENDBRANCH   5   6
ENDBRANCH   4   5
ENDBRANCH   3   4
ENDBRANCH   2   3
ENDBRANCH   1   2
BRANCH   1  18
ATOM     18  C   UNL     1      63.876  33.040  22.202  1.00  0.00     0.000 C 
BRANCH  18  19
ATOM     19  C   UNL     1      64.853  33.163  21.014  1.00  0.00     0.000 C 
BRANCH  19  20
ATOM     20  C   UNL     1      64.459  34.232  19.975  1.00  0.00     0.000 C 
BRANCH  20  21
ATOM     21  C   UNL     1      63.818  33.627  18.712  1.00  0.00     0.000 C 
BRANCH  21  22
ATOM     22  C   UNL     1      62.291  33.487  18.845  1.00  0.00     0.000 C 
BRANCH  22  23
ATOM     23  C   UNL     1      61.602  33.526  17.469  1.00  0.00     0.000 C 
BRANCH  23  24
ATOM     24  C   UNL     1      62.570  33.269  16.305  1.00  0.00    -0.000 C 
BRANCH  24  25
ATOM     25  C   UNL     1      61.852  32.879  15.003  1.00  0.00    -0.000 C 
BRANCH  25  26
ATOM     26  C   UNL     1      60.336  33.103  15.129  1.00  0.00    -0.000 C 
BRANCH  26  27
ATOM     27  C   UNL     1      59.514  32.130  14.264  1.00  0.00    -0.000 C 
BRANCH  27  28
ATOM     28  C   UNL     1      60.201  31.697  12.956  1.00  0.00    -0.000 C 
BRANCH  28  29
ATOM     29  C   UNL     1      59.845  30.253  12.550  1.00  0.00    -0.000 C 
BRANCH  29  30
ATOM     30  C   UNL     1      60.402  29.209  13.530  1.00  0.00    -0.000 C 
BRANCH  30  31
ATOM     31  C   UNL     1      61.749  28.631  13.075  1.00  0.00    -0.003 C 
ATOM     32  C   UNL     1      62.914  29.367  13.736  1.00  0.00     0.004 C 
ENDBRANCH  30  31
ENDBRANCH  29  30
ENDBRANCH  28  29
ENDBRANCH  27  28
ENDBRANCH  26  27
ENDBRANCH  25  26
ENDBRANCH  24  25
ENDBRANCH  23  24
ENDBRANCH  22  23
ENDBRANCH  21  22
ENDBRANCH  20  21
ENDBRANCH  19  20
ENDBRANCH  18  19
ENDBRANCH   1  18
TORSDOF 28
ENDMDL
MODEL 9
REMARK VINA RESULT:    -4.264      6.623     11.705
REMARK INTER + INTRA:         -16.184
REMARK INTER:                 -13.037
REMARK INTRA:                  -3.148
REMARK UNBOUND:                -4.940
REMARK SMILES CCCCCCCCCCCCCCCCCCCCCCCCCCCCCC(=O)[O-]
REMARK SMILES IDX 16 1 17 2 18 3 19 4 20 5 21 6 22 7 23 8 24 9 25 10 26 11
REMARK SMILES IDX 27 12 28 13 29 14 30 15 31 16 32 17 15 18 14 19 13 20 12 21
REMARK SMILES IDX 11 22 10 23 9 24 8 25 7 26 6 27 5 28 4 29 3 30 2 31 1 32
REMARK H PARENT
REMARK Flexibility Score: inf
ROOT
ATOM      1  C   UNL     1      65.620  30.021  23.496  1.00  0.00     0.000 C 
ENDROOT
BRANCH   1   2
ATOM      2  C   UNL     1      66.488  31.262  23.205  1.00  0.00     0.000 C 
BRANCH   2   3
ATOM      3  C   UNL     1      66.373  31.750  21.751  1.00  0.00     0.000 C 
BRANCH   3   4
ATOM      4  C   UNL     1      65.352  32.888  21.571  1.00  0.00     0.000 C 
BRANCH   4   5
ATOM      5  C   UNL     1      65.530  33.703  20.268  1.00  0.00     0.000 C 
BRANCH   5   6
ATOM      6  C   UNL     1      64.229  33.766  19.448  1.00  0.00     0.000 C 
BRANCH   6   7
ATOM      7  C   UNL     1      62.969  33.566  20.307  1.00  0.00     0.000 C 
BRANCH   7   8
ATOM      8  C   UNL     1      61.680  33.572  19.472  1.00  0.00     0.000 C 
BRANCH   8   9
ATOM      9  C   UNL     1      61.978  33.882  17.997  1.00  0.00     0.000 C 
BRANCH   9  10
ATOM     10  C   UNL     1      61.133  33.035  17.028  1.00  0.00     0.000 C 
BRANCH  10  11
ATOM     11  C   UNL     1      61.514  33.177  15.540  1.00  0.00     0.000 C 
BRANCH  11  12
ATOM     12  C   UNL     1      60.343  33.498  14.594  1.00  0.00     0.000 C 
BRANCH  12  13
ATOM     13  C   UNL     1      60.240  32.512  13.415  1.00  0.00     0.006 C 
BRANCH  13  14
ATOM     14  C   UNL     1      59.536  31.205  13.809  1.00  0.00     0.053 C 
BRANCH  14  15
ATOM     15  C   UNL     1      60.481  30.044  13.813  1.00  0.00     0.041 C 
ATOM     16  O   UNL     1      60.647  29.359  12.769  1.00  0.00    -0.550 OA
ATOM     17  O   UNL     1      61.146  29.689  14.979  1.00  0.00    -0.550 OA
ENDBRANCH  14  15
ENDBRANCH  13  14
ENDBRANCH  12  13
ENDBRANCH  11  12
ENDBRANCH  10  11
ENDBRANCH   9  10
ENDBRANCH   8   9
ENDBRANCH   7   8
ENDBRANCH   6   7
ENDBRANCH   5   6
ENDBRANCH   4   5
ENDBRANCH   3   4
ENDBRANCH   2   3
ENDBRANCH   1   2
BRANCH   1  18
ATOM     18  C   UNL     1      66.161  29.113  24.620  1.00  0.00     0.000 C 
BRANCH  18  19
ATOM     19  C   UNL     1      66.065  29.688  26.049  1.00  0.00     0.000 C 
BRANCH  19  20
ATOM     20  C   UNL     1      64.786  29.285  26.811  1.00  0.00     0.000 C 
BRANCH  20  21
ATOM     21  C   UNL     1      63.812  30.463  27.003  1.00  0.00     0.000 C 
BRANCH  21  22
ATOM     22  C   UNL     1      62.541  30.049  27.766  1.00  0.00     0.000 C 
BRANCH  22  23
ATOM     23  C   UNL     1      62.817  28.868  28.715  1.00  0.00     0.000 C 
BRANCH  23  24
ATOM     24  C   UNL     1      61.927  27.649  28.431  1.00  0.00    -0.000 C 
BRANCH  24  25
ATOM     25  C   UNL     1      60.708  27.988  27.556  1.00  0.00    -0.000 C 
BRANCH  25  26
ATOM     26  C   UNL     1      60.720  27.160  26.261  1.00  0.00    -0.000 C 
BRANCH  26  27
ATOM     27  C   UNL     1      60.862  28.028  24.997  1.00  0.00    -0.000 C 
BRANCH  27  28
ATOM     28  C   UNL     1      62.251  27.977  24.335  1.00  0.00    -0.000 C 
BRANCH  28  29
ATOM     29  C   UNL     1      63.136  26.851  24.902  1.00  0.00    -0.000 C 
BRANCH  29  30
ATOM     30  C   UNL     1      63.607  25.867  23.821  1.00  0.00    -0.000 C 
BRANCH  30  31
ATOM     31  C   UNL     1      65.129  25.660  23.833  1.00  0.00    -0.003 C 
ATOM     32  C   UNL     1      65.699  25.699  22.416  1.00  0.00     0.004 C 
ENDBRANCH  30  31
ENDBRANCH  29  30
ENDBRANCH  28  29
ENDBRANCH  27  28
ENDBRANCH  26  27
ENDBRANCH  25  26
ENDBRANCH  24  25
ENDBRANCH  23  24
ENDBRANCH  22  23
ENDBRANCH  21  22
ENDBRANCH  20  21
ENDBRANCH  19  20
ENDBRANCH  18  19
ENDBRANCH   1  18
TORSDOF 28
ENDMDL
