MODEL 1
REMARK VINA RESULT:    11.547      0.000      0.000
REMARK INTER + INTRA:          28.300
REMARK INTER:                  29.097
REMARK INTRA:                  -0.796
REMARK UNBOUND:                -0.796
REMARK SMILES CCCCCCCCCCCCCCCCCCCCCCCCCCCC(=O)[O-]
REMARK SMILES IDX 15 1 16 2 17 3 18 4 19 5 20 6 21 7 22 8 23 9 24 10 25 11
REMARK SMILES IDX 26 12 27 13 28 14 29 15 30 16 14 17 13 18 12 19 11 20 10 21
REMARK SMILES IDX 9 22 8 23 7 24 6 25 5 26 4 27 3 28 2 29 1 30
REMARK H PARENT
REMARK Flexibility Score: inf
ROOT
ATOM      1  C   UNL     1       7.477  41.956  12.493  1.00  0.00     0.000 C 
ENDROOT
BRANCH   1   2
ATOM      2  C   UNL     1       8.425  43.094  12.071  1.00  0.00     0.000 C 
BRANCH   2   3
ATOM      3  C   UNL     1       8.383  43.450  10.574  1.00  0.00     0.000 C 
BRANCH   3   4
ATOM      4  C   UNL     1       6.952  43.617  10.015  1.00  0.00     0.000 C 
BRANCH   4   5
ATOM      5  C   UNL     1       6.389  45.033  10.226  1.00  0.00     0.000 C 
BRANCH   5   6
ATOM      6  C   UNL     1       5.423  45.125  11.421  1.00  0.00     0.000 C 
BRANCH   6   7
ATOM      7  C   UNL     1       3.954  44.785  11.104  1.00  0.00     0.000 C 
BRANCH   7   8
ATOM      8  C   UNL     1       3.296  43.900  12.175  1.00  0.00     0.000 C 
BRANCH   8   9
ATOM      9  C   UNL     1       2.790  42.563  11.607  1.00  0.00     0.000 C 
BRANCH   9  10
ATOM     10  C   UNL     1       1.497  42.718  10.791  1.00  0.00     0.000 C 
BRANCH  10  11
ATOM     11  C   UNL     1       0.548  43.724  11.458  1.00  0.00     0.000 C 
BRANCH  11  12
ATOM     12  C   UNL     1       0.516  43.588  12.989  1.00  0.00     0.006 C 
BRANCH  12  13
ATOM     13  C   UNL     1      -0.231  44.743  13.670  1.00  0.00     0.053 C 
BRANCH  13  14
ATOM     14  C   UNL     1      -1.465  44.238  14.350  1.00  0.00     0.041 C 
ATOM     15  O   UNL     1      -2.204  45.031  14.991  1.00  0.00    -0.550 OA
ATOM     16  O   UNL     1      -1.819  42.900  14.246  1.00  0.00    -0.550 OA
ENDBRANCH  13  14
ENDBRANCH  12  13
ENDBRANCH  11  12
ENDBRANCH  10  11
ENDBRANCH   9  10
ENDBRANCH   8   9
ENDBRANCH   7   8
ENDBRANCH   6   7
ENDBRANCH   5   6
ENDBRANCH   4   5
ENDBRANCH   3   4
ENDBRANCH   2   3
ENDBRANCH   1   2
BRANCH   1  17
ATOM     17  C   UNL     1       7.398  41.745  14.022  1.00  0.00     0.000 C 
BRANCH  17  18
ATOM     18  C   UNL     1       6.297  42.592  14.680  1.00  0.00     0.000 C 
BRANCH  18  19
ATOM     19  C   UNL     1       5.054  41.764  15.045  1.00  0.00     0.000 C 
BRANCH  19  20
ATOM     20  C   UNL     1       5.085  41.252  16.495  1.00  0.00     0.000 C 
BRANCH  20  21
ATOM     21  C   UNL     1       6.439  40.620  16.870  1.00  0.00     0.000 C 
BRANCH  21  22
ATOM     22  C   UNL     1       6.626  40.342  18.375  1.00  0.00    -0.000 C 
BRANCH  22  23
ATOM     23  C   UNL     1       5.596  39.378  18.997  1.00  0.00    -0.000 C 
BRANCH  23  24
ATOM     24  C   UNL     1       4.223  40.003  19.303  1.00  0.00    -0.000 C 
BRANCH  24  25
ATOM     25  C   UNL     1       4.254  40.935  20.524  1.00  0.00    -0.000 C 
BRANCH  25  26
ATOM     26  C   UNL     1       2.978  41.783  20.602  1.00  0.00    -0.000 C 
BRANCH  26  27
ATOM     27  C   UNL     1       3.284  43.264  20.333  1.00  0.00    -0.000 C 
BRANCH  27  28
ATOM     28  C   UNL     1       3.203  44.120  21.615  1.00  0.00    -0.000 C 
BRANCH  28  29
ATOM     29  C   UNL     1       4.488  44.084  22.459  1.00  0.00    -0.003 C 
ATOM     30  C   UNL     1       5.692  43.545  21.691  1.00  0.00     0.004 C 
ENDBRANCH  28  29
ENDBRANCH  27  28
ENDBRANCH  26  27
ENDBRANCH  25  26
ENDBRANCH  24  25
ENDBRANCH  23  24
ENDBRANCH  22  23
ENDBRANCH  21  22
ENDBRANCH  20  21
ENDBRANCH  19  20
ENDBRANCH  18  19
ENDBRANCH  17  18
ENDBRANCH   1  17
TORSDOF 26
ENDMDL
MODEL 2
REMARK VINA RESULT:    12.664      1.349      2.148
REMARK INTER + INTRA:          31.116
REMARK INTER:                  32.574
REMARK INTRA:                  -1.458
REMARK UNBOUND:                -0.796
REMARK SMILES CCCCCCCCCCCCCCCCCCCCCCCCCCCC(=O)[O-]
REMARK SMILES IDX 15 1 16 2 17 3 18 4 19 5 20 6 21 7 22 8 23 9 24 10 25 11
REMARK SMILES IDX 26 12 27 13 28 14 29 15 30 16 14 17 13 18 12 19 11 20 10 21
REMARK SMILES IDX 9 22 8 23 7 24 6 25 5 26 4 27 3 28 2 29 1 30
REMARK H PARENT
REMARK Flexibility Score: inf
ROOT
ATOM      1  C   UNL     1       7.341  41.944  12.641  1.00  0.00     0.000 C 
ENDROOT
BRANCH   1   2
ATOM      2  C   UNL     1       7.790  42.712  11.384  1.00  0.00     0.000 C 
BRANCH   2   3
ATOM      3  C   UNL     1       7.004  42.376  10.105  1.00  0.00     0.000 C 
BRANCH   3   4
ATOM      4  C   UNL     1       5.499  42.719  10.191  1.00  0.00     0.000 C 
BRANCH   4   5
ATOM      5  C   UNL     1       5.204  44.195   9.875  1.00  0.00     0.000 C 
BRANCH   5   6
ATOM      6  C   UNL     1       5.055  45.063  11.138  1.00  0.00     0.000 C 
BRANCH   6   7
ATOM      7  C   UNL     1       3.678  44.993  11.823  1.00  0.00     0.000 C 
BRANCH   7   8
ATOM      8  C   UNL     1       2.907  43.703  11.494  1.00  0.00     0.000 C 
BRANCH   8   9
ATOM      9  C   UNL     1       1.438  43.761  11.946  1.00  0.00     0.000 C 
BRANCH   9  10
ATOM     10  C   UNL     1       1.235  44.639  13.191  1.00  0.00     0.000 C 
BRANCH  10  11
ATOM     11  C   UNL     1      -0.253  44.959  13.397  1.00  0.00     0.000 C 
BRANCH  11  12
ATOM     12  C   UNL     1      -0.765  44.537  14.784  1.00  0.00     0.006 C 
BRANCH  12  13
ATOM     13  C   UNL     1      -1.358  43.122  14.790  1.00  0.00     0.053 C 
BRANCH  13  14
ATOM     14  C   UNL     1      -2.846  43.180  14.930  1.00  0.00     0.041 C 
ATOM     15  O   UNL     1      -3.547  42.165  14.674  1.00  0.00    -0.550 OA
ATOM     16  O   UNL     1      -3.459  44.343  15.378  1.00  0.00    -0.550 OA
ENDBRANCH  13  14
ENDBRANCH  12  13
ENDBRANCH  11  12
ENDBRANCH  10  11
ENDBRANCH   9  10
ENDBRANCH   8   9
ENDBRANCH   7   8
ENDBRANCH   6   7
ENDBRANCH   5   6
ENDBRANCH   4   5
ENDBRANCH   3   4
ENDBRANCH   2   3
ENDBRANCH   1   2
BRANCH   1  17
ATOM     17  C   UNL     1       6.792  42.853  13.763  1.00  0.00     0.000 C 
BRANCH  17  18
ATOM     18  C   UNL     1       5.765  42.137  14.656  1.00  0.00     0.000 C 
BRANCH  18  19
ATOM     19  C   UNL     1       6.421  41.144  15.630  1.00  0.00     0.000 C 
BRANCH  19  20
ATOM     20  C   UNL     1       5.906  41.298  17.072  1.00  0.00     0.000 C 
BRANCH  20  21
ATOM     21  C   UNL     1       5.835  39.954  17.820  1.00  0.00     0.000 C 
BRANCH  21  22
ATOM     22  C   UNL     1       5.680  40.076  19.350  1.00  0.00    -0.000 C 
BRANCH  22  23
ATOM     23  C   UNL     1       4.266  39.784  19.891  1.00  0.00    -0.000 C 
BRANCH  23  24
ATOM     24  C   UNL     1       3.708  40.847  20.856  1.00  0.00    -0.000 C 
BRANCH  24  25
ATOM     25  C   UNL     1       4.128  42.274  20.475  1.00  0.00    -0.000 C 
BRANCH  25  26
ATOM     26  C   UNL     1       3.754  43.271  21.579  1.00  0.00    -0.000 C 
BRANCH  26  27
ATOM     27  C   UNL     1       3.346  44.626  20.981  1.00  0.00    -0.000 C 
BRANCH  27  28
ATOM     28  C   UNL     1       1.986  44.558  20.254  1.00  0.00    -0.000 C 
BRANCH  28  29
ATOM     29  C   UNL     1       1.073  43.430  20.762  1.00  0.00    -0.003 C 
ATOM     30  C   UNL     1      -0.301  43.928  21.205  1.00  0.00     0.004 C 
ENDBRANCH  28  29
ENDBRANCH  27  28
ENDBRANCH  26  27
ENDBRANCH  25  26
ENDBRANCH  24  25
ENDBRANCH  23  24
ENDBRANCH  22  23
ENDBRANCH  21  22
ENDBRANCH  20  21
ENDBRANCH  19  20
ENDBRANCH  18  19
ENDBRANCH  17  18
ENDBRANCH   1  17
TORSDOF 26
ENDMDL
