MODEL 1
REMARK VINA RESULT:    -3.369      0.000      0.000
REMARK INTER + INTRA:         -13.933
REMARK INTER:                  -8.883
REMARK INTRA:                  -5.050
REMARK UNBOUND:                -5.050
REMARK SMILES CCCCCCCCCCCCCCCCCCCCCCCCCCCCCC(=O)[O-]
REMARK SMILES IDX 16 1 17 2 18 3 19 4 20 5 21 6 22 7 23 8 24 9 25 10 26 11
REMARK SMILES IDX 27 12 28 13 29 14 30 15 31 16 32 17 15 18 14 19 13 20 12 21
REMARK SMILES IDX 11 22 10 23 9 24 8 25 7 26 6 27 5 28 4 29 3 30 2 31 1 32
REMARK H PARENT
REMARK Flexibility Score: inf
ROOT
ATOM      1  C   UNL     1      14.081   5.744   9.885  1.00  0.00     0.000 C 
ENDROOT
BRANCH   1   2
ATOM      2  C   UNL     1      15.255   6.663  10.269  1.00  0.00     0.000 C 
BRANCH   2   3
ATOM      3  C   UNL     1      14.890   7.643  11.398  1.00  0.00     0.000 C 
BRANCH   3   4
ATOM      4  C   UNL     1      15.166   7.073  12.799  1.00  0.00     0.000 C 
BRANCH   4   5
ATOM      5  C   UNL     1      13.871   6.748  13.564  1.00  0.00     0.000 C 
BRANCH   5   6
ATOM      6  C   UNL     1      12.616   7.304  12.873  1.00  0.00     0.000 C 
BRANCH   6   7
ATOM      7  C   UNL     1      11.508   6.250  12.722  1.00  0.00     0.000 C 
BRANCH   7   8
ATOM      8  C   UNL     1      10.157   6.916  12.423  1.00  0.00     0.000 C 
BRANCH   8   9
ATOM      9  C   UNL     1      10.285   8.417  12.110  1.00  0.00     0.000 C 
BRANCH   9  10
ATOM     10  C   UNL     1       9.012   9.079  11.547  1.00  0.00     0.000 C 
BRANCH  10  11
ATOM     11  C   UNL     1       9.165  10.589  11.257  1.00  0.00     0.000 C 
BRANCH  11  12
ATOM     12  C   UNL     1       7.852  11.226  10.766  1.00  0.00     0.000 C 
BRANCH  12  13
ATOM     13  C   UNL     1       8.081  12.456   9.869  1.00  0.00     0.006 C 
BRANCH  13  14
ATOM     14  C   UNL     1       6.793  13.081   9.306  1.00  0.00     0.053 C 
BRANCH  14  15
ATOM     15  C   UNL     1       6.975  13.601   7.911  1.00  0.00     0.041 C 
ATOM     16  O   UNL     1       5.975  13.963   7.235  1.00  0.00    -0.550 OA
ATOM     17  O   UNL     1       8.248  13.695   7.361  1.00  0.00    -0.550 OA
ENDBRANCH  14  15
ENDBRANCH  13  14
ENDBRANCH  12  13
ENDBRANCH  11  12
ENDBRANCH  10  11
ENDBRANCH   9  10
ENDBRANCH   8   9
ENDBRANCH   7   8
ENDBRANCH   6   7
ENDBRANCH   5   6
ENDBRANCH   4   5
ENDBRANCH   3   4
ENDBRANCH   2   3
ENDBRANCH   1   2
BRANCH   1  18
ATOM     18  C   UNL     1      13.827   5.619   8.370  1.00  0.00     0.000 C 
BRANCH  18  19
ATOM     19  C   UNL     1      12.343   5.624   7.954  1.00  0.00     0.000 C 
BRANCH  19  20
ATOM     20  C   UNL     1      11.370   6.166   9.018  1.00  0.00     0.000 C 
BRANCH  20  21
ATOM     21  C   UNL     1      10.355   7.171   8.444  1.00  0.00     0.000 C 
BRANCH  21  22
ATOM     22  C   UNL     1       8.889   6.805   8.769  1.00  0.00     0.000 C 
BRANCH  22  23
ATOM     23  C   UNL     1       8.019   6.549   7.523  1.00  0.00     0.000 C 
BRANCH  23  24
ATOM     24  C   UNL     1       6.922   7.599   7.266  1.00  0.00    -0.000 C 
BRANCH  24  25
ATOM     25  C   UNL     1       7.138   8.918   8.042  1.00  0.00    -0.000 C 
BRANCH  25  26
ATOM     26  C   UNL     1       7.616  10.060   7.137  1.00  0.00    -0.000 C 
BRANCH  26  27
ATOM     27  C   UNL     1       9.142  10.218   7.207  1.00  0.00    -0.000 C 
BRANCH  27  28
ATOM     28  C   UNL     1       9.821  10.103   5.830  1.00  0.00    -0.000 C 
BRANCH  28  29
ATOM     29  C   UNL     1       9.303   8.955   4.937  1.00  0.00    -0.000 C 
BRANCH  29  30
ATOM     30  C   UNL     1      10.364   7.915   4.524  1.00  0.00    -0.000 C 
BRANCH  30  31
ATOM     31  C   UNL     1      11.718   8.057   5.242  1.00  0.00    -0.003 C 
ATOM     32  C   UNL     1      12.788   8.709   4.367  1.00  0.00     0.004 C 
ENDBRANCH  30  31
ENDBRANCH  29  30
ENDBRANCH  28  29
ENDBRANCH  27  28
ENDBRANCH  26  27
ENDBRANCH  25  26
ENDBRANCH  24  25
ENDBRANCH  23  24
ENDBRANCH  22  23
ENDBRANCH  21  22
ENDBRANCH  20  21
ENDBRANCH  19  20
ENDBRANCH  18  19
ENDBRANCH   1  18
TORSDOF 28
ENDMDL
MODEL 2
REMARK VINA RESULT:    -3.335      2.093      5.741
REMARK INTER + INTRA:         -13.843
REMARK INTER:                  -8.691
REMARK INTRA:                  -5.152
REMARK UNBOUND:                -5.050
REMARK SMILES CCCCCCCCCCCCCCCCCCCCCCCCCCCCCC(=O)[O-]
REMARK SMILES IDX 16 1 17 2 18 3 19 4 20 5 21 6 22 7 23 8 24 9 25 10 26 11
REMARK SMILES IDX 27 12 28 13 29 14 30 15 31 16 32 17 15 18 14 19 13 20 12 21
REMARK SMILES IDX 11 22 10 23 9 24 8 25 7 26 6 27 5 28 4 29 3 30 2 31 1 32
REMARK H PARENT
REMARK Flexibility Score: inf
ROOT
ATOM      1  C   UNL     1      12.279   6.897  11.647  1.00  0.00     0.000 C 
ENDROOT
BRANCH   1   2
ATOM      2  C   UNL     1      12.011   5.445  11.215  1.00  0.00     0.000 C 
BRANCH   2   3
ATOM      3  C   UNL     1      12.062   5.267   9.687  1.00  0.00     0.000 C 
BRANCH   3   4
ATOM      4  C   UNL     1      11.433   6.445   8.925  1.00  0.00     0.000 C 
BRANCH   4   5
ATOM      5  C   UNL     1      11.735   6.395   7.417  1.00  0.00     0.000 C 
BRANCH   5   6
ATOM      6  C   UNL     1      10.595   5.762   6.604  1.00  0.00     0.000 C 
BRANCH   6   7
ATOM      7  C   UNL     1       9.211   6.035   7.214  1.00  0.00     0.000 C 
BRANCH   7   8
ATOM      8  C   UNL     1       8.418   7.026   6.348  1.00  0.00     0.000 C 
BRANCH   8   9
ATOM      9  C   UNL     1       9.069   7.278   4.977  1.00  0.00     0.000 C 
BRANCH   9  10
ATOM     10  C   UNL     1       9.548   8.723   4.737  1.00  0.00     0.000 C 
BRANCH  10  11
ATOM     11  C   UNL     1      10.155   9.400   5.986  1.00  0.00     0.000 C 
BRANCH  11  12
ATOM     12  C   UNL     1       9.541  10.786   6.257  1.00  0.00     0.000 C 
BRANCH  12  13
ATOM     13  C   UNL     1       8.633  10.807   7.500  1.00  0.00     0.006 C 
BRANCH  13  14
ATOM     14  C   UNL     1       9.071   9.851   8.623  1.00  0.00     0.053 C 
BRANCH  14  15
ATOM     15  C   UNL     1       9.215  10.551   9.942  1.00  0.00     0.041 C 
ATOM     16  O   UNL     1       9.363  11.802   9.981  1.00  0.00    -0.550 OA
ATOM     17  O   UNL     1       9.174   9.825  11.126  1.00  0.00    -0.550 OA
ENDBRANCH  14  15
ENDBRANCH  13  14
ENDBRANCH  12  13
ENDBRANCH  11  12
ENDBRANCH  10  11
ENDBRANCH   9  10
ENDBRANCH   8   9
ENDBRANCH   7   8
ENDBRANCH   6   7
ENDBRANCH   5   6
ENDBRANCH   4   5
ENDBRANCH   3   4
ENDBRANCH   2   3
ENDBRANCH   1   2
BRANCH   1  18
ATOM     18  C   UNL     1      13.411   7.066  12.680  1.00  0.00     0.000 C 
BRANCH  18  19
ATOM     19  C   UNL     1      14.694   7.728  12.139  1.00  0.00     0.000 C 
BRANCH  19  20
ATOM     20  C   UNL     1      15.130   7.257  10.739  1.00  0.00     0.000 C 
BRANCH  20  21
ATOM     21  C   UNL     1      15.918   5.935  10.771  1.00  0.00     0.000 C 
BRANCH  21  22
ATOM     22  C   UNL     1      15.925   5.200   9.413  1.00  0.00     0.000 C 
BRANCH  22  23
ATOM     23  C   UNL     1      15.385   6.046   8.243  1.00  0.00     0.000 C 
BRANCH  23  24
ATOM     24  C   UNL     1      15.446   5.365   6.863  1.00  0.00    -0.000 C 
BRANCH  24  25
ATOM     25  C   UNL     1      15.138   6.321   5.689  1.00  0.00    -0.000 C 
BRANCH  25  26
ATOM     26  C   UNL     1      14.569   5.587   4.468  1.00  0.00    -0.000 C 
BRANCH  26  27
ATOM     27  C   UNL     1      13.222   6.187   4.040  1.00  0.00    -0.000 C 
BRANCH  27  28
ATOM     28  C   UNL     1      13.128   7.700   4.308  1.00  0.00    -0.000 C 
BRANCH  28  29
ATOM     29  C   UNL     1      13.031   8.586   3.047  1.00  0.00    -0.000 C 
BRANCH  29  30
ATOM     30  C   UNL     1      14.238   9.515   2.802  1.00  0.00    -0.000 C 
BRANCH  30  31
ATOM     31  C   UNL     1      15.242   9.585   3.966  1.00  0.00    -0.003 C 
ATOM     32  C   UNL     1      16.624   9.053   3.590  1.00  0.00     0.004 C 
ENDBRANCH  30  31
ENDBRANCH  29  30
ENDBRANCH  28  29
ENDBRANCH  27  28
ENDBRANCH  26  27
ENDBRANCH  25  26
ENDBRANCH  24  25
ENDBRANCH  23  24
ENDBRANCH  22  23
ENDBRANCH  21  22
ENDBRANCH  20  21
ENDBRANCH  19  20
ENDBRANCH  18  19
ENDBRANCH   1  18
TORSDOF 28
ENDMDL
MODEL 3
REMARK VINA RESULT:    -3.296      1.937      6.242
REMARK INTER + INTRA:         -13.741
REMARK INTER:                  -8.130
REMARK INTRA:                  -5.611
REMARK UNBOUND:                -5.050
REMARK SMILES CCCCCCCCCCCCCCCCCCCCCCCCCCCCCC(=O)[O-]
REMARK SMILES IDX 16 1 17 2 18 3 19 4 20 5 21 6 22 7 23 8 24 9 25 10 26 11
REMARK SMILES IDX 27 12 28 13 29 14 30 15 31 16 32 17 15 18 14 19 13 20 12 21
REMARK SMILES IDX 11 22 10 23 9 24 8 25 7 26 6 27 5 28 4 29 3 30 2 31 1 32
REMARK H PARENT
REMARK Flexibility Score: inf
ROOT
ATOM      1  C   UNL     1      14.399   4.936   7.786  1.00  0.00     0.000 C 
ENDROOT
BRANCH   1   2
ATOM      2  C   UNL     1      13.407   5.773   6.958  1.00  0.00     0.000 C 
BRANCH   2   3
ATOM      3  C   UNL     1      12.126   4.994   6.611  1.00  0.00     0.000 C 
BRANCH   3   4
ATOM      4  C   UNL     1      10.871   5.883   6.588  1.00  0.00     0.000 C 
BRANCH   4   5
ATOM      5  C   UNL     1      11.210   7.367   6.360  1.00  0.00     0.000 C 
BRANCH   5   6
ATOM      6  C   UNL     1      10.054   8.305   6.742  1.00  0.00     0.000 C 
BRANCH   6   7
ATOM      7  C   UNL     1       8.787   7.543   7.159  1.00  0.00     0.000 C 
BRANCH   7   8
ATOM      8  C   UNL     1       7.596   7.936   6.273  1.00  0.00     0.000 C 
BRANCH   8   9
ATOM      9  C   UNL     1       6.250   7.878   7.016  1.00  0.00     0.000 C 
BRANCH   9  10
ATOM     10  C   UNL     1       5.677   9.244   7.441  1.00  0.00     0.000 C 
BRANCH  10  11
ATOM     11  C   UNL     1       6.605  10.051   8.376  1.00  0.00     0.000 C 
BRANCH  11  12
ATOM     12  C   UNL     1       7.371  11.158   7.627  1.00  0.00     0.000 C 
BRANCH  12  13
ATOM     13  C   UNL     1       8.748  11.458   8.246  1.00  0.00     0.006 C 
BRANCH  13  14
ATOM     14  C   UNL     1       9.050  10.675   9.535  1.00  0.00     0.053 C 
BRANCH  14  15
ATOM     15  C   UNL     1       9.026  11.551  10.752  1.00  0.00     0.041 C 
ATOM     16  O   UNL     1       7.927  11.888  11.267  1.00  0.00    -0.550 OA
ATOM     17  O   UNL     1      10.216  11.986  11.324  1.00  0.00    -0.550 OA
ENDBRANCH  14  15
ENDBRANCH  13  14
ENDBRANCH  12  13
ENDBRANCH  11  12
ENDBRANCH  10  11
ENDBRANCH   9  10
ENDBRANCH   8   9
ENDBRANCH   7   8
ENDBRANCH   6   7
ENDBRANCH   5   6
ENDBRANCH   4   5
ENDBRANCH   3   4
ENDBRANCH   2   3
ENDBRANCH   1   2
BRANCH   1  18
ATOM     18  C   UNL     1      15.557   5.737   8.412  1.00  0.00     0.000 C 
BRANCH  18  19
ATOM     19  C   UNL     1      16.161   5.122   9.688  1.00  0.00     0.000 C 
BRANCH  19  20
ATOM     20  C   UNL     1      15.926   5.931  10.977  1.00  0.00     0.000 C 
BRANCH  20  21
ATOM     21  C   UNL     1      15.155   7.240  10.730  1.00  0.00     0.000 C 
BRANCH  21  22
ATOM     22  C   UNL     1      14.785   7.981  12.034  1.00  0.00     0.000 C 
BRANCH  22  23
ATOM     23  C   UNL     1      15.014   7.149  13.311  1.00  0.00     0.000 C 
BRANCH  23  24
ATOM     24  C   UNL     1      13.737   6.583  13.958  1.00  0.00    -0.000 C 
BRANCH  24  25
ATOM     25  C   UNL     1      13.529   5.074  13.696  1.00  0.00    -0.000 C 
BRANCH  25  26
ATOM     26  C   UNL     1      12.290   4.792  12.838  1.00  0.00    -0.000 C 
BRANCH  26  27
ATOM     27  C   UNL     1      12.678   4.520  11.378  1.00  0.00    -0.000 C 
BRANCH  27  28
ATOM     28  C   UNL     1      11.645   5.060  10.373  1.00  0.00    -0.000 C 
BRANCH  28  29
ATOM     29  C   UNL     1      11.630   6.594  10.207  1.00  0.00    -0.000 C 
BRANCH  29  30
ATOM     30  C   UNL     1      10.242   7.255  10.339  1.00  0.00    -0.000 C 
BRANCH  30  31
ATOM     31  C   UNL     1       9.838   7.622  11.778  1.00  0.00    -0.003 C 
ATOM     32  C   UNL     1      10.928   8.394  12.521  1.00  0.00     0.004 C 
ENDBRANCH  30  31
ENDBRANCH  29  30
ENDBRANCH  28  29
ENDBRANCH  27  28
ENDBRANCH  26  27
ENDBRANCH  25  26
ENDBRANCH  24  25
ENDBRANCH  23  24
ENDBRANCH  22  23
ENDBRANCH  21  22
ENDBRANCH  20  21
ENDBRANCH  19  20
ENDBRANCH  18  19
ENDBRANCH   1  18
TORSDOF 28
ENDMDL
MODEL 4
REMARK VINA RESULT:    -3.260      2.215      6.254
REMARK INTER + INTRA:         -13.646
REMARK INTER:                  -8.986
REMARK INTRA:                  -4.660
REMARK UNBOUND:                -5.050
REMARK SMILES CCCCCCCCCCCCCCCCCCCCCCCCCCCCCC(=O)[O-]
REMARK SMILES IDX 16 1 17 2 18 3 19 4 20 5 21 6 22 7 23 8 24 9 25 10 26 11
REMARK SMILES IDX 27 12 28 13 29 14 30 15 31 16 32 17 15 18 14 19 13 20 12 21
REMARK SMILES IDX 11 22 10 23 9 24 8 25 7 26 6 27 5 28 4 29 3 30 2 31 1 32
REMARK H PARENT
REMARK Flexibility Score: inf
ROOT
ATOM      1  C   UNL     1      11.457   6.111  10.435  1.00  0.00     0.000 C 
ENDROOT
BRANCH   1   2
ATOM      2  C   UNL     1      11.860   6.543   9.014  1.00  0.00     0.000 C 
BRANCH   2   3
ATOM      3  C   UNL     1      12.017   5.348   8.057  1.00  0.00     0.000 C 
BRANCH   3   4
ATOM      4  C   UNL     1      11.463   5.630   6.650  1.00  0.00     0.000 C 
BRANCH   4   5
ATOM      5  C   UNL     1      12.185   6.801   5.961  1.00  0.00     0.000 C 
BRANCH   5   6
ATOM      6  C   UNL     1      11.288   7.547   4.961  1.00  0.00     0.000 C 
BRANCH   6   7
ATOM      7  C   UNL     1      11.217   9.056   5.242  1.00  0.00     0.000 C 
BRANCH   7   8
ATOM      8  C   UNL     1       9.865   9.432   5.868  1.00  0.00     0.000 C 
BRANCH   8   9
ATOM      9  C   UNL     1       8.733   8.469   5.473  1.00  0.00     0.000 C 
BRANCH   9  10
ATOM     10  C   UNL     1       7.765   8.094   6.613  1.00  0.00     0.000 C 
BRANCH  10  11
ATOM     11  C   UNL     1       8.350   7.086   7.628  1.00  0.00     0.000 C 
BRANCH  11  12
ATOM     12  C   UNL     1       8.197   7.566   9.083  1.00  0.00     0.000 C 
BRANCH  12  13
ATOM     13  C   UNL     1       8.983   8.857   9.375  1.00  0.00     0.006 C 
BRANCH  13  14
ATOM     14  C   UNL     1       8.107  10.114   9.520  1.00  0.00     0.053 C 
BRANCH  14  15
ATOM     15  C   UNL     1       8.906  11.379   9.414  1.00  0.00     0.041 C 
ATOM     16  O   UNL     1       9.640  11.745  10.371  1.00  0.00    -0.550 OA
ATOM     17  O   UNL     1       8.848  12.149   8.258  1.00  0.00    -0.550 OA
ENDBRANCH  14  15
ENDBRANCH  13  14
ENDBRANCH  12  13
ENDBRANCH  11  12
ENDBRANCH  10  11
ENDBRANCH   9  10
ENDBRANCH   8   9
ENDBRANCH   7   8
ENDBRANCH   6   7
ENDBRANCH   5   6
ENDBRANCH   4   5
ENDBRANCH   3   4
ENDBRANCH   2   3
ENDBRANCH   1   2
BRANCH   1  18
ATOM     18  C   UNL     1      11.725   7.161  11.531  1.00  0.00     0.000 C 
BRANCH  18  19
ATOM     19  C   UNL     1      12.883   6.822  12.489  1.00  0.00     0.000 C 
BRANCH  19  20
ATOM     20  C   UNL     1      14.154   7.671  12.303  1.00  0.00     0.000 C 
BRANCH  20  21
ATOM     21  C   UNL     1      14.964   7.271  11.058  1.00  0.00     0.000 C 
BRANCH  21  22
ATOM     22  C   UNL     1      15.503   5.825  11.123  1.00  0.00     0.000 C 
BRANCH  22  23
ATOM     23  C   UNL     1      16.202   5.361   9.830  1.00  0.00     0.000 C 
BRANCH  23  24
ATOM     24  C   UNL     1      15.565   5.873   8.525  1.00  0.00    -0.000 C 
BRANCH  24  25
ATOM     25  C   UNL     1      16.334   5.448   7.254  1.00  0.00    -0.000 C 
BRANCH  25  26
ATOM     26  C   UNL     1      15.792   6.120   5.987  1.00  0.00    -0.000 C 
BRANCH  26  27
ATOM     27  C   UNL     1      16.933   6.684   5.128  1.00  0.00    -0.000 C 
BRANCH  27  28
ATOM     28  C   UNL     1      17.098   8.207   5.277  1.00  0.00    -0.000 C 
BRANCH  28  29
ATOM     29  C   UNL     1      17.423   8.963   3.971  1.00  0.00    -0.000 C 
BRANCH  29  30
ATOM     30  C   UNL     1      16.288   9.857   3.429  1.00  0.00    -0.000 C 
BRANCH  30  31
ATOM     31  C   UNL     1      14.873   9.429   3.858  1.00  0.00    -0.003 C 
ATOM     32  C   UNL     1      14.236   8.433   2.889  1.00  0.00     0.004 C 
ENDBRANCH  30  31
ENDBRANCH  29  30
ENDBRANCH  28  29
ENDBRANCH  27  28
ENDBRANCH  26  27
ENDBRANCH  25  26
ENDBRANCH  24  25
ENDBRANCH  23  24
ENDBRANCH  22  23
ENDBRANCH  21  22
ENDBRANCH  20  21
ENDBRANCH  19  20
ENDBRANCH  18  19
ENDBRANCH   1  18
TORSDOF 28
ENDMDL
MODEL 5
REMARK VINA RESULT:    -3.259      1.583      3.337
REMARK INTER + INTRA:         -13.643
REMARK INTER:                  -8.967
REMARK INTRA:                  -4.676
REMARK UNBOUND:                -5.050
REMARK SMILES CCCCCCCCCCCCCCCCCCCCCCCCCCCCCC(=O)[O-]
REMARK SMILES IDX 16 1 17 2 18 3 19 4 20 5 21 6 22 7 23 8 24 9 25 10 26 11
REMARK SMILES IDX 27 12 28 13 29 14 30 15 31 16 32 17 15 18 14 19 13 20 12 21
REMARK SMILES IDX 11 22 10 23 9 24 8 25 7 26 6 27 5 28 4 29 3 30 2 31 1 32
REMARK H PARENT
REMARK Flexibility Score: inf
ROOT
ATOM      1  C   UNL     1      15.805   5.626   9.269  1.00  0.00     0.000 C 
ENDROOT
BRANCH   1   2
ATOM      2  C   UNL     1      15.516   5.973  10.741  1.00  0.00     0.000 C 
BRANCH   2   3
ATOM      3  C   UNL     1      14.966   7.400  10.912  1.00  0.00     0.000 C 
BRANCH   3   4
ATOM      4  C   UNL     1      15.163   7.952  12.333  1.00  0.00     0.000 C 
BRANCH   4   5
ATOM      5  C   UNL     1      15.008   6.865  13.411  1.00  0.00     0.000 C 
BRANCH   5   6
ATOM      6  C   UNL     1      13.618   6.873  14.068  1.00  0.00     0.000 C 
BRANCH   6   7
ATOM      7  C   UNL     1      12.704   5.761  13.531  1.00  0.00     0.000 C 
BRANCH   7   8
ATOM      8  C   UNL     1      11.636   6.338  12.589  1.00  0.00     0.000 C 
BRANCH   8   9
ATOM      9  C   UNL     1      11.475   7.862  12.728  1.00  0.00     0.000 C 
BRANCH   9  10
ATOM     10  C   UNL     1      10.295   8.318  13.608  1.00  0.00     0.000 C 
BRANCH  10  11
ATOM     11  C   UNL     1       9.142   8.978  12.820  1.00  0.00     0.000 C 
BRANCH  11  12
ATOM     12  C   UNL     1       9.500   9.205  11.340  1.00  0.00     0.000 C 
BRANCH  12  13
ATOM     13  C   UNL     1       9.517  10.694  10.948  1.00  0.00     0.006 C 
BRANCH  13  14
ATOM     14  C   UNL     1       8.900  11.635  11.998  1.00  0.00     0.053 C 
BRANCH  14  15
ATOM     15  C   UNL     1       8.338  12.882  11.384  1.00  0.00     0.041 C 
ATOM     16  O   UNL     1       8.158  13.909  12.092  1.00  0.00    -0.550 OA
ATOM     17  O   UNL     1       8.023  12.915  10.031  1.00  0.00    -0.550 OA
ENDBRANCH  14  15
ENDBRANCH  13  14
ENDBRANCH  12  13
ENDBRANCH  11  12
ENDBRANCH  10  11
ENDBRANCH   9  10
ENDBRANCH   8   9
ENDBRANCH   7   8
ENDBRANCH   6   7
ENDBRANCH   5   6
ENDBRANCH   4   5
ENDBRANCH   3   4
ENDBRANCH   2   3
ENDBRANCH   1   2
BRANCH   1  18
ATOM     18  C   UNL     1      14.596   5.763   8.323  1.00  0.00     0.000 C 
BRANCH  18  19
ATOM     19  C   UNL     1      13.534   4.654   8.457  1.00  0.00     0.000 C 
BRANCH  19  20
ATOM     20  C   UNL     1      12.213   5.092   9.115  1.00  0.00     0.000 C 
BRANCH  20  21
ATOM     21  C   UNL     1      11.931   6.596   8.948  1.00  0.00     0.000 C 
BRANCH  21  22
ATOM     22  C   UNL     1      10.448   6.905   8.643  1.00  0.00     0.000 C 
BRANCH  22  23
ATOM     23  C   UNL     1      10.120   6.962   7.138  1.00  0.00     0.000 C 
BRANCH  23  24
ATOM     24  C   UNL     1      11.335   7.165   6.213  1.00  0.00    -0.000 C 
BRANCH  24  25
ATOM     25  C   UNL     1      11.325   8.519   5.470  1.00  0.00    -0.000 C 
BRANCH  25  26
ATOM     26  C   UNL     1       9.924   9.137   5.394  1.00  0.00    -0.000 C 
BRANCH  26  27
ATOM     27  C   UNL     1       9.897  10.530   6.040  1.00  0.00    -0.000 C 
BRANCH  27  28
ATOM     28  C   UNL     1       9.065  10.574   7.334  1.00  0.00    -0.000 C 
BRANCH  28  29
ATOM     29  C   UNL     1       7.630  10.018   7.211  1.00  0.00    -0.000 C 
BRANCH  29  30
ATOM     30  C   UNL     1       6.941   9.677   8.549  1.00  0.00    -0.000 C 
BRANCH  30  31
ATOM     31  C   UNL     1       5.679  10.504   8.851  1.00  0.00    -0.003 C 
ATOM     32  C   UNL     1       4.668  10.483   7.704  1.00  0.00     0.004 C 
ENDBRANCH  30  31
ENDBRANCH  29  30
ENDBRANCH  28  29
ENDBRANCH  27  28
ENDBRANCH  26  27
ENDBRANCH  25  26
ENDBRANCH  24  25
ENDBRANCH  23  24
ENDBRANCH  22  23
ENDBRANCH  21  22
ENDBRANCH  20  21
ENDBRANCH  19  20
ENDBRANCH  18  19
ENDBRANCH   1  18
TORSDOF 28
ENDMDL
MODEL 6
REMARK VINA RESULT:    -3.238      1.939      6.706
REMARK INTER + INTRA:         -13.588
REMARK INTER:                  -9.040
REMARK INTRA:                  -4.548
REMARK UNBOUND:                -5.050
REMARK SMILES CCCCCCCCCCCCCCCCCCCCCCCCCCCCCC(=O)[O-]
REMARK SMILES IDX 16 1 17 2 18 3 19 4 20 5 21 6 22 7 23 8 24 9 25 10 26 11
REMARK SMILES IDX 27 12 28 13 29 14 30 15 31 16 32 17 15 18 14 19 13 20 12 21
REMARK SMILES IDX 11 22 10 23 9 24 8 25 7 26 6 27 5 28 4 29 3 30 2 31 1 32
REMARK H PARENT
REMARK Flexibility Score: inf
ROOT
ATOM      1  C   UNL     1      10.640   8.251   6.340  1.00  0.00     0.000 C 
ENDROOT
BRANCH   1   2
ATOM      2  C   UNL     1       9.403   8.949   5.746  1.00  0.00     0.000 C 
BRANCH   2   3
ATOM      3  C   UNL     1       8.389   7.951   5.161  1.00  0.00     0.000 C 
BRANCH   3   4
ATOM      4  C   UNL     1       7.221   7.654   6.117  1.00  0.00     0.000 C 
BRANCH   4   5
ATOM      5  C   UNL     1       6.937   8.824   7.075  1.00  0.00     0.000 C 
BRANCH   5   6
ATOM      6  C   UNL     1       6.120   8.400   8.306  1.00  0.00     0.000 C 
BRANCH   6   7
ATOM      7  C   UNL     1       5.235   9.534   8.847  1.00  0.00     0.000 C 
BRANCH   7   8
ATOM      8  C   UNL     1       4.975  10.590   7.762  1.00  0.00     0.000 C 
BRANCH   8   9
ATOM      9  C   UNL     1       5.063  12.030   8.295  1.00  0.00     0.000 C 
BRANCH   9  10
ATOM     10  C   UNL     1       6.128  12.914   7.616  1.00  0.00     0.000 C 
BRANCH  10  11
ATOM     11  C   UNL     1       7.480  12.953   8.361  1.00  0.00     0.000 C 
BRANCH  11  12
ATOM     12  C   UNL     1       8.504  11.967   7.769  1.00  0.00     0.000 C 
BRANCH  12  13
ATOM     13  C   UNL     1       9.194  11.103   8.839  1.00  0.00     0.006 C 
BRANCH  13  14
ATOM     14  C   UNL     1       8.413  10.983  10.160  1.00  0.00     0.053 C 
BRANCH  14  15
ATOM     15  C   UNL     1       9.272  11.264  11.357  1.00  0.00     0.041 C 
ATOM     16  O   UNL     1       9.027  10.700  12.457  1.00  0.00    -0.550 OA
ATOM     17  O   UNL     1      10.347  12.139  11.256  1.00  0.00    -0.550 OA
ENDBRANCH  14  15
ENDBRANCH  13  14
ENDBRANCH  12  13
ENDBRANCH  11  12
ENDBRANCH  10  11
ENDBRANCH   9  10
ENDBRANCH   8   9
ENDBRANCH   7   8
ENDBRANCH   6   7
ENDBRANCH   5   6
ENDBRANCH   4   5
ENDBRANCH   3   4
ENDBRANCH   2   3
ENDBRANCH   1   2
BRANCH   1  18
ATOM     18  C   UNL     1      10.530   7.905   7.838  1.00  0.00     0.000 C 
BRANCH  18  19
ATOM     19  C   UNL     1       9.987   6.495   8.143  1.00  0.00     0.000 C 
BRANCH  19  20
ATOM     20  C   UNL     1       9.516   6.277   9.593  1.00  0.00     0.000 C 
BRANCH  20  21
ATOM     21  C   UNL     1       9.568   7.561  10.439  1.00  0.00     0.000 C 
BRANCH  21  22
ATOM     22  C   UNL     1      10.627   7.507  11.562  1.00  0.00     0.000 C 
BRANCH  22  23
ATOM     23  C   UNL     1      10.382   6.392  12.598  1.00  0.00     0.000 C 
BRANCH  23  24
ATOM     24  C   UNL     1      11.434   6.300  13.718  1.00  0.00    -0.000 C 
BRANCH  24  25
ATOM     25  C   UNL     1      12.656   7.218  13.494  1.00  0.00    -0.000 C 
BRANCH  25  26
ATOM     26  C   UNL     1      13.985   6.459  13.586  1.00  0.00    -0.000 C 
BRANCH  26  27
ATOM     27  C   UNL     1      15.149   7.317  13.068  1.00  0.00    -0.000 C 
BRANCH  27  28
ATOM     28  C   UNL     1      14.880   7.913  11.674  1.00  0.00    -0.000 C 
BRANCH  28  29
ATOM     29  C   UNL     1      14.668   6.879  10.548  1.00  0.00    -0.000 C 
BRANCH  29  30
ATOM     30  C   UNL     1      15.895   6.004  10.220  1.00  0.00    -0.000 C 
BRANCH  30  31
ATOM     31  C   UNL     1      15.636   4.898   9.182  1.00  0.00    -0.003 C 
ATOM     32  C   UNL     1      16.372   5.138   7.864  1.00  0.00     0.004 C 
ENDBRANCH  30  31
ENDBRANCH  29  30
ENDBRANCH  28  29
ENDBRANCH  27  28
ENDBRANCH  26  27
ENDBRANCH  25  26
ENDBRANCH  24  25
ENDBRANCH  23  24
ENDBRANCH  22  23
ENDBRANCH  21  22
ENDBRANCH  20  21
ENDBRANCH  19  20
ENDBRANCH  18  19
ENDBRANCH   1  18
TORSDOF 28
ENDMDL
MODEL 7
REMARK VINA RESULT:    -3.222      3.402      7.749
REMARK INTER + INTRA:         -13.545
REMARK INTER:                  -8.157
REMARK INTRA:                  -5.388
REMARK UNBOUND:                -5.050
REMARK SMILES CCCCCCCCCCCCCCCCCCCCCCCCCCCCCC(=O)[O-]
REMARK SMILES IDX 16 1 17 2 18 3 19 4 20 5 21 6 22 7 23 8 24 9 25 10 26 11
REMARK SMILES IDX 27 12 28 13 29 14 30 15 31 16 32 17 15 18 14 19 13 20 12 21
REMARK SMILES IDX 11 22 10 23 9 24 8 25 7 26 6 27 5 28 4 29 3 30 2 31 1 32
REMARK H PARENT
REMARK Flexibility Score: inf
ROOT
ATOM      1  C   UNL     1       9.447   6.458   8.742  1.00  0.00     0.000 C 
ENDROOT
BRANCH   1   2
ATOM      2  C   UNL     1      10.902   6.859   8.438  1.00  0.00     0.000 C 
BRANCH   2   3
ATOM      3  C   UNL     1      11.511   6.035   7.289  1.00  0.00     0.000 C 
BRANCH   3   4
ATOM      4  C   UNL     1      12.227   6.904   6.242  1.00  0.00     0.000 C 
BRANCH   4   5
ATOM      5  C   UNL     1      12.169   6.289   4.833  1.00  0.00     0.000 C 
BRANCH   5   6
ATOM      6  C   UNL     1      12.729   7.227   3.752  1.00  0.00     0.000 C 
BRANCH   6   7
ATOM      7  C   UNL     1      12.969   8.653   4.273  1.00  0.00     0.000 C 
BRANCH   7   8
ATOM      8  C   UNL     1      14.431   9.074   4.059  1.00  0.00     0.000 C 
BRANCH   8   9
ATOM      9  C   UNL     1      15.405   7.884   4.070  1.00  0.00     0.000 C 
BRANCH   9  10
ATOM     10  C   UNL     1      16.668   8.080   4.934  1.00  0.00     0.000 C 
BRANCH  10  11
ATOM     11  C   UNL     1      16.791   7.078   6.103  1.00  0.00     0.000 C 
BRANCH  11  12
ATOM     12  C   UNL     1      15.688   6.004   6.071  1.00  0.00     0.000 C 
BRANCH  12  13
ATOM     13  C   UNL     1      15.560   5.237   7.400  1.00  0.00     0.006 C 
BRANCH  13  14
ATOM     14  C   UNL     1      15.532   6.133   8.651  1.00  0.00     0.053 C 
BRANCH  14  15
ATOM     15  C   UNL     1      14.406   5.781   9.578  1.00  0.00     0.041 C 
ATOM     16  O   UNL     1      13.876   4.639   9.523  1.00  0.00    -0.550 OA
ATOM     17  O   UNL     1      13.951   6.708  10.507  1.00  0.00    -0.550 OA
ENDBRANCH  14  15
ENDBRANCH  13  14
ENDBRANCH  12  13
ENDBRANCH  11  12
ENDBRANCH  10  11
ENDBRANCH   9  10
ENDBRANCH   8   9
ENDBRANCH   7   8
ENDBRANCH   6   7
ENDBRANCH   5   6
ENDBRANCH   4   5
ENDBRANCH   3   4
ENDBRANCH   2   3
ENDBRANCH   1   2
BRANCH   1  18
ATOM     18  C   UNL     1       8.660   5.914   7.534  1.00  0.00     0.000 C 
BRANCH  18  19
ATOM     19  C   UNL     1       7.325   6.628   7.250  1.00  0.00     0.000 C 
BRANCH  19  20
ATOM     20  C   UNL     1       7.358   7.634   6.084  1.00  0.00     0.000 C 
BRANCH  20  21
ATOM     21  C   UNL     1       8.592   7.464   5.181  1.00  0.00     0.000 C 
BRANCH  21  22
ATOM     22  C   UNL     1       9.296   8.800   4.858  1.00  0.00     0.000 C 
BRANCH  22  23
ATOM     23  C   UNL     1       9.848   9.530   6.098  1.00  0.00     0.000 C 
BRANCH  23  24
ATOM     24  C   UNL     1       9.264  10.934   6.341  1.00  0.00    -0.000 C 
BRANCH  24  25
ATOM     25  C   UNL     1       9.108  11.287   7.838  1.00  0.00    -0.000 C 
BRANCH  25  26
ATOM     26  C   UNL     1       8.703  10.076   8.687  1.00  0.00    -0.000 C 
BRANCH  26  27
ATOM     27  C   UNL     1       7.211  10.126   9.047  1.00  0.00    -0.000 C 
BRANCH  27  28
ATOM     28  C   UNL     1       6.303  10.286   7.815  1.00  0.00    -0.000 C 
BRANCH  28  29
ATOM     29  C   UNL     1       5.216  11.376   7.936  1.00  0.00    -0.000 C 
BRANCH  29  30
ATOM     30  C   UNL     1       5.665  12.676   8.635  1.00  0.00    -0.000 C 
BRANCH  30  31
ATOM     31  C   UNL     1       6.019  13.829   7.680  1.00  0.00    -0.003 C 
ATOM     32  C   UNL     1       4.786  14.478   7.052  1.00  0.00     0.004 C 
ENDBRANCH  30  31
ENDBRANCH  29  30
ENDBRANCH  28  29
ENDBRANCH  27  28
ENDBRANCH  26  27
ENDBRANCH  25  26
ENDBRANCH  24  25
ENDBRANCH  23  24
ENDBRANCH  22  23
ENDBRANCH  21  22
ENDBRANCH  20  21
ENDBRANCH  19  20
ENDBRANCH  18  19
ENDBRANCH   1  18
TORSDOF 28
ENDMDL
MODEL 8
REMARK VINA RESULT:    -3.208      2.998      6.317
REMARK INTER + INTRA:         -13.508
REMARK INTER:                  -8.735
REMARK INTRA:                  -4.773
REMARK UNBOUND:                -5.050
REMARK SMILES CCCCCCCCCCCCCCCCCCCCCCCCCCCCCC(=O)[O-]
REMARK SMILES IDX 16 1 17 2 18 3 19 4 20 5 21 6 22 7 23 8 24 9 25 10 26 11
REMARK SMILES IDX 27 12 28 13 29 14 30 15 31 16 32 17 15 18 14 19 13 20 12 21
REMARK SMILES IDX 11 22 10 23 9 24 8 25 7 26 6 27 5 28 4 29 3 30 2 31 1 32
REMARK H PARENT
REMARK Flexibility Score: inf
ROOT
ATOM      1  C   UNL     1      11.766   5.703   9.632  1.00  0.00     0.000 C 
ENDROOT
BRANCH   1   2
ATOM      2  C   UNL     1      11.620   6.502  10.940  1.00  0.00     0.000 C 
BRANCH   2   3
ATOM      3  C   UNL     1      12.831   6.327  11.874  1.00  0.00     0.000 C 
BRANCH   3   4
ATOM      4  C   UNL     1      13.648   7.619  12.044  1.00  0.00     0.000 C 
BRANCH   4   5
ATOM      5  C   UNL     1      15.111   7.449  11.598  1.00  0.00     0.000 C 
BRANCH   5   6
ATOM      6  C   UNL     1      15.573   5.984  11.620  1.00  0.00     0.000 C 
BRANCH   6   7
ATOM      7  C   UNL     1      16.222   5.548  10.297  1.00  0.00     0.000 C 
BRANCH   7   8
ATOM      8  C   UNL     1      15.472   6.146   9.097  1.00  0.00     0.000 C 
BRANCH   8   9
ATOM      9  C   UNL     1      15.526   5.249   7.849  1.00  0.00     0.000 C 
BRANCH   9  10
ATOM     10  C   UNL     1      16.546   5.680   6.776  1.00  0.00     0.000 C 
BRANCH  10  11
ATOM     11  C   UNL     1      16.208   7.024   6.093  1.00  0.00     0.000 C 
BRANCH  11  12
ATOM     12  C   UNL     1      17.347   7.521   5.185  1.00  0.00     0.000 C 
BRANCH  12  13
ATOM     13  C   UNL     1      16.907   8.648   4.232  1.00  0.00     0.006 C 
BRANCH  13  14
ATOM     14  C   UNL     1      15.460   9.128   4.442  1.00  0.00     0.053 C 
BRANCH  14  15
ATOM     15  C   UNL     1      14.589   8.846   3.254  1.00  0.00     0.041 C 
ATOM     16  O   UNL     1      13.586   9.572   3.020  1.00  0.00    -0.550 OA
ATOM     17  O   UNL     1      14.889   7.790   2.402  1.00  0.00    -0.550 OA
ENDBRANCH  14  15
ENDBRANCH  13  14
ENDBRANCH  12  13
ENDBRANCH  11  12
ENDBRANCH  10  11
ENDBRANCH   9  10
ENDBRANCH   8   9
ENDBRANCH   7   8
ENDBRANCH   6   7
ENDBRANCH   5   6
ENDBRANCH   4   5
ENDBRANCH   3   4
ENDBRANCH   2   3
ENDBRANCH   1   2
BRANCH   1  18
ATOM     18  C   UNL     1      11.867   6.562   8.357  1.00  0.00     0.000 C 
BRANCH  18  19
ATOM     19  C   UNL     1      11.937   5.768   7.039  1.00  0.00     0.000 C 
BRANCH  19  20
ATOM     20  C   UNL     1      12.498   6.549   5.836  1.00  0.00     0.000 C 
BRANCH  20  21
ATOM     21  C   UNL     1      11.743   7.864   5.571  1.00  0.00     0.000 C 
BRANCH  21  22
ATOM     22  C   UNL     1      10.783   7.780   4.364  1.00  0.00     0.000 C 
BRANCH  22  23
ATOM     23  C   UNL     1       9.409   7.166   4.702  1.00  0.00     0.000 C 
BRANCH  23  24
ATOM     24  C   UNL     1       8.378   8.154   5.278  1.00  0.00    -0.000 C 
BRANCH  24  25
ATOM     25  C   UNL     1       7.508   7.552   6.404  1.00  0.00    -0.000 C 
BRANCH  25  26
ATOM     26  C   UNL     1       8.331   7.168   7.640  1.00  0.00    -0.000 C 
BRANCH  26  27
ATOM     27  C   UNL     1       8.260   8.263   8.714  1.00  0.00    -0.000 C 
BRANCH  27  28
ATOM     28  C   UNL     1       9.468   9.217   8.679  1.00  0.00    -0.000 C 
BRANCH  28  29
ATOM     29  C   UNL     1       9.119  10.714   8.536  1.00  0.00    -0.000 C 
BRANCH  29  30
ATOM     30  C   UNL     1       8.034  11.039   7.488  1.00  0.00    -0.000 C 
BRANCH  30  31
ATOM     31  C   UNL     1       6.713  11.567   8.074  1.00  0.00    -0.003 C 
ATOM     32  C   UNL     1       5.509  10.706   7.692  1.00  0.00     0.004 C 
ENDBRANCH  30  31
ENDBRANCH  29  30
ENDBRANCH  28  29
ENDBRANCH  27  28
ENDBRANCH  26  27
ENDBRANCH  25  26
ENDBRANCH  24  25
ENDBRANCH  23  24
ENDBRANCH  22  23
ENDBRANCH  21  22
ENDBRANCH  20  21
ENDBRANCH  19  20
ENDBRANCH  18  19
ENDBRANCH   1  18
TORSDOF 28
ENDMDL
MODEL 9
REMARK VINA RESULT:    -3.201      3.184      6.756
REMARK INTER + INTRA:         -13.491
REMARK INTER:                  -8.056
REMARK INTRA:                  -5.435
REMARK UNBOUND:                -5.050
REMARK SMILES CCCCCCCCCCCCCCCCCCCCCCCCCCCCCC(=O)[O-]
REMARK SMILES IDX 16 1 17 2 18 3 19 4 20 5 21 6 22 7 23 8 24 9 25 10 26 11
REMARK SMILES IDX 27 12 28 13 29 14 30 15 31 16 32 17 15 18 14 19 13 20 12 21
REMARK SMILES IDX 11 22 10 23 9 24 8 25 7 26 6 27 5 28 4 29 3 30 2 31 1 32
REMARK H PARENT
REMARK Flexibility Score: inf
ROOT
ATOM      1  C   UNL     1      10.945   8.040   6.731  1.00  0.00     0.000 C 
ENDROOT
BRANCH   1   2
ATOM      2  C   UNL     1      11.717   6.785   6.282  1.00  0.00     0.000 C 
BRANCH   2   3
ATOM      3  C   UNL     1      12.206   5.939   7.471  1.00  0.00     0.000 C 
BRANCH   3   4
ATOM      4  C   UNL     1      11.783   6.517   8.832  1.00  0.00     0.000 C 
BRANCH   4   5
ATOM      5  C   UNL     1      12.652   5.989   9.987  1.00  0.00     0.000 C 
BRANCH   5   6
ATOM      6  C   UNL     1      12.267   6.596  11.345  1.00  0.00     0.000 C 
BRANCH   6   7
ATOM      7  C   UNL     1      13.311   7.599  11.862  1.00  0.00     0.000 C 
BRANCH   7   8
ATOM      8  C   UNL     1      14.693   7.311  11.256  1.00  0.00     0.000 C 
BRANCH   8   9
ATOM      9  C   UNL     1      15.631   6.574  12.228  1.00  0.00     0.000 C 
BRANCH   9  10
ATOM     10  C   UNL     1      15.945   5.113  11.852  1.00  0.00     0.000 C 
BRANCH  10  11
ATOM     11  C   UNL     1      16.573   4.946  10.450  1.00  0.00     0.000 C 
BRANCH  11  12
ATOM     12  C   UNL     1      15.661   4.161   9.490  1.00  0.00     0.000 C 
BRANCH  12  13
ATOM     13  C   UNL     1      15.870   4.547   8.014  1.00  0.00     0.006 C 
BRANCH  13  14
ATOM     14  C   UNL     1      15.814   6.060   7.740  1.00  0.00     0.053 C 
BRANCH  14  15
ATOM     15  C   UNL     1      16.187   6.395   6.326  1.00  0.00     0.041 C 
ATOM     16  O   UNL     1      15.299   6.749   5.505  1.00  0.00    -0.550 OA
ATOM     17  O   UNL     1      17.514   6.328   5.918  1.00  0.00    -0.550 OA
ENDBRANCH  14  15
ENDBRANCH  13  14
ENDBRANCH  12  13
ENDBRANCH  11  12
ENDBRANCH  10  11
ENDBRANCH   9  10
ENDBRANCH   8   9
ENDBRANCH   7   8
ENDBRANCH   6   7
ENDBRANCH   5   6
ENDBRANCH   4   5
ENDBRANCH   3   4
ENDBRANCH   2   3
ENDBRANCH   1   2
BRANCH   1  18
ATOM     18  C   UNL     1      10.628   9.042   5.603  1.00  0.00     0.000 C 
BRANCH  18  19
ATOM     19  C   UNL     1       9.137   9.152   5.229  1.00  0.00     0.000 C 
BRANCH  19  20
ATOM     20  C   UNL     1       8.514   7.869   4.649  1.00  0.00     0.000 C 
BRANCH  20  21
ATOM     21  C   UNL     1       7.611   7.134   5.656  1.00  0.00     0.000 C 
BRANCH  21  22
ATOM     22  C   UNL     1       8.125   5.722   6.014  1.00  0.00     0.000 C 
BRANCH  22  23
ATOM     23  C   UNL     1       8.250   5.471   7.530  1.00  0.00     0.000 C 
BRANCH  23  24
ATOM     24  C   UNL     1       7.981   6.699   8.419  1.00  0.00    -0.000 C 
BRANCH  24  25
ATOM     25  C   UNL     1       8.149   6.417   9.929  1.00  0.00    -0.000 C 
BRANCH  25  26
ATOM     26  C   UNL     1       8.753   7.606  10.685  1.00  0.00    -0.000 C 
BRANCH  26  27
ATOM     27  C   UNL     1       9.091   8.757   9.726  1.00  0.00    -0.000 C 
BRANCH  27  28
ATOM     28  C   UNL     1       8.675  10.135  10.274  1.00  0.00    -0.000 C 
BRANCH  28  29
ATOM     29  C   UNL     1       8.990  11.331   9.350  1.00  0.00    -0.000 C 
BRANCH  29  30
ATOM     30  C   UNL     1       8.347  11.265   7.949  1.00  0.00    -0.000 C 
BRANCH  30  31
ATOM     31  C   UNL     1       6.809  11.314   7.944  1.00  0.00    -0.003 C 
ATOM     32  C   UNL     1       6.175   9.971   7.583  1.00  0.00     0.004 C 
ENDBRANCH  30  31
ENDBRANCH  29  30
ENDBRANCH  28  29
ENDBRANCH  27  28
ENDBRANCH  26  27
ENDBRANCH  25  26
ENDBRANCH  24  25
ENDBRANCH  23  24
ENDBRANCH  22  23
ENDBRANCH  21  22
ENDBRANCH  20  21
ENDBRANCH  19  20
ENDBRANCH  18  19
ENDBRANCH   1  18
TORSDOF 28
ENDMDL
