MODEL 1
REMARK VINA RESULT:    -3.920      0.000      0.000
REMARK INTER + INTRA:         -13.298
REMARK INTER:                  -9.878
REMARK INTRA:                  -3.420
REMARK UNBOUND:                -3.420
REMARK SMILES CCCCCCCCCCCCCCCCCCCCCCCCCCCC(=O)[O-]
REMARK SMILES IDX 15 1 16 2 17 3 18 4 19 5 20 6 21 7 22 8 23 9 24 10 25 11
REMARK SMILES IDX 26 12 27 13 28 14 29 15 30 16 14 17 13 18 12 19 11 20 10 21
REMARK SMILES IDX 9 22 8 23 7 24 6 25 5 26 4 27 3 28 2 29 1 30
REMARK H PARENT
REMARK Flexibility Score: inf
ROOT
ATOM      1  C   UNL     1      63.574  30.456  61.586  1.00  0.00     0.000 C 
ENDROOT
BRANCH   1   2
ATOM      2  C   UNL     1      64.285  29.510  60.604  1.00  0.00     0.000 C 
BRANCH   2   3
ATOM      3  C   UNL     1      65.734  29.930  60.317  1.00  0.00     0.000 C 
BRANCH   3   4
ATOM      4  C   UNL     1      66.612  28.707  60.028  1.00  0.00     0.000 C 
BRANCH   4   5
ATOM      5  C   UNL     1      67.240  28.160  61.316  1.00  0.00     0.000 C 
BRANCH   5   6
ATOM      6  C   UNL     1      68.508  28.922  61.738  1.00  0.00     0.000 C 
BRANCH   6   7
ATOM      7  C   UNL     1      69.379  29.382  60.550  1.00  0.00     0.000 C 
BRANCH   7   8
ATOM      8  C   UNL     1      70.878  29.390  60.897  1.00  0.00     0.000 C 
BRANCH   8   9
ATOM      9  C   UNL     1      71.305  30.661  61.645  1.00  0.00     0.000 C 
BRANCH   9  10
ATOM     10  C   UNL     1      72.113  31.625  60.757  1.00  0.00     0.000 C 
BRANCH  10  11
ATOM     11  C   UNL     1      71.249  32.758  60.179  1.00  0.00     0.000 C 
BRANCH  11  12
ATOM     12  C   UNL     1      71.288  32.804  58.642  1.00  0.00     0.006 C 
BRANCH  12  13
ATOM     13  C   UNL     1      70.032  33.456  58.050  1.00  0.00     0.053 C 
BRANCH  13  14
ATOM     14  C   UNL     1      70.173  34.945  57.955  1.00  0.00     0.041 C 
ATOM     15  O   UNL     1      69.435  35.697  58.643  1.00  0.00    -0.550 OA
ATOM     16  O   UNL     1      71.144  35.500  57.130  1.00  0.00    -0.550 OA
ENDBRANCH  13  14
ENDBRANCH  12  13
ENDBRANCH  11  12
ENDBRANCH  10  11
ENDBRANCH   9  10
ENDBRANCH   8   9
ENDBRANCH   7   8
ENDBRANCH   6   7
ENDBRANCH   5   6
ENDBRANCH   4   5
ENDBRANCH   3   4
ENDBRANCH   2   3
ENDBRANCH   1   2
BRANCH   1  17
ATOM     17  C   UNL     1      62.181  29.945  61.991  1.00  0.00     0.000 C 
BRANCH  17  18
ATOM     18  C   UNL     1      61.121  31.059  61.996  1.00  0.00     0.000 C 
BRANCH  18  19
ATOM     19  C   UNL     1      61.188  31.949  60.746  1.00  0.00     0.000 C 
BRANCH  19  20
ATOM     20  C   UNL     1      60.655  31.202  59.514  1.00  0.00     0.000 C 
BRANCH  20  21
ATOM     21  C   UNL     1      60.998  31.905  58.189  1.00  0.00     0.000 C 
BRANCH  21  22
ATOM     22  C   UNL     1      62.078  33.001  58.293  1.00  0.00    -0.000 C 
BRANCH  22  23
ATOM     23  C   UNL     1      63.514  32.540  57.972  1.00  0.00    -0.000 C 
BRANCH  23  24
ATOM     24  C   UNL     1      64.577  32.968  58.999  1.00  0.00    -0.000 C 
BRANCH  24  25
ATOM     25  C   UNL     1      64.347  34.387  59.540  1.00  0.00    -0.000 C 
BRANCH  25  26
ATOM     26  C   UNL     1      64.069  34.355  61.050  1.00  0.00    -0.000 C 
BRANCH  26  27
ATOM     27  C   UNL     1      63.652  35.724  61.606  1.00  0.00    -0.000 C 
BRANCH  27  28
ATOM     28  C   UNL     1      62.660  36.459  60.691  1.00  0.00    -0.000 C 
BRANCH  28  29
ATOM     29  C   UNL     1      61.248  35.881  60.839  1.00  0.00    -0.003 C 
ATOM     30  C   UNL     1      60.461  36.009  59.538  1.00  0.00     0.004 C 
ENDBRANCH  28  29
ENDBRANCH  27  28
ENDBRANCH  26  27
ENDBRANCH  25  26
ENDBRANCH  24  25
ENDBRANCH  23  24
ENDBRANCH  22  23
ENDBRANCH  21  22
ENDBRANCH  20  21
ENDBRANCH  19  20
ENDBRANCH  18  19
ENDBRANCH  17  18
ENDBRANCH   1  17
TORSDOF 26
ENDMDL
MODEL 2
REMARK VINA RESULT:    -3.773      9.382     12.456
REMARK INTER + INTRA:         -12.928
REMARK INTER:                  -7.947
REMARK INTRA:                  -4.982
REMARK UNBOUND:                -3.420
REMARK SMILES CCCCCCCCCCCCCCCCCCCCCCCCCCCC(=O)[O-]
REMARK SMILES IDX 15 1 16 2 17 3 18 4 19 5 20 6 21 7 22 8 23 9 24 10 25 11
REMARK SMILES IDX 26 12 27 13 28 14 29 15 30 16 14 17 13 18 12 19 11 20 10 21
REMARK SMILES IDX 9 22 8 23 7 24 6 25 5 26 4 27 3 28 2 29 1 30
REMARK H PARENT
REMARK Flexibility Score: inf
ROOT
ATOM      1  C   UNL     1      59.547  25.973  53.176  1.00  0.00     0.000 C 
ENDROOT
BRANCH   1   2
ATOM      2  C   UNL     1      60.016  27.411  53.451  1.00  0.00     0.000 C 
BRANCH   2   3
ATOM      3  C   UNL     1      61.347  27.746  52.761  1.00  0.00     0.000 C 
BRANCH   3   4
ATOM      4  C   UNL     1      61.872  29.113  53.216  1.00  0.00     0.000 C 
BRANCH   4   5
ATOM      5  C   UNL     1      60.897  29.782  54.193  1.00  0.00     0.000 C 
BRANCH   5   6
ATOM      6  C   UNL     1      60.705  31.283  53.918  1.00  0.00     0.000 C 
BRANCH   6   7
ATOM      7  C   UNL     1      60.615  31.632  52.417  1.00  0.00     0.000 C 
BRANCH   7   8
ATOM      8  C   UNL     1      61.519  32.820  52.042  1.00  0.00     0.000 C 
BRANCH   8   9
ATOM      9  C   UNL     1      62.530  32.470  50.941  1.00  0.00     0.000 C 
BRANCH   9  10
ATOM     10  C   UNL     1      62.059  31.301  50.057  1.00  0.00     0.000 C 
BRANCH  10  11
ATOM     11  C   UNL     1      63.089  30.162  49.987  1.00  0.00     0.000 C 
BRANCH  11  12
ATOM     12  C   UNL     1      64.427  30.613  49.376  1.00  0.00     0.006 C 
BRANCH  12  13
ATOM     13  C   UNL     1      65.378  29.435  49.129  1.00  0.00     0.053 C 
BRANCH  13  14
ATOM     14  C   UNL     1      64.736  28.369  48.294  1.00  0.00     0.041 C 
ATOM     15  O   UNL     1      64.531  27.224  48.776  1.00  0.00    -0.550 OA
ATOM     16  O   UNL     1      64.334  28.652  46.995  1.00  0.00    -0.550 OA
ENDBRANCH  13  14
ENDBRANCH  12  13
ENDBRANCH  11  12
ENDBRANCH  10  11
ENDBRANCH   9  10
ENDBRANCH   8   9
ENDBRANCH   7   8
ENDBRANCH   6   7
ENDBRANCH   5   6
ENDBRANCH   4   5
ENDBRANCH   3   4
ENDBRANCH   2   3
ENDBRANCH   1   2
BRANCH   1  17
ATOM     17  C   UNL     1      58.016  25.839  53.198  1.00  0.00     0.000 C 
BRANCH  17  18
ATOM     18  C   UNL     1      57.432  25.483  51.821  1.00  0.00     0.000 C 
BRANCH  18  19
ATOM     19  C   UNL     1      58.503  25.008  50.827  1.00  0.00     0.000 C 
BRANCH  19  20
ATOM     20  C   UNL     1      58.599  25.964  49.629  1.00  0.00     0.000 C 
BRANCH  20  21
ATOM     21  C   UNL     1      59.990  26.604  49.480  1.00  0.00     0.000 C 
BRANCH  21  22
ATOM     22  C   UNL     1      59.991  28.140  49.351  1.00  0.00    -0.000 C 
BRANCH  22  23
ATOM     23  C   UNL     1      58.629  28.821  49.598  1.00  0.00    -0.000 C 
BRANCH  23  24
ATOM     24  C   UNL     1      58.405  29.319  51.037  1.00  0.00    -0.000 C 
BRANCH  24  25
ATOM     25  C   UNL     1      56.951  29.157  51.505  1.00  0.00    -0.000 C 
BRANCH  25  26
ATOM     26  C   UNL     1      56.090  28.530  50.399  1.00  0.00    -0.000 C 
BRANCH  26  27
ATOM     27  C   UNL     1      54.609  28.923  50.504  1.00  0.00    -0.000 C 
BRANCH  27  28
ATOM     28  C   UNL     1      53.666  27.833  49.974  1.00  0.00    -0.000 C 
BRANCH  28  29
ATOM     29  C   UNL     1      54.349  26.461  49.993  1.00  0.00    -0.003 C 
ATOM     30  C   UNL     1      53.835  25.573  48.864  1.00  0.00     0.004 C 
ENDBRANCH  28  29
ENDBRANCH  27  28
ENDBRANCH  26  27
ENDBRANCH  25  26
ENDBRANCH  24  25
ENDBRANCH  23  24
ENDBRANCH  22  23
ENDBRANCH  21  22
ENDBRANCH  20  21
ENDBRANCH  19  20
ENDBRANCH  18  19
ENDBRANCH  17  18
ENDBRANCH   1  17
TORSDOF 26
ENDMDL
MODEL 3
REMARK VINA RESULT:    -3.742      9.757     12.079
REMARK INTER + INTRA:         -12.850
REMARK INTER:                  -7.571
REMARK INTRA:                  -5.279
REMARK UNBOUND:                -3.420
REMARK SMILES CCCCCCCCCCCCCCCCCCCCCCCCCCCC(=O)[O-]
REMARK SMILES IDX 15 1 16 2 17 3 18 4 19 5 20 6 21 7 22 8 23 9 24 10 25 11
REMARK SMILES IDX 26 12 27 13 28 14 29 15 30 16 14 17 13 18 12 19 11 20 10 21
REMARK SMILES IDX 9 22 8 23 7 24 6 25 5 26 4 27 3 28 2 29 1 30
REMARK H PARENT
REMARK Flexibility Score: inf
ROOT
ATOM      1  C   UNL     1      56.528  26.418  51.068  1.00  0.00     0.000 C 
ENDROOT
BRANCH   1   2
ATOM      2  C   UNL     1      57.694  27.417  51.142  1.00  0.00     0.000 C 
BRANCH   2   3
ATOM      3  C   UNL     1      57.485  28.645  50.242  1.00  0.00     0.000 C 
BRANCH   3   4
ATOM      4  C   UNL     1      58.671  28.835  49.290  1.00  0.00     0.000 C 
BRANCH   4   5
ATOM      5  C   UNL     1      59.553  27.580  49.247  1.00  0.00     0.000 C 
BRANCH   5   6
ATOM      6  C   UNL     1      61.024  27.867  49.589  1.00  0.00     0.000 C 
BRANCH   6   7
ATOM      7  C   UNL     1      61.605  26.927  50.668  1.00  0.00     0.000 C 
BRANCH   7   8
ATOM      8  C   UNL     1      61.900  27.667  51.985  1.00  0.00     0.000 C 
BRANCH   8   9
ATOM      9  C   UNL     1      60.941  28.841  52.232  1.00  0.00     0.000 C 
BRANCH   9  10
ATOM     10  C   UNL     1      61.684  30.165  52.490  1.00  0.00     0.000 C 
BRANCH  10  11
ATOM     11  C   UNL     1      61.582  31.138  51.304  1.00  0.00     0.000 C 
BRANCH  11  12
ATOM     12  C   UNL     1      62.959  31.543  50.752  1.00  0.00     0.006 C 
BRANCH  12  13
ATOM     13  C   UNL     1      63.160  31.085  49.303  1.00  0.00     0.053 C 
BRANCH  13  14
ATOM     14  C   UNL     1      63.999  29.845  49.224  1.00  0.00     0.041 C 
ATOM     15  O   UNL     1      64.148  29.249  48.125  1.00  0.00    -0.550 OA
ATOM     16  O   UNL     1      64.643  29.368  50.359  1.00  0.00    -0.550 OA
ENDBRANCH  13  14
ENDBRANCH  12  13
ENDBRANCH  11  12
ENDBRANCH  10  11
ENDBRANCH   9  10
ENDBRANCH   8   9
ENDBRANCH   7   8
ENDBRANCH   6   7
ENDBRANCH   5   6
ENDBRANCH   4   5
ENDBRANCH   3   4
ENDBRANCH   2   3
ENDBRANCH   1   2
BRANCH   1  17
ATOM     17  C   UNL     1      56.057  26.168  49.626  1.00  0.00     0.000 C 
BRANCH  17  18
ATOM     18  C   UNL     1      54.525  26.137  49.501  1.00  0.00     0.000 C 
BRANCH  18  19
ATOM     19  C   UNL     1      53.826  27.040  50.528  1.00  0.00     0.000 C 
BRANCH  19  20
ATOM     20  C   UNL     1      53.447  28.389  49.900  1.00  0.00     0.000 C 
BRANCH  20  21
ATOM     21  C   UNL     1      54.041  29.592  50.653  1.00  0.00     0.000 C 
BRANCH  21  22
ATOM     22  C   UNL     1      54.296  29.359  52.156  1.00  0.00    -0.000 C 
BRANCH  22  23
ATOM     23  C   UNL     1      55.357  30.280  52.793  1.00  0.00    -0.000 C 
BRANCH  23  24
ATOM     24  C   UNL     1      56.224  29.617  53.878  1.00  0.00    -0.000 C 
BRANCH  24  25
ATOM     25  C   UNL     1      57.698  30.043  53.806  1.00  0.00    -0.000 C 
BRANCH  25  26
ATOM     26  C   UNL     1      57.872  31.245  52.867  1.00  0.00    -0.000 C 
BRANCH  26  27
ATOM     27  C   UNL     1      58.825  32.308  53.434  1.00  0.00    -0.000 C 
BRANCH  27  28
ATOM     28  C   UNL     1      58.177  33.698  53.525  1.00  0.00    -0.000 C 
BRANCH  28  29
ATOM     29  C   UNL     1      56.658  33.607  53.346  1.00  0.00    -0.003 C 
ATOM     30  C   UNL     1      55.933  33.810  54.674  1.00  0.00     0.004 C 
ENDBRANCH  28  29
ENDBRANCH  27  28
ENDBRANCH  26  27
ENDBRANCH  25  26
ENDBRANCH  24  25
ENDBRANCH  23  24
ENDBRANCH  22  23
ENDBRANCH  21  22
ENDBRANCH  20  21
ENDBRANCH  19  20
ENDBRANCH  18  19
ENDBRANCH  17  18
ENDBRANCH   1  17
TORSDOF 26
ENDMDL
MODEL 4
REMARK VINA RESULT:    -3.713     10.170     12.603
REMARK INTER + INTRA:         -12.776
REMARK INTER:                  -7.948
REMARK INTRA:                  -4.828
REMARK UNBOUND:                -3.420
REMARK SMILES CCCCCCCCCCCCCCCCCCCCCCCCCCCC(=O)[O-]
REMARK SMILES IDX 15 1 16 2 17 3 18 4 19 5 20 6 21 7 22 8 23 9 24 10 25 11
REMARK SMILES IDX 26 12 27 13 28 14 29 15 30 16 14 17 13 18 12 19 11 20 10 21
REMARK SMILES IDX 9 22 8 23 7 24 6 25 5 26 4 27 3 28 2 29 1 30
REMARK H PARENT
REMARK Flexibility Score: inf
ROOT
ATOM      1  C   UNL     1      56.749  29.429  51.885  1.00  0.00     0.000 C 
ENDROOT
BRANCH   1   2
ATOM      2  C   UNL     1      58.080  28.971  52.503  1.00  0.00     0.000 C 
BRANCH   2   3
ATOM      3  C   UNL     1      59.205  28.838  51.465  1.00  0.00     0.000 C 
BRANCH   3   4
ATOM      4  C   UNL     1      58.714  29.246  50.071  1.00  0.00     0.000 C 
BRANCH   4   5
ATOM      5  C   UNL     1      59.357  28.377  48.982  1.00  0.00     0.000 C 
BRANCH   5   6
ATOM      6  C   UNL     1      60.240  27.254  49.552  1.00  0.00     0.000 C 
BRANCH   6   7
ATOM      7  C   UNL     1      61.741  27.423  49.234  1.00  0.00     0.000 C 
BRANCH   7   8
ATOM      8  C   UNL     1      62.604  27.459  50.508  1.00  0.00     0.000 C 
BRANCH   8   9
ATOM      9  C   UNL     1      63.599  28.628  50.515  1.00  0.00     0.000 C 
BRANCH   9  10
ATOM     10  C   UNL     1      63.760  29.277  49.128  1.00  0.00     0.000 C 
BRANCH  10  11
ATOM     11  C   UNL     1      63.508  30.793  49.153  1.00  0.00     0.000 C 
BRANCH  11  12
ATOM     12  C   UNL     1      62.183  31.160  49.843  1.00  0.00     0.006 C 
BRANCH  12  13
ATOM     13  C   UNL     1      62.216  32.569  50.449  1.00  0.00     0.053 C 
BRANCH  13  14
ATOM     14  C   UNL     1      62.671  33.591  49.451  1.00  0.00     0.041 C 
ATOM     15  O   UNL     1      63.764  34.194  49.616  1.00  0.00    -0.550 OA
ATOM     16  O   UNL     1      61.903  33.852  48.324  1.00  0.00    -0.550 OA
ENDBRANCH  13  14
ENDBRANCH  12  13
ENDBRANCH  11  12
ENDBRANCH  10  11
ENDBRANCH   9  10
ENDBRANCH   8   9
ENDBRANCH   7   8
ENDBRANCH   6   7
ENDBRANCH   5   6
ENDBRANCH   4   5
ENDBRANCH   3   4
ENDBRANCH   2   3
ENDBRANCH   1   2
BRANCH   1  17
ATOM     17  C   UNL     1      55.536  29.047  52.748  1.00  0.00     0.000 C 
BRANCH  17  18
ATOM     18  C   UNL     1      54.368  28.493  51.916  1.00  0.00     0.000 C 
BRANCH  18  19
ATOM     19  C   UNL     1      54.617  28.590  50.404  1.00  0.00     0.000 C 
BRANCH  19  20
ATOM     20  C   UNL     1      53.984  27.400  49.668  1.00  0.00     0.000 C 
BRANCH  20  21
ATOM     21  C   UNL     1      54.762  26.088  49.864  1.00  0.00     0.000 C 
BRANCH  21  22
ATOM     22  C   UNL     1      56.291  26.249  49.992  1.00  0.00    -0.000 C 
BRANCH  22  23
ATOM     23  C   UNL     1      56.899  25.719  51.306  1.00  0.00    -0.000 C 
BRANCH  23  24
ATOM     24  C   UNL     1      58.292  25.081  51.164  1.00  0.00    -0.000 C 
BRANCH  24  25
ATOM     25  C   UNL     1      58.537  23.951  52.176  1.00  0.00    -0.000 C 
BRANCH  25  26
ATOM     26  C   UNL     1      59.866  24.162  52.916  1.00  0.00    -0.000 C 
BRANCH  26  27
ATOM     27  C   UNL     1      60.395  25.599  52.788  1.00  0.00    -0.000 C 
BRANCH  27  28
ATOM     28  C   UNL     1      60.393  26.353  54.127  1.00  0.00    -0.000 C 
BRANCH  28  29
ATOM     29  C   UNL     1      59.242  25.880  55.020  1.00  0.00    -0.003 C 
ATOM     30  C   UNL     1      58.473  27.062  55.603  1.00  0.00     0.004 C 
ENDBRANCH  28  29
ENDBRANCH  27  28
ENDBRANCH  26  27
ENDBRANCH  25  26
ENDBRANCH  24  25
ENDBRANCH  23  24
ENDBRANCH  22  23
ENDBRANCH  21  22
ENDBRANCH  20  21
ENDBRANCH  19  20
ENDBRANCH  18  19
ENDBRANCH  17  18
ENDBRANCH   1  17
TORSDOF 26
ENDMDL
MODEL 5
REMARK VINA RESULT:    -3.711      1.968      7.545
REMARK INTER + INTRA:         -12.772
REMARK INTER:                  -8.322
REMARK INTRA:                  -4.450
REMARK UNBOUND:                -3.420
REMARK SMILES CCCCCCCCCCCCCCCCCCCCCCCCCCCC(=O)[O-]
REMARK SMILES IDX 15 1 16 2 17 3 18 4 19 5 20 6 21 7 22 8 23 9 24 10 25 11
REMARK SMILES IDX 26 12 27 13 28 14 29 15 30 16 14 17 13 18 12 19 11 20 10 21
REMARK SMILES IDX 9 22 8 23 7 24 6 25 5 26 4 27 3 28 2 29 1 30
REMARK H PARENT
REMARK Flexibility Score: inf
ROOT
ATOM      1  C   UNL     1      68.269  28.042  60.862  1.00  0.00     0.000 C 
ENDROOT
BRANCH   1   2
ATOM      2  C   UNL     1      66.791  28.011  61.284  1.00  0.00     0.000 C 
BRANCH   2   3
ATOM      3  C   UNL     1      65.839  27.772  60.102  1.00  0.00     0.000 C 
BRANCH   3   4
ATOM      4  C   UNL     1      64.598  28.665  60.209  1.00  0.00     0.000 C 
BRANCH   4   5
ATOM      5  C   UNL     1      64.886  29.914  61.052  1.00  0.00     0.000 C 
BRANCH   5   6
ATOM      6  C   UNL     1      63.628  30.492  61.721  1.00  0.00     0.000 C 
BRANCH   6   7
ATOM      7  C   UNL     1      62.381  29.592  61.580  1.00  0.00     0.000 C 
BRANCH   7   8
ATOM      8  C   UNL     1      61.076  30.407  61.558  1.00  0.00     0.000 C 
BRANCH   8   9
ATOM      9  C   UNL     1      61.312  31.895  61.262  1.00  0.00     0.000 C 
BRANCH   9  10
ATOM     10  C   UNL     1      61.122  32.238  59.773  1.00  0.00     0.000 C 
BRANCH  10  11
ATOM     11  C   UNL     1      61.683  33.622  59.411  1.00  0.00     0.000 C 
BRANCH  11  12
ATOM     12  C   UNL     1      61.486  34.652  60.536  1.00  0.00     0.006 C 
BRANCH  12  13
ATOM     13  C   UNL     1      62.687  35.596  60.676  1.00  0.00     0.053 C 
BRANCH  13  14
ATOM     14  C   UNL     1      63.987  34.856  60.588  1.00  0.00     0.041 C 
ATOM     15  O   UNL     1      64.766  35.055  59.620  1.00  0.00    -0.550 OA
ATOM     16  O   UNL     1      64.352  33.971  61.595  1.00  0.00    -0.550 OA
ENDBRANCH  13  14
ENDBRANCH  12  13
ENDBRANCH  11  12
ENDBRANCH  10  11
ENDBRANCH   9  10
ENDBRANCH   8   9
ENDBRANCH   7   8
ENDBRANCH   6   7
ENDBRANCH   5   6
ENDBRANCH   4   5
ENDBRANCH   3   4
ENDBRANCH   2   3
ENDBRANCH   1   2
BRANCH   1  17
ATOM     17  C   UNL     1      69.007  29.280  61.396  1.00  0.00     0.000 C 
BRANCH  17  18
ATOM     18  C   UNL     1      70.455  29.373  60.887  1.00  0.00     0.000 C 
BRANCH  18  19
ATOM     19  C   UNL     1      71.259  30.483  61.581  1.00  0.00     0.000 C 
BRANCH  19  20
ATOM     20  C   UNL     1      72.128  31.242  60.568  1.00  0.00     0.000 C 
BRANCH  20  21
ATOM     21  C   UNL     1      71.460  32.527  60.047  1.00  0.00     0.000 C 
BRANCH  21  22
ATOM     22  C   UNL     1      71.008  32.476  58.573  1.00  0.00    -0.000 C 
BRANCH  22  23
ATOM     23  C   UNL     1      69.551  32.025  58.349  1.00  0.00    -0.000 C 
BRANCH  23  24
ATOM     24  C   UNL     1      69.392  30.717  57.554  1.00  0.00    -0.000 C 
BRANCH  24  25
ATOM     25  C   UNL     1      68.005  30.080  57.725  1.00  0.00    -0.000 C 
BRANCH  25  26
ATOM     26  C   UNL     1      67.080  30.998  58.538  1.00  0.00    -0.000 C 
BRANCH  26  27
ATOM     27  C   UNL     1      66.250  31.939  57.652  1.00  0.00    -0.000 C 
BRANCH  27  28
ATOM     28  C   UNL     1      64.752  31.908  57.992  1.00  0.00    -0.000 C 
BRANCH  28  29
ATOM     29  C   UNL     1      63.946  31.268  56.856  1.00  0.00    -0.003 C 
ATOM     30  C   UNL     1      63.039  30.158  57.380  1.00  0.00     0.004 C 
ENDBRANCH  28  29
ENDBRANCH  27  28
ENDBRANCH  26  27
ENDBRANCH  25  26
ENDBRANCH  24  25
ENDBRANCH  23  24
ENDBRANCH  22  23
ENDBRANCH  21  22
ENDBRANCH  20  21
ENDBRANCH  19  20
ENDBRANCH  18  19
ENDBRANCH  17  18
ENDBRANCH   1  17
TORSDOF 26
ENDMDL
MODEL 6
REMARK VINA RESULT:    -3.677      9.165     12.236
REMARK INTER + INTRA:         -12.685
REMARK INTER:                  -7.239
REMARK INTRA:                  -5.446
REMARK UNBOUND:                -3.420
REMARK SMILES CCCCCCCCCCCCCCCCCCCCCCCCCCCC(=O)[O-]
REMARK SMILES IDX 15 1 16 2 17 3 18 4 19 5 20 6 21 7 22 8 23 9 24 10 25 11
REMARK SMILES IDX 26 12 27 13 28 14 29 15 30 16 14 17 13 18 12 19 11 20 10 21
REMARK SMILES IDX 9 22 8 23 7 24 6 25 5 26 4 27 3 28 2 29 1 30
REMARK H PARENT
REMARK Flexibility Score: inf
ROOT
ATOM      1  C   UNL     1      56.457  26.825  51.420  1.00  0.00     0.000 C 
ENDROOT
BRANCH   1   2
ATOM      2  C   UNL     1      57.370  28.060  51.476  1.00  0.00     0.000 C 
BRANCH   2   3
ATOM      3  C   UNL     1      57.436  28.814  50.139  1.00  0.00     0.000 C 
BRANCH   3   4
ATOM      4  C   UNL     1      58.882  28.920  49.640  1.00  0.00     0.000 C 
BRANCH   4   5
ATOM      5  C   UNL     1      59.418  27.551  49.202  1.00  0.00     0.000 C 
BRANCH   5   6
ATOM      6  C   UNL     1      60.954  27.481  49.194  1.00  0.00     0.000 C 
BRANCH   6   7
ATOM      7  C   UNL     1      61.533  26.432  50.167  1.00  0.00     0.000 C 
BRANCH   7   8
ATOM      8  C   UNL     1      60.461  25.865  51.114  1.00  0.00     0.000 C 
BRANCH   8   9
ATOM      9  C   UNL     1      60.454  26.558  52.484  1.00  0.00     0.000 C 
BRANCH   9  10
ATOM     10  C   UNL     1      61.661  27.494  52.678  1.00  0.00     0.000 C 
BRANCH  10  11
ATOM     11  C   UNL     1      61.275  28.980  52.598  1.00  0.00     0.000 C 
BRANCH  11  12
ATOM     12  C   UNL     1      62.488  29.893  52.350  1.00  0.00     0.006 C 
BRANCH  12  13
ATOM     13  C   UNL     1      62.511  30.452  50.923  1.00  0.00     0.053 C 
BRANCH  13  14
ATOM     14  C   UNL     1      63.585  29.815  50.094  1.00  0.00     0.041 C 
ATOM     15  O   UNL     1      64.322  28.923  50.590  1.00  0.00    -0.550 OA
ATOM     16  O   UNL     1      63.748  30.184  48.765  1.00  0.00    -0.550 OA
ENDBRANCH  13  14
ENDBRANCH  12  13
ENDBRANCH  11  12
ENDBRANCH  10  11
ENDBRANCH   9  10
ENDBRANCH   8   9
ENDBRANCH   7   8
ENDBRANCH   6   7
ENDBRANCH   5   6
ENDBRANCH   4   5
ENDBRANCH   3   4
ENDBRANCH   2   3
ENDBRANCH   1   2
BRANCH   1  17
ATOM     17  C   UNL     1      56.323  26.255  49.998  1.00  0.00     0.000 C 
BRANCH  17  18
ATOM     18  C   UNL     1      54.858  26.086  49.563  1.00  0.00     0.000 C 
BRANCH  18  19
ATOM     19  C   UNL     1      53.878  26.854  50.464  1.00  0.00     0.000 C 
BRANCH  19  20
ATOM     20  C   UNL     1      53.365  28.118  49.759  1.00  0.00     0.000 C 
BRANCH  20  21
ATOM     21  C   UNL     1      53.833  29.417  50.437  1.00  0.00     0.000 C 
BRANCH  21  22
ATOM     22  C   UNL     1      53.916  29.358  51.975  1.00  0.00    -0.000 C 
BRANCH  22  23
ATOM     23  C   UNL     1      54.404  30.651  52.658  1.00  0.00    -0.000 C 
BRANCH  23  24
ATOM     24  C   UNL     1      55.236  30.437  53.935  1.00  0.00    -0.000 C 
BRANCH  24  25
ATOM     25  C   UNL     1      56.284  31.538  54.156  1.00  0.00    -0.000 C 
BRANCH  25  26
ATOM     26  C   UNL     1      57.402  31.443  53.108  1.00  0.00    -0.000 C 
BRANCH  26  27
ATOM     27  C   UNL     1      58.751  31.028  53.715  1.00  0.00    -0.000 C 
BRANCH  27  28
ATOM     28  C   UNL     1      58.678  30.816  55.234  1.00  0.00    -0.000 C 
BRANCH  28  29
ATOM     29  C   UNL     1      59.185  29.421  55.617  1.00  0.00    -0.003 C 
ATOM     30  C   UNL     1      58.302  28.329  55.020  1.00  0.00     0.004 C 
ENDBRANCH  28  29
ENDBRANCH  27  28
ENDBRANCH  26  27
ENDBRANCH  25  26
ENDBRANCH  24  25
ENDBRANCH  23  24
ENDBRANCH  22  23
ENDBRANCH  21  22
ENDBRANCH  20  21
ENDBRANCH  19  20
ENDBRANCH  18  19
ENDBRANCH  17  18
ENDBRANCH   1  17
TORSDOF 26
ENDMDL
MODEL 7
REMARK VINA RESULT:    -3.642      9.774     13.714
REMARK INTER + INTRA:         -12.597
REMARK INTER:                  -6.512
REMARK INTRA:                  -6.085
REMARK UNBOUND:                -3.420
REMARK SMILES CCCCCCCCCCCCCCCCCCCCCCCCCCCC(=O)[O-]
REMARK SMILES IDX 15 1 16 2 17 3 18 4 19 5 20 6 21 7 22 8 23 9 24 10 25 11
REMARK SMILES IDX 26 12 27 13 28 14 29 15 30 16 14 17 13 18 12 19 11 20 10 21
REMARK SMILES IDX 9 22 8 23 7 24 6 25 5 26 4 27 3 28 2 29 1 30
REMARK H PARENT
REMARK Flexibility Score: inf
ROOT
ATOM      1  C   UNL     1      57.616  25.525  51.063  1.00  0.00     0.000 C 
ENDROOT
BRANCH   1   2
ATOM      2  C   UNL     1      56.157  25.988  51.208  1.00  0.00     0.000 C 
BRANCH   2   3
ATOM      3  C   UNL     1      55.481  26.259  49.856  1.00  0.00     0.000 C 
BRANCH   3   4
ATOM      4  C   UNL     1      54.426  27.365  49.983  1.00  0.00     0.000 C 
BRANCH   4   5
ATOM      5  C   UNL     1      54.973  28.564  50.768  1.00  0.00     0.000 C 
BRANCH   5   6
ATOM      6  C   UNL     1      54.000  29.754  50.803  1.00  0.00     0.000 C 
BRANCH   6   7
ATOM      7  C   UNL     1      53.525  30.126  52.224  1.00  0.00     0.000 C 
BRANCH   7   8
ATOM      8  C   UNL     1      53.952  31.549  52.626  1.00  0.00     0.000 C 
BRANCH   8   9
ATOM      9  C   UNL     1      54.815  31.571  53.896  1.00  0.00     0.000 C 
BRANCH   9  10
ATOM     10  C   UNL     1      56.102  32.398  53.720  1.00  0.00     0.000 C 
BRANCH  10  11
ATOM     11  C   UNL     1      57.365  31.523  53.683  1.00  0.00     0.000 C 
BRANCH  11  12
ATOM     12  C   UNL     1      58.304  31.791  54.872  1.00  0.00     0.006 C 
BRANCH  12  13
ATOM     13  C   UNL     1      57.981  30.902  56.079  1.00  0.00     0.053 C 
BRANCH  13  14
ATOM     14  C   UNL     1      57.256  31.661  57.149  1.00  0.00     0.041 C 
ATOM     15  O   UNL     1      57.875  32.489  57.868  1.00  0.00    -0.550 OA
ATOM     16  O   UNL     1      55.891  31.477  57.328  1.00  0.00    -0.550 OA
ENDBRANCH  13  14
ENDBRANCH  12  13
ENDBRANCH  11  12
ENDBRANCH  10  11
ENDBRANCH   9  10
ENDBRANCH   8   9
ENDBRANCH   7   8
ENDBRANCH   6   7
ENDBRANCH   5   6
ENDBRANCH   4   5
ENDBRANCH   3   4
ENDBRANCH   2   3
ENDBRANCH   1   2
BRANCH   1  17
ATOM     17  C   UNL     1      58.228  25.923  49.710  1.00  0.00     0.000 C 
BRANCH  17  18
ATOM     18  C   UNL     1      59.631  26.537  49.851  1.00  0.00     0.000 C 
BRANCH  18  19
ATOM     19  C   UNL     1      59.736  27.931  49.214  1.00  0.00     0.000 C 
BRANCH  19  20
ATOM     20  C   UNL     1      58.509  28.785  49.564  1.00  0.00     0.000 C 
BRANCH  20  21
ATOM     21  C   UNL     1      58.492  29.239  51.034  1.00  0.00     0.000 C 
BRANCH  21  22
ATOM     22  C   UNL     1      59.840  29.759  51.572  1.00  0.00    -0.000 C 
BRANCH  22  23
ATOM     23  C   UNL     1      60.317  29.110  52.887  1.00  0.00    -0.000 C 
BRANCH  23  24
ATOM     24  C   UNL     1      59.620  27.786  53.247  1.00  0.00    -0.000 C 
BRANCH  24  25
ATOM     25  C   UNL     1      59.130  27.746  54.702  1.00  0.00    -0.000 C 
BRANCH  25  26
ATOM     26  C   UNL     1      57.703  27.184  54.781  1.00  0.00    -0.000 C 
BRANCH  26  27
ATOM     27  C   UNL     1      56.679  28.061  54.046  1.00  0.00    -0.000 C 
BRANCH  27  28
ATOM     28  C   UNL     1      55.279  27.994  54.676  1.00  0.00    -0.000 C 
BRANCH  28  29
ATOM     29  C   UNL     1      54.652  26.610  54.469  1.00  0.00    -0.003 C 
ATOM     30  C   UNL     1      53.373  26.702  53.642  1.00  0.00     0.004 C 
ENDBRANCH  28  29
ENDBRANCH  27  28
ENDBRANCH  26  27
ENDBRANCH  25  26
ENDBRANCH  24  25
ENDBRANCH  23  24
ENDBRANCH  22  23
ENDBRANCH  21  22
ENDBRANCH  20  21
ENDBRANCH  19  20
ENDBRANCH  18  19
ENDBRANCH  17  18
ENDBRANCH   1  17
TORSDOF 26
ENDMDL
MODEL 8
REMARK VINA RESULT:    -3.640      9.754     12.199
REMARK INTER + INTRA:         -12.592
REMARK INTER:                  -7.531
REMARK INTRA:                  -5.061
REMARK UNBOUND:                -3.420
REMARK SMILES CCCCCCCCCCCCCCCCCCCCCCCCCCCC(=O)[O-]
REMARK SMILES IDX 15 1 16 2 17 3 18 4 19 5 20 6 21 7 22 8 23 9 24 10 25 11
REMARK SMILES IDX 26 12 27 13 28 14 29 15 30 16 14 17 13 18 12 19 11 20 10 21
REMARK SMILES IDX 9 22 8 23 7 24 6 25 5 26 4 27 3 28 2 29 1 30
REMARK H PARENT
REMARK Flexibility Score: inf
ROOT
ATOM      1  C   UNL     1      60.391  27.832  54.203  1.00  0.00     0.000 C 
ENDROOT
BRANCH   1   2
ATOM      2  C   UNL     1      59.969  26.562  53.446  1.00  0.00     0.000 C 
BRANCH   2   3
ATOM      3  C   UNL     1      61.166  25.710  52.999  1.00  0.00     0.000 C 
BRANCH   3   4
ATOM      4  C   UNL     1      62.219  26.573  52.294  1.00  0.00     0.000 C 
BRANCH   4   5
ATOM      5  C   UNL     1      63.559  25.833  52.186  1.00  0.00     0.000 C 
BRANCH   5   6
ATOM      6  C   UNL     1      63.819  25.262  50.782  1.00  0.00     0.000 C 
BRANCH   6   7
ATOM      7  C   UNL     1      63.327  26.176  49.640  1.00  0.00     0.000 C 
BRANCH   7   8
ATOM      8  C   UNL     1      64.489  26.878  48.915  1.00  0.00     0.000 C 
BRANCH   8   9
ATOM      9  C   UNL     1      64.098  28.257  48.365  1.00  0.00     0.000 C 
BRANCH   9  10
ATOM     10  C   UNL     1      63.971  29.319  49.472  1.00  0.00     0.000 C 
BRANCH  10  11
ATOM     11  C   UNL     1      63.821  30.742  48.909  1.00  0.00     0.000 C 
BRANCH  11  12
ATOM     12  C   UNL     1      63.590  31.791  50.010  1.00  0.00     0.006 C 
BRANCH  12  13
ATOM     13  C   UNL     1      62.191  32.416  49.929  1.00  0.00     0.053 C 
BRANCH  13  14
ATOM     14  C   UNL     1      61.896  33.272  51.124  1.00  0.00     0.041 C 
ATOM     15  O   UNL     1      62.437  34.402  51.243  1.00  0.00    -0.550 OA
ATOM     16  O   UNL     1      60.998  32.833  52.088  1.00  0.00    -0.550 OA
ENDBRANCH  13  14
ENDBRANCH  12  13
ENDBRANCH  11  12
ENDBRANCH  10  11
ENDBRANCH   9  10
ENDBRANCH   8   9
ENDBRANCH   7   8
ENDBRANCH   6   7
ENDBRANCH   5   6
ENDBRANCH   4   5
ENDBRANCH   3   4
ENDBRANCH   2   3
ENDBRANCH   1   2
BRANCH   1  17
ATOM     17  C   UNL     1      59.816  29.111  53.573  1.00  0.00     0.000 C 
BRANCH  17  18
ATOM     18  C   UNL     1      58.521  28.854  52.785  1.00  0.00     0.000 C 
BRANCH  18  19
ATOM     19  C   UNL     1      58.612  29.321  51.325  1.00  0.00     0.000 C 
BRANCH  19  20
ATOM     20  C   UNL     1      60.077  29.466  50.888  1.00  0.00     0.000 C 
BRANCH  20  21
ATOM     21  C   UNL     1      60.421  28.628  49.644  1.00  0.00     0.000 C 
BRANCH  21  22
ATOM     22  C   UNL     1      59.365  27.573  49.257  1.00  0.00    -0.000 C 
BRANCH  22  23
ATOM     23  C   UNL     1      59.743  26.115  49.585  1.00  0.00    -0.000 C 
BRANCH  23  24
ATOM     24  C   UNL     1      58.637  25.297  50.274  1.00  0.00    -0.000 C 
BRANCH  24  25
ATOM     25  C   UNL     1      57.248  25.938  50.138  1.00  0.00    -0.000 C 
BRANCH  25  26
ATOM     26  C   UNL     1      56.573  26.070  51.511  1.00  0.00    -0.000 C 
BRANCH  26  27
ATOM     27  C   UNL     1      55.445  27.114  51.520  1.00  0.00    -0.000 C 
BRANCH  27  28
ATOM     28  C   UNL     1      55.106  27.633  50.114  1.00  0.00    -0.000 C 
BRANCH  28  29
ATOM     29  C   UNL     1      53.673  27.257  49.723  1.00  0.00    -0.003 C 
ATOM     30  C   UNL     1      53.628  25.898  49.031  1.00  0.00     0.004 C 
ENDBRANCH  28  29
ENDBRANCH  27  28
ENDBRANCH  26  27
ENDBRANCH  25  26
ENDBRANCH  24  25
ENDBRANCH  23  24
ENDBRANCH  22  23
ENDBRANCH  21  22
ENDBRANCH  20  21
ENDBRANCH  19  20
ENDBRANCH  18  19
ENDBRANCH  17  18
ENDBRANCH   1  17
TORSDOF 26
ENDMDL
MODEL 9
REMARK VINA RESULT:    -3.580      4.427      7.497
REMARK INTER + INTRA:         -12.440
REMARK INTER:                  -6.584
REMARK INTRA:                  -5.857
REMARK UNBOUND:                -3.420
REMARK SMILES CCCCCCCCCCCCCCCCCCCCCCCCCCCC(=O)[O-]
REMARK SMILES IDX 15 1 16 2 17 3 18 4 19 5 20 6 21 7 22 8 23 9 24 10 25 11
REMARK SMILES IDX 26 12 27 13 28 14 29 15 30 16 14 17 13 18 12 19 11 20 10 21
REMARK SMILES IDX 9 22 8 23 7 24 6 25 5 26 4 27 3 28 2 29 1 30
REMARK H PARENT
REMARK Flexibility Score: inf
ROOT
ATOM      1  C   UNL     1      62.291  33.352  60.825  1.00  0.00     0.000 C 
ENDROOT
BRANCH   1   2
ATOM      2  C   UNL     1      61.793  34.803  60.728  1.00  0.00     0.000 C 
BRANCH   2   3
ATOM      3  C   UNL     1      62.806  35.820  61.275  1.00  0.00     0.000 C 
BRANCH   3   4
ATOM      4  C   UNL     1      64.116  35.128  61.669  1.00  0.00     0.000 C 
BRANCH   4   5
ATOM      5  C   UNL     1      65.331  35.898  61.133  1.00  0.00     0.000 C 
BRANCH   5   6
ATOM      6  C   UNL     1      65.252  36.167  59.621  1.00  0.00     0.000 C 
BRANCH   6   7
ATOM      7  C   UNL     1      65.263  34.886  58.761  1.00  0.00     0.000 C 
BRANCH   7   8
ATOM      8  C   UNL     1      65.204  35.196  57.255  1.00  0.00     0.000 C 
BRANCH   8   9
ATOM      9  C   UNL     1      63.786  35.542  56.777  1.00  0.00     0.000 C 
BRANCH   9  10
ATOM     10  C   UNL     1      62.750  34.477  57.184  1.00  0.00     0.000 C 
BRANCH  10  11
ATOM     11  C   UNL     1      62.095  33.799  55.970  1.00  0.00     0.000 C 
BRANCH  11  12
ATOM     12  C   UNL     1      60.589  33.555  56.172  1.00  0.00     0.006 C 
BRANCH  12  13
ATOM     13  C   UNL     1      60.106  34.021  57.550  1.00  0.00     0.053 C 
BRANCH  13  14
ATOM     14  C   UNL     1      59.016  35.043  57.440  1.00  0.00     0.041 C 
ATOM     15  O   UNL     1      58.179  34.978  56.502  1.00  0.00    -0.550 OA
ATOM     16  O   UNL     1      58.905  36.047  58.393  1.00  0.00    -0.550 OA
ENDBRANCH  13  14
ENDBRANCH  12  13
ENDBRANCH  11  12
ENDBRANCH  10  11
ENDBRANCH   9  10
ENDBRANCH   8   9
ENDBRANCH   7   8
ENDBRANCH   6   7
ENDBRANCH   5   6
ENDBRANCH   4   5
ENDBRANCH   3   4
ENDBRANCH   2   3
ENDBRANCH   1   2
BRANCH   1  17
ATOM     17  C   UNL     1      61.198  32.329  60.478  1.00  0.00     0.000 C 
BRANCH  17  18
ATOM     18  C   UNL     1      61.111  31.184  61.500  1.00  0.00     0.000 C 
BRANCH  18  19
ATOM     19  C   UNL     1      62.492  30.698  61.966  1.00  0.00     0.000 C 
BRANCH  19  20
ATOM     20  C   UNL     1      62.720  29.234  61.564  1.00  0.00     0.000 C 
BRANCH  20  21
ATOM     21  C   UNL     1      64.085  28.999  60.895  1.00  0.00     0.000 C 
BRANCH  21  22
ATOM     22  C   UNL     1      65.031  30.217  60.897  1.00  0.00    -0.000 C 
BRANCH  22  23
ATOM     23  C   UNL     1      65.424  30.746  59.503  1.00  0.00    -0.000 C 
BRANCH  23  24
ATOM     24  C   UNL     1      64.271  31.367  58.696  1.00  0.00    -0.000 C 
BRANCH  24  25
ATOM     25  C   UNL     1      63.776  30.455  57.564  1.00  0.00    -0.000 C 
BRANCH  25  26
ATOM     26  C   UNL     1      62.241  30.440  57.509  1.00  0.00    -0.000 C 
BRANCH  26  27
ATOM     27  C   UNL     1      61.641  29.128  58.037  1.00  0.00    -0.000 C 
BRANCH  27  28
ATOM     28  C   UNL     1      60.204  29.297  58.551  1.00  0.00    -0.000 C 
BRANCH  28  29
ATOM     29  C   UNL     1      59.460  30.372  57.752  1.00  0.00    -0.003 C 
ATOM     30  C   UNL     1      57.977  30.401  58.112  1.00  0.00     0.004 C 
ENDBRANCH  28  29
ENDBRANCH  27  28
ENDBRANCH  26  27
ENDBRANCH  25  26
ENDBRANCH  24  25
ENDBRANCH  23  24
ENDBRANCH  22  23
ENDBRANCH  21  22
ENDBRANCH  20  21
ENDBRANCH  19  20
ENDBRANCH  18  19
ENDBRANCH  17  18
ENDBRANCH   1  17
TORSDOF 26
ENDMDL
