MODEL 1
REMARK VINA RESULT:    -7.464      0.000      0.000
REMARK INTER + INTRA:          -7.711
REMARK INTER:                  -8.118
REMARK INTRA:                   0.408
REMARK UNBOUND:                 0.408
REMARK SMILES C[C@@H]1[C@H](C)CC[C@@]2(C(=O)[O-])CC[C@@]3(C)C(=CC[C@H]4[C@@]5(C)CC[C@@H](O)C(C)(C)[C@@H]5CC[C@@]43C)[C@H]12
REMARK SMILES IDX 7 1 6 2 11 3 33 4 5 5 12 6 15 7 2 8 3 9 13 10 16 11 1 12
REMARK SMILES IDX 4 13 14 14 31 15 17 16 18 17 30 18 32 19 19 20 29 21 28 22
REMARK SMILES IDX 21 23 20 24 25 25 22 26 23 27 26 28 27 29 8 30 9 31 10 32
REMARK SMILES IDX 24 33
REMARK H PARENT 24 34
REMARK Flexibility Score: inf
ROOT
ATOM      1  C   UNL     1       9.840 -25.423  23.004  1.00  0.00     0.017 C 
ATOM      2  C   UNL     1       8.495 -24.682  23.265  1.00  0.00     0.014 C 
ATOM      3  C   UNL     1       9.696 -26.898  23.539  1.00  0.00     0.014 C 
ATOM      4  C   UNL     1      10.087 -25.497  21.463  1.00  0.00     0.030 C 
ATOM      5  C   UNL     1       8.345 -23.358  22.487  1.00  0.00     0.004 C 
ATOM      6  C   UNL     1      10.736 -27.936  22.999  1.00  0.00     0.013 C 
ATOM      7  C   UNL     1      11.261 -26.420  21.173  1.00  0.00    -0.063 C 
ATOM      8  C   UNL     1       9.901 -24.185  20.624  1.00  0.00    -0.003 C 
ATOM      9  C   UNL     1       8.510 -23.577  20.976  1.00  0.00    -0.011 C 
ATOM     10  C   UNL     1      11.019 -27.930  21.443  1.00  0.00    -0.006 C 
ATOM     11  C   UNL     1      12.520 -25.935  21.325  1.00  0.00    -0.027 C 
ATOM     12  C   UNL     1      11.054 -23.157  20.674  1.00  0.00     0.008 C 
ATOM     13  C   UNL     1       8.174 -22.300  20.193  1.00  0.00     0.008 C 
ATOM     14  C   UNL     1       9.685 -28.430  20.785  1.00  0.00     0.017 C 
ATOM     15  C   UNL     1      12.294 -28.891  20.959  1.00  0.00    -0.020 C 
ATOM     16  C   UNL     1      13.738 -26.806  21.327  1.00  0.00     0.032 C 
ATOM     17  C   UNL     1      13.478 -28.006  20.428  1.00  0.00     0.006 C 
ATOM     18  C   UNL     1      11.929 -29.885  19.756  1.00  0.00     0.008 C 
ATOM     19  C   UNL     1      12.762 -29.755  22.194  1.00  0.00     0.012 C 
ATOM     20  C   UNL     1      14.791 -28.723  19.859  1.00  0.00    -0.025 C 
ATOM     21  C   UNL     1      13.031 -30.154  18.672  1.00  0.00     0.005 C 
ATOM     22  C   UNL     1      14.414 -30.155  19.319  1.00  0.00     0.003 C 
ATOM     23  C   UNL     1      15.911 -28.914  20.921  1.00  0.00     0.010 C 
ATOM     24  C   UNL     1      15.323 -27.783  18.737  1.00  0.00     0.012 C 
ATOM     25  C   UNL     1      15.575 -31.066  18.730  1.00  0.00    -0.006 C 
ATOM     26  C   UNL     1      17.103 -29.744  20.378  1.00  0.00     0.033 C 
ATOM     27  C   UNL     1      16.706 -31.144  19.829  1.00  0.00     0.120 C 
ATOM     28  C   UNL     1      16.165 -30.606  17.365  1.00  0.00     0.014 C 
ATOM     29  C   UNL     1      15.033 -32.510  18.489  1.00  0.00     0.014 C 
ENDROOT
BRANCH   1  30
ATOM     30  C   UNL     1      10.973 -24.731  23.773  1.00  0.00     0.048 C 
ATOM     31  O   UNL     1      11.148 -23.479  23.689  1.00  0.00    -0.550 OA
ATOM     32  O   UNL     1      11.842 -25.453  24.591  1.00  0.00    -0.550 OA
ENDBRANCH   1  30
BRANCH  27  33
ATOM     33  O   UNL     1      16.321 -31.991  20.890  1.00  0.00    -0.393 OA
ATOM     34  H   UNL     1      17.134 -32.459  21.237  1.00  0.00     0.210 HD
ENDBRANCH  27  33
TORSDOF 2
ENDMDL
MODEL 2
REMARK VINA RESULT:    -6.947      1.992      8.038
REMARK INTER + INTRA:          -7.149
REMARK INTER:                  -7.556
REMARK INTRA:                   0.408
REMARK UNBOUND:                 0.408
REMARK SMILES C[C@@H]1[C@H](C)CC[C@@]2(C(=O)[O-])CC[C@@]3(C)C(=CC[C@H]4[C@@]5(C)CC[C@@H](O)C(C)(C)[C@@H]5CC[C@@]43C)[C@H]12
REMARK SMILES IDX 7 1 6 2 11 3 33 4 5 5 12 6 15 7 2 8 3 9 13 10 16 11 1 12
REMARK SMILES IDX 4 13 14 14 31 15 17 16 18 17 30 18 32 19 19 20 29 21 28 22
REMARK SMILES IDX 21 23 20 24 25 25 22 26 23 27 26 28 27 29 8 30 9 31 10 32
REMARK SMILES IDX 24 33
REMARK H PARENT 24 34
REMARK Flexibility Score: inf
ROOT
ATOM      1  C   UNL     1      14.749 -29.484  19.230  1.00  0.00     0.017 C 
ATOM      2  C   UNL     1      16.022 -30.334  18.944  1.00  0.00     0.014 C 
ATOM      3  C   UNL     1      14.092 -30.020  20.557  1.00  0.00     0.014 C 
ATOM      4  C   UNL     1      15.175 -28.001  19.474  1.00  0.00     0.030 C 
ATOM      5  C   UNL     1      16.970 -29.716  17.896  1.00  0.00     0.004 C 
ATOM      6  C   UNL     1      13.077 -29.061  21.266  1.00  0.00     0.013 C 
ATOM      7  C   UNL     1      13.986 -27.203  19.990  1.00  0.00    -0.063 C 
ATOM      8  C   UNL     1      16.173 -27.345  18.458  1.00  0.00    -0.003 C 
ATOM      9  C   UNL     1      17.396 -28.296  18.297  1.00  0.00    -0.011 C 
ATOM     10  C   UNL     1      13.510 -27.548  21.427  1.00  0.00    -0.006 C 
ATOM     11  C   UNL     1      13.063 -26.763  19.097  1.00  0.00    -0.027 C 
ATOM     12  C   UNL     1      15.582 -26.865  17.113  1.00  0.00     0.008 C 
ATOM     13  C   UNL     1      18.482 -27.758  17.354  1.00  0.00     0.008 C 
ATOM     14  C   UNL     1      14.704 -27.572  22.445  1.00  0.00     0.017 C 
ATOM     15  C   UNL     1      12.307 -26.532  21.977  1.00  0.00    -0.020 C 
ATOM     16  C   UNL     1      11.734 -26.204  19.500  1.00  0.00     0.032 C 
ATOM     17  C   UNL     1      11.885 -25.520  20.851  1.00  0.00     0.006 C 
ATOM     18  C   UNL     1      12.750 -25.625  23.222  1.00  0.00     0.008 C 
ATOM     19  C   UNL     1      11.073 -27.412  22.417  1.00  0.00     0.012 C 
ATOM     20  C   UNL     1      10.778 -24.410  21.176  1.00  0.00    -0.025 C 
ATOM     21  C   UNL     1      12.203 -24.156  23.288  1.00  0.00     0.005 C 
ATOM     22  C   UNL     1      10.786 -24.099  22.721  1.00  0.00     0.003 C 
ATOM     23  C   UNL     1       9.331 -24.842  20.804  1.00  0.00     0.010 C 
ATOM     24  C   UNL     1      11.167 -23.173  20.314  1.00  0.00     0.012 C 
ATOM     25  C   UNL     1       9.741 -23.041  23.280  1.00  0.00    -0.006 C 
ATOM     26  C   UNL     1       8.270 -23.811  21.269  1.00  0.00     0.033 C 
ATOM     27  C   UNL     1       8.312 -23.500  22.793  1.00  0.00     0.120 C 
ATOM     28  C   UNL     1      10.007 -21.558  22.886  1.00  0.00     0.014 C 
ATOM     29  C   UNL     1       9.754 -23.069  24.840  1.00  0.00     0.014 C 
ENDROOT
BRANCH   1  30
ATOM     30  C   UNL     1      13.744 -29.652  18.083  1.00  0.00     0.048 C 
ATOM     31  O   UNL     1      14.101 -29.500  16.876  1.00  0.00    -0.550 OA
ATOM     32  O   UNL     1      12.410 -29.980  18.328  1.00  0.00    -0.550 OA
ENDBRANCH   1  30
BRANCH  27  33
ATOM     33  O   UNL     1       7.862 -24.616  23.530  1.00  0.00    -0.393 OA
ATOM     34  H   UNL     1       8.176 -25.448  23.073  1.00  0.00     0.210 HD
ENDBRANCH  27  33
TORSDOF 2
ENDMDL
MODEL 3
REMARK VINA RESULT:    -6.656      1.497      1.761
REMARK INTER + INTRA:          -6.832
REMARK INTER:                  -7.241
REMARK INTRA:                   0.410
REMARK UNBOUND:                 0.408
REMARK SMILES C[C@@H]1[C@H](C)CC[C@@]2(C(=O)[O-])CC[C@@]3(C)C(=CC[C@H]4[C@@]5(C)CC[C@@H](O)C(C)(C)[C@@H]5CC[C@@]43C)[C@H]12
REMARK SMILES IDX 7 1 6 2 11 3 33 4 5 5 12 6 15 7 2 8 3 9 13 10 16 11 1 12
REMARK SMILES IDX 4 13 14 14 31 15 17 16 18 17 30 18 32 19 19 20 29 21 28 22
REMARK SMILES IDX 21 23 20 24 25 25 22 26 23 27 26 28 27 29 8 30 9 31 10 32
REMARK SMILES IDX 24 33
REMARK H PARENT 24 34
REMARK Flexibility Score: inf
ROOT
ATOM      1  C   UNL     1       9.547 -26.262  23.299  1.00  0.00     0.017 C 
ATOM      2  C   UNL     1       8.335 -25.331  23.604  1.00  0.00     0.014 C 
ATOM      3  C   UNL     1       8.997 -27.566  22.605  1.00  0.00     0.014 C 
ATOM      4  C   UNL     1      10.494 -25.545  22.285  1.00  0.00     0.030 C 
ATOM      5  C   UNL     1       8.729 -23.880  23.948  1.00  0.00     0.004 C 
ATOM      6  C   UNL     1      10.044 -28.430  21.824  1.00  0.00     0.013 C 
ATOM      7  C   UNL     1      11.551 -26.522  21.789  1.00  0.00    -0.063 C 
ATOM      8  C   UNL     1      10.885 -24.054  22.571  1.00  0.00    -0.003 C 
ATOM      9  C   UNL     1       9.575 -23.251  22.831  1.00  0.00    -0.011 C 
ATOM     10  C   UNL     1      11.040 -27.661  20.865  1.00  0.00    -0.006 C 
ATOM     11  C   UNL     1      12.626 -26.771  22.579  1.00  0.00    -0.027 C 
ATOM     12  C   UNL     1      11.979 -23.812  23.635  1.00  0.00     0.008 C 
ATOM     13  C   UNL     1       9.804 -21.755  23.088  1.00  0.00     0.008 C 
ATOM     14  C   UNL     1      10.140 -27.108  19.704  1.00  0.00     0.017 C 
ATOM     15  C   UNL     1      12.272 -28.596  20.241  1.00  0.00    -0.020 C 
ATOM     16  C   UNL     1      13.586 -27.892  22.326  1.00  0.00     0.032 C 
ATOM     17  C   UNL     1      13.657 -28.141  20.827  1.00  0.00     0.006 C 
ATOM     18  C   UNL     1      12.422 -28.483  18.650  1.00  0.00     0.008 C 
ATOM     19  C   UNL     1      11.987 -30.104  20.609  1.00  0.00     0.012 C 
ATOM     20  C   UNL     1      14.992 -28.868  20.324  1.00  0.00    -0.025 C 
ATOM     21  C   UNL     1      13.871 -28.512  18.049  1.00  0.00     0.005 C 
ATOM     22  C   UNL     1      14.762 -29.440  18.873  1.00  0.00     0.003 C 
ATOM     23  C   UNL     1      15.432 -30.060  21.220  1.00  0.00     0.010 C 
ATOM     24  C   UNL     1      16.100 -27.775  20.367  1.00  0.00     0.012 C 
ATOM     25  C   UNL     1      15.952 -30.233  18.181  1.00  0.00    -0.006 C 
ATOM     26  C   UNL     1      16.636 -30.834  20.624  1.00  0.00     0.033 C 
ATOM     27  C   UNL     1      16.396 -31.369  19.183  1.00  0.00     0.120 C 
ATOM     28  C   UNL     1      17.174 -29.372  17.747  1.00  0.00     0.014 C 
ATOM     29  C   UNL     1      15.434 -30.914  16.875  1.00  0.00     0.014 C 
ENDROOT
BRANCH   1  30
ATOM     30  C   UNL     1      10.239 -26.660  24.610  1.00  0.00     0.048 C 
ATOM     31  O   UNL     1      10.526 -25.789  25.485  1.00  0.00    -0.550 OA
ATOM     32  O   UNL     1      10.570 -27.987  24.882  1.00  0.00    -0.550 OA
ENDBRANCH   1  30
BRANCH  27  33
ATOM     33  O   UNL     1      15.456 -32.420  19.204  1.00  0.00    -0.393 OA
ATOM     34  H   UNL     1      15.564 -32.929  20.057  1.00  0.00     0.210 HD
ENDBRANCH  27  33
TORSDOF 2
ENDMDL
MODEL 4
REMARK VINA RESULT:    -6.549      5.015      9.055
REMARK INTER + INTRA:          -6.716
REMARK INTER:                  -7.128
REMARK INTRA:                   0.413
REMARK UNBOUND:                 0.408
REMARK SMILES C[C@@H]1[C@H](C)CC[C@@]2(C(=O)[O-])CC[C@@]3(C)C(=CC[C@H]4[C@@]5(C)CC[C@@H](O)C(C)(C)[C@@H]5CC[C@@]43C)[C@H]12
REMARK SMILES IDX 7 1 6 2 11 3 33 4 5 5 12 6 15 7 2 8 3 9 13 10 16 11 1 12
REMARK SMILES IDX 4 13 14 14 31 15 17 16 18 17 30 18 32 19 19 20 29 21 28 22
REMARK SMILES IDX 21 23 20 24 25 25 22 26 23 27 26 28 27 29 8 30 9 31 10 32
REMARK SMILES IDX 24 33
REMARK H PARENT 24 34
REMARK Flexibility Score: inf
ROOT
ATOM      1  C   UNL     1      10.317 -27.050  22.875  1.00  0.00     0.017 C 
ATOM      2  C   UNL     1      10.425 -27.279  21.338  1.00  0.00     0.014 C 
ATOM      3  C   UNL     1       8.799 -26.812  23.227  1.00  0.00     0.014 C 
ATOM      4  C   UNL     1      10.780 -28.346  23.614  1.00  0.00     0.030 C 
ATOM      5  C   UNL     1      11.772 -27.877  20.884  1.00  0.00     0.004 C 
ATOM      6  C   UNL     1       8.398 -26.997  24.729  1.00  0.00     0.013 C 
ATOM      7  C   UNL     1      10.458 -28.236  25.097  1.00  0.00    -0.063 C 
ATOM      8  C   UNL     1      12.122 -29.015  23.155  1.00  0.00    -0.003 C 
ATOM      9  C   UNL     1      12.069 -29.198  21.609  1.00  0.00    -0.011 C 
ATOM     10  C   UNL     1       8.950 -28.283  25.468  1.00  0.00    -0.006 C 
ATOM     11  C   UNL     1      11.291 -27.517  25.891  1.00  0.00    -0.027 C 
ATOM     12  C   UNL     1      13.431 -28.363  23.656  1.00  0.00     0.008 C 
ATOM     13  C   UNL     1      13.311 -29.883  21.022  1.00  0.00     0.008 C 
ATOM     14  C   UNL     1       8.220 -29.491  24.783  1.00  0.00     0.017 C 
ATOM     15  C   UNL     1       8.685 -28.310  27.115  1.00  0.00    -0.020 C 
ATOM     16  C   UNL     1      10.948 -27.120  27.292  1.00  0.00     0.032 C 
ATOM     17  C   UNL     1      10.045 -28.188  27.892  1.00  0.00     0.006 C 
ATOM     18  C   UNL     1       8.016 -29.670  27.636  1.00  0.00     0.008 C 
ATOM     19  C   UNL     1       7.728 -27.111  27.485  1.00  0.00     0.012 C 
ATOM     20  C   UNL     1      10.035 -28.247  29.492  1.00  0.00    -0.025 C 
ATOM     21  C   UNL     1       8.477 -30.225  29.029  1.00  0.00     0.005 C 
ATOM     22  C   UNL     1       8.781 -29.068  29.979  1.00  0.00     0.003 C 
ATOM     23  C   UNL     1       9.957 -26.849  30.169  1.00  0.00     0.010 C 
ATOM     24  C   UNL     1      11.382 -28.920  29.889  1.00  0.00     0.012 C 
ATOM     25  C   UNL     1       8.551 -29.232  31.542  1.00  0.00    -0.006 C 
ATOM     26  C   UNL     1       9.797 -26.948  31.709  1.00  0.00     0.033 C 
ATOM     27  C   UNL     1       8.567 -27.783  32.167  1.00  0.00     0.120 C 
ATOM     28  C   UNL     1       9.560 -30.161  32.278  1.00  0.00     0.014 C 
ATOM     29  C   UNL     1       7.143 -29.855  31.799  1.00  0.00     0.014 C 
ENDROOT
BRANCH   1  30
ATOM     30  C   UNL     1      11.114 -25.800  23.272  1.00  0.00     0.048 C 
ATOM     31  O   UNL     1      12.306 -25.635  22.875  1.00  0.00    -0.550 OA
ATOM     32  O   UNL     1      10.554 -24.807  24.075  1.00  0.00    -0.550 OA
ENDBRANCH   1  30
BRANCH  27  33
ATOM     33  O   UNL     1       7.373 -27.092  31.872  1.00  0.00    -0.393 OA
ATOM     34  H   UNL     1       6.662 -27.761  31.656  1.00  0.00     0.210 HD
ENDBRANCH  27  33
TORSDOF 2
ENDMDL
MODEL 5
REMARK VINA RESULT:    -6.422      1.925      8.020
REMARK INTER + INTRA:          -6.577
REMARK INTER:                  -6.990
REMARK INTRA:                   0.413
REMARK UNBOUND:                 0.408
REMARK SMILES C[C@@H]1[C@H](C)CC[C@@]2(C(=O)[O-])CC[C@@]3(C)C(=CC[C@H]4[C@@]5(C)CC[C@@H](O)C(C)(C)[C@@H]5CC[C@@]43C)[C@H]12
REMARK SMILES IDX 7 1 6 2 11 3 33 4 5 5 12 6 15 7 2 8 3 9 13 10 16 11 1 12
REMARK SMILES IDX 4 13 14 14 31 15 17 16 18 17 30 18 32 19 19 20 29 21 28 22
REMARK SMILES IDX 21 23 20 24 25 25 22 26 23 27 26 28 27 29 8 30 9 31 10 32
REMARK SMILES IDX 24 33
REMARK H PARENT 24 34
REMARK Flexibility Score: inf
ROOT
ATOM      1  C   UNL     1      15.109 -29.485  17.941  1.00  0.00     0.017 C 
ATOM      2  C   UNL     1      15.696 -30.671  17.120  1.00  0.00     0.014 C 
ATOM      3  C   UNL     1      13.735 -29.074  17.290  1.00  0.00     0.014 C 
ATOM      4  C   UNL     1      14.820 -29.972  19.397  1.00  0.00     0.030 C 
ATOM      5  C   UNL     1      16.843 -31.420  17.828  1.00  0.00     0.004 C 
ATOM      6  C   UNL     1      12.771 -28.221  18.182  1.00  0.00     0.013 C 
ATOM      7  C   UNL     1      14.028 -28.910  20.146  1.00  0.00    -0.063 C 
ATOM      8  C   UNL     1      15.941 -30.777  20.141  1.00  0.00    -0.003 C 
ATOM      9  C   UNL     1      16.406 -31.935  19.208  1.00  0.00    -0.011 C 
ATOM     10  C   UNL     1      12.563 -28.700  19.676  1.00  0.00    -0.006 C 
ATOM     11  C   UNL     1      14.694 -27.846  20.662  1.00  0.00    -0.027 C 
ATOM     12  C   UNL     1      17.108 -29.958  20.737  1.00  0.00     0.008 C 
ATOM     13  C   UNL     1      17.482 -32.838  19.828  1.00  0.00     0.008 C 
ATOM     14  C   UNL     1      11.788 -30.059  19.563  1.00  0.00     0.017 C 
ATOM     15  C   UNL     1      11.715 -27.634  20.639  1.00  0.00    -0.020 C 
ATOM     16  C   UNL     1      14.007 -26.623  21.183  1.00  0.00     0.032 C 
ATOM     17  C   UNL     1      12.653 -27.029  21.746  1.00  0.00     0.006 C 
ATOM     18  C   UNL     1      10.499 -28.311  21.433  1.00  0.00     0.008 C 
ATOM     19  C   UNL     1      11.134 -26.488  19.723  1.00  0.00     0.012 C 
ATOM     20  C   UNL     1      12.035 -26.017  22.822  1.00  0.00    -0.025 C 
ATOM     21  C   UNL     1      10.207 -27.809  22.890  1.00  0.00     0.005 C 
ATOM     22  C   UNL     1      10.497 -26.313  22.997  1.00  0.00     0.003 C 
ATOM     23  C   UNL     1      12.171 -24.520  22.424  1.00  0.00     0.010 C 
ATOM     24  C   UNL     1      12.843 -26.261  24.130  1.00  0.00     0.012 C 
ATOM     25  C   UNL     1       9.666 -25.405  24.001  1.00  0.00    -0.006 C 
ATOM     26  C   UNL     1      11.432 -23.579  23.409  1.00  0.00     0.033 C 
ATOM     27  C   UNL     1       9.920 -23.903  23.585  1.00  0.00     0.120 C 
ATOM     28  C   UNL     1       9.973 -25.616  25.512  1.00  0.00     0.014 C 
ATOM     29  C   UNL     1       8.143 -25.702  23.835  1.00  0.00     0.014 C 
ENDROOT
BRANCH   1  30
ATOM     30  C   UNL     1      16.063 -28.285  17.874  1.00  0.00     0.048 C 
ATOM     31  O   UNL     1      17.296 -28.416  18.136  1.00  0.00    -0.550 OA
ATOM     32  O   UNL     1      15.607 -27.014  17.521  1.00  0.00    -0.550 OA
ENDBRANCH   1  30
BRANCH  27  33
ATOM     33  O   UNL     1       9.213 -23.579  22.409  1.00  0.00    -0.393 OA
ATOM     34  H   UNL     1       9.449 -24.243  21.700  1.00  0.00     0.210 HD
ENDBRANCH  27  33
TORSDOF 2
ENDMDL
MODEL 6
REMARK VINA RESULT:    -6.302      2.826      5.023
REMARK INTER + INTRA:          -6.447
REMARK INTER:                  -6.865
REMARK INTRA:                   0.418
REMARK UNBOUND:                 0.408
REMARK SMILES C[C@@H]1[C@H](C)CC[C@@]2(C(=O)[O-])CC[C@@]3(C)C(=CC[C@H]4[C@@]5(C)CC[C@@H](O)C(C)(C)[C@@H]5CC[C@@]43C)[C@H]12
REMARK SMILES IDX 7 1 6 2 11 3 33 4 5 5 12 6 15 7 2 8 3 9 13 10 16 11 1 12
REMARK SMILES IDX 4 13 14 14 31 15 17 16 18 17 30 18 32 19 19 20 29 21 28 22
REMARK SMILES IDX 21 23 20 24 25 25 22 26 23 27 26 28 27 29 8 30 9 31 10 32
REMARK SMILES IDX 24 33
REMARK H PARENT 24 34
REMARK Flexibility Score: inf
ROOT
ATOM      1  C   UNL     1       9.722 -26.030  25.639  1.00  0.00     0.017 C 
ATOM      2  C   UNL     1       9.481 -25.644  27.129  1.00  0.00     0.014 C 
ATOM      3  C   UNL     1      10.193 -24.737  24.871  1.00  0.00     0.014 C 
ATOM      4  C   UNL     1      10.880 -27.076  25.567  1.00  0.00     0.030 C 
ATOM      5  C   UNL     1       9.367 -26.852  28.081  1.00  0.00     0.004 C 
ATOM      6  C   UNL     1      10.905 -24.968  23.496  1.00  0.00     0.013 C 
ATOM      7  C   UNL     1      11.294 -27.285  24.118  1.00  0.00    -0.063 C 
ATOM      8  C   UNL     1      10.829 -28.298  26.548  1.00  0.00    -0.003 C 
ATOM      9  C   UNL     1      10.608 -27.753  27.991  1.00  0.00    -0.011 C 
ATOM     10  C   UNL     1      12.019 -26.090  23.441  1.00  0.00    -0.006 C 
ATOM     11  C   UNL     1      10.542 -28.103  23.339  1.00  0.00    -0.027 C 
ATOM     12  C   UNL     1       9.875 -29.454  26.172  1.00  0.00     0.008 C 
ATOM     13  C   UNL     1      10.578 -28.845  29.070  1.00  0.00     0.008 C 
ATOM     14  C   UNL     1      13.191 -25.542  24.328  1.00  0.00     0.017 C 
ATOM     15  C   UNL     1      12.576 -26.448  21.910  1.00  0.00    -0.020 C 
ATOM     16  C   UNL     1      10.690 -28.183  21.852  1.00  0.00     0.032 C 
ATOM     17  C   UNL     1      12.142 -27.899  21.493  1.00  0.00     0.006 C 
ATOM     18  C   UNL     1      14.173 -26.427  21.786  1.00  0.00     0.008 C 
ATOM     19  C   UNL     1      11.985 -25.385  20.904  1.00  0.00     0.012 C 
ATOM     20  C   UNL     1      12.615 -28.477  20.077  1.00  0.00    -0.025 C 
ATOM     21  C   UNL     1      14.848 -27.492  20.852  1.00  0.00     0.005 C 
ATOM     22  C   UNL     1      13.955 -27.769  19.644  1.00  0.00     0.003 C 
ATOM     23  C   UNL     1      11.587 -28.248  18.933  1.00  0.00     0.010 C 
ATOM     24  C   UNL     1      12.789 -30.009  20.292  1.00  0.00     0.012 C 
ATOM     25  C   UNL     1      14.597 -28.168  18.246  1.00  0.00    -0.006 C 
ATOM     26  C   UNL     1      12.138 -28.682  17.549  1.00  0.00     0.033 C 
ATOM     27  C   UNL     1      13.473 -27.990  17.152  1.00  0.00     0.120 C 
ATOM     28  C   UNL     1      15.217 -29.594  18.171  1.00  0.00     0.014 C 
ATOM     29  C   UNL     1      15.762 -27.185  17.909  1.00  0.00     0.014 C 
ENDROOT
BRANCH   1  30
ATOM     30  C   UNL     1       8.411 -26.522  25.011  1.00  0.00     0.048 C 
ATOM     31  O   UNL     1       7.662 -27.340  25.624  1.00  0.00    -0.550 OA
ATOM     32  O   UNL     1       8.000 -26.085  23.752  1.00  0.00    -0.550 OA
ENDBRANCH   1  30
BRANCH  27  33
ATOM     33  O   UNL     1      13.251 -26.625  16.875  1.00  0.00    -0.393 OA
ATOM     34  H   UNL     1      13.964 -26.087  17.323  1.00  0.00     0.210 HD
ENDBRANCH  27  33
TORSDOF 2
ENDMDL
MODEL 7
REMARK VINA RESULT:    -6.010      2.474      4.508
REMARK INTER + INTRA:          -6.129
REMARK INTER:                  -6.695
REMARK INTRA:                   0.566
REMARK UNBOUND:                 0.408
REMARK SMILES C[C@@H]1[C@H](C)CC[C@@]2(C(=O)[O-])CC[C@@]3(C)C(=CC[C@H]4[C@@]5(C)CC[C@@H](O)C(C)(C)[C@@H]5CC[C@@]43C)[C@H]12
REMARK SMILES IDX 7 1 6 2 11 3 33 4 5 5 12 6 15 7 2 8 3 9 13 10 16 11 1 12
REMARK SMILES IDX 4 13 14 14 31 15 17 16 18 17 30 18 32 19 19 20 29 21 28 22
REMARK SMILES IDX 21 23 20 24 25 25 22 26 23 27 26 28 27 29 8 30 9 31 10 32
REMARK SMILES IDX 24 33
REMARK H PARENT 24 34
REMARK Flexibility Score: inf
ROOT
ATOM      1  C   UNL     1       9.674 -26.516  24.863  1.00  0.00     0.017 C 
ATOM      2  C   UNL     1       9.094 -26.365  26.301  1.00  0.00     0.014 C 
ATOM      3  C   UNL     1      10.769 -25.401  24.660  1.00  0.00     0.014 C 
ATOM      4  C   UNL     1      10.380 -27.904  24.745  1.00  0.00     0.030 C 
ATOM      5  C   UNL     1       8.282 -27.584  26.783  1.00  0.00     0.004 C 
ATOM      6  C   UNL     1      11.778 -25.626  23.484  1.00  0.00     0.013 C 
ATOM      7  C   UNL     1      11.158 -27.976  23.440  1.00  0.00    -0.063 C 
ATOM      8  C   UNL     1       9.610 -29.168  25.265  1.00  0.00    -0.003 C 
ATOM      9  C   UNL     1       9.116 -28.873  26.713  1.00  0.00    -0.011 C 
ATOM     10  C   UNL     1      12.415 -27.068  23.349  1.00  0.00    -0.006 C 
ATOM     11  C   UNL     1      10.482 -28.252  22.295  1.00  0.00    -0.027 C 
ATOM     12  C   UNL     1       8.512 -29.742  24.342  1.00  0.00     0.008 C 
ATOM     13  C   UNL     1       8.374 -30.047  27.367  1.00  0.00     0.008 C 
ATOM     14  C   UNL     1      13.338 -27.225  24.608  1.00  0.00     0.017 C 
ATOM     15  C   UNL     1      13.297 -27.314  21.955  1.00  0.00    -0.020 C 
ATOM     16  C   UNL     1      11.080 -28.093  20.932  1.00  0.00     0.032 C 
ATOM     17  C   UNL     1      12.576 -28.355  21.025  1.00  0.00     0.006 C 
ATOM     18  C   UNL     1      14.759 -27.917  22.217  1.00  0.00     0.008 C 
ATOM     19  C   UNL     1      13.455 -25.930  21.214  1.00  0.00     0.012 C 
ATOM     20  C   UNL     1      13.274 -28.786  19.650  1.00  0.00    -0.025 C 
ATOM     21  C   UNL     1      15.316 -28.959  21.185  1.00  0.00     0.005 C 
ATOM     22  C   UNL     1      14.835 -28.611  19.778  1.00  0.00     0.003 C 
ATOM     23  C   UNL     1      12.818 -27.944  18.425  1.00  0.00     0.010 C 
ATOM     24  C   UNL     1      12.856 -30.268  19.420  1.00  0.00     0.012 C 
ATOM     25  C   UNL     1      15.736 -28.953  18.515  1.00  0.00    -0.006 C 
ATOM     26  C   UNL     1      13.622 -28.284  17.143  1.00  0.00     0.033 C 
ATOM     27  C   UNL     1      15.161 -28.127  17.298  1.00  0.00     0.120 C 
ATOM     28  C   UNL     1      15.842 -30.464  18.153  1.00  0.00     0.014 C 
ATOM     29  C   UNL     1      17.200 -28.479  18.774  1.00  0.00     0.014 C 
ENDROOT
BRANCH   1  30
ATOM     30  C   UNL     1       8.561 -26.304  23.829  1.00  0.00     0.048 C 
ATOM     31  O   UNL     1       7.640 -27.162  23.677  1.00  0.00    -0.550 OA
ATOM     32  O   UNL     1       8.522 -25.164  23.026  1.00  0.00    -0.550 OA
ENDBRANCH   1  30
BRANCH  27  33
ATOM     33  O   UNL     1      15.503 -26.763  17.408  1.00  0.00    -0.393 OA
ATOM     34  H   UNL     1      16.494 -26.673  17.311  1.00  0.00     0.210 HD
ENDBRANCH  27  33
TORSDOF 2
ENDMDL
MODEL 8
REMARK VINA RESULT:    -5.877      2.968      7.643
REMARK INTER + INTRA:          -5.985
REMARK INTER:                  -6.429
REMARK INTRA:                   0.444
REMARK UNBOUND:                 0.408
REMARK SMILES C[C@@H]1[C@H](C)CC[C@@]2(C(=O)[O-])CC[C@@]3(C)C(=CC[C@H]4[C@@]5(C)CC[C@@H](O)C(C)(C)[C@@H]5CC[C@@]43C)[C@H]12
REMARK SMILES IDX 7 1 6 2 11 3 33 4 5 5 12 6 15 7 2 8 3 9 13 10 16 11 1 12
REMARK SMILES IDX 4 13 14 14 31 15 17 16 18 17 30 18 32 19 19 20 29 21 28 22
REMARK SMILES IDX 21 23 20 24 25 25 22 26 23 27 26 28 27 29 8 30 9 31 10 32
REMARK SMILES IDX 24 33
REMARK H PARENT 24 34
REMARK Flexibility Score: inf
ROOT
ATOM      1  C   UNL     1      12.516 -28.602  18.918  1.00  0.00     0.017 C 
ATOM      2  C   UNL     1      13.111 -29.248  17.631  1.00  0.00     0.014 C 
ATOM      3  C   UNL     1      10.956 -28.819  18.895  1.00  0.00     0.014 C 
ATOM      4  C   UNL     1      13.083 -29.348  20.168  1.00  0.00     0.030 C 
ATOM      5  C   UNL     1      14.641 -29.440  17.674  1.00  0.00     0.004 C 
ATOM      6  C   UNL     1      10.212 -28.653  20.263  1.00  0.00     0.013 C 
ATOM      7  C   UNL     1      12.338 -28.899  21.416  1.00  0.00    -0.063 C 
ATOM      8  C   UNL     1      14.629 -29.605  20.233  1.00  0.00    -0.003 C 
ATOM      9  C   UNL     1      15.066 -30.271  18.894  1.00  0.00    -0.011 C 
ATOM     10  C   UNL     1      10.858 -29.357  21.524  1.00  0.00    -0.006 C 
ATOM     11  C   UNL     1      12.687 -27.721  21.993  1.00  0.00    -0.027 C 
ATOM     12  C   UNL     1      15.517 -28.411  20.648  1.00  0.00     0.008 C 
ATOM     13  C   UNL     1      16.560 -30.619  18.832  1.00  0.00     0.008 C 
ATOM     14  C   UNL     1      10.705 -30.895  21.253  1.00  0.00     0.017 C 
ATOM     15  C   UNL     1      10.156 -28.958  22.983  1.00  0.00    -0.020 C 
ATOM     16  C   UNL     1      11.868 -27.053  23.052  1.00  0.00     0.032 C 
ATOM     17  C   UNL     1      11.155 -28.125  23.864  1.00  0.00     0.006 C 
ATOM     18  C   UNL     1       9.759 -30.230  23.875  1.00  0.00     0.008 C 
ATOM     19  C   UNL     1       8.848 -28.124  22.695  1.00  0.00     0.012 C 
ATOM     20  C   UNL     1      10.711 -27.678  25.335  1.00  0.00    -0.025 C 
ATOM     21  C   UNL     1       9.940 -30.117  25.429  1.00  0.00     0.005 C 
ATOM     22  C   UNL     1       9.640 -28.693  25.890  1.00  0.00     0.003 C 
ATOM     23  C   UNL     1      10.071 -26.261  25.392  1.00  0.00     0.010 C 
ATOM     24  C   UNL     1      12.020 -27.668  26.178  1.00  0.00     0.012 C 
ATOM     25  C   UNL     1       9.031 -28.428  27.333  1.00  0.00    -0.006 C 
ATOM     26  C   UNL     1       9.515 -25.922  26.800  1.00  0.00     0.033 C 
ATOM     27  C   UNL     1       8.479 -26.949  27.338  1.00  0.00     0.120 C 
ATOM     28  C   UNL     1      10.002 -28.657  28.527  1.00  0.00     0.014 C 
ATOM     29  C   UNL     1       7.830 -29.394  27.577  1.00  0.00     0.014 C 
ENDROOT
BRANCH   1  30
ATOM     30  C   UNL     1      12.801 -27.094  18.922  1.00  0.00     0.048 C 
ATOM     31  O   UNL     1      13.922 -26.642  18.541  1.00  0.00    -0.550 OA
ATOM     32  O   UNL     1      11.839 -26.175  19.339  1.00  0.00    -0.550 OA
ENDBRANCH   1  30
BRANCH  27  33
ATOM     33  O   UNL     1       7.276 -26.856  26.606  1.00  0.00    -0.393 OA
ATOM     34  H   UNL     1       7.182 -27.675  26.040  1.00  0.00     0.210 HD
ENDBRANCH  27  33
TORSDOF 2
ENDMDL
MODEL 9
REMARK VINA RESULT:    -5.802      3.757      5.768
REMARK INTER + INTRA:          -5.903
REMARK INTER:                  -6.370
REMARK INTRA:                   0.467
REMARK UNBOUND:                 0.408
REMARK SMILES C[C@@H]1[C@H](C)CC[C@@]2(C(=O)[O-])CC[C@@]3(C)C(=CC[C@H]4[C@@]5(C)CC[C@@H](O)C(C)(C)[C@@H]5CC[C@@]43C)[C@H]12
REMARK SMILES IDX 7 1 6 2 11 3 33 4 5 5 12 6 15 7 2 8 3 9 13 10 16 11 1 12
REMARK SMILES IDX 4 13 14 14 31 15 17 16 18 17 30 18 32 19 19 20 29 21 28 22
REMARK SMILES IDX 21 23 20 24 25 25 22 26 23 27 26 28 27 29 8 30 9 31 10 32
REMARK SMILES IDX 24 33
REMARK H PARENT 24 34
REMARK Flexibility Score: inf
ROOT
ATOM      1  C   UNL     1      11.043 -24.777  22.409  1.00  0.00     0.017 C 
ATOM      2  C   UNL     1      10.887 -23.248  22.154  1.00  0.00     0.014 C 
ATOM      3  C   UNL     1      11.415 -24.982  23.926  1.00  0.00     0.014 C 
ATOM      4  C   UNL     1       9.669 -25.475  22.156  1.00  0.00     0.030 C 
ATOM      5  C   UNL     1      10.179 -22.900  20.828  1.00  0.00     0.004 C 
ATOM      6  C   UNL     1      11.193 -26.419  24.506  1.00  0.00     0.013 C 
ATOM      7  C   UNL     1       9.732 -26.921  22.628  1.00  0.00    -0.063 C 
ATOM      8  C   UNL     1       8.892 -25.118  20.842  1.00  0.00    -0.003 C 
ATOM      9  C   UNL     1       8.798 -23.566  20.741  1.00  0.00    -0.011 C 
ATOM     10  C   UNL     1       9.820 -27.128  24.165  1.00  0.00    -0.006 C 
ATOM     11  C   UNL     1      10.319 -27.842  21.823  1.00  0.00    -0.027 C 
ATOM     12  C   UNL     1       9.379 -25.793  19.540  1.00  0.00     0.008 C 
ATOM     13  C   UNL     1       8.021 -23.070  19.513  1.00  0.00     0.008 C 
ATOM     14  C   UNL     1       8.731 -26.294  24.927  1.00  0.00     0.017 C 
ATOM     15  C   UNL     1       9.732 -28.733  24.612  1.00  0.00    -0.020 C 
ATOM     16  C   UNL     1      10.675 -29.222  22.280  1.00  0.00     0.032 C 
ATOM     17  C   UNL     1       9.674 -29.655  23.341  1.00  0.00     0.006 C 
ATOM     18  C   UNL     1       8.422 -29.093  25.462  1.00  0.00     0.008 C 
ATOM     19  C   UNL     1      11.001 -29.077  25.485  1.00  0.00     0.012 C 
ATOM     20  C   UNL     1       9.531 -31.237  23.533  1.00  0.00    -0.025 C 
ATOM     21  C   UNL     1       7.750 -30.488  25.213  1.00  0.00     0.005 C 
ATOM     22  C   UNL     1       8.817 -31.537  24.906  1.00  0.00     0.003 C 
ATOM     23  C   UNL     1      10.891 -31.991  23.551  1.00  0.00     0.010 C 
ATOM     24  C   UNL     1       8.704 -31.730  22.309  1.00  0.00     0.012 C 
ATOM     25  C   UNL     1       8.595 -33.054  25.322  1.00  0.00    -0.006 C 
ATOM     26  C   UNL     1      10.728 -33.495  23.889  1.00  0.00     0.033 C 
ATOM     27  C   UNL     1      10.000 -33.768  25.236  1.00  0.00     0.120 C 
ATOM     28  C   UNL     1       7.530 -33.831  24.494  1.00  0.00     0.014 C 
ATOM     29  C   UNL     1       8.106 -33.121  26.803  1.00  0.00     0.014 C 
ENDROOT
BRANCH   1  30
ATOM     30  C   UNL     1      12.182 -25.333  21.545  1.00  0.00     0.048 C 
ATOM     31  O   UNL     1      12.122 -25.289  20.280  1.00  0.00    -0.550 OA
ATOM     32  O   UNL     1      13.319 -25.901  22.120  1.00  0.00    -0.550 OA
ENDBRANCH   1  30
BRANCH  27  33
ATOM     33  O   UNL     1      10.823 -33.395  26.319  1.00  0.00    -0.393 OA
ATOM     34  H   UNL     1      10.273 -33.397  27.155  1.00  0.00     0.210 HD
ENDBRANCH  27  33
TORSDOF 2
ENDMDL
