MODEL 1
REMARK VINA RESULT:    10.677      0.000      0.000
REMARK INTER + INTRA:          18.527
REMARK INTER:                  19.416
REMARK INTRA:                  -0.889
REMARK UNBOUND:                -0.889
REMARK SMILES CCCCCCCCCCCCCCCC(=O)[O-]
REMARK SMILES IDX 9 1 10 2 11 3 12 4 13 5 14 6 15 7 16 8 17 9 18 10 8 11 7 12
REMARK SMILES IDX 6 13 5 14 4 15 3 16 2 17 1 18
REMARK H PARENT
REMARK Flexibility Score: inf
ROOT
ATOM      1  C   UNL     1       9.829  77.056   4.111  1.00  0.00     0.000 C 
ENDROOT
BRANCH   1   2
ATOM      2  C   UNL     1       9.008  75.891   4.683  1.00  0.00     0.000 C 
BRANCH   2   3
ATOM      3  C   UNL     1       9.877  74.830   5.384  1.00  0.00     0.000 C 
BRANCH   3   4
ATOM      4  C   UNL     1       9.191  73.468   5.602  1.00  0.00     0.000 C 
BRANCH   4   5
ATOM      5  C   UNL     1      10.042  72.241   5.222  1.00  0.00     0.000 C 
BRANCH   5   6
ATOM      6  C   UNL     1       9.418  70.896   5.651  1.00  0.00     0.006 C 
BRANCH   6   7
ATOM      7  C   UNL     1       9.006  70.031   4.452  1.00  0.00     0.053 C 
BRANCH   7   8
ATOM      8  C   UNL     1      10.214  69.562   3.706  1.00  0.00     0.041 C 
ATOM      9  O   UNL     1      10.122  69.230   2.495  1.00  0.00    -0.550 OA
ATOM     10  O   UNL     1      11.453  69.537   4.333  1.00  0.00    -0.550 OA
ENDBRANCH   7   8
ENDBRANCH   6   7
ENDBRANCH   5   6
ENDBRANCH   4   5
ENDBRANCH   3   4
ENDBRANCH   2   3
ENDBRANCH   1   2
BRANCH   1  11
ATOM     11  C   UNL     1      11.298  76.953   4.534  1.00  0.00     0.000 C 
BRANCH  11  12
ATOM     12  C   UNL     1      12.233  77.304   3.366  1.00  0.00    -0.000 C 
BRANCH  12  13
ATOM     13  C   UNL     1      11.657  76.894   2.001  1.00  0.00    -0.000 C 
BRANCH  13  14
ATOM     14  C   UNL     1      11.971  75.430   1.644  1.00  0.00    -0.000 C 
BRANCH  14  15
ATOM     15  C   UNL     1      12.252  75.235   0.144  1.00  0.00    -0.000 C 
BRANCH  15  16
ATOM     16  C   UNL     1      11.110  74.501  -0.580  1.00  0.00    -0.000 C 
BRANCH  16  17
ATOM     17  C   UNL     1       9.824  74.443   0.259  1.00  0.00    -0.003 C 
ATOM     18  C   UNL     1       8.587  74.893  -0.519  1.00  0.00     0.004 C 
ENDBRANCH  16  17
ENDBRANCH  15  16
ENDBRANCH  14  15
ENDBRANCH  13  14
ENDBRANCH  12  13
ENDBRANCH  11  12
ENDBRANCH   1  11
TORSDOF 14
ENDMDL
MODEL 2
REMARK VINA RESULT:    12.136      4.065      8.571
REMARK INTER + INTRA:          21.179
REMARK INTER:                  21.764
REMARK INTRA:                  -0.584
REMARK UNBOUND:                -0.889
REMARK SMILES CCCCCCCCCCCCCCCC(=O)[O-]
REMARK SMILES IDX 9 1 10 2 11 3 12 4 13 5 14 6 15 7 16 8 17 9 18 10 8 11 7 12
REMARK SMILES IDX 6 13 5 14 4 15 3 16 2 17 1 18
REMARK H PARENT
REMARK Flexibility Score: inf
ROOT
ATOM      1  C   UNL     1      10.777  70.760   4.799  1.00  0.00     0.000 C 
ENDROOT
BRANCH   1   2
ATOM      2  C   UNL     1       9.891  71.304   5.929  1.00  0.00     0.000 C 
BRANCH   2   3
ATOM      3  C   UNL     1       9.083  72.549   5.514  1.00  0.00     0.000 C 
BRANCH   3   4
ATOM      4  C   UNL     1       9.887  73.863   5.479  1.00  0.00     0.000 C 
BRANCH   4   5
ATOM      5  C   UNL     1       9.177  75.043   4.790  1.00  0.00     0.000 C 
BRANCH   5   6
ATOM      6  C   UNL     1       9.769  76.422   5.151  1.00  0.00     0.006 C 
BRANCH   6   7
ATOM      7  C   UNL     1      11.285  76.367   5.387  1.00  0.00     0.053 C 
BRANCH   7   8
ATOM      8  C   UNL     1      12.009  77.111   4.311  1.00  0.00     0.041 C 
ATOM      9  O   UNL     1      12.990  77.847   4.599  1.00  0.00    -0.550 OA
ATOM     10  O   UNL     1      11.632  76.956   2.983  1.00  0.00    -0.550 OA
ENDBRANCH   7   8
ENDBRANCH   6   7
ENDBRANCH   5   6
ENDBRANCH   4   5
ENDBRANCH   3   4
ENDBRANCH   2   3
ENDBRANCH   1   2
BRANCH   1  11
ATOM     11  C   UNL     1      10.129  69.540   4.133  1.00  0.00     0.000 C 
BRANCH  11  12
ATOM     12  C   UNL     1       8.656  69.404   4.550  1.00  0.00    -0.000 C 
BRANCH  12  13
ATOM     13  C   UNL     1       8.361  68.074   5.262  1.00  0.00    -0.000 C 
BRANCH  13  14
ATOM     14  C   UNL     1       9.468  67.675   6.253  1.00  0.00    -0.000 C 
BRANCH  14  15
ATOM     15  C   UNL     1       9.001  66.618   7.267  1.00  0.00    -0.000 C 
BRANCH  15  16
ATOM     16  C   UNL     1      10.160  66.055   8.109  1.00  0.00    -0.000 C 
BRANCH  16  17
ATOM     17  C   UNL     1       9.844  64.668   8.691  1.00  0.00    -0.003 C 
ATOM     18  C   UNL     1       8.808  63.901   7.868  1.00  0.00     0.004 C 
ENDBRANCH  16  17
ENDBRANCH  15  16
ENDBRANCH  14  15
ENDBRANCH  13  14
ENDBRANCH  12  13
ENDBRANCH  11  12
ENDBRANCH   1  11
TORSDOF 14
ENDMDL
MODEL 3
REMARK VINA RESULT:    12.145      2.299      5.589
REMARK INTER + INTRA:          21.195
REMARK INTER:                  22.584
REMARK INTRA:                  -1.389
REMARK UNBOUND:                -0.889
REMARK SMILES CCCCCCCCCCCCCCCC(=O)[O-]
REMARK SMILES IDX 9 1 10 2 11 3 12 4 13 5 14 6 15 7 16 8 17 9 18 10 8 11 7 12
REMARK SMILES IDX 6 13 5 14 4 15 3 16 2 17 1 18
REMARK H PARENT
REMARK Flexibility Score: inf
ROOT
ATOM      1  C   UNL     1       8.858  75.843   4.699  1.00  0.00     0.000 C 
ENDROOT
BRANCH   1   2
ATOM      2  C   UNL     1       9.703  77.123   4.626  1.00  0.00     0.000 C 
BRANCH   2   3
ATOM      3  C   UNL     1      11.146  76.921   5.127  1.00  0.00     0.000 C 
BRANCH   3   4
ATOM      4  C   UNL     1      12.211  76.823   4.019  1.00  0.00     0.000 C 
BRANCH   4   5
ATOM      5  C   UNL     1      11.706  77.138   2.598  1.00  0.00     0.000 C 
BRANCH   5   6
ATOM      6  C   UNL     1      11.563  75.892   1.699  1.00  0.00     0.006 C 
BRANCH   6   7
ATOM      7  C   UNL     1      10.131  75.702   1.180  1.00  0.00     0.053 C 
BRANCH   7   8
ATOM      8  C   UNL     1      10.114  74.744   0.032  1.00  0.00     0.041 C 
ATOM      9  O   UNL     1      11.195  74.321  -0.456  1.00  0.00    -0.550 OA
ATOM     10  O   UNL     1       8.904  74.280  -0.468  1.00  0.00    -0.550 OA
ENDBRANCH   7   8
ENDBRANCH   6   7
ENDBRANCH   5   6
ENDBRANCH   4   5
ENDBRANCH   3   4
ENDBRANCH   2   3
ENDBRANCH   1   2
BRANCH   1  11
ATOM     11  C   UNL     1       9.504  74.811   5.631  1.00  0.00     0.000 C 
BRANCH  11  12
ATOM     12  C   UNL     1       9.570  73.430   4.961  1.00  0.00    -0.000 C 
BRANCH  12  13
ATOM     13  C   UNL     1       9.536  72.275   5.974  1.00  0.00    -0.000 C 
BRANCH  13  14
ATOM     14  C   UNL     1       9.365  70.903   5.300  1.00  0.00    -0.000 C 
BRANCH  14  15
ATOM     15  C   UNL     1      10.698  70.149   5.149  1.00  0.00    -0.000 C 
BRANCH  15  16
ATOM     16  C   UNL     1      10.842  69.474   3.774  1.00  0.00    -0.000 C 
BRANCH  16  17
ATOM     17  C   UNL     1       9.499  69.352   3.035  1.00  0.00    -0.003 C 
ATOM     18  C   UNL     1       9.550  69.915   1.615  1.00  0.00     0.004 C 
ENDBRANCH  16  17
ENDBRANCH  15  16
ENDBRANCH  14  15
ENDBRANCH  13  14
ENDBRANCH  12  13
ENDBRANCH  11  12
ENDBRANCH   1  11
TORSDOF 14
ENDMDL
MODEL 4
REMARK VINA RESULT:    13.149      3.265      5.796
REMARK INTER + INTRA:          23.021
REMARK INTER:                  23.710
REMARK INTRA:                  -0.689
REMARK UNBOUND:                -0.889
REMARK SMILES CCCCCCCCCCCCCCCC(=O)[O-]
REMARK SMILES IDX 9 1 10 2 11 3 12 4 13 5 14 6 15 7 16 8 17 9 18 10 8 11 7 12
REMARK SMILES IDX 6 13 5 14 4 15 3 16 2 17 1 18
REMARK H PARENT
REMARK Flexibility Score: inf
ROOT
ATOM      1  C   UNL     1      10.632  70.699   5.145  1.00  0.00     0.000 C 
ENDROOT
BRANCH   1   2
ATOM      2  C   UNL     1      10.281  69.576   4.158  1.00  0.00     0.000 C 
BRANCH   2   3
ATOM      3  C   UNL     1       8.770  69.284   4.091  1.00  0.00     0.000 C 
BRANCH   3   4
ATOM      4  C   UNL     1       8.275  68.195   5.062  1.00  0.00     0.000 C 
BRANCH   4   5
ATOM      5  C   UNL     1       9.372  67.543   5.926  1.00  0.00     0.000 C 
BRANCH   5   6
ATOM      6  C   UNL     1       8.947  67.296   7.389  1.00  0.00     0.006 C 
BRANCH   6   7
ATOM      7  C   UNL     1       8.509  65.847   7.637  1.00  0.00     0.053 C 
BRANCH   7   8
ATOM      8  C   UNL     1       9.637  65.051   8.211  1.00  0.00     0.041 C 
ATOM      9  O   UNL     1      10.726  65.613   8.500  1.00  0.00    -0.550 OA
ATOM     10  O   UNL     1       9.471  63.697   8.473  1.00  0.00    -0.550 OA
ENDBRANCH   7   8
ENDBRANCH   6   7
ENDBRANCH   5   6
ENDBRANCH   4   5
ENDBRANCH   3   4
ENDBRANCH   2   3
ENDBRANCH   1   2
BRANCH   1  11
ATOM     11  C   UNL     1       9.364  71.316   5.747  1.00  0.00     0.000 C 
BRANCH  11  12
ATOM     12  C   UNL     1       9.615  72.767   6.187  1.00  0.00    -0.000 C 
BRANCH  12  13
ATOM     13  C   UNL     1       9.502  73.768   5.027  1.00  0.00    -0.000 C 
BRANCH  13  14
ATOM     14  C   UNL     1       9.367  75.222   5.513  1.00  0.00    -0.000 C 
BRANCH  14  15
ATOM     15  C   UNL     1       8.886  76.174   4.404  1.00  0.00    -0.000 C 
BRANCH  15  16
ATOM     16  C   UNL     1       9.837  77.365   4.195  1.00  0.00    -0.000 C 
BRANCH  16  17
ATOM     17  C   UNL     1      11.189  76.941   3.600  1.00  0.00    -0.003 C 
ATOM     18  C   UNL     1      12.366  77.242   4.529  1.00  0.00     0.004 C 
ENDBRANCH  16  17
ENDBRANCH  15  16
ENDBRANCH  14  15
ENDBRANCH  13  14
ENDBRANCH  12  13
ENDBRANCH  11  12
ENDBRANCH   1  11
TORSDOF 14
ENDMDL
