MODEL 1
REMARK VINA RESULT:    -6.445      0.000      0.000
REMARK INTER + INTRA:          -9.097
REMARK INTER:                  -8.517
REMARK INTRA:                  -0.580
REMARK UNBOUND:                -0.580
REMARK SMILES CC[C@@H](C=C[C@H](C)[C@H]1CC[C@H]2[C@H]3CC=C4C[C@H](O)CC[C@@]4(C)[C@@H]3CC[C@@]12C)C(C)C
REMARK SMILES IDX 6 1 7 2 5 3 4 4 3 5 2 6 1 7 28 8 29 9 30 10 8 11 9 12 26 13
REMARK SMILES IDX 10 14 11 15 25 16 27 17 12 18 24 19 23 20 13 21 21 22 14 23
REMARK SMILES IDX 15 24 20 25 22 26 16 27 19 28 17 29 18 30
REMARK H PARENT 18 31
REMARK Flexibility Score: inf
ROOT
ATOM      1  C   UNL     1       9.675  -7.702  31.459  1.00  0.00     0.012 C 
ATOM      2  C   UNL     1      10.319  -6.952  32.642  1.00  0.00     0.012 C 
ENDROOT
BRANCH   1   3
ATOM      3  C   UNL     1       8.176  -7.586  31.618  1.00  0.00    -0.028 C 
ATOM      4  C   UNL     1       7.463  -8.456  32.356  1.00  0.00    -0.027 C 
BRANCH   4   5
ATOM      5  C   UNL     1       5.966  -8.311  32.560  1.00  0.00     0.014 C 
BRANCH   5   6
ATOM      6  C   UNL     1       5.507  -6.855  32.282  1.00  0.00     0.004 C 
ATOM      7  C   UNL     1       4.282  -6.449  33.105  1.00  0.00     0.004 C 
ENDBRANCH   5   6
BRANCH   5   8
ATOM      8  C   UNL     1       5.539  -8.812  33.976  1.00  0.00    -0.011 C 
ATOM      9  C   UNL     1       6.763  -9.032  34.883  1.00  0.00     0.008 C 
ATOM     10  C   UNL     1       4.723 -10.115  33.912  1.00  0.00     0.008 C 
ENDBRANCH   5   8
ENDBRANCH   4   5
ENDBRANCH   1   3
BRANCH   1  11
ATOM     11  C   UNL     1      10.067  -7.236  30.014  1.00  0.00     0.002 C 
ATOM     12  C   UNL     1       9.588  -5.837  29.607  1.00  0.00     0.005 C 
ATOM     13  C   UNL     1      11.552  -7.319  29.555  1.00  0.00    -0.026 C 
ATOM     14  C   UNL     1      10.479  -5.412  28.439  1.00  0.00     0.005 C 
ATOM     15  C   UNL     1      11.496  -6.548  28.211  1.00  0.00    -0.001 C 
ATOM     16  C   UNL     1      12.518  -6.613  30.549  1.00  0.00     0.007 C 
ATOM     17  C   UNL     1      11.978  -8.791  29.333  1.00  0.00     0.012 C 
ATOM     18  C   UNL     1      12.884  -6.110  27.639  1.00  0.00     0.000 C 
ATOM     19  C   UNL     1      13.888  -6.293  29.947  1.00  0.00     0.005 C 
ATOM     20  C   UNL     1      13.770  -5.400  28.689  1.00  0.00     0.003 C 
ATOM     21  C   UNL     1      12.705  -5.236  26.384  1.00  0.00     0.031 C 
ATOM     22  C   UNL     1      15.174  -4.969  28.097  1.00  0.00    -0.008 C 
ATOM     23  C   UNL     1      13.977  -4.607  25.903  1.00  0.00    -0.027 C 
ATOM     24  C   UNL     1      15.021  -4.328  26.711  1.00  0.00    -0.065 C 
ATOM     25  C   UNL     1      15.822  -3.922  29.060  1.00  0.00     0.014 C 
ATOM     26  C   UNL     1      16.124  -6.188  27.950  1.00  0.00     0.016 C 
ATOM     27  C   UNL     1      16.178  -3.529  26.138  1.00  0.00     0.063 C 
ATOM     28  C   UNL     1      17.053  -3.212  28.473  1.00  0.00     0.033 C 
ATOM     29  C   UNL     1      16.700  -2.513  27.159  1.00  0.00     0.118 C 
BRANCH  29  30
ATOM     30  O   UNL     1      17.846  -1.875  26.658  1.00  0.00    -0.393 OA
ATOM     31  H   UNL     1      17.660  -1.666  25.706  1.00  0.00     0.210 HD
ENDBRANCH  29  30
ENDBRANCH   1  11
TORSDOF 6
ENDMDL
MODEL 2
REMARK VINA RESULT:    -6.391     10.377     14.163
REMARK INTER + INTRA:          -9.025
REMARK INTER:                  -7.925
REMARK INTRA:                  -1.101
REMARK UNBOUND:                -0.580
REMARK SMILES CC[C@@H](C=C[C@H](C)[C@H]1CC[C@H]2[C@H]3CC=C4C[C@H](O)CC[C@@]4(C)[C@@H]3CC[C@@]12C)C(C)C
REMARK SMILES IDX 6 1 7 2 5 3 4 4 3 5 2 6 1 7 28 8 29 9 30 10 8 11 9 12 26 13
REMARK SMILES IDX 10 14 11 15 25 16 27 17 12 18 24 19 23 20 13 21 21 22 14 23
REMARK SMILES IDX 15 24 20 25 22 26 16 27 19 28 17 29 18 30
REMARK H PARENT 18 31
REMARK Flexibility Score: inf
ROOT
ATOM      1  C   UNL     1      11.782  -7.404  42.499  1.00  0.00     0.012 C 
ATOM      2  C   UNL     1      12.965  -8.317  42.877  1.00  0.00     0.012 C 
ENDROOT
BRANCH   1   3
ATOM      3  C   UNL     1      12.243  -5.975  42.680  1.00  0.00    -0.028 C 
ATOM      4  C   UNL     1      11.790  -5.195  43.677  1.00  0.00    -0.027 C 
BRANCH   4   5
ATOM      5  C   UNL     1      12.291  -3.778  43.891  1.00  0.00     0.014 C 
BRANCH   5   6
ATOM      6  C   UNL     1      13.384  -3.738  44.992  1.00  0.00     0.004 C 
ATOM      7  C   UNL     1      14.790  -3.994  44.446  1.00  0.00     0.004 C 
ENDBRANCH   5   6
BRANCH   5   8
ATOM      8  C   UNL     1      11.110  -2.802  44.187  1.00  0.00    -0.011 C 
ATOM      9  C   UNL     1      10.988  -2.510  45.694  1.00  0.00     0.008 C 
ATOM     10  C   UNL     1       9.764  -3.343  43.672  1.00  0.00     0.008 C 
ENDBRANCH   5   8
ENDBRANCH   4   5
ENDBRANCH   1   3
BRANCH   1  11
ATOM     11  C   UNL     1      11.183  -7.563  41.058  1.00  0.00     0.002 C 
ATOM     12  C   UNL     1      11.821  -8.647  40.182  1.00  0.00     0.005 C 
ATOM     13  C   UNL     1       9.646  -7.732  40.879  1.00  0.00    -0.026 C 
ATOM     14  C   UNL     1      10.796  -8.962  39.091  1.00  0.00     0.005 C 
ATOM     15  C   UNL     1       9.555  -8.092  39.374  1.00  0.00    -0.001 C 
ATOM     16  C   UNL     1       9.072  -8.885  41.751  1.00  0.00     0.007 C 
ATOM     17  C   UNL     1       8.907  -6.403  41.177  1.00  0.00     0.012 C 
ATOM     18  C   UNL     1       8.187  -8.694  38.916  1.00  0.00     0.000 C 
ATOM     19  C   UNL     1       7.691  -9.365  41.298  1.00  0.00     0.005 C 
ATOM     20  C   UNL     1       7.702  -9.846  39.828  1.00  0.00     0.003 C 
ATOM     21  C   UNL     1       8.253  -9.143  37.445  1.00  0.00     0.031 C 
ATOM     22  C   UNL     1       6.313 -10.440  39.357  1.00  0.00    -0.008 C 
ATOM     23  C   UNL     1       7.052  -9.919  36.998  1.00  0.00    -0.027 C 
ATOM     24  C   UNL     1       6.281 -10.644  37.835  1.00  0.00    -0.065 C 
ATOM     25  C   UNL     1       6.102 -11.826  40.048  1.00  0.00     0.014 C 
ATOM     26  C   UNL     1       5.138  -9.496  39.729  1.00  0.00     0.016 C 
ATOM     27  C   UNL     1       5.202 -11.527  37.234  1.00  0.00     0.063 C 
ATOM     28  C   UNL     1       4.932 -12.641  39.471  1.00  0.00     0.033 C 
ATOM     29  C   UNL     1       5.119 -12.868  37.970  1.00  0.00     0.118 C 
BRANCH  29  30
ATOM     30  O   UNL     1       4.036 -13.616  37.483  1.00  0.00    -0.393 OA
ATOM     31  H   UNL     1       4.422 -14.391  36.997  1.00  0.00     0.210 HD
ENDBRANCH  29  30
ENDBRANCH   1  11
TORSDOF 6
ENDMDL
MODEL 3
REMARK VINA RESULT:    -6.258      9.370     12.906
REMARK INTER + INTRA:          -8.851
REMARK INTER:                  -7.899
REMARK INTRA:                  -0.952
REMARK UNBOUND:                -0.580
REMARK SMILES CC[C@@H](C=C[C@H](C)[C@H]1CC[C@H]2[C@H]3CC=C4C[C@H](O)CC[C@@]4(C)[C@@H]3CC[C@@]12C)C(C)C
REMARK SMILES IDX 6 1 7 2 5 3 4 4 3 5 2 6 1 7 28 8 29 9 30 10 8 11 9 12 26 13
REMARK SMILES IDX 10 14 11 15 25 16 27 17 12 18 24 19 23 20 13 21 21 22 14 23
REMARK SMILES IDX 15 24 20 25 22 26 16 27 19 28 17 29 18 30
REMARK H PARENT 18 31
REMARK Flexibility Score: inf
ROOT
ATOM      1  C   UNL     1       8.569  -9.161  37.597  1.00  0.00     0.012 C 
ATOM      2  C   UNL     1       9.050  -9.522  36.178  1.00  0.00     0.012 C 
ENDROOT
BRANCH   1   3
ATOM      3  C   UNL     1       7.541 -10.196  37.997  1.00  0.00    -0.028 C 
ATOM      4  C   UNL     1       6.225  -9.922  38.041  1.00  0.00    -0.027 C 
BRANCH   4   5
ATOM      5  C   UNL     1       5.188 -10.973  38.390  1.00  0.00     0.014 C 
BRANCH   5   6
ATOM      6  C   UNL     1       4.285 -11.289  37.169  1.00  0.00     0.004 C 
ATOM      7  C   UNL     1       4.666 -10.487  35.923  1.00  0.00     0.004 C 
ENDBRANCH   5   6
BRANCH   5   8
ATOM      8  C   UNL     1       4.364 -10.555  39.649  1.00  0.00    -0.011 C 
ATOM      9  C   UNL     1       4.777  -9.159  40.149  1.00  0.00     0.008 C 
ATOM     10  C   UNL     1       4.510 -11.562  40.802  1.00  0.00     0.008 C 
ENDBRANCH   5   8
ENDBRANCH   4   5
ENDBRANCH   1   3
BRANCH   1  11
ATOM     11  C   UNL     1       9.656  -9.069  38.723  1.00  0.00     0.002 C 
ATOM     12  C   UNL     1      10.903  -8.243  38.386  1.00  0.00     0.005 C 
ATOM     13  C   UNL     1       9.241  -8.631  40.158  1.00  0.00    -0.026 C 
ATOM     14  C   UNL     1      11.537  -7.874  39.728  1.00  0.00     0.005 C 
ATOM     15  C   UNL     1      10.626  -8.448  40.830  1.00  0.00    -0.001 C 
ATOM     16  C   UNL     1       8.451  -7.291  40.162  1.00  0.00     0.007 C 
ATOM     17  C   UNL     1       8.426  -9.746  40.860  1.00  0.00     0.012 C 
ATOM     18  C   UNL     1      10.610  -7.654  42.178  1.00  0.00     0.000 C 
ATOM     19  C   UNL     1       8.403  -6.614  41.534  1.00  0.00     0.005 C 
ATOM     20  C   UNL     1       9.820  -6.328  42.085  1.00  0.00     0.003 C 
ATOM     21  C   UNL     1      12.044  -7.410  42.684  1.00  0.00     0.031 C 
ATOM     22  C   UNL     1       9.806  -5.540  43.458  1.00  0.00    -0.008 C 
ATOM     23  C   UNL     1      12.118  -6.479  43.855  1.00  0.00    -0.027 C 
ATOM     24  C   UNL     1      11.200  -5.522  44.104  1.00  0.00    -0.065 C 
ATOM     25  C   UNL     1       9.367  -4.065  43.184  1.00  0.00     0.014 C 
ATOM     26  C   UNL     1       8.826  -6.187  44.473  1.00  0.00     0.016 C 
ATOM     27  C   UNL     1      11.481  -4.529  45.217  1.00  0.00     0.063 C 
ATOM     28  C   UNL     1       9.578  -3.117  44.376  1.00  0.00     0.033 C 
ATOM     29  C   UNL     1      11.044  -3.116  44.814  1.00  0.00     0.118 C 
BRANCH  29  30
ATOM     30  O   UNL     1      11.196  -2.240  45.900  1.00  0.00    -0.393 OA
ATOM     31  H   UNL     1      10.453  -2.437  46.528  1.00  0.00     0.210 HD
ENDBRANCH  29  30
ENDBRANCH   1  11
TORSDOF 6
ENDMDL
MODEL 4
REMARK VINA RESULT:    -6.162      7.981     11.813
REMARK INTER + INTRA:          -8.723
REMARK INTER:                  -8.247
REMARK INTRA:                  -0.476
REMARK UNBOUND:                -0.580
REMARK SMILES CC[C@@H](C=C[C@H](C)[C@H]1CC[C@H]2[C@H]3CC=C4C[C@H](O)CC[C@@]4(C)[C@@H]3CC[C@@]12C)C(C)C
REMARK SMILES IDX 6 1 7 2 5 3 4 4 3 5 2 6 1 7 28 8 29 9 30 10 8 11 9 12 26 13
REMARK SMILES IDX 10 14 11 15 25 16 27 17 12 18 24 19 23 20 13 21 21 22 14 23
REMARK SMILES IDX 15 24 20 25 22 26 16 27 19 28 17 29 18 30
REMARK H PARENT 18 31
REMARK Flexibility Score: inf
ROOT
ATOM      1  C   UNL     1       8.943  -6.966  43.514  1.00  0.00     0.012 C 
ATOM      2  C   UNL     1       9.912  -7.761  44.410  1.00  0.00     0.012 C 
ENDROOT
BRANCH   1   3
ATOM      3  C   UNL     1       9.611  -5.649  43.187  1.00  0.00    -0.028 C 
ATOM      4  C   UNL     1      10.712  -5.224  43.831  1.00  0.00    -0.027 C 
BRANCH   4   5
ATOM      5  C   UNL     1      11.416  -3.929  43.468  1.00  0.00     0.014 C 
BRANCH   5   6
ATOM      6  C   UNL     1      12.953  -4.128  43.419  1.00  0.00     0.004 C 
ATOM      7  C   UNL     1      13.362  -5.464  42.795  1.00  0.00     0.004 C 
ENDBRANCH   5   6
BRANCH   5   8
ATOM      8  C   UNL     1      10.993  -2.771  44.426  1.00  0.00    -0.011 C 
ATOM      9  C   UNL     1      11.974  -2.634  45.605  1.00  0.00     0.008 C 
ATOM     10  C   UNL     1       9.570  -2.963  44.980  1.00  0.00     0.008 C 
ENDBRANCH   5   8
ENDBRANCH   4   5
ENDBRANCH   1   3
BRANCH   1  11
ATOM     11  C   UNL     1       8.481  -7.643  42.177  1.00  0.00     0.002 C 
ATOM     12  C   UNL     1       7.683  -6.755  41.215  1.00  0.00     0.005 C 
ATOM     13  C   UNL     1       9.524  -8.386  41.291  1.00  0.00    -0.026 C 
ATOM     14  C   UNL     1       7.793  -7.418  39.842  1.00  0.00     0.005 C 
ATOM     15  C   UNL     1       8.692  -8.658  40.011  1.00  0.00    -0.001 C 
ATOM     16  C   UNL     1      10.758  -7.499  40.961  1.00  0.00     0.007 C 
ATOM     17  C   UNL     1       9.967  -9.713  41.958  1.00  0.00     0.012 C 
ATOM     18  C   UNL     1       9.526  -9.067  38.753  1.00  0.00     0.000 C 
ATOM     19  C   UNL     1      11.577  -8.008  39.773  1.00  0.00     0.005 C 
ATOM     20  C   UNL     1      10.721  -8.121  38.490  1.00  0.00     0.003 C 
ATOM     21  C   UNL     1       8.622  -9.176  37.511  1.00  0.00     0.031 C 
ATOM     22  C   UNL     1      11.559  -8.552  37.218  1.00  0.00    -0.008 C 
ATOM     23  C   UNL     1       9.378  -9.357  36.230  1.00  0.00    -0.027 C 
ATOM     24  C   UNL     1      10.641  -8.920  36.044  1.00  0.00    -0.065 C 
ATOM     25  C   UNL     1      12.463  -7.352  36.785  1.00  0.00     0.014 C 
ATOM     26  C   UNL     1      12.453  -9.785  37.520  1.00  0.00     0.016 C 
ATOM     27  C   UNL     1      11.231  -9.005  34.647  1.00  0.00     0.063 C 
ATOM     28  C   UNL     1      13.120  -7.530  35.406  1.00  0.00     0.033 C 
ATOM     29  C   UNL     1      12.060  -7.757  34.327  1.00  0.00     0.118 C 
BRANCH  29  30
ATOM     30  O   UNL     1      12.698  -7.912  33.086  1.00  0.00    -0.393 OA
ATOM     31  H   UNL     1      11.981  -8.047  32.413  1.00  0.00     0.210 HD
ENDBRANCH  29  30
ENDBRANCH   1  11
TORSDOF 6
ENDMDL
MODEL 5
REMARK VINA RESULT:    -6.139     12.565     16.441
REMARK INTER + INTRA:          -8.693
REMARK INTER:                  -7.622
REMARK INTRA:                  -1.072
REMARK UNBOUND:                -0.580
REMARK SMILES CC[C@@H](C=C[C@H](C)[C@H]1CC[C@H]2[C@H]3CC=C4C[C@H](O)CC[C@@]4(C)[C@@H]3CC[C@@]12C)C(C)C
REMARK SMILES IDX 6 1 7 2 5 3 4 4 3 5 2 6 1 7 28 8 29 9 30 10 8 11 9 12 26 13
REMARK SMILES IDX 10 14 11 15 25 16 27 17 12 18 24 19 23 20 13 21 21 22 14 23
REMARK SMILES IDX 15 24 20 25 22 26 16 27 19 28 17 29 18 30
REMARK H PARENT 18 31
REMARK Flexibility Score: inf
ROOT
ATOM      1  C   UNL     1       5.317 -15.981  44.619  1.00  0.00     0.012 C 
ATOM      2  C   UNL     1       5.351 -15.619  46.117  1.00  0.00     0.012 C 
ENDROOT
BRANCH   1   3
ATOM      3  C   UNL     1       4.502 -17.247  44.483  1.00  0.00    -0.028 C 
ATOM      4  C   UNL     1       4.957 -18.327  43.823  1.00  0.00    -0.027 C 
BRANCH   4   5
ATOM      5  C   UNL     1       4.162 -19.617  43.731  1.00  0.00     0.014 C 
BRANCH   5   6
ATOM      6  C   UNL     1       4.633 -20.635  44.802  1.00  0.00     0.004 C 
ATOM      7  C   UNL     1       6.004 -20.292  45.389  1.00  0.00     0.004 C 
ENDBRANCH   5   6
BRANCH   5   8
ATOM      8  C   UNL     1       4.210 -20.206  42.286  1.00  0.00    -0.011 C 
ATOM      9  C   UNL     1       4.602 -21.694  42.301  1.00  0.00     0.008 C 
ATOM     10  C   UNL     1       5.188 -19.440  41.377  1.00  0.00     0.008 C 
ENDBRANCH   5   8
ENDBRANCH   4   5
ENDBRANCH   1   3
BRANCH   1  11
ATOM     11  C   UNL     1       4.745 -14.904  43.632  1.00  0.00     0.002 C 
ATOM     12  C   UNL     1       3.880 -13.807  44.263  1.00  0.00     0.005 C 
ATOM     13  C   UNL     1       5.708 -14.167  42.657  1.00  0.00    -0.026 C 
ATOM     14  C   UNL     1       3.875 -12.650  43.264  1.00  0.00     0.005 C 
ATOM     15  C   UNL     1       4.776 -13.068  42.085  1.00  0.00    -0.001 C 
ATOM     16  C   UNL     1       6.919 -13.526  43.393  1.00  0.00     0.007 C 
ATOM     17  C   UNL     1       6.193 -15.121  41.536  1.00  0.00     0.012 C 
ATOM     18  C   UNL     1       5.503 -11.901  41.341  1.00  0.00     0.000 C 
ATOM     19  C   UNL     1       7.637 -12.454  42.571  1.00  0.00     0.005 C 
ATOM     20  C   UNL     1       6.680 -11.312  42.153  1.00  0.00     0.003 C 
ATOM     21  C   UNL     1       4.502 -10.802  40.940  1.00  0.00     0.031 C 
ATOM     22  C   UNL     1       7.412 -10.137  41.385  1.00  0.00    -0.008 C 
ATOM     23  C   UNL     1       5.153  -9.560  40.412  1.00  0.00    -0.027 C 
ATOM     24  C   UNL     1       6.400  -9.171  40.751  1.00  0.00    -0.065 C 
ATOM     25  C   UNL     1       8.286  -9.339  42.405  1.00  0.00     0.014 C 
ATOM     26  C   UNL     1       8.317 -10.682  40.248  1.00  0.00     0.016 C 
ATOM     27  C   UNL     1       6.876  -7.805  40.290  1.00  0.00     0.063 C 
ATOM     28  C   UNL     1       8.830  -8.009  41.858  1.00  0.00     0.033 C 
ATOM     29  C   UNL     1       7.686  -7.109  41.389  1.00  0.00     0.118 C 
BRANCH  29  30
ATOM     30  O   UNL     1       8.222  -5.907  40.900  1.00  0.00    -0.393 OA
ATOM     31  H   UNL     1       8.889  -6.155  40.209  1.00  0.00     0.210 HD
ENDBRANCH  29  30
ENDBRANCH   1  11
TORSDOF 6
ENDMDL
MODEL 6
REMARK VINA RESULT:    -6.061     11.880     14.805
REMARK INTER + INTRA:          -8.590
REMARK INTER:                  -7.545
REMARK INTRA:                  -1.045
REMARK UNBOUND:                -0.580
REMARK SMILES CC[C@@H](C=C[C@H](C)[C@H]1CC[C@H]2[C@H]3CC=C4C[C@H](O)CC[C@@]4(C)[C@@H]3CC[C@@]12C)C(C)C
REMARK SMILES IDX 6 1 7 2 5 3 4 4 3 5 2 6 1 7 28 8 29 9 30 10 8 11 9 12 26 13
REMARK SMILES IDX 10 14 11 15 25 16 27 17 12 18 24 19 23 20 13 21 21 22 14 23
REMARK SMILES IDX 15 24 20 25 22 26 16 27 19 28 17 29 18 30
REMARK H PARENT 18 31
REMARK Flexibility Score: inf
ROOT
ATOM      1  C   UNL     1      11.371  -7.295  42.723  1.00  0.00     0.012 C 
ATOM      2  C   UNL     1      12.311  -7.273  41.503  1.00  0.00     0.012 C 
ENDROOT
BRANCH   1   3
ATOM      3  C   UNL     1      11.763  -6.135  43.612  1.00  0.00    -0.028 C 
ATOM      4  C   UNL     1      12.029  -4.913  43.120  1.00  0.00    -0.027 C 
BRANCH   4   5
ATOM      5  C   UNL     1      12.370  -3.735  44.015  1.00  0.00     0.014 C 
BRANCH   5   6
ATOM      6  C   UNL     1      12.998  -4.216  45.349  1.00  0.00     0.004 C 
ATOM      7  C   UNL     1      14.440  -3.737  45.537  1.00  0.00     0.004 C 
ENDBRANCH   5   6
BRANCH   5   8
ATOM      8  C   UNL     1      11.126  -2.817  44.237  1.00  0.00    -0.011 C 
ATOM      9  C   UNL     1      10.836  -2.620  45.736  1.00  0.00     0.008 C 
ATOM     10  C   UNL     1       9.864  -3.371  43.552  1.00  0.00     0.008 C 
ENDBRANCH   5   8
ENDBRANCH   4   5
ENDBRANCH   1   3
BRANCH   1  11
ATOM     11  C   UNL     1       9.829  -7.219  42.445  1.00  0.00     0.002 C 
ATOM     12  C   UNL     1       9.408  -6.396  41.223  1.00  0.00     0.005 C 
ATOM     13  C   UNL     1       8.996  -8.532  42.372  1.00  0.00    -0.026 C 
ATOM     14  C   UNL     1       8.000  -6.871  40.862  1.00  0.00     0.005 C 
ATOM     15  C   UNL     1       7.638  -7.998  41.849  1.00  0.00    -0.001 C 
ATOM     16  C   UNL     1       9.599  -9.560  41.373  1.00  0.00     0.007 C 
ATOM     17  C   UNL     1       8.839  -9.164  43.778  1.00  0.00     0.012 C 
ATOM     18  C   UNL     1       6.661  -9.090  41.302  1.00  0.00     0.000 C 
ATOM     19  C   UNL     1       8.612 -10.651  40.949  1.00  0.00     0.005 C 
ATOM     20  C   UNL     1       7.339 -10.056  40.302  1.00  0.00     0.003 C 
ATOM     21  C   UNL     1       5.409  -8.442  40.683  1.00  0.00     0.031 C 
ATOM     22  C   UNL     1       6.341 -11.160  39.763  1.00  0.00    -0.008 C 
ATOM     23  C   UNL     1       4.529  -9.410  39.953  1.00  0.00    -0.027 C 
ATOM     24  C   UNL     1       4.983 -10.548  39.388  1.00  0.00    -0.065 C 
ATOM     25  C   UNL     1       6.961 -11.813  38.486  1.00  0.00     0.014 C 
ATOM     26  C   UNL     1       6.083 -12.259  40.829  1.00  0.00     0.016 C 
ATOM     27  C   UNL     1       4.027 -11.352  38.525  1.00  0.00     0.063 C 
ATOM     28  C   UNL     1       5.982 -12.701  37.700  1.00  0.00     0.033 C 
ATOM     29  C   UNL     1       4.741 -11.906  37.288  1.00  0.00     0.118 C 
BRANCH  29  30
ATOM     30  O   UNL     1       3.876 -12.748  36.572  1.00  0.00    -0.393 OA
ATOM     31  H   UNL     1       4.379 -13.584  36.393  1.00  0.00     0.210 HD
ENDBRANCH  29  30
ENDBRANCH   1  11
TORSDOF 6
ENDMDL
MODEL 7
REMARK VINA RESULT:    -6.045      4.231      6.447
REMARK INTER + INTRA:          -8.569
REMARK INTER:                  -7.235
REMARK INTRA:                  -1.334
REMARK UNBOUND:                -0.580
REMARK SMILES CC[C@@H](C=C[C@H](C)[C@H]1CC[C@H]2[C@H]3CC=C4C[C@H](O)CC[C@@]4(C)[C@@H]3CC[C@@]12C)C(C)C
REMARK SMILES IDX 6 1 7 2 5 3 4 4 3 5 2 6 1 7 28 8 29 9 30 10 8 11 9 12 26 13
REMARK SMILES IDX 10 14 11 15 25 16 27 17 12 18 24 19 23 20 13 21 21 22 14 23
REMARK SMILES IDX 15 24 20 25 22 26 16 27 19 28 17 29 18 30
REMARK H PARENT 18 31
REMARK Flexibility Score: inf
ROOT
ATOM      1  C   UNL     1       7.287  -7.844  30.526  1.00  0.00     0.012 C 
ATOM      2  C   UNL     1       6.339  -6.996  31.395  1.00  0.00     0.012 C 
ENDROOT
BRANCH   1   3
ATOM      3  C   UNL     1       6.685  -7.913  29.140  1.00  0.00    -0.028 C 
ATOM      4  C   UNL     1       7.439  -7.873  28.027  1.00  0.00    -0.027 C 
BRANCH   4   5
ATOM      5  C   UNL     1       6.841  -7.995  26.637  1.00  0.00     0.014 C 
BRANCH   5   6
ATOM      6  C   UNL     1       5.329  -7.647  26.652  1.00  0.00     0.004 C 
ATOM      7  C   UNL     1       5.003  -6.370  25.875  1.00  0.00     0.004 C 
ENDBRANCH   5   6
BRANCH   5   8
ATOM      8  C   UNL     1       7.124  -9.403  26.024  1.00  0.00    -0.011 C 
ATOM      9  C   UNL     1       5.956 -10.371  26.283  1.00  0.00     0.008 C 
ATOM     10  C   UNL     1       8.420 -10.026  26.571  1.00  0.00     0.008 C 
ENDBRANCH   5   8
ENDBRANCH   4   5
ENDBRANCH   1   3
BRANCH   1  11
ATOM     11  C   UNL     1       8.775  -7.363  30.406  1.00  0.00     0.002 C 
ATOM     12  C   UNL     1       9.021  -5.872  30.662  1.00  0.00     0.005 C 
ATOM     13  C   UNL     1       9.891  -8.111  31.193  1.00  0.00    -0.026 C 
ATOM     14  C   UNL     1      10.508  -5.742  30.994  1.00  0.00     0.005 C 
ATOM     15  C   UNL     1      11.100  -7.165  30.975  1.00  0.00    -0.001 C 
ATOM     16  C   UNL     1       9.563  -8.237  32.708  1.00  0.00     0.007 C 
ATOM     17  C   UNL     1      10.159  -9.506  30.575  1.00  0.00     0.012 C 
ATOM     18  C   UNL     1      12.314  -7.408  31.930  1.00  0.00     0.000 C 
ATOM     19  C   UNL     1      10.784  -8.562  33.572  1.00  0.00     0.005 C 
ATOM     20  C   UNL     1      11.898  -7.500  33.417  1.00  0.00     0.003 C 
ATOM     21  C   UNL     1      13.395  -6.331  31.723  1.00  0.00     0.031 C 
ATOM     22  C   UNL     1      13.136  -7.754  34.372  1.00  0.00    -0.008 C 
ATOM     23  C   UNL     1      14.490  -6.374  32.745  1.00  0.00    -0.027 C 
ATOM     24  C   UNL     1      14.323  -6.855  33.994  1.00  0.00    -0.065 C 
ATOM     25  C   UNL     1      12.711  -7.424  35.839  1.00  0.00     0.014 C 
ATOM     26  C   UNL     1      13.618  -9.227  34.295  1.00  0.00     0.016 C 
ATOM     27  C   UNL     1      15.457  -6.679  34.989  1.00  0.00     0.063 C 
ATOM     28  C   UNL     1      13.885  -7.357  36.830  1.00  0.00     0.033 C 
ATOM     29  C   UNL     1      14.916  -6.322  36.377  1.00  0.00     0.118 C 
BRANCH  29  30
ATOM     30  O   UNL     1      15.968  -6.288  37.307  1.00  0.00    -0.393 OA
ATOM     31  H   UNL     1      15.744  -6.951  38.011  1.00  0.00     0.210 HD
ENDBRANCH  29  30
ENDBRANCH   1  11
TORSDOF 6
ENDMDL
MODEL 8
REMARK VINA RESULT:    -5.965     17.790     21.127
REMARK INTER + INTRA:          -8.463
REMARK INTER:                  -7.495
REMARK INTRA:                  -0.969
REMARK UNBOUND:                -0.580
REMARK SMILES CC[C@@H](C=C[C@H](C)[C@H]1CC[C@H]2[C@H]3CC=C4C[C@H](O)CC[C@@]4(C)[C@@H]3CC[C@@]12C)C(C)C
REMARK SMILES IDX 6 1 7 2 5 3 4 4 3 5 2 6 1 7 28 8 29 9 30 10 8 11 9 12 26 13
REMARK SMILES IDX 10 14 11 15 25 16 27 17 12 18 24 19 23 20 13 21 21 22 14 23
REMARK SMILES IDX 15 24 20 25 22 26 16 27 19 28 17 29 18 30
REMARK H PARENT 18 31
REMARK Flexibility Score: inf
ROOT
ATOM      1  C   UNL     1      19.596 -16.979  42.198  1.00  0.00     0.012 C 
ATOM      2  C   UNL     1      18.871 -15.625  42.323  1.00  0.00     0.012 C 
ENDROOT
BRANCH   1   3
ATOM      3  C   UNL     1      20.988 -16.796  42.760  1.00  0.00    -0.028 C 
ATOM      4  C   UNL     1      21.399 -15.633  43.296  1.00  0.00    -0.027 C 
BRANCH   4   5
ATOM      5  C   UNL     1      22.777 -15.464  43.909  1.00  0.00     0.014 C 
BRANCH   5   6
ATOM      6  C   UNL     1      22.674 -15.057  45.402  1.00  0.00     0.004 C 
ATOM      7  C   UNL     1      21.233 -15.047  45.919  1.00  0.00     0.004 C 
ENDBRANCH   5   6
BRANCH   5   8
ATOM      8  C   UNL     1      23.644 -14.466  43.078  1.00  0.00    -0.011 C 
ATOM      9  C   UNL     1      24.012 -13.220  43.904  1.00  0.00     0.008 C 
ATOM     10  C   UNL     1      22.940 -14.019  41.785  1.00  0.00     0.008 C 
ENDBRANCH   5   8
ENDBRANCH   4   5
ENDBRANCH   1   3
BRANCH   1  11
ATOM     11  C   UNL     1      18.931 -18.218  42.893  1.00  0.00     0.002 C 
ATOM     12  C   UNL     1      18.368 -17.977  44.299  1.00  0.00     0.005 C 
ATOM     13  C   UNL     1      17.835 -19.026  42.137  1.00  0.00    -0.026 C 
ATOM     14  C   UNL     1      17.362 -19.102  44.546  1.00  0.00     0.005 C 
ATOM     15  C   UNL     1      17.317 -19.956  43.264  1.00  0.00    -0.001 C 
ATOM     16  C   UNL     1      16.689 -18.118  41.608  1.00  0.00     0.007 C 
ATOM     17  C   UNL     1      18.458 -19.849  40.982  1.00  0.00     0.012 C 
ATOM     18  C   UNL     1      15.952 -20.661  42.968  1.00  0.00     0.000 C 
ATOM     19  C   UNL     1      15.414 -18.887  41.256  1.00  0.00     0.005 C 
ATOM     20  C   UNL     1      14.867 -19.681  42.465  1.00  0.00     0.003 C 
ATOM     21  C   UNL     1      15.464 -21.444  44.200  1.00  0.00     0.031 C 
ATOM     22  C   UNL     1      13.494 -20.409  42.162  1.00  0.00    -0.008 C 
ATOM     23  C   UNL     1      14.068 -21.970  44.063  1.00  0.00    -0.027 C 
ATOM     24  C   UNL     1      13.131 -21.399  43.278  1.00  0.00    -0.065 C 
ATOM     25  C   UNL     1      12.366 -19.331  42.068  1.00  0.00     0.014 C 
ATOM     26  C   UNL     1      13.557 -21.204  40.830  1.00  0.00     0.016 C 
ATOM     27  C   UNL     1      11.707 -21.921  43.364  1.00  0.00     0.063 C 
ATOM     28  C   UNL     1      10.943 -19.914  42.056  1.00  0.00     0.033 C 
ATOM     29  C   UNL     1      10.698 -20.769  43.301  1.00  0.00     0.118 C 
BRANCH  29  30
ATOM     30  O   UNL     1       9.391 -21.280  43.254  1.00  0.00    -0.393 OA
ATOM     31  H   UNL     1       8.789 -20.503  43.111  1.00  0.00     0.210 HD
ENDBRANCH  29  30
ENDBRANCH   1  11
TORSDOF 6
ENDMDL
MODEL 9
REMARK VINA RESULT:    -5.963     12.295     16.056
REMARK INTER + INTRA:          -8.461
REMARK INTER:                  -7.249
REMARK INTRA:                  -1.211
REMARK UNBOUND:                -0.580
REMARK SMILES CC[C@@H](C=C[C@H](C)[C@H]1CC[C@H]2[C@H]3CC=C4C[C@H](O)CC[C@@]4(C)[C@@H]3CC[C@@]12C)C(C)C
REMARK SMILES IDX 6 1 7 2 5 3 4 4 3 5 2 6 1 7 28 8 29 9 30 10 8 11 9 12 26 13
REMARK SMILES IDX 10 14 11 15 25 16 27 17 12 18 24 19 23 20 13 21 21 22 14 23
REMARK SMILES IDX 15 24 20 25 22 26 16 27 19 28 17 29 18 30
REMARK H PARENT 18 31
REMARK Flexibility Score: inf
ROOT
ATOM      1  C   UNL     1      11.286  -3.954  43.868  1.00  0.00     0.012 C 
ATOM      2  C   UNL     1      10.610  -2.596  44.136  1.00  0.00     0.012 C 
ENDROOT
BRANCH   1   3
ATOM      3  C   UNL     1      12.674  -3.890  44.467  1.00  0.00    -0.028 C 
ATOM      4  C   UNL     1      13.778  -4.159  43.749  1.00  0.00    -0.027 C 
BRANCH   4   5
ATOM      5  C   UNL     1      15.174  -4.043  44.333  1.00  0.00     0.014 C 
BRANCH   5   6
ATOM      6  C   UNL     1      16.252  -4.182  43.226  1.00  0.00     0.004 C 
ATOM      7  C   UNL     1      15.710  -4.812  41.941  1.00  0.00     0.004 C 
ENDBRANCH   5   6
BRANCH   5   8
ATOM      8  C   UNL     1      15.383  -5.060  45.499  1.00  0.00    -0.011 C 
ATOM      9  C   UNL     1      16.833  -5.033  46.014  1.00  0.00     0.008 C 
ATOM     10  C   UNL     1      15.026  -6.500  45.088  1.00  0.00     0.008 C 
ENDBRANCH   5   8
ENDBRANCH   4   5
ENDBRANCH   1   3
BRANCH   1  11
ATOM     11  C   UNL     1      10.562  -5.237  44.409  1.00  0.00     0.002 C 
ATOM     12  C   UNL     1       9.184  -5.013  45.042  1.00  0.00     0.005 C 
ATOM     13  C   UNL     1      10.399  -6.476  43.481  1.00  0.00    -0.026 C 
ATOM     14  C   UNL     1       8.484  -6.372  45.015  1.00  0.00     0.005 C 
ATOM     15  C   UNL     1       9.444  -7.360  44.324  1.00  0.00    -0.001 C 
ATOM     16  C   UNL     1       9.744  -6.112  42.118  1.00  0.00     0.007 C 
ATOM     17  C   UNL     1      11.760  -7.182  43.261  1.00  0.00     0.012 C 
ATOM     18  C   UNL     1       8.764  -8.533  43.544  1.00  0.00     0.000 C 
ATOM     19  C   UNL     1       9.177  -7.320  41.370  1.00  0.00     0.005 C 
ATOM     20  C   UNL     1       8.123  -8.077  42.213  1.00  0.00     0.003 C 
ATOM     21  C   UNL     1       7.736  -9.255  44.434  1.00  0.00     0.031 C 
ATOM     22  C   UNL     1       7.445  -9.275  41.431  1.00  0.00    -0.008 C 
ATOM     23  C   UNL     1       6.896 -10.252  43.695  1.00  0.00    -0.027 C 
ATOM     24  C   UNL     1       6.622 -10.162  42.377  1.00  0.00    -0.065 C 
ATOM     25  C   UNL     1       6.488  -8.687  40.345  1.00  0.00     0.014 C 
ATOM     26  C   UNL     1       8.507 -10.177  40.746  1.00  0.00     0.016 C 
ATOM     27  C   UNL     1       5.615 -11.132  41.786  1.00  0.00     0.063 C 
ATOM     28  C   UNL     1       5.557  -9.727  39.702  1.00  0.00     0.033 C 
ATOM     29  C   UNL     1       4.712 -10.429  40.767  1.00  0.00     0.118 C 
BRANCH  29  30
ATOM     30  O   UNL     1       3.875 -11.367  40.141  1.00  0.00    -0.393 OA
ATOM     31  H   UNL     1       3.682 -11.012  39.234  1.00  0.00     0.210 HD
ENDBRANCH  29  30
ENDBRANCH   1  11
TORSDOF 6
ENDMDL
