MODEL 1
REMARK VINA RESULT:    -4.156      0.000      0.000
REMARK INTER + INTRA:          -9.837
REMARK INTER:                  -7.557
REMARK INTRA:                  -2.281
REMARK UNBOUND:                -2.281
REMARK SMILES CCCCCCCCCCCCCCCC(=O)[O-]
REMARK SMILES IDX 9 1 10 2 11 3 12 4 13 5 14 6 15 7 16 8 17 9 18 10 8 11 7 12
REMARK SMILES IDX 6 13 5 14 4 15 3 16 2 17 1 18
REMARK H PARENT
REMARK Flexibility Score: inf
ROOT
ATOM      1  C   UNL     1      16.580  29.558  71.722  1.00  0.00     0.000 C 
ENDROOT
BRANCH   1   2
ATOM      2  C   UNL     1      15.338  29.195  70.889  1.00  0.00     0.000 C 
BRANCH   2   3
ATOM      3  C   UNL     1      14.814  30.383  70.067  1.00  0.00     0.000 C 
BRANCH   3   4
ATOM      4  C   UNL     1      14.679  30.051  68.570  1.00  0.00     0.000 C 
BRANCH   4   5
ATOM      5  C   UNL     1      15.533  30.969  67.682  1.00  0.00     0.000 C 
BRANCH   5   6
ATOM      6  C   UNL     1      15.702  32.377  68.280  1.00  0.00     0.006 C 
BRANCH   6   7
ATOM      7  C   UNL     1      15.262  33.476  67.304  1.00  0.00     0.053 C 
BRANCH   7   8
ATOM      8  C   UNL     1      14.009  34.156  67.763  1.00  0.00     0.041 C 
ATOM      9  O   UNL     1      13.123  33.505  68.378  1.00  0.00    -0.550 OA
ATOM     10  O   UNL     1      13.803  35.500  67.480  1.00  0.00    -0.550 OA
ENDBRANCH   7   8
ENDBRANCH   6   7
ENDBRANCH   5   6
ENDBRANCH   4   5
ENDBRANCH   3   4
ENDBRANCH   2   3
ENDBRANCH   1   2
BRANCH   1  11
ATOM     11  C   UNL     1      17.196  30.903  71.305  1.00  0.00     0.000 C 
BRANCH  11  12
ATOM     12  C   UNL     1      18.630  30.754  70.767  1.00  0.00    -0.000 C 
BRANCH  12  13
ATOM     13  C   UNL     1      18.765  29.559  69.799  1.00  0.00    -0.000 C 
BRANCH  13  14
ATOM     14  C   UNL     1      19.000  29.974  68.335  1.00  0.00    -0.000 C 
BRANCH  14  15
ATOM     15  C   UNL     1      19.279  31.477  68.178  1.00  0.00    -0.000 C 
BRANCH  15  16
ATOM     16  C   UNL     1      19.152  31.951  66.722  1.00  0.00    -0.000 C 
BRANCH  16  17
ATOM     17  C   UNL     1      19.324  30.809  65.710  1.00  0.00    -0.003 C 
ATOM     18  C   UNL     1      18.616  31.128  64.397  1.00  0.00     0.004 C 
ENDBRANCH  16  17
ENDBRANCH  15  16
ENDBRANCH  14  15
ENDBRANCH  13  14
ENDBRANCH  12  13
ENDBRANCH  11  12
ENDBRANCH   1  11
TORSDOF 14
ENDMDL
MODEL 2
REMARK VINA RESULT:    -4.058      1.305      1.829
REMARK INTER + INTRA:          -9.660
REMARK INTER:                  -7.338
REMARK INTRA:                  -2.322
REMARK UNBOUND:                -2.281
REMARK SMILES CCCCCCCCCCCCCCCC(=O)[O-]
REMARK SMILES IDX 9 1 10 2 11 3 12 4 13 5 14 6 15 7 16 8 17 9 18 10 8 11 7 12
REMARK SMILES IDX 6 13 5 14 4 15 3 16 2 17 1 18
REMARK H PARENT
REMARK Flexibility Score: inf
ROOT
ATOM      1  C   UNL     1      15.912  30.901  70.751  1.00  0.00     0.000 C 
ENDROOT
BRANCH   1   2
ATOM      2  C   UNL     1      15.533  30.061  69.518  1.00  0.00     0.000 C 
BRANCH   2   3
ATOM      3  C   UNL     1      15.870  30.770  68.197  1.00  0.00     0.000 C 
BRANCH   3   4
ATOM      4  C   UNL     1      15.806  32.303  68.317  1.00  0.00     0.000 C 
BRANCH   4   5
ATOM      5  C   UNL     1      15.593  32.993  66.961  1.00  0.00     0.000 C 
BRANCH   5   6
ATOM      6  C   UNL     1      14.161  33.529  66.789  1.00  0.00     0.006 C 
BRANCH   6   7
ATOM      7  C   UNL     1      13.367  33.488  68.102  1.00  0.00     0.053 C 
BRANCH   7   8
ATOM      8  C   UNL     1      12.212  32.538  68.021  1.00  0.00     0.041 C 
ATOM      9  O   UNL     1      12.270  31.419  68.594  1.00  0.00    -0.550 OA
ATOM     10  O   UNL     1      11.084  32.877  67.283  1.00  0.00    -0.550 OA
ENDBRANCH   7   8
ENDBRANCH   6   7
ENDBRANCH   5   6
ENDBRANCH   4   5
ENDBRANCH   3   4
ENDBRANCH   2   3
ENDBRANCH   1   2
BRANCH   1  11
ATOM     11  C   UNL     1      17.168  30.370  71.460  1.00  0.00     0.000 C 
BRANCH  11  12
ATOM     12  C   UNL     1      18.468  30.933  70.859  1.00  0.00    -0.000 C 
BRANCH  12  13
ATOM     13  C   UNL     1      19.273  29.853  70.105  1.00  0.00    -0.000 C 
BRANCH  13  14
ATOM     14  C   UNL     1      19.780  30.311  68.726  1.00  0.00    -0.000 C 
BRANCH  14  15
ATOM     15  C   UNL     1      19.441  31.779  68.423  1.00  0.00    -0.000 C 
BRANCH  15  16
ATOM     16  C   UNL     1      19.269  32.046  66.919  1.00  0.00    -0.000 C 
BRANCH  16  17
ATOM     17  C   UNL     1      19.163  30.753  66.097  1.00  0.00    -0.003 C 
ATOM     18  C   UNL     1      18.010  30.831  65.100  1.00  0.00     0.004 C 
ENDBRANCH  16  17
ENDBRANCH  15  16
ENDBRANCH  14  15
ENDBRANCH  13  14
ENDBRANCH  12  13
ENDBRANCH  11  12
ENDBRANCH   1  11
TORSDOF 14
ENDMDL
MODEL 3
REMARK VINA RESULT:    -4.024      2.652      5.176
REMARK INTER + INTRA:          -9.598
REMARK INTER:                  -7.872
REMARK INTRA:                  -1.726
REMARK UNBOUND:                -2.281
REMARK SMILES CCCCCCCCCCCCCCCC(=O)[O-]
REMARK SMILES IDX 9 1 10 2 11 3 12 4 13 5 14 6 15 7 16 8 17 9 18 10 8 11 7 12
REMARK SMILES IDX 6 13 5 14 4 15 3 16 2 17 1 18
REMARK H PARENT
REMARK Flexibility Score: inf
ROOT
ATOM      1  C   UNL     1      15.928  30.890  70.738  1.00  0.00     0.000 C 
ENDROOT
BRANCH   1   2
ATOM      2  C   UNL     1      17.130  30.329  71.521  1.00  0.00     0.000 C 
BRANCH   2   3
ATOM      3  C   UNL     1      18.473  30.852  70.989  1.00  0.00     0.000 C 
BRANCH   3   4
ATOM      4  C   UNL     1      19.273  29.771  70.241  1.00  0.00     0.000 C 
BRANCH   4   5
ATOM      5  C   UNL     1      19.401  30.066  68.738  1.00  0.00     0.000 C 
BRANCH   5   6
ATOM      6  C   UNL     1      19.345  31.572  68.426  1.00  0.00     0.006 C 
BRANCH   6   7
ATOM      7  C   UNL     1      18.458  31.877  67.211  1.00  0.00     0.053 C 
BRANCH   7   8
ATOM      8  C   UNL     1      19.255  31.929  65.943  1.00  0.00     0.041 C 
ATOM      9  O   UNL     1      19.681  33.031  65.507  1.00  0.00    -0.550 OA
ATOM     10  O   UNL     1      19.495  30.764  65.226  1.00  0.00    -0.550 OA
ENDBRANCH   7   8
ENDBRANCH   6   7
ENDBRANCH   5   6
ENDBRANCH   4   5
ENDBRANCH   3   4
ENDBRANCH   2   3
ENDBRANCH   1   2
BRANCH   1  11
ATOM     11  C   UNL     1      15.532  29.998  69.551  1.00  0.00     0.000 C 
BRANCH  11  12
ATOM     12  C   UNL     1      15.034  30.810  68.343  1.00  0.00    -0.000 C 
BRANCH  12  13
ATOM     13  C   UNL     1      15.154  32.331  68.577  1.00  0.00    -0.000 C 
BRANCH  13  14
ATOM     14  C   UNL     1      13.841  33.097  68.339  1.00  0.00    -0.000 C 
BRANCH  14  15
ATOM     15  C   UNL     1      13.945  34.121  67.198  1.00  0.00    -0.000 C 
BRANCH  15  16
ATOM     16  C   UNL     1      15.388  34.594  66.961  1.00  0.00    -0.000 C 
BRANCH  16  17
ATOM     17  C   UNL     1      15.606  36.058  67.370  1.00  0.00    -0.003 C 
ATOM     18  C   UNL     1      14.329  36.875  67.188  1.00  0.00     0.004 C 
ENDBRANCH  16  17
ENDBRANCH  15  16
ENDBRANCH  14  15
ENDBRANCH  13  14
ENDBRANCH  12  13
ENDBRANCH  11  12
ENDBRANCH   1  11
TORSDOF 14
ENDMDL
MODEL 4
REMARK VINA RESULT:    -3.995      2.332      4.915
REMARK INTER + INTRA:          -9.546
REMARK INTER:                  -7.765
REMARK INTRA:                  -1.782
REMARK UNBOUND:                -2.281
REMARK SMILES CCCCCCCCCCCCCCCC(=O)[O-]
REMARK SMILES IDX 9 1 10 2 11 3 12 4 13 5 14 6 15 7 16 8 17 9 18 10 8 11 7 12
REMARK SMILES IDX 6 13 5 14 4 15 3 16 2 17 1 18
REMARK H PARENT
REMARK Flexibility Score: inf
ROOT
ATOM      1  C   UNL     1      16.827  30.243  71.495  1.00  0.00     0.000 C 
ENDROOT
BRANCH   1   2
ATOM      2  C   UNL     1      18.044  31.048  71.004  1.00  0.00     0.000 C 
BRANCH   2   3
ATOM      3  C   UNL     1      19.093  30.165  70.311  1.00  0.00     0.000 C 
BRANCH   3   4
ATOM      4  C   UNL     1      19.776  30.877  69.130  1.00  0.00     0.000 C 
BRANCH   4   5
ATOM      5  C   UNL     1      18.798  31.738  68.316  1.00  0.00     0.000 C 
BRANCH   5   6
ATOM      6  C   UNL     1      18.470  31.122  66.944  1.00  0.00     0.006 C 
BRANCH   6   7
ATOM      7  C   UNL     1      19.379  31.666  65.834  1.00  0.00     0.053 C 
BRANCH   7   8
ATOM      8  C   UNL     1      19.381  33.164  65.803  1.00  0.00     0.041 C 
ATOM      9  O   UNL     1      18.337  33.793  65.489  1.00  0.00    -0.550 OA
ATOM     10  O   UNL     1      20.547  33.863  66.088  1.00  0.00    -0.550 OA
ENDBRANCH   7   8
ENDBRANCH   6   7
ENDBRANCH   5   6
ENDBRANCH   4   5
ENDBRANCH   3   4
ENDBRANCH   2   3
ENDBRANCH   1   2
BRANCH   1  11
ATOM     11  C   UNL     1      15.560  30.535  70.676  1.00  0.00     0.000 C 
BRANCH  11  12
ATOM     12  C   UNL     1      15.647  29.991  69.239  1.00  0.00    -0.000 C 
BRANCH  12  13
ATOM     13  C   UNL     1      14.915  30.902  68.230  1.00  0.00    -0.000 C 
BRANCH  13  14
ATOM     14  C   UNL     1      14.910  32.388  68.630  1.00  0.00    -0.000 C 
BRANCH  14  15
ATOM     15  C   UNL     1      15.512  33.299  67.549  1.00  0.00    -0.000 C 
BRANCH  15  16
ATOM     16  C   UNL     1      14.449  34.150  66.836  1.00  0.00    -0.000 C 
BRANCH  16  17
ATOM     17  C   UNL     1      13.815  35.200  67.759  1.00  0.00    -0.003 C 
ATOM     18  C   UNL     1      14.204  36.613  67.332  1.00  0.00     0.004 C 
ENDBRANCH  16  17
ENDBRANCH  15  16
ENDBRANCH  14  15
ENDBRANCH  13  14
ENDBRANCH  12  13
ENDBRANCH  11  12
ENDBRANCH   1  11
TORSDOF 14
ENDMDL
MODEL 5
REMARK VINA RESULT:    -3.982      1.880      4.447
REMARK INTER + INTRA:          -9.522
REMARK INTER:                  -8.091
REMARK INTRA:                  -1.431
REMARK UNBOUND:                -2.281
REMARK SMILES CCCCCCCCCCCCCCCC(=O)[O-]
REMARK SMILES IDX 9 1 10 2 11 3 12 4 13 5 14 6 15 7 16 8 17 9 18 10 8 11 7 12
REMARK SMILES IDX 6 13 5 14 4 15 3 16 2 17 1 18
REMARK H PARENT
REMARK Flexibility Score: inf
ROOT
ATOM      1  C   UNL     1      18.612  31.040  67.167  1.00  0.00     0.000 C 
ENDROOT
BRANCH   1   2
ATOM      2  C   UNL     1      18.097  31.955  66.042  1.00  0.00     0.000 C 
BRANCH   2   3
ATOM      3  C   UNL     1      17.829  33.389  66.526  1.00  0.00     0.000 C 
BRANCH   3   4
ATOM      4  C   UNL     1      18.365  34.451  65.550  1.00  0.00     0.000 C 
BRANCH   4   5
ATOM      5  C   UNL     1      17.842  35.860  65.866  1.00  0.00     0.000 C 
BRANCH   5   6
ATOM      6  C   UNL     1      16.306  35.915  65.949  1.00  0.00     0.006 C 
BRANCH   6   7
ATOM      7  C   UNL     1      15.814  36.189  67.376  1.00  0.00     0.053 C 
BRANCH   7   8
ATOM      8  C   UNL     1      14.341  36.462  67.412  1.00  0.00     0.041 C 
ATOM      9  O   UNL     1      13.882  37.528  66.924  1.00  0.00    -0.550 OA
ATOM     10  O   UNL     1      13.481  35.554  68.015  1.00  0.00    -0.550 OA
ENDBRANCH   7   8
ENDBRANCH   6   7
ENDBRANCH   5   6
ENDBRANCH   4   5
ENDBRANCH   3   4
ENDBRANCH   2   3
ENDBRANCH   1   2
BRANCH   1  11
ATOM     11  C   UNL     1      19.438  31.804  68.214  1.00  0.00     0.000 C 
BRANCH  11  12
ATOM     12  C   UNL     1      20.050  30.875  69.277  1.00  0.00    -0.000 C 
BRANCH  12  13
ATOM     13  C   UNL     1      18.970  30.086  70.048  1.00  0.00    -0.000 C 
BRANCH  13  14
ATOM     14  C   UNL     1      18.105  30.964  70.970  1.00  0.00    -0.000 C 
BRANCH  14  15
ATOM     15  C   UNL     1      16.786  30.287  71.375  1.00  0.00    -0.000 C 
BRANCH  15  16
ATOM     16  C   UNL     1      15.562  30.936  70.711  1.00  0.00    -0.000 C 
BRANCH  16  17
ATOM     17  C   UNL     1      15.699  31.036  69.185  1.00  0.00    -0.003 C 
ATOM     18  C   UNL     1      15.030  32.301  68.656  1.00  0.00     0.004 C 
ENDBRANCH  16  17
ENDBRANCH  15  16
ENDBRANCH  14  15
ENDBRANCH  13  14
ENDBRANCH  12  13
ENDBRANCH  11  12
ENDBRANCH   1  11
TORSDOF 14
ENDMDL
MODEL 6
REMARK VINA RESULT:    -3.956      1.316      2.079
REMARK INTER + INTRA:          -9.475
REMARK INTER:                  -7.699
REMARK INTRA:                  -1.776
REMARK UNBOUND:                -2.281
REMARK SMILES CCCCCCCCCCCCCCCC(=O)[O-]
REMARK SMILES IDX 9 1 10 2 11 3 12 4 13 5 14 6 15 7 16 8 17 9 18 10 8 11 7 12
REMARK SMILES IDX 6 13 5 14 4 15 3 16 2 17 1 18
REMARK H PARENT
REMARK Flexibility Score: inf
ROOT
ATOM      1  C   UNL     1      17.846  29.960  70.773  1.00  0.00     0.000 C 
ENDROOT
BRANCH   1   2
ATOM      2  C   UNL     1      16.563  30.724  71.150  1.00  0.00     0.000 C 
BRANCH   2   3
ATOM      3  C   UNL     1      15.301  30.086  70.548  1.00  0.00     0.000 C 
BRANCH   3   4
ATOM      4  C   UNL     1      14.505  31.069  69.671  1.00  0.00     0.000 C 
BRANCH   4   5
ATOM      5  C   UNL     1      15.414  32.012  68.868  1.00  0.00     0.000 C 
BRANCH   5   6
ATOM      6  C   UNL     1      14.618  32.979  67.973  1.00  0.00     0.006 C 
BRANCH   6   7
ATOM      7  C   UNL     1      15.527  33.990  67.262  1.00  0.00     0.053 C 
BRANCH   7   8
ATOM      8  C   UNL     1      14.804  35.264  66.953  1.00  0.00     0.041 C 
ATOM      9  O   UNL     1      13.923  35.700  67.740  1.00  0.00    -0.550 OA
ATOM     10  O   UNL     1      15.078  35.951  65.777  1.00  0.00    -0.550 OA
ENDBRANCH   7   8
ENDBRANCH   6   7
ENDBRANCH   5   6
ENDBRANCH   4   5
ENDBRANCH   3   4
ENDBRANCH   2   3
ENDBRANCH   1   2
BRANCH   1  11
ATOM     11  C   UNL     1      19.040  30.898  70.535  1.00  0.00     0.000 C 
BRANCH  11  12
ATOM     12  C   UNL     1      19.308  31.146  69.040  1.00  0.00    -0.000 C 
BRANCH  12  13
ATOM     13  C   UNL     1      18.553  30.142  68.142  1.00  0.00    -0.000 C 
BRANCH  13  14
ATOM     14  C   UNL     1      18.149  30.721  66.774  1.00  0.00    -0.000 C 
BRANCH  14  15
ATOM     15  C   UNL     1      19.277  31.526  66.110  1.00  0.00    -0.000 C 
BRANCH  15  16
ATOM     16  C   UNL     1      18.779  32.845  65.499  1.00  0.00    -0.000 C 
BRANCH  16  17
ATOM     17  C   UNL     1      19.028  34.053  66.414  1.00  0.00    -0.003 C 
ATOM     18  C   UNL     1      20.523  34.302  66.598  1.00  0.00     0.004 C 
ENDBRANCH  16  17
ENDBRANCH  15  16
ENDBRANCH  14  15
ENDBRANCH  13  14
ENDBRANCH  12  13
ENDBRANCH  11  12
ENDBRANCH   1  11
TORSDOF 14
ENDMDL
MODEL 7
REMARK VINA RESULT:    -3.912      1.481      2.079
REMARK INTER + INTRA:          -9.394
REMARK INTER:                  -7.457
REMARK INTRA:                  -1.937
REMARK UNBOUND:                -2.281
REMARK SMILES CCCCCCCCCCCCCCCC(=O)[O-]
REMARK SMILES IDX 9 1 10 2 11 3 12 4 13 5 14 6 15 7 16 8 17 9 18 10 8 11 7 12
REMARK SMILES IDX 6 13 5 14 4 15 3 16 2 17 1 18
REMARK H PARENT
REMARK Flexibility Score: inf
ROOT
ATOM      1  C   UNL     1      15.348  30.321  70.702  1.00  0.00     0.000 C 
ENDROOT
BRANCH   1   2
ATOM      2  C   UNL     1      14.863  29.509  69.487  1.00  0.00     0.000 C 
BRANCH   2   3
ATOM      3  C   UNL     1      14.729  30.368  68.220  1.00  0.00     0.000 C 
BRANCH   3   4
ATOM      4  C   UNL     1      13.978  31.687  68.479  1.00  0.00     0.000 C 
BRANCH   4   5
ATOM      5  C   UNL     1      14.867  32.923  68.271  1.00  0.00     0.000 C 
BRANCH   5   6
ATOM      6  C   UNL     1      14.337  33.851  67.163  1.00  0.00     0.006 C 
BRANCH   6   7
ATOM      7  C   UNL     1      13.710  35.131  67.733  1.00  0.00     0.053 C 
BRANCH   7   8
ATOM      8  C   UNL     1      14.543  36.338  67.432  1.00  0.00     0.041 C 
ATOM      9  O   UNL     1      15.795  36.292  67.560  1.00  0.00    -0.550 OA
ATOM     10  O   UNL     1      13.933  37.524  67.044  1.00  0.00    -0.550 OA
ENDBRANCH   7   8
ENDBRANCH   6   7
ENDBRANCH   5   6
ENDBRANCH   4   5
ENDBRANCH   3   4
ENDBRANCH   2   3
ENDBRANCH   1   2
BRANCH   1  11
ATOM     11  C   UNL     1      16.710  29.840  71.225  1.00  0.00     0.000 C 
BRANCH  11  12
ATOM     12  C   UNL     1      17.705  30.995  71.432  1.00  0.00    -0.000 C 
BRANCH  12  13
ATOM     13  C   UNL     1      18.851  30.965  70.399  1.00  0.00    -0.000 C 
BRANCH  13  14
ATOM     14  C   UNL     1      18.780  29.769  69.433  1.00  0.00    -0.000 C 
BRANCH  14  15
ATOM     15  C   UNL     1      18.425  30.182  67.996  1.00  0.00    -0.000 C 
BRANCH  15  16
ATOM     16  C   UNL     1      18.135  31.686  67.870  1.00  0.00    -0.000 C 
BRANCH  16  17
ATOM     17  C   UNL     1      18.082  32.158  66.409  1.00  0.00    -0.003 C 
ATOM     18  C   UNL     1      18.127  33.681  66.323  1.00  0.00     0.004 C 
ENDBRANCH  16  17
ENDBRANCH  15  16
ENDBRANCH  14  15
ENDBRANCH  13  14
ENDBRANCH  12  13
ENDBRANCH  11  12
ENDBRANCH   1  11
TORSDOF 14
ENDMDL
MODEL 8
REMARK VINA RESULT:    -3.876      1.658      3.656
REMARK INTER + INTRA:          -9.329
REMARK INTER:                  -7.387
REMARK INTRA:                  -1.942
REMARK UNBOUND:                -2.281
REMARK SMILES CCCCCCCCCCCCCCCC(=O)[O-]
REMARK SMILES IDX 9 1 10 2 11 3 12 4 13 5 14 6 15 7 16 8 17 9 18 10 8 11 7 12
REMARK SMILES IDX 6 13 5 14 4 15 3 16 2 17 1 18
REMARK H PARENT
REMARK Flexibility Score: inf
ROOT
ATOM      1  C   UNL     1      18.562  31.187  69.725  1.00  0.00     0.000 C 
ENDROOT
BRANCH   1   2
ATOM      2  C   UNL     1      18.021  30.617  71.049  1.00  0.00     0.000 C 
BRANCH   2   3
ATOM      3  C   UNL     1      16.532  30.929  71.258  1.00  0.00     0.000 C 
BRANCH   3   4
ATOM      4  C   UNL     1      15.622  29.747  70.877  1.00  0.00     0.000 C 
BRANCH   4   5
ATOM      5  C   UNL     1      14.713  30.065  69.680  1.00  0.00     0.000 C 
BRANCH   5   6
ATOM      6  C   UNL     1      14.833  31.528  69.219  1.00  0.00     0.006 C 
BRANCH   6   7
ATOM      7  C   UNL     1      14.025  31.801  67.944  1.00  0.00     0.053 C 
BRANCH   7   8
ATOM      8  C   UNL     1      12.772  32.568  68.235  1.00  0.00     0.041 C 
ATOM      9  O   UNL     1      12.154  32.386  69.317  1.00  0.00    -0.550 OA
ATOM     10  O   UNL     1      12.267  33.458  67.295  1.00  0.00    -0.550 OA
ENDBRANCH   7   8
ENDBRANCH   6   7
ENDBRANCH   5   6
ENDBRANCH   4   5
ENDBRANCH   3   4
ENDBRANCH   2   3
ENDBRANCH   1   2
BRANCH   1  11
ATOM     11  C   UNL     1      18.465  30.180  68.568  1.00  0.00     0.000 C 
BRANCH  11  12
ATOM     12  C   UNL     1      17.898  30.809  67.283  1.00  0.00    -0.000 C 
BRANCH  12  13
ATOM     13  C   UNL     1      18.315  32.287  67.130  1.00  0.00    -0.000 C 
BRANCH  13  14
ATOM     14  C   UNL     1      17.159  33.214  66.712  1.00  0.00    -0.000 C 
BRANCH  14  15
ATOM     15  C   UNL     1      17.639  34.608  66.278  1.00  0.00    -0.000 C 
BRANCH  15  16
ATOM     16  C   UNL     1      16.514  35.655  66.310  1.00  0.00    -0.000 C 
BRANCH  16  17
ATOM     17  C   UNL     1      15.435  35.333  67.354  1.00  0.00    -0.003 C 
ATOM     18  C   UNL     1      14.307  36.359  67.311  1.00  0.00     0.004 C 
ENDBRANCH  16  17
ENDBRANCH  15  16
ENDBRANCH  14  15
ENDBRANCH  13  14
ENDBRANCH  12  13
ENDBRANCH  11  12
ENDBRANCH   1  11
TORSDOF 14
ENDMDL
MODEL 9
REMARK VINA RESULT:    -3.796      2.538      4.978
REMARK INTER + INTRA:          -9.184
REMARK INTER:                  -7.131
REMARK INTRA:                  -2.053
REMARK UNBOUND:                -2.281
REMARK SMILES CCCCCCCCCCCCCCCC(=O)[O-]
REMARK SMILES IDX 9 1 10 2 11 3 12 4 13 5 14 6 15 7 16 8 17 9 18 10 8 11 7 12
REMARK SMILES IDX 6 13 5 14 4 15 3 16 2 17 1 18
REMARK H PARENT
REMARK Flexibility Score: inf
ROOT
ATOM      1  C   UNL     1      16.367  29.849  71.519  1.00  0.00     0.000 C 
ENDROOT
BRANCH   1   2
ATOM      2  C   UNL     1      17.687  29.624  70.760  1.00  0.00     0.000 C 
BRANCH   2   3
ATOM      3  C   UNL     1      18.560  30.888  70.710  1.00  0.00     0.000 C 
BRANCH   3   4
ATOM      4  C   UNL     1      19.235  31.085  69.342  1.00  0.00     0.000 C 
BRANCH   4   5
ATOM      5  C   UNL     1      18.854  29.990  68.333  1.00  0.00     0.000 C 
BRANCH   5   6
ATOM      6  C   UNL     1      19.458  30.236  66.939  1.00  0.00     0.006 C 
BRANCH   6   7
ATOM      7  C   UNL     1      18.853  31.470  66.255  1.00  0.00     0.053 C 
BRANCH   7   8
ATOM      8  C   UNL     1      18.112  31.104  65.007  1.00  0.00     0.041 C 
ATOM      9  O   UNL     1      16.961  30.598  65.078  1.00  0.00    -0.550 OA
ATOM     10  O   UNL     1      18.707  31.289  63.765  1.00  0.00    -0.550 OA
ENDBRANCH   7   8
ENDBRANCH   6   7
ENDBRANCH   5   6
ENDBRANCH   4   5
ENDBRANCH   3   4
ENDBRANCH   2   3
ENDBRANCH   1   2
BRANCH   1  11
ATOM     11  C   UNL     1      15.213  30.250  70.586  1.00  0.00     0.000 C 
BRANCH  11  12
ATOM     12  C   UNL     1      15.337  29.619  69.188  1.00  0.00    -0.000 C 
BRANCH  12  13
ATOM     13  C   UNL     1      15.158  30.662  68.064  1.00  0.00    -0.000 C 
BRANCH  13  14
ATOM     14  C   UNL     1      15.770  32.035  68.393  1.00  0.00    -0.000 C 
BRANCH  14  15
ATOM     15  C   UNL     1      14.989  33.202  67.768  1.00  0.00    -0.000 C 
BRANCH  15  16
ATOM     16  C   UNL     1      13.593  33.375  68.386  1.00  0.00    -0.000 C 
BRANCH  16  17
ATOM     17  C   UNL     1      12.485  32.734  67.538  1.00  0.00    -0.003 C 
ATOM     18  C   UNL     1      11.561  31.877  68.399  1.00  0.00     0.004 C 
ENDBRANCH  16  17
ENDBRANCH  15  16
ENDBRANCH  14  15
ENDBRANCH  13  14
ENDBRANCH  12  13
ENDBRANCH  11  12
ENDBRANCH   1  11
TORSDOF 14
ENDMDL
