MODEL 1
REMARK VINA RESULT:    -8.171      0.000      0.000
REMARK INTER + INTRA:          -8.844
REMARK INTER:                  -8.888
REMARK INTRA:                   0.044
REMARK UNBOUND:                 0.044
REMARK SMILES C[C@H]1[C@H](C)CC[C@@]2(C(=O)[O-])CC[C@@]3(C)C(=CC[C@H]4[C@]5(C)CC[C@H](O)C(C)(C)[C@H]5CC[C@]43C)[C@@H]12
REMARK SMILES IDX 7 1 6 2 11 3 33 4 5 5 12 6 15 7 2 8 3 9 13 10 16 11 1 12
REMARK SMILES IDX 4 13 14 14 31 15 17 16 18 17 30 18 32 19 19 20 29 21 28 22
REMARK SMILES IDX 21 23 20 24 25 25 22 26 23 27 26 28 27 29 8 30 9 31 10 32
REMARK SMILES IDX 24 33
REMARK H PARENT 24 34
REMARK Flexibility Score: inf
ROOT
ATOM      1  C   UNL     1      45.860 -38.813  -4.119  1.00  0.00     0.017 C 
ATOM      2  C   UNL     1      46.485 -40.234  -4.270  1.00  0.00     0.014 C 
ATOM      3  C   UNL     1      44.431 -38.940  -3.482  1.00  0.00     0.014 C 
ATOM      4  C   UNL     1      46.829 -37.948  -3.230  1.00  0.00     0.030 C 
ATOM      5  C   UNL     1      47.903 -40.214  -4.861  1.00  0.00     0.004 C 
ATOM      6  C   UNL     1      44.225 -38.034  -2.256  1.00  0.00     0.013 C 
ATOM      7  C   UNL     1      46.671 -38.323  -1.735  1.00  0.00    -0.063 C 
ATOM      8  C   UNL     1      48.267 -37.914  -3.862  1.00  0.00    -0.003 C 
ATOM      9  C   UNL     1      48.865 -39.338  -4.032  1.00  0.00    -0.011 C 
ATOM     10  C   UNL     1      45.262 -38.347  -1.121  1.00  0.00    -0.006 C 
ATOM     11  C   UNL     1      47.713 -38.503  -0.904  1.00  0.00    -0.027 C 
ATOM     12  C   UNL     1      49.215 -36.881  -3.206  1.00  0.00     0.008 C 
ATOM     13  C   UNL     1      50.239 -39.307  -4.719  1.00  0.00     0.008 C 
ATOM     14  C   UNL     1      44.944 -39.804  -0.631  1.00  0.00     0.017 C 
ATOM     15  C   UNL     1      45.211 -37.307   0.110  1.00  0.00    -0.020 C 
ATOM     16  C   UNL     1      47.534 -38.533   0.584  1.00  0.00     0.032 C 
ATOM     17  C   UNL     1      46.484 -37.485   1.084  1.00  0.00     0.006 C 
ATOM     18  C   UNL     1      45.170 -35.839  -0.416  1.00  0.00     0.008 C 
ATOM     19  C   UNL     1      43.881 -37.536   0.906  1.00  0.00     0.012 C 
ATOM     20  C   UNL     1      47.170 -36.135   1.625  1.00  0.00    -0.025 C 
ATOM     21  C   UNL     1      45.199 -34.748   0.674  1.00  0.00     0.005 C 
ATOM     22  C   UNL     1      46.025 -35.111   1.939  1.00  0.00     0.003 C 
ATOM     23  C   UNL     1      47.924 -36.471   2.961  1.00  0.00     0.010 C 
ATOM     24  C   UNL     1      48.198 -35.543   0.601  1.00  0.00     0.012 C 
ATOM     25  C   UNL     1      46.402 -33.861   2.836  1.00  0.00    -0.006 C 
ATOM     26  C   UNL     1      48.331 -35.245   3.793  1.00  0.00     0.033 C 
ATOM     27  C   UNL     1      47.132 -34.353   4.126  1.00  0.00     0.120 C 
ATOM     28  C   UNL     1      47.284 -32.800   2.121  1.00  0.00     0.014 C 
ATOM     29  C   UNL     1      45.103 -33.125   3.264  1.00  0.00     0.014 C 
ENDROOT
BRANCH   1  30
ATOM     30  C   UNL     1      45.676 -38.167  -5.491  1.00  0.00     0.048 C 
ATOM     31  O   UNL     1      45.000 -38.741  -6.387  1.00  0.00    -0.550 OA
ATOM     32  O   UNL     1      46.149 -36.881  -5.732  1.00  0.00    -0.550 OA
ENDBRANCH   1  30
BRANCH  27  33
ATOM     33  O   UNL     1      46.255 -35.077   4.957  1.00  0.00    -0.393 OA
ATOM     34  H   UNL     1      45.329 -34.880   4.656  1.00  0.00     0.210 HD
ENDBRANCH  27  33
TORSDOF 2
ENDMDL
MODEL 2
REMARK VINA RESULT:    -7.129      4.922      9.810
REMARK INTER + INTRA:          -7.710
REMARK INTER:                  -7.636
REMARK INTRA:                  -0.074
REMARK UNBOUND:                 0.044
REMARK SMILES C[C@H]1[C@H](C)CC[C@@]2(C(=O)[O-])CC[C@@]3(C)C(=CC[C@H]4[C@]5(C)CC[C@H](O)C(C)(C)[C@H]5CC[C@]43C)[C@@H]12
REMARK SMILES IDX 7 1 6 2 11 3 33 4 5 5 12 6 15 7 2 8 3 9 13 10 16 11 1 12
REMARK SMILES IDX 4 13 14 14 31 15 17 16 18 17 30 18 32 19 19 20 29 21 28 22
REMARK SMILES IDX 21 23 20 24 25 25 22 26 23 27 26 28 27 29 8 30 9 31 10 32
REMARK SMILES IDX 24 33
REMARK H PARENT 24 34
REMARK Flexibility Score: inf
ROOT
ATOM      1  C   UNL     1      47.839 -39.261   9.177  1.00  0.00     0.017 C 
ATOM      2  C   UNL     1      47.736 -38.717  10.636  1.00  0.00     0.014 C 
ATOM      3  C   UNL     1      46.459 -39.882   8.758  1.00  0.00     0.014 C 
ATOM      4  C   UNL     1      48.259 -38.068   8.242  1.00  0.00     0.030 C 
ATOM      5  C   UNL     1      49.034 -38.060  11.131  1.00  0.00     0.004 C 
ATOM      6  C   UNL     1      45.927 -39.340   7.419  1.00  0.00     0.013 C 
ATOM      7  C   UNL     1      47.044 -37.150   7.956  1.00  0.00    -0.063 C 
ATOM      8  C   UNL     1      49.601 -37.425   8.745  1.00  0.00    -0.003 C 
ATOM      9  C   UNL     1      49.492 -36.913  10.208  1.00  0.00    -0.011 C 
ATOM     10  C   UNL     1      45.736 -37.784   7.457  1.00  0.00    -0.006 C 
ATOM     11  C   UNL     1      47.107 -35.807   7.995  1.00  0.00    -0.027 C 
ATOM     12  C   UNL     1      50.229 -36.423   7.746  1.00  0.00     0.008 C 
ATOM     13  C   UNL     1      50.829 -36.354  10.723  1.00  0.00     0.008 C 
ATOM     14  C   UNL     1      44.603 -37.509   8.508  1.00  0.00     0.017 C 
ATOM     15  C   UNL     1      45.357 -37.142   6.027  1.00  0.00    -0.020 C 
ATOM     16  C   UNL     1      46.030 -34.953   7.399  1.00  0.00     0.032 C 
ATOM     17  C   UNL     1      45.478 -35.533   6.054  1.00  0.00     0.006 C 
ATOM     18  C   UNL     1      46.287 -37.707   4.910  1.00  0.00     0.008 C 
ATOM     19  C   UNL     1      43.897 -37.571   5.656  1.00  0.00     0.012 C 
ATOM     20  C   UNL     1      46.144 -34.841   4.765  1.00  0.00    -0.025 C 
ATOM     21  C   UNL     1      46.070 -37.105   3.506  1.00  0.00     0.005 C 
ATOM     22  C   UNL     1      45.641 -35.613   3.496  1.00  0.00     0.003 C 
ATOM     23  C   UNL     1      45.633 -33.358   4.687  1.00  0.00     0.010 C 
ATOM     24  C   UNL     1      47.710 -34.833   4.841  1.00  0.00     0.012 C 
ATOM     25  C   UNL     1      45.838 -34.901   2.094  1.00  0.00    -0.006 C 
ATOM     26  C   UNL     1      45.882 -32.664   3.339  1.00  0.00     0.033 C 
ATOM     27  C   UNL     1      45.276 -33.446   2.170  1.00  0.00     0.120 C 
ATOM     28  C   UNL     1      47.311 -34.856   1.599  1.00  0.00     0.014 C 
ATOM     29  C   UNL     1      45.040 -35.674   1.008  1.00  0.00     0.014 C 
ENDROOT
BRANCH   1  30
ATOM     30  C   UNL     1      48.870 -40.386   9.104  1.00  0.00     0.048 C 
ATOM     31  O   UNL     1      49.122 -41.095  10.115  1.00  0.00    -0.550 OA
ATOM     32  O   UNL     1      49.456 -40.724   7.888  1.00  0.00    -0.550 OA
ENDBRANCH   1  30
BRANCH  27  33
ATOM     33  O   UNL     1      43.875 -33.454   2.318  1.00  0.00    -0.393 OA
ATOM     34  H   UNL     1      43.613 -34.361   2.626  1.00  0.00     0.210 HD
ENDBRANCH  27  33
TORSDOF 2
ENDMDL
MODEL 3
REMARK VINA RESULT:    -7.044      2.715      7.376
REMARK INTER + INTRA:          -7.618
REMARK INTER:                  -7.604
REMARK INTRA:                  -0.014
REMARK UNBOUND:                 0.044
REMARK SMILES C[C@H]1[C@H](C)CC[C@@]2(C(=O)[O-])CC[C@@]3(C)C(=CC[C@H]4[C@]5(C)CC[C@H](O)C(C)(C)[C@H]5CC[C@]43C)[C@@H]12
REMARK SMILES IDX 7 1 6 2 11 3 33 4 5 5 12 6 15 7 2 8 3 9 13 10 16 11 1 12
REMARK SMILES IDX 4 13 14 14 31 15 17 16 18 17 30 18 32 19 19 20 29 21 28 22
REMARK SMILES IDX 21 23 20 24 25 25 22 26 23 27 26 28 27 29 8 30 9 31 10 32
REMARK SMILES IDX 24 33
REMARK H PARENT 24 34
REMARK Flexibility Score: inf
ROOT
ATOM      1  C   UNL     1      46.321 -33.244   0.044  1.00  0.00     0.017 C 
ATOM      2  C   UNL     1      44.789 -33.004   0.210  1.00  0.00     0.014 C 
ATOM      3  C   UNL     1      46.833 -34.157   1.215  1.00  0.00     0.014 C 
ATOM      4  C   UNL     1      46.560 -33.901  -1.366  1.00  0.00     0.030 C 
ATOM      5  C   UNL     1      44.185 -32.140  -0.908  1.00  0.00     0.004 C 
ATOM      6  C   UNL     1      47.634 -35.379   0.731  1.00  0.00     0.013 C 
ATOM      7  C   UNL     1      46.193 -35.405  -1.331  1.00  0.00    -0.063 C 
ATOM      8  C   UNL     1      45.962 -32.993  -2.500  1.00  0.00    -0.003 C 
ATOM      9  C   UNL     1      44.441 -32.740  -2.306  1.00  0.00    -0.011 C 
ATOM     10  C   UNL     1      46.787 -36.290  -0.224  1.00  0.00    -0.006 C 
ATOM     11  C   UNL     1      45.482 -36.015  -2.298  1.00  0.00    -0.027 C 
ATOM     12  C   UNL     1      46.376 -33.422  -3.928  1.00  0.00     0.008 C 
ATOM     13  C   UNL     1      43.875 -31.790  -3.374  1.00  0.00     0.008 C 
ATOM     14  C   UNL     1      45.618 -36.867   0.650  1.00  0.00     0.017 C 
ATOM     15  C   UNL     1      47.633 -37.481  -0.904  1.00  0.00    -0.020 C 
ATOM     16  C   UNL     1      45.428 -37.508  -2.408  1.00  0.00     0.032 C 
ATOM     17  C   UNL     1      46.805 -38.185  -2.097  1.00  0.00     0.006 C 
ATOM     18  C   UNL     1      48.983 -36.940  -1.468  1.00  0.00     0.008 C 
ATOM     19  C   UNL     1      47.996 -38.532   0.199  1.00  0.00     0.012 C 
ATOM     20  C   UNL     1      47.630 -38.545  -3.429  1.00  0.00    -0.025 C 
ATOM     21  C   UNL     1      49.848 -37.977  -2.215  1.00  0.00     0.005 C 
ATOM     22  C   UNL     1      49.045 -39.058  -2.990  1.00  0.00     0.003 C 
ATOM     23  C   UNL     1      46.881 -39.711  -4.168  1.00  0.00     0.010 C 
ATOM     24  C   UNL     1      47.746 -37.322  -4.403  1.00  0.00     0.012 C 
ATOM     25  C   UNL     1      49.901 -39.832  -4.075  1.00  0.00    -0.006 C 
ATOM     26  C   UNL     1      47.705 -40.416  -5.256  1.00  0.00     0.033 C 
ATOM     27  C   UNL     1      49.028 -40.961  -4.711  1.00  0.00     0.120 C 
ATOM     28  C   UNL     1      50.474 -38.930  -5.204  1.00  0.00     0.014 C 
ATOM     29  C   UNL     1      51.126 -40.495  -3.387  1.00  0.00     0.014 C 
ENDROOT
BRANCH   1  30
ATOM     30  C   UNL     1      47.079 -31.922   0.153  1.00  0.00     0.048 C 
ATOM     31  O   UNL     1      46.871 -31.138   1.118  1.00  0.00    -0.550 OA
ATOM     32  O   UNL     1      48.097 -31.619  -0.746  1.00  0.00    -0.550 OA
ENDBRANCH   1  30
BRANCH  27  33
ATOM     33  O   UNL     1      48.741 -41.967  -3.768  1.00  0.00    -0.393 OA
ATOM     34  H   UNL     1      47.803 -42.256  -3.917  1.00  0.00     0.210 HD
ENDBRANCH  27  33
TORSDOF 2
ENDMDL
MODEL 4
REMARK VINA RESULT:    -7.015      1.699      7.756
REMARK INTER + INTRA:          -7.586
REMARK INTER:                  -7.502
REMARK INTRA:                  -0.084
REMARK UNBOUND:                 0.044
REMARK SMILES C[C@H]1[C@H](C)CC[C@@]2(C(=O)[O-])CC[C@@]3(C)C(=CC[C@H]4[C@]5(C)CC[C@H](O)C(C)(C)[C@H]5CC[C@]43C)[C@@H]12
REMARK SMILES IDX 7 1 6 2 11 3 33 4 5 5 12 6 15 7 2 8 3 9 13 10 16 11 1 12
REMARK SMILES IDX 4 13 14 14 31 15 17 16 18 17 30 18 32 19 19 20 29 21 28 22
REMARK SMILES IDX 21 23 20 24 25 25 22 26 23 27 26 28 27 29 8 30 9 31 10 32
REMARK SMILES IDX 24 33
REMARK H PARENT 24 34
REMARK Flexibility Score: inf
ROOT
ATOM      1  C   UNL     1      46.335 -34.156   2.987  1.00  0.00     0.017 C 
ATOM      2  C   UNL     1      47.133 -34.669   4.225  1.00  0.00     0.014 C 
ATOM      3  C   UNL     1      47.310 -33.389   2.024  1.00  0.00     0.014 C 
ATOM      4  C   UNL     1      45.672 -35.400   2.287  1.00  0.00     0.030 C 
ATOM      5  C   UNL     1      46.269 -35.462   5.218  1.00  0.00     0.004 C 
ATOM      6  C   UNL     1      47.246 -33.882   0.568  1.00  0.00     0.013 C 
ATOM      7  C   UNL     1      46.723 -36.178   1.456  1.00  0.00    -0.063 C 
ATOM      8  C   UNL     1      44.770 -36.185   3.307  1.00  0.00    -0.003 C 
ATOM      9  C   UNL     1      45.572 -36.664   4.548  1.00  0.00    -0.011 C 
ATOM     10  C   UNL     1      47.597 -35.407   0.455  1.00  0.00    -0.006 C 
ATOM     11  C   UNL     1      46.827 -37.520   1.466  1.00  0.00    -0.027 C 
ATOM     12  C   UNL     1      43.875 -37.263   2.650  1.00  0.00     0.008 C 
ATOM     13  C   UNL     1      44.672 -37.365   5.579  1.00  0.00     0.008 C 
ATOM     14  C   UNL     1      49.101 -35.539   0.883  1.00  0.00     0.017 C 
ATOM     15  C   UNL     1      47.367 -36.018  -1.019  1.00  0.00    -0.020 C 
ATOM     16  C   UNL     1      47.611 -38.253   0.420  1.00  0.00     0.032 C 
ATOM     17  C   UNL     1      47.442 -37.630  -1.006  1.00  0.00     0.006 C 
ATOM     18  C   UNL     1      45.983 -35.575  -1.585  1.00  0.00     0.008 C 
ATOM     19  C   UNL     1      48.455 -35.431  -1.981  1.00  0.00     0.012 C 
ATOM     20  C   UNL     1      46.350 -38.407  -1.893  1.00  0.00    -0.025 C 
ATOM     21  C   UNL     1      45.615 -36.164  -2.962  1.00  0.00     0.005 C 
ATOM     22  C   UNL     1      46.151 -37.598  -3.222  1.00  0.00     0.003 C 
ATOM     23  C   UNL     1      46.927 -39.824  -2.249  1.00  0.00     0.010 C 
ATOM     24  C   UNL     1      44.992 -38.591  -1.132  1.00  0.00     0.012 C 
ATOM     25  C   UNL     1      45.428 -38.343  -4.418  1.00  0.00    -0.006 C 
ATOM     26  C   UNL     1      46.180 -40.557  -3.373  1.00  0.00     0.033 C 
ATOM     27  C   UNL     1      46.116 -39.725  -4.657  1.00  0.00     0.120 C 
ATOM     28  C   UNL     1      43.903 -38.560  -4.211  1.00  0.00     0.014 C 
ATOM     29  C   UNL     1      45.573 -37.498  -5.713  1.00  0.00     0.014 C 
ENDROOT
BRANCH   1  30
ATOM     30  C   UNL     1      45.266 -33.156   3.423  1.00  0.00     0.048 C 
ATOM     31  O   UNL     1      45.484 -32.353   4.369  1.00  0.00    -0.550 OA
ATOM     32  O   UNL     1      44.082 -33.033   2.702  1.00  0.00    -0.550 OA
ENDBRANCH   1  30
BRANCH  27  33
ATOM     33  O   UNL     1      47.427 -39.557  -5.145  1.00  0.00    -0.393 OA
ATOM     34  H   UNL     1      47.930 -39.028  -4.472  1.00  0.00     0.210 HD
ENDBRANCH  27  33
TORSDOF 2
ENDMDL
MODEL 5
REMARK VINA RESULT:    -7.009      2.202      3.283
REMARK INTER + INTRA:          -7.579
REMARK INTER:                  -7.526
REMARK INTRA:                  -0.053
REMARK UNBOUND:                 0.044
REMARK SMILES C[C@H]1[C@H](C)CC[C@@]2(C(=O)[O-])CC[C@@]3(C)C(=CC[C@H]4[C@]5(C)CC[C@H](O)C(C)(C)[C@H]5CC[C@]43C)[C@@H]12
REMARK SMILES IDX 7 1 6 2 11 3 33 4 5 5 12 6 15 7 2 8 3 9 13 10 16 11 1 12
REMARK SMILES IDX 4 13 14 14 31 15 17 16 18 17 30 18 32 19 19 20 29 21 28 22
REMARK SMILES IDX 21 23 20 24 25 25 22 26 23 27 26 28 27 29 8 30 9 31 10 32
REMARK SMILES IDX 24 33
REMARK H PARENT 24 34
REMARK Flexibility Score: inf
ROOT
ATOM      1  C   UNL     1      46.963 -36.470  -4.787  1.00  0.00     0.017 C 
ATOM      2  C   UNL     1      48.333 -36.219  -5.488  1.00  0.00     0.014 C 
ATOM      3  C   UNL     1      46.835 -37.994  -4.431  1.00  0.00     0.014 C 
ATOM      4  C   UNL     1      46.897 -35.556  -3.507  1.00  0.00     0.030 C 
ATOM      5  C   UNL     1      48.567 -34.744  -5.852  1.00  0.00     0.004 C 
ATOM      6  C   UNL     1      46.467 -38.249  -2.959  1.00  0.00     0.013 C 
ATOM      7  C   UNL     1      47.746 -36.166  -2.363  1.00  0.00    -0.063 C 
ATOM      8  C   UNL     1      47.110 -34.050  -3.899  1.00  0.00    -0.003 C 
ATOM      9  C   UNL     1      48.467 -33.820  -4.621  1.00  0.00    -0.011 C 
ATOM     10  C   UNL     1      47.528 -37.638  -1.979  1.00  0.00    -0.006 C 
ATOM     11  C   UNL     1      48.578 -35.441  -1.593  1.00  0.00    -0.027 C 
ATOM     12  C   UNL     1      46.803 -33.056  -2.753  1.00  0.00     0.008 C 
ATOM     13  C   UNL     1      48.639 -32.360  -5.071  1.00  0.00     0.008 C 
ATOM     14  C   UNL     1      48.858 -38.432  -2.229  1.00  0.00     0.017 C 
ATOM     15  C   UNL     1      47.099 -37.715  -0.427  1.00  0.00    -0.020 C 
ATOM     16  C   UNL     1      49.122 -35.978  -0.304  1.00  0.00     0.032 C 
ATOM     17  C   UNL     1      48.063 -36.808   0.496  1.00  0.00     0.006 C 
ATOM     18  C   UNL     1      45.624 -37.244  -0.243  1.00  0.00     0.008 C 
ATOM     19  C   UNL     1      47.154 -39.211   0.035  1.00  0.00     0.012 C 
ATOM     20  C   UNL     1      47.351 -35.948   1.652  1.00  0.00    -0.025 C 
ATOM     21  C   UNL     1      45.124 -37.199   1.215  1.00  0.00     0.005 C 
ATOM     22  C   UNL     1      46.207 -36.829   2.265  1.00  0.00     0.003 C 
ATOM     23  C   UNL     1      48.414 -35.657   2.771  1.00  0.00     0.010 C 
ATOM     24  C   UNL     1      46.793 -34.584   1.117  1.00  0.00     0.012 C 
ATOM     25  C   UNL     1      45.614 -36.370   3.661  1.00  0.00    -0.006 C 
ATOM     26  C   UNL     1      47.827 -35.160   4.101  1.00  0.00     0.033 C 
ATOM     27  C   UNL     1      46.785 -36.129   4.666  1.00  0.00     0.120 C 
ATOM     28  C   UNL     1      44.726 -35.096   3.593  1.00  0.00     0.014 C 
ATOM     29  C   UNL     1      44.710 -37.498   4.230  1.00  0.00     0.014 C 
ENDROOT
BRANCH   1  30
ATOM     30  C   UNL     1      45.813 -36.141  -5.737  1.00  0.00     0.048 C 
ATOM     31  O   UNL     1      45.991 -36.137  -6.985  1.00  0.00    -0.550 OA
ATOM     32  O   UNL     1      44.524 -35.960  -5.245  1.00  0.00    -0.550 OA
ENDBRANCH   1  30
BRANCH  27  33
ATOM     33  O   UNL     1      47.430 -37.340   4.987  1.00  0.00    -0.393 OA
ATOM     34  H   UNL     1      48.401 -37.212   4.821  1.00  0.00     0.210 HD
ENDBRANCH  27  33
TORSDOF 2
ENDMDL
MODEL 6
REMARK VINA RESULT:    -7.001      1.833      3.789
REMARK INTER + INTRA:          -7.571
REMARK INTER:                  -7.487
REMARK INTRA:                  -0.084
REMARK UNBOUND:                 0.044
REMARK SMILES C[C@H]1[C@H](C)CC[C@@]2(C(=O)[O-])CC[C@@]3(C)C(=CC[C@H]4[C@]5(C)CC[C@H](O)C(C)(C)[C@H]5CC[C@]43C)[C@@H]12
REMARK SMILES IDX 7 1 6 2 11 3 33 4 5 5 12 6 15 7 2 8 3 9 13 10 16 11 1 12
REMARK SMILES IDX 4 13 14 14 31 15 17 16 18 17 30 18 32 19 19 20 29 21 28 22
REMARK SMILES IDX 21 23 20 24 25 25 22 26 23 27 26 28 27 29 8 30 9 31 10 32
REMARK SMILES IDX 24 33
REMARK H PARENT 24 34
REMARK Flexibility Score: inf
ROOT
ATOM      1  C   UNL     1      47.874 -38.639  -3.590  1.00  0.00     0.017 C 
ATOM      2  C   UNL     1      46.920 -38.357  -4.791  1.00  0.00     0.014 C 
ATOM      3  C   UNL     1      48.975 -37.521  -3.530  1.00  0.00     0.014 C 
ATOM      4  C   UNL     1      47.005 -38.684  -2.279  1.00  0.00     0.030 C 
ATOM      5  C   UNL     1      45.784 -39.385  -4.919  1.00  0.00     0.004 C 
ATOM      6  C   UNL     1      49.104 -36.864  -2.145  1.00  0.00     0.013 C 
ATOM      7  C   UNL     1      46.638 -37.250  -1.824  1.00  0.00    -0.063 C 
ATOM      8  C   UNL     1      45.867 -39.758  -2.414  1.00  0.00    -0.003 C 
ATOM      9  C   UNL     1      44.941 -39.480  -3.631  1.00  0.00    -0.011 C 
ATOM     10  C   UNL     1      47.757 -36.205  -1.686  1.00  0.00    -0.006 C 
ATOM     11  C   UNL     1      45.406 -36.897  -1.413  1.00  0.00    -0.027 C 
ATOM     12  C   UNL     1      45.129 -40.059  -1.087  1.00  0.00     0.008 C 
ATOM     13  C   UNL     1      43.875 -40.574  -3.805  1.00  0.00     0.008 C 
ATOM     14  C   UNL     1      47.484 -35.030  -2.690  1.00  0.00     0.017 C 
ATOM     15  C   UNL     1      47.783 -35.664  -0.168  1.00  0.00    -0.020 C 
ATOM     16  C   UNL     1      45.163 -35.616  -0.674  1.00  0.00     0.032 C 
ATOM     17  C   UNL     1      46.301 -35.285   0.347  1.00  0.00     0.006 C 
ATOM     18  C   UNL     1      48.397 -36.736   0.785  1.00  0.00     0.008 C 
ATOM     19  C   UNL     1      48.720 -34.410  -0.098  1.00  0.00     0.012 C 
ATOM     20  C   UNL     1      45.929 -35.722   1.849  1.00  0.00    -0.025 C 
ATOM     21  C   UNL     1      48.403 -36.361   2.281  1.00  0.00     0.005 C 
ATOM     22  C   UNL     1      47.199 -35.495   2.741  1.00  0.00     0.003 C 
ATOM     23  C   UNL     1      44.781 -34.781   2.362  1.00  0.00     0.010 C 
ATOM     24  C   UNL     1      45.438 -37.208   1.928  1.00  0.00     0.012 C 
ATOM     25  C   UNL     1      46.985 -35.480   4.310  1.00  0.00    -0.006 C 
ATOM     26  C   UNL     1      44.548 -34.821   3.880  1.00  0.00     0.033 C 
ATOM     27  C   UNL     1      45.823 -34.498   4.664  1.00  0.00     0.120 C 
ATOM     28  C   UNL     1      46.683 -36.874   4.929  1.00  0.00     0.014 C 
ATOM     29  C   UNL     1      48.279 -34.971   5.002  1.00  0.00     0.014 C 
ENDROOT
BRANCH   1  30
ATOM     30  C   UNL     1      48.603 -39.966  -3.794  1.00  0.00     0.048 C 
ATOM     31  O   UNL     1      48.920 -40.356  -4.949  1.00  0.00    -0.550 OA
ATOM     32  O   UNL     1      49.035 -40.706  -2.697  1.00  0.00    -0.550 OA
ENDBRANCH   1  30
BRANCH  27  33
ATOM     33  O   UNL     1      46.190 -33.166   4.390  1.00  0.00    -0.393 OA
ATOM     34  H   UNL     1      45.552 -32.576   4.873  1.00  0.00     0.210 HD
ENDBRANCH  27  33
TORSDOF 2
ENDMDL
MODEL 7
REMARK VINA RESULT:    -6.973      2.480      3.418
REMARK INTER + INTRA:          -7.540
REMARK INTER:                  -7.655
REMARK INTRA:                   0.115
REMARK UNBOUND:                 0.044
REMARK SMILES C[C@H]1[C@H](C)CC[C@@]2(C(=O)[O-])CC[C@@]3(C)C(=CC[C@H]4[C@]5(C)CC[C@H](O)C(C)(C)[C@H]5CC[C@]43C)[C@@H]12
REMARK SMILES IDX 7 1 6 2 11 3 33 4 5 5 12 6 15 7 2 8 3 9 13 10 16 11 1 12
REMARK SMILES IDX 4 13 14 14 31 15 17 16 18 17 30 18 32 19 19 20 29 21 28 22
REMARK SMILES IDX 21 23 20 24 25 25 22 26 23 27 26 28 27 29 8 30 9 31 10 32
REMARK SMILES IDX 24 33
REMARK H PARENT 24 34
REMARK Flexibility Score: inf
ROOT
ATOM      1  C   UNL     1      48.362 -39.985  -3.200  1.00  0.00     0.017 C 
ATOM      2  C   UNL     1      49.660 -40.631  -2.624  1.00  0.00     0.014 C 
ATOM      3  C   UNL     1      47.159 -40.294  -2.238  1.00  0.00     0.014 C 
ATOM      4  C   UNL     1      48.615 -38.439  -3.351  1.00  0.00     0.030 C 
ATOM      5  C   UNL     1      50.905 -40.359  -3.484  1.00  0.00     0.004 C 
ATOM      6  C   UNL     1      46.368 -39.040  -1.826  1.00  0.00     0.013 C 
ATOM      7  C   UNL     1      48.515 -37.736  -1.974  1.00  0.00    -0.063 C 
ATOM      8  C   UNL     1      49.873 -38.177  -4.254  1.00  0.00    -0.003 C 
ATOM      9  C   UNL     1      51.153 -38.850  -3.684  1.00  0.00    -0.011 C 
ATOM     10  C   UNL     1      47.278 -37.990  -1.098  1.00  0.00    -0.006 C 
ATOM     11  C   UNL     1      49.394 -36.808  -1.552  1.00  0.00    -0.027 C 
ATOM     12  C   UNL     1      50.046 -36.697  -4.674  1.00  0.00     0.008 C 
ATOM     13  C   UNL     1      52.366 -38.656  -4.608  1.00  0.00     0.008 C 
ATOM     14  C   UNL     1      47.733 -38.666   0.243  1.00  0.00     0.017 C 
ATOM     15  C   UNL     1      46.544 -36.584  -0.810  1.00  0.00    -0.020 C 
ATOM     16  C   UNL     1      49.094 -35.918  -0.385  1.00  0.00     0.032 C 
ATOM     17  C   UNL     1      47.600 -35.453  -0.351  1.00  0.00     0.006 C 
ATOM     18  C   UNL     1      45.787 -36.091  -2.081  1.00  0.00     0.008 C 
ATOM     19  C   UNL     1      45.462 -36.801   0.302  1.00  0.00     0.012 C 
ATOM     20  C   UNL     1      47.396 -33.985  -0.973  1.00  0.00    -0.025 C 
ATOM     21  C   UNL     1      45.109 -34.712  -1.950  1.00  0.00     0.005 C 
ATOM     22  C   UNL     1      45.855 -33.703  -1.035  1.00  0.00     0.003 C 
ATOM     23  C   UNL     1      48.058 -32.945  -0.001  1.00  0.00     0.010 C 
ATOM     24  C   UNL     1      48.057 -33.846  -2.388  1.00  0.00     0.012 C 
ATOM     25  C   UNL     1      45.405 -32.198  -1.245  1.00  0.00    -0.006 C 
ATOM     26  C   UNL     1      47.655 -31.484  -0.252  1.00  0.00     0.033 C 
ATOM     27  C   UNL     1      46.137 -31.291  -0.205  1.00  0.00     0.120 C 
ATOM     28  C   UNL     1      45.660 -31.645  -2.675  1.00  0.00     0.014 C 
ATOM     29  C   UNL     1      43.875 -32.080  -1.001  1.00  0.00     0.014 C 
ENDROOT
BRANCH   1  30
ATOM     30  C   UNL     1      48.016 -40.604  -4.552  1.00  0.00     0.048 C 
ATOM     31  O   UNL     1      48.699 -41.554  -5.018  1.00  0.00    -0.550 OA
ATOM     32  O   UNL     1      46.868 -40.210  -5.233  1.00  0.00    -0.550 OA
ENDBRANCH   1  30
BRANCH  27  33
ATOM     33  O   UNL     1      45.693 -31.567   1.104  1.00  0.00    -0.393 OA
ATOM     34  H   UNL     1      46.289 -31.078   1.730  1.00  0.00     0.210 HD
ENDBRANCH  27  33
TORSDOF 2
ENDMDL
MODEL 8
REMARK VINA RESULT:    -6.911      2.165      3.783
REMARK INTER + INTRA:          -7.473
REMARK INTER:                  -7.401
REMARK INTRA:                  -0.073
REMARK UNBOUND:                 0.044
REMARK SMILES C[C@H]1[C@H](C)CC[C@@]2(C(=O)[O-])CC[C@@]3(C)C(=CC[C@H]4[C@]5(C)CC[C@H](O)C(C)(C)[C@H]5CC[C@]43C)[C@@H]12
REMARK SMILES IDX 7 1 6 2 11 3 33 4 5 5 12 6 15 7 2 8 3 9 13 10 16 11 1 12
REMARK SMILES IDX 4 13 14 14 31 15 17 16 18 17 30 18 32 19 19 20 29 21 28 22
REMARK SMILES IDX 21 23 20 24 25 25 22 26 23 27 26 28 27 29 8 30 9 31 10 32
REMARK SMILES IDX 24 33
REMARK H PARENT 24 34
REMARK Flexibility Score: inf
ROOT
ATOM      1  C   UNL     1      48.361 -36.619  -4.186  1.00  0.00     0.017 C 
ATOM      2  C   UNL     1      47.382 -37.264  -5.214  1.00  0.00     0.014 C 
ATOM      3  C   UNL     1      48.427 -35.070  -4.435  1.00  0.00     0.014 C 
ATOM      4  C   UNL     1      47.844 -36.964  -2.740  1.00  0.00     0.030 C 
ATOM      5  C   UNL     1      47.226 -38.782  -5.034  1.00  0.00     0.004 C 
ATOM      6  C   UNL     1      48.180 -34.236  -3.166  1.00  0.00     0.013 C 
ATOM      7  C   UNL     1      46.642 -36.060  -2.366  1.00  0.00    -0.063 C 
ATOM      8  C   UNL     1      47.716 -38.519  -2.562  1.00  0.00    -0.003 C 
ATOM      9  C   UNL     1      46.760 -39.151  -3.611  1.00  0.00    -0.011 C 
ATOM     10  C   UNL     1      46.775 -34.538  -2.535  1.00  0.00    -0.006 C 
ATOM     11  C   UNL     1      45.526 -36.523  -1.774  1.00  0.00    -0.027 C 
ATOM     12  C   UNL     1      47.468 -38.963  -1.100  1.00  0.00     0.008 C 
ATOM     13  C   UNL     1      46.696 -40.682  -3.482  1.00  0.00     0.008 C 
ATOM     14  C   UNL     1      45.714 -34.047  -3.582  1.00  0.00     0.017 C 
ATOM     15  C   UNL     1      46.539 -33.831  -1.106  1.00  0.00    -0.020 C 
ATOM     16  C   UNL     1      44.539 -35.597  -1.130  1.00  0.00     0.032 C 
ATOM     17  C   UNL     1      45.229 -34.416  -0.369  1.00  0.00     0.006 C 
ATOM     18  C   UNL     1      47.780 -34.035  -0.183  1.00  0.00     0.008 C 
ATOM     19  C   UNL     1      46.393 -32.287  -1.329  1.00  0.00     0.012 C 
ATOM     20  C   UNL     1      45.354 -34.689   1.210  1.00  0.00    -0.025 C 
ATOM     21  C   UNL     1      47.639 -33.467   1.244  1.00  0.00     0.005 C 
ATOM     22  C   UNL     1      46.202 -33.524   1.830  1.00  0.00     0.003 C 
ATOM     23  C   UNL     1      43.912 -34.646   1.830  1.00  0.00     0.010 C 
ATOM     24  C   UNL     1      45.996 -36.085   1.520  1.00  0.00     0.012 C 
ATOM     25  C   UNL     1      46.146 -33.350   3.403  1.00  0.00    -0.006 C 
ATOM     26  C   UNL     1      43.875 -34.533   3.362  1.00  0.00     0.033 C 
ATOM     27  C   UNL     1      44.654 -33.315   3.866  1.00  0.00     0.120 C 
ATOM     28  C   UNL     1      46.903 -34.451   4.198  1.00  0.00     0.014 C 
ATOM     29  C   UNL     1      46.807 -32.000   3.795  1.00  0.00     0.014 C 
ENDROOT
BRANCH   1  30
ATOM     30  C   UNL     1      49.776 -37.159  -4.389  1.00  0.00     0.048 C 
ATOM     31  O   UNL     1      50.232 -37.346  -5.549  1.00  0.00    -0.550 OA
ATOM     32  O   UNL     1      50.623 -37.338  -3.301  1.00  0.00    -0.550 OA
ENDBRANCH   1  30
BRANCH  27  33
ATOM     33  O   UNL     1      44.010 -32.151   3.404  1.00  0.00    -0.393 OA
ATOM     34  H   UNL     1      44.081 -32.145   2.413  1.00  0.00     0.210 HD
ENDBRANCH  27  33
TORSDOF 2
ENDMDL
MODEL 9
REMARK VINA RESULT:    -6.437      2.215      7.296
REMARK INTER + INTRA:          -6.957
REMARK INTER:                  -6.870
REMARK INTRA:                  -0.087
REMARK UNBOUND:                 0.044
REMARK SMILES C[C@H]1[C@H](C)CC[C@@]2(C(=O)[O-])CC[C@@]3(C)C(=CC[C@H]4[C@]5(C)CC[C@H](O)C(C)(C)[C@H]5CC[C@]43C)[C@@H]12
REMARK SMILES IDX 7 1 6 2 11 3 33 4 5 5 12 6 15 7 2 8 3 9 13 10 16 11 1 12
REMARK SMILES IDX 4 13 14 14 31 15 17 16 18 17 30 18 32 19 19 20 29 21 28 22
REMARK SMILES IDX 21 23 20 24 25 25 22 26 23 27 26 28 27 29 8 30 9 31 10 32
REMARK SMILES IDX 24 33
REMARK H PARENT 24 34
REMARK Flexibility Score: inf
ROOT
ATOM      1  C   UNL     1      44.793 -35.317   0.547  1.00  0.00     0.017 C 
ATOM      2  C   UNL     1      44.162 -34.018  -0.043  1.00  0.00     0.014 C 
ATOM      3  C   UNL     1      43.875 -36.543   0.199  1.00  0.00     0.014 C 
ATOM      4  C   UNL     1      46.239 -35.471  -0.055  1.00  0.00     0.030 C 
ATOM      5  C   UNL     1      45.005 -32.760   0.220  1.00  0.00     0.004 C 
ATOM      6  C   UNL     1      44.634 -37.707  -0.462  1.00  0.00     0.013 C 
ATOM      7  C   UNL     1      46.166 -36.006  -1.507  1.00  0.00    -0.063 C 
ATOM      8  C   UNL     1      47.096 -34.190   0.247  1.00  0.00    -0.003 C 
ATOM      9  C   UNL     1      46.441 -32.901  -0.322  1.00  0.00    -0.011 C 
ATOM     10  C   UNL     1      45.332 -37.264  -1.795  1.00  0.00    -0.006 C 
ATOM     11  C   UNL     1      46.902 -35.505  -2.517  1.00  0.00    -0.027 C 
ATOM     12  C   UNL     1      48.601 -34.355  -0.073  1.00  0.00     0.008 C 
ATOM     13  C   UNL     1      47.243 -31.640   0.039  1.00  0.00     0.008 C 
ATOM     14  C   UNL     1      44.175 -36.893  -2.788  1.00  0.00     0.017 C 
ATOM     15  C   UNL     1      46.291 -38.393  -2.431  1.00  0.00    -0.020 C 
ATOM     16  C   UNL     1      47.061 -36.242  -3.812  1.00  0.00     0.032 C 
ATOM     17  C   UNL     1      47.211 -37.787  -3.610  1.00  0.00     0.006 C 
ATOM     18  C   UNL     1      47.209 -39.013  -1.333  1.00  0.00     0.008 C 
ATOM     19  C   UNL     1      45.399 -39.557  -2.982  1.00  0.00     0.012 C 
ATOM     20  C   UNL     1      48.745 -38.267  -3.644  1.00  0.00    -0.025 C 
ATOM     21  C   UNL     1      48.230 -40.054  -1.839  1.00  0.00     0.005 C 
ATOM     22  C   UNL     1      48.777 -39.789  -3.268  1.00  0.00     0.003 C 
ATOM     23  C   UNL     1      49.278 -38.100  -5.111  1.00  0.00     0.010 C 
ATOM     24  C   UNL     1      49.650 -37.425  -2.679  1.00  0.00     0.012 C 
ATOM     25  C   UNL     1      50.105 -40.586  -3.601  1.00  0.00    -0.006 C 
ATOM     26  C   UNL     1      50.597 -38.834  -5.402  1.00  0.00     0.033 C 
ATOM     27  C   UNL     1      50.502 -40.330  -5.090  1.00  0.00     0.120 C 
ATOM     28  C   UNL     1      51.310 -40.237  -2.683  1.00  0.00     0.014 C 
ATOM     29  C   UNL     1      49.851 -42.108  -3.421  1.00  0.00     0.014 C 
ENDROOT
BRANCH   1  30
ATOM     30  C   UNL     1      44.855 -35.231   2.071  1.00  0.00     0.048 C 
ATOM     31  O   UNL     1      43.961 -34.622   2.718  1.00  0.00    -0.550 OA
ATOM     32  O   UNL     1      45.833 -35.926   2.775  1.00  0.00    -0.550 OA
ENDBRANCH   1  30
BRANCH  27  33
ATOM     33  O   UNL     1      49.565 -40.910  -5.968  1.00  0.00    -0.393 OA
ATOM     34  H   UNL     1      49.047 -40.171  -6.382  1.00  0.00     0.210 HD
ENDBRANCH  27  33
TORSDOF 2
ENDMDL
