MODEL 1
REMARK VINA RESULT:    -6.148      0.000      0.000
REMARK INTER + INTRA:          -9.538
REMARK INTER:                  -8.484
REMARK INTRA:                  -1.054
REMARK UNBOUND:                -1.054
REMARK SMILES CC[C@@H](CC[C@H](C)[C@@H]1CC[C@@H]2[C@H]3CC=C4C[C@H](O)CC[C@]4(C)[C@H]3CC[C@@]21C)C(C)C
REMARK SMILES IDX 5 1 4 2 3 3 2 4 1 5 28 6 29 7 30 8 6 9 7 10 8 11 9 12 26 13
REMARK SMILES IDX 10 14 11 15 25 16 27 17 12 18 24 19 23 20 13 21 21 22 14 23
REMARK SMILES IDX 15 24 20 25 22 26 16 27 19 28 17 29 18 30
REMARK H PARENT 18 31
REMARK Flexibility Score: inf
ROOT
ATOM      1  C   UNL     1     -23.796 -16.199 -13.197  1.00  0.00     0.004 C 
ENDROOT
BRANCH   1   2
ATOM      2  C   UNL     1     -23.922 -16.106 -14.737  1.00  0.00     0.004 C 
BRANCH   2   3
ATOM      3  C   UNL     1     -23.377 -14.787 -15.376  1.00  0.00    -0.009 C 
BRANCH   3   4
ATOM      4  C   UNL     1     -22.723 -13.904 -14.276  1.00  0.00     0.000 C 
ATOM      5  C   UNL     1     -21.194 -13.888 -14.331  1.00  0.00     0.004 C 
ENDBRANCH   3   4
BRANCH   3   6
ATOM      6  C   UNL     1     -24.442 -14.000 -16.223  1.00  0.00    -0.014 C 
ATOM      7  C   UNL     1     -25.821 -13.875 -15.552  1.00  0.00     0.007 C 
ATOM      8  C   UNL     1     -24.597 -14.559 -17.643  1.00  0.00     0.007 C 
ENDBRANCH   3   6
ENDBRANCH   2   3
ENDBRANCH   1   2
BRANCH   1   9
ATOM      9  C   UNL     1     -23.105 -17.470 -12.619  1.00  0.00    -0.011 C 
ATOM     10  C   UNL     1     -22.368 -18.238 -13.736  1.00  0.00     0.008 C 
BRANCH   9  11
ATOM     11  C   UNL     1     -23.960 -18.359 -11.636  1.00  0.00    -0.002 C 
ATOM     12  C   UNL     1     -23.072 -19.096 -10.625  1.00  0.00     0.005 C 
ATOM     13  C   UNL     1     -24.967 -19.457 -12.145  1.00  0.00    -0.026 C 
ATOM     14  C   UNL     1     -23.001 -20.546 -11.073  1.00  0.00     0.005 C 
ATOM     15  C   UNL     1     -24.254 -20.833 -11.920  1.00  0.00    -0.001 C 
ATOM     16  C   UNL     1     -25.464 -19.295 -13.607  1.00  0.00     0.007 C 
ATOM     17  C   UNL     1     -26.215 -19.393 -11.209  1.00  0.00     0.012 C 
ATOM     18  C   UNL     1     -23.900 -21.622 -13.224  1.00  0.00     0.000 C 
ATOM     19  C   UNL     1     -26.122 -20.577 -14.124  1.00  0.00     0.005 C 
ATOM     20  C   UNL     1     -25.092 -21.728 -14.250  1.00  0.00     0.003 C 
ATOM     21  C   UNL     1     -23.262 -22.999 -12.876  1.00  0.00     0.031 C 
ATOM     22  C   UNL     1     -25.741 -23.159 -14.359  1.00  0.00    -0.008 C 
ATOM     23  C   UNL     1     -23.438 -24.023 -13.958  1.00  0.00    -0.027 C 
ATOM     24  C   UNL     1     -24.611 -24.160 -14.602  1.00  0.00    -0.065 C 
ATOM     25  C   UNL     1     -26.713 -23.201 -15.577  1.00  0.00     0.014 C 
ATOM     26  C   UNL     1     -26.520 -23.552 -13.077  1.00  0.00     0.016 C 
ATOM     27  C   UNL     1     -24.738 -25.193 -15.700  1.00  0.00     0.063 C 
ATOM     28  C   UNL     1     -27.227 -24.615 -15.920  1.00  0.00     0.033 C 
ATOM     29  C   UNL     1     -26.169 -25.736 -15.758  1.00  0.00     0.118 C 
BRANCH  29  30
ATOM     30  O   UNL     1     -26.268 -26.652 -16.816  1.00  0.00    -0.393 OA
ATOM     31  H   UNL     1     -25.946 -26.184 -17.631  1.00  0.00     0.210 HD
ENDBRANCH  29  30
ENDBRANCH   9  11
ENDBRANCH   1   9
TORSDOF 7
ENDMDL
MODEL 2
REMARK VINA RESULT:    -5.423      0.556      1.546
REMARK INTER + INTRA:          -8.538
REMARK INTER:                  -7.586
REMARK INTRA:                  -0.952
REMARK UNBOUND:                -1.054
REMARK SMILES CC[C@@H](CC[C@H](C)[C@@H]1CC[C@@H]2[C@H]3CC=C4C[C@H](O)CC[C@]4(C)[C@H]3CC[C@@]21C)C(C)C
REMARK SMILES IDX 5 1 4 2 3 3 2 4 1 5 28 6 29 7 30 8 6 9 7 10 8 11 9 12 26 13
REMARK SMILES IDX 10 14 11 15 25 16 27 17 12 18 24 19 23 20 13 21 21 22 14 23
REMARK SMILES IDX 15 24 20 25 22 26 16 27 19 28 17 29 18 30
REMARK H PARENT 18 31
REMARK Flexibility Score: inf
ROOT
ATOM      1  C   UNL     1     -23.695 -16.005 -12.896  1.00  0.00     0.004 C 
ENDROOT
BRANCH   1   2
ATOM      2  C   UNL     1     -24.410 -15.813 -14.256  1.00  0.00     0.004 C 
BRANCH   2   3
ATOM      3  C   UNL     1     -24.407 -14.353 -14.815  1.00  0.00    -0.009 C 
BRANCH   3   4
ATOM      4  C   UNL     1     -25.820 -13.997 -15.357  1.00  0.00     0.000 C 
ATOM      5  C   UNL     1     -26.668 -15.221 -15.707  1.00  0.00     0.004 C 
ENDBRANCH   3   4
BRANCH   3   6
ATOM      6  C   UNL     1     -23.273 -14.073 -15.866  1.00  0.00    -0.014 C 
ATOM      7  C   UNL     1     -23.307 -14.996 -17.098  1.00  0.00     0.007 C 
ATOM      8  C   UNL     1     -21.872 -14.085 -15.241  1.00  0.00     0.007 C 
ENDBRANCH   3   6
ENDBRANCH   2   3
ENDBRANCH   1   2
BRANCH   1   9
ATOM      9  C   UNL     1     -23.135 -17.426 -12.585  1.00  0.00    -0.011 C 
ATOM     10  C   UNL     1     -22.674 -18.119 -13.883  1.00  0.00     0.008 C 
BRANCH   9  11
ATOM     11  C   UNL     1     -23.981 -18.322 -11.601  1.00  0.00    -0.002 C 
ATOM     12  C   UNL     1     -23.086 -19.056 -10.594  1.00  0.00     0.005 C 
ATOM     13  C   UNL     1     -24.984 -19.426 -12.109  1.00  0.00    -0.026 C 
ATOM     14  C   UNL     1     -23.007 -20.504 -11.046  1.00  0.00     0.005 C 
ATOM     15  C   UNL     1     -24.260 -20.797 -11.890  1.00  0.00    -0.001 C 
ATOM     16  C   UNL     1     -25.486 -19.264 -13.570  1.00  0.00     0.007 C 
ATOM     17  C   UNL     1     -26.229 -19.372 -11.169  1.00  0.00     0.012 C 
ATOM     18  C   UNL     1     -23.905 -21.582 -13.196  1.00  0.00     0.000 C 
ATOM     19  C   UNL     1     -26.137 -20.549 -14.088  1.00  0.00     0.005 C 
ATOM     20  C   UNL     1     -25.099 -21.693 -14.219  1.00  0.00     0.003 C 
ATOM     21  C   UNL     1     -23.257 -22.955 -12.854  1.00  0.00     0.031 C 
ATOM     22  C   UNL     1     -25.739 -23.128 -14.330  1.00  0.00    -0.008 C 
ATOM     23  C   UNL     1     -23.430 -23.977 -13.937  1.00  0.00    -0.027 C 
ATOM     24  C   UNL     1     -24.604 -24.121 -14.578  1.00  0.00    -0.065 C 
ATOM     25  C   UNL     1     -26.715 -23.174 -15.545  1.00  0.00     0.014 C 
ATOM     26  C   UNL     1     -26.512 -23.529 -13.046  1.00  0.00     0.016 C 
ATOM     27  C   UNL     1     -24.727 -25.152 -15.678  1.00  0.00     0.063 C 
ATOM     28  C   UNL     1     -27.220 -24.590 -15.889  1.00  0.00     0.033 C 
ATOM     29  C   UNL     1     -26.155 -25.704 -15.733  1.00  0.00     0.118 C 
BRANCH  29  30
ATOM     30  O   UNL     1     -26.251 -26.619 -16.793  1.00  0.00    -0.393 OA
ATOM     31  H   UNL     1     -27.074 -27.152 -16.636  1.00  0.00     0.210 HD
ENDBRANCH  29  30
ENDBRANCH   9  11
ENDBRANCH   1   9
TORSDOF 7
ENDMDL
MODEL 3
REMARK VINA RESULT:    -4.080      0.693      2.057
REMARK INTER + INTRA:          -6.683
REMARK INTER:                  -5.915
REMARK INTRA:                  -0.769
REMARK UNBOUND:                -1.054
REMARK SMILES CC[C@@H](CC[C@H](C)[C@@H]1CC[C@@H]2[C@H]3CC=C4C[C@H](O)CC[C@]4(C)[C@H]3CC[C@@]21C)C(C)C
REMARK SMILES IDX 5 1 4 2 3 3 2 4 1 5 28 6 29 7 30 8 6 9 7 10 8 11 9 12 26 13
REMARK SMILES IDX 10 14 11 15 25 16 27 17 12 18 24 19 23 20 13 21 21 22 14 23
REMARK SMILES IDX 15 24 20 25 22 26 16 27 19 28 17 29 18 30
REMARK H PARENT 18 31
REMARK Flexibility Score: inf
ROOT
ATOM      1  C   UNL     1     -23.862 -15.801 -13.362  1.00  0.00     0.004 C 
ENDROOT
BRANCH   1   2
ATOM      2  C   UNL     1     -23.035 -14.523 -13.080  1.00  0.00     0.004 C 
BRANCH   2   3
ATOM      3  C   UNL     1     -22.145 -14.025 -14.266  1.00  0.00    -0.009 C 
BRANCH   3   4
ATOM      4  C   UNL     1     -22.654 -14.644 -15.598  1.00  0.00     0.000 C 
ATOM      5  C   UNL     1     -23.990 -14.068 -16.071  1.00  0.00     0.004 C 
ENDBRANCH   3   4
BRANCH   3   6
ATOM      6  C   UNL     1     -20.606 -14.251 -14.048  1.00  0.00    -0.014 C 
ATOM      7  C   UNL     1     -20.115 -15.667 -14.402  1.00  0.00     0.007 C 
ATOM      8  C   UNL     1     -20.148 -13.875 -12.634  1.00  0.00     0.007 C 
ENDBRANCH   3   6
ENDBRANCH   2   3
ENDBRANCH   1   2
BRANCH   1   9
ATOM      9  C   UNL     1     -23.233 -17.159 -12.927  1.00  0.00    -0.011 C 
ATOM     10  C   UNL     1     -22.688 -17.919 -14.153  1.00  0.00     0.008 C 
BRANCH   9  11
ATOM     11  C   UNL     1     -24.059 -18.029 -11.903  1.00  0.00    -0.002 C 
ATOM     12  C   UNL     1     -23.150 -18.687 -10.857  1.00  0.00     0.005 C 
ATOM     13  C   UNL     1     -25.028 -19.184 -12.360  1.00  0.00    -0.026 C 
ATOM     14  C   UNL     1     -23.029 -20.153 -11.236  1.00  0.00     0.005 C 
ATOM     15  C   UNL     1     -24.269 -20.522 -12.070  1.00  0.00    -0.001 C 
ATOM     16  C   UNL     1     -25.527 -19.108 -13.829  1.00  0.00     0.007 C 
ATOM     17  C   UNL     1     -26.280 -19.118 -11.428  1.00  0.00     0.012 C 
ATOM     18  C   UNL     1     -23.886 -21.360 -13.334  1.00  0.00     0.000 C 
ATOM     19  C   UNL     1     -26.140 -20.434 -14.285  1.00  0.00     0.005 C 
ATOM     20  C   UNL     1     -25.071 -21.554 -14.355  1.00  0.00     0.003 C 
ATOM     21  C   UNL     1     -23.202 -22.696 -12.921  1.00  0.00     0.031 C 
ATOM     22  C   UNL     1     -25.671 -23.010 -14.396  1.00  0.00    -0.008 C 
ATOM     23  C   UNL     1     -23.342 -23.775 -13.953  1.00  0.00    -0.027 C 
ATOM     24  C   UNL     1     -24.508 -23.983 -14.591  1.00  0.00    -0.065 C 
ATOM     25  C   UNL     1     -26.639 -23.143 -15.612  1.00  0.00     0.014 C 
ATOM     26  C   UNL     1     -26.439 -23.368 -13.098  1.00  0.00     0.016 C 
ATOM     27  C   UNL     1     -24.597 -25.070 -15.639  1.00  0.00     0.063 C 
ATOM     28  C   UNL     1     -27.103 -24.588 -15.888  1.00  0.00     0.033 C 
ATOM     29  C   UNL     1     -26.009 -25.663 -15.672  1.00  0.00     0.118 C 
BRANCH  29  30
ATOM     30  O   UNL     1     -26.075 -26.632 -16.685  1.00  0.00    -0.393 OA
ATOM     31  H   UNL     1     -25.604 -26.253 -17.474  1.00  0.00     0.210 HD
ENDBRANCH  29  30
ENDBRANCH   9  11
ENDBRANCH   1   9
TORSDOF 7
ENDMDL
MODEL 4
REMARK VINA RESULT:    -3.321      2.777      7.608
REMARK INTER + INTRA:          -5.636
REMARK INTER:                  -4.142
REMARK INTRA:                  -1.494
REMARK UNBOUND:                -1.054
REMARK SMILES CC[C@@H](CC[C@H](C)[C@@H]1CC[C@@H]2[C@H]3CC=C4C[C@H](O)CC[C@]4(C)[C@H]3CC[C@@]21C)C(C)C
REMARK SMILES IDX 5 1 4 2 3 3 2 4 1 5 28 6 29 7 30 8 6 9 7 10 8 11 9 12 26 13
REMARK SMILES IDX 10 14 11 15 25 16 27 17 12 18 24 19 23 20 13 21 21 22 14 23
REMARK SMILES IDX 15 24 20 25 22 26 16 27 19 28 17 29 18 30
REMARK H PARENT 18 31
REMARK Flexibility Score: inf
ROOT
ATOM      1  C   UNL     1     -26.673 -22.266 -12.968  1.00  0.00     0.004 C 
ENDROOT
BRANCH   1   2
ATOM      2  C   UNL     1     -25.752 -23.410 -13.459  1.00  0.00     0.004 C 
BRANCH   2   3
ATOM      3  C   UNL     1     -24.627 -22.983 -14.457  1.00  0.00    -0.009 C 
BRANCH   3   4
ATOM      4  C   UNL     1     -24.821 -23.720 -15.812  1.00  0.00     0.000 C 
ATOM      5  C   UNL     1     -24.591 -25.230 -15.727  1.00  0.00     0.004 C 
ENDBRANCH   3   4
BRANCH   3   6
ATOM      6  C   UNL     1     -23.171 -23.147 -13.888  1.00  0.00    -0.014 C 
ATOM      7  C   UNL     1     -23.109 -23.706 -12.455  1.00  0.00     0.007 C 
ATOM      8  C   UNL     1     -22.350 -21.855 -13.984  1.00  0.00     0.007 C 
ENDBRANCH   3   6
ENDBRANCH   2   3
ENDBRANCH   1   2
BRANCH   1   9
ATOM      9  C   UNL     1     -27.130 -22.316 -11.479  1.00  0.00    -0.011 C 
ATOM     10  C   UNL     1     -28.489 -23.034 -11.356  1.00  0.00     0.008 C 
BRANCH   9  11
ATOM     11  C   UNL     1     -26.989 -20.983 -10.648  1.00  0.00    -0.002 C 
ATOM     12  C   UNL     1     -28.281 -20.155 -10.685  1.00  0.00     0.005 C 
ATOM     13  C   UNL     1     -25.846 -19.934 -10.915  1.00  0.00    -0.026 C 
ATOM     14  C   UNL     1     -28.037 -18.997 -11.637  1.00  0.00     0.005 C 
ATOM     15  C   UNL     1     -26.519 -18.753 -11.693  1.00  0.00    -0.001 C 
ATOM     16  C   UNL     1     -24.591 -20.473 -11.655  1.00  0.00     0.007 C 
ATOM     17  C   UNL     1     -25.385 -19.403  -9.521  1.00  0.00     0.012 C 
ATOM     18  C   UNL     1     -26.020 -18.551 -13.162  1.00  0.00     0.000 C 
ATOM     19  C   UNL     1     -23.721 -19.334 -12.193  1.00  0.00     0.005 C 
ATOM     20  C   UNL     1     -24.451 -18.547 -13.310  1.00  0.00     0.003 C 
ATOM     21  C   UNL     1     -26.704 -17.311 -13.809  1.00  0.00     0.031 C 
ATOM     22  C   UNL     1     -23.823 -17.135 -13.613  1.00  0.00    -0.008 C 
ATOM     23  C   UNL     1     -25.900 -16.705 -14.921  1.00  0.00    -0.027 C 
ATOM     24  C   UNL     1     -24.569 -16.546 -14.811  1.00  0.00    -0.065 C 
ATOM     25  C   UNL     1     -22.321 -17.301 -13.996  1.00  0.00     0.014 C 
ATOM     26  C   UNL     1     -23.932 -16.170 -12.404  1.00  0.00     0.016 C 
ATOM     27  C   UNL     1     -23.795 -15.948 -15.965  1.00  0.00     0.063 C 
ATOM     28  C   UNL     1     -21.666 -16.013 -14.538  1.00  0.00     0.033 C 
ATOM     29  C   UNL     1     -22.588 -15.161 -15.446  1.00  0.00     0.118 C 
BRANCH  29  30
ATOM     30  O   UNL     1     -21.863 -14.662 -16.539  1.00  0.00    -0.393 OA
ATOM     31  H   UNL     1     -21.818 -15.394 -17.210  1.00  0.00     0.210 HD
ENDBRANCH  29  30
ENDBRANCH   9  11
ENDBRANCH   1   9
TORSDOF 7
ENDMDL
