MODEL 1
REMARK VINA RESULT:    -6.861      0.000      0.000
REMARK INTER + INTRA:         -10.325
REMARK INTER:                  -9.067
REMARK INTRA:                  -1.258
REMARK UNBOUND:                -1.258
REMARK SMILES CC[C@@H](C=C[C@@H](C)[C@@H]1CC[C@@H]2C3=CC[C@@H]4C[C@H](O)CC[C@]4(C)[C@@H]3CC[C@]21C)C(C)C
REMARK SMILES IDX 6 1 7 2 5 3 4 4 3 5 2 6 1 7 28 8 29 9 30 10 8 11 9 12 26 13
REMARK SMILES IDX 10 14 11 15 25 16 27 17 12 18 24 19 23 20 13 21 21 22 14 23
REMARK SMILES IDX 15 24 20 25 22 26 16 27 19 28 17 29 18 30
REMARK H PARENT 18 31
REMARK Flexibility Score: inf
ROOT
ATOM      1  C   UNL     1     139.955 138.522 144.617  1.00  0.00     0.012 C 
ATOM      2  C   UNL     1     139.588 138.035 143.203  1.00  0.00     0.012 C 
ENDROOT
BRANCH   1   3
ATOM      3  C   UNL     1     139.045 139.687 144.940  1.00  0.00    -0.028 C 
ATOM      4  C   UNL     1     139.435 140.718 145.707  1.00  0.00    -0.027 C 
BRANCH   4   5
ATOM      5  C   UNL     1     138.469 141.826 146.078  1.00  0.00     0.014 C 
BRANCH   5   6
ATOM      6  C   UNL     1     138.582 142.957 145.023  1.00  0.00     0.004 C 
ATOM      7  C   UNL     1     137.419 143.006 144.031  1.00  0.00     0.004 C 
ENDBRANCH   5   6
BRANCH   5   8
ATOM      8  C   UNL     1     138.716 142.248 147.564  1.00  0.00    -0.011 C 
ATOM      9  C   UNL     1     139.207 141.089 148.449  1.00  0.00     0.008 C 
ATOM     10  C   UNL     1     137.513 142.954 148.210  1.00  0.00     0.008 C 
ENDBRANCH   5   8
ENDBRANCH   4   5
ENDBRANCH   1   3
BRANCH   1  11
ATOM     11  C   UNL     1     141.441 138.959 144.852  1.00  0.00     0.002 C 
ATOM     12  C   UNL     1     142.261 139.353 143.600  1.00  0.00     0.005 C 
ATOM     13  C   UNL     1     142.378 138.013 145.646  1.00  0.00    -0.023 C 
ATOM     14  C   UNL     1     143.738 139.089 143.956  1.00  0.00     0.009 C 
ATOM     15  C   UNL     1     143.714 138.732 145.444  1.00  0.00     0.021 C 
ATOM     16  C   UNL     1     142.109 137.955 147.166  1.00  0.00     0.008 C 
ATOM     17  C   UNL     1     142.393 136.575 145.044  1.00  0.00     0.012 C 
ATOM     18  C   UNL     1     144.863 137.985 146.090  1.00  0.00    -0.067 C 
ATOM     19  C   UNL     1     143.221 137.170 147.902  1.00  0.00     0.009 C 
ATOM     20  C   UNL     1     144.676 137.660 147.575  1.00  0.00     0.021 C 
ATOM     21  C   UNL     1     146.085 138.008 145.531  1.00  0.00    -0.027 C 
ATOM     22  C   UNL     1     145.821 136.767 148.207  1.00  0.00    -0.023 C 
ATOM     23  C   UNL     1     147.281 137.372 146.159  1.00  0.00     0.031 C 
ATOM     24  C   UNL     1     147.205 137.285 147.701  1.00  0.00     0.002 C 
ATOM     25  C   UNL     1     145.688 135.260 147.835  1.00  0.00     0.010 C 
ATOM     26  C   UNL     1     145.730 136.926 149.755  1.00  0.00     0.012 C 
ATOM     27  C   UNL     1     148.391 136.440 148.236  1.00  0.00     0.036 C 
ATOM     28  C   UNL     1     146.839 134.399 148.387  1.00  0.00     0.032 C 
ATOM     29  C   UNL     1     148.238 134.916 148.016  1.00  0.00     0.114 C 
BRANCH  29  30
ATOM     30  O   UNL     1     148.538 134.561 146.692  1.00  0.00    -0.393 OA
ATOM     31  H   UNL     1     148.264 133.613 146.574  1.00  0.00     0.210 HD
ENDBRANCH  29  30
ENDBRANCH   1  11
TORSDOF 6
ENDMDL
MODEL 2
REMARK VINA RESULT:    -6.845      6.203     12.456
REMARK INTER + INTRA:         -10.305
REMARK INTER:                  -9.104
REMARK INTRA:                  -1.201
REMARK UNBOUND:                -1.258
REMARK SMILES CC[C@@H](C=C[C@@H](C)[C@@H]1CC[C@@H]2C3=CC[C@@H]4C[C@H](O)CC[C@]4(C)[C@@H]3CC[C@]21C)C(C)C
REMARK SMILES IDX 6 1 7 2 5 3 4 4 3 5 2 6 1 7 28 8 29 9 30 10 8 11 9 12 26 13
REMARK SMILES IDX 10 14 11 15 25 16 27 17 12 18 24 19 23 20 13 21 21 22 14 23
REMARK SMILES IDX 15 24 20 25 22 26 16 27 19 28 17 29 18 30
REMARK H PARENT 18 31
REMARK Flexibility Score: inf
ROOT
ATOM      1  C   UNL     1     138.410 141.319 142.695  1.00  0.00     0.012 C 
ATOM      2  C   UNL     1     138.743 139.904 142.186  1.00  0.00     0.012 C 
ENDROOT
BRANCH   1   3
ATOM      3  C   UNL     1     138.565 141.303 144.200  1.00  0.00    -0.028 C 
ATOM      4  C   UNL     1     139.491 142.037 144.839  1.00  0.00    -0.027 C 
BRANCH   4   5
ATOM      5  C   UNL     1     139.673 141.931 146.340  1.00  0.00     0.014 C 
BRANCH   5   6
ATOM      6  C   UNL     1     139.205 140.525 146.798  1.00  0.00     0.004 C 
ATOM      7  C   UNL     1     140.320 139.479 146.852  1.00  0.00     0.004 C 
ENDBRANCH   5   6
BRANCH   5   8
ATOM      8  C   UNL     1     138.970 143.146 147.031  1.00  0.00    -0.011 C 
ATOM      9  C   UNL     1     139.922 143.978 147.907  1.00  0.00     0.008 C 
ATOM     10  C   UNL     1     137.706 142.758 147.816  1.00  0.00     0.008 C 
ENDBRANCH   5   8
ENDBRANCH   4   5
ENDBRANCH   1   3
BRANCH   1  11
ATOM     11  C   UNL     1     136.992 141.883 142.338  1.00  0.00     0.002 C 
ATOM     12  C   UNL     1     136.243 141.204 141.167  1.00  0.00     0.005 C 
ATOM     13  C   UNL     1     136.844 143.402 142.063  1.00  0.00    -0.023 C 
ATOM     14  C   UNL     1     135.284 142.270 140.598  1.00  0.00     0.009 C 
ATOM     15  C   UNL     1     135.393 143.442 141.575  1.00  0.00     0.021 C 
ATOM     16  C   UNL     1     136.935 144.303 143.316  1.00  0.00     0.008 C 
ATOM     17  C   UNL     1     137.841 143.893 140.971  1.00  0.00     0.012 C 
ATOM     18  C   UNL     1     134.970 144.841 141.172  1.00  0.00    -0.067 C 
ATOM     19  C   UNL     1     136.555 145.765 142.983  1.00  0.00     0.009 C 
ATOM     20  C   UNL     1     135.181 145.918 142.240  1.00  0.00     0.021 C 
ATOM     21  C   UNL     1     134.100 145.020 140.164  1.00  0.00    -0.027 C 
ATOM     22  C   UNL     1     134.858 147.393 141.765  1.00  0.00    -0.023 C 
ATOM     23  C   UNL     1     133.570 146.361 139.774  1.00  0.00     0.031 C 
ATOM     24  C   UNL     1     133.534 147.380 140.935  1.00  0.00     0.002 C 
ATOM     25  C   UNL     1     135.989 148.007 140.888  1.00  0.00     0.010 C 
ATOM     26  C   UNL     1     134.671 148.262 143.047  1.00  0.00     0.012 C 
ATOM     27  C   UNL     1     133.158 148.783 140.389  1.00  0.00     0.036 C 
ATOM     28  C   UNL     1     135.648 149.415 140.364  1.00  0.00     0.032 C 
ATOM     29  C   UNL     1     134.301 149.497 139.628  1.00  0.00     0.114 C 
BRANCH  29  30
ATOM     30  O   UNL     1     134.441 148.990 138.327  1.00  0.00    -0.393 OA
ATOM     31  H   UNL     1     134.956 148.144 138.396  1.00  0.00     0.210 HD
ENDBRANCH  29  30
ENDBRANCH   1  11
TORSDOF 6
ENDMDL
MODEL 3
REMARK VINA RESULT:    -6.679      4.574      9.692
REMARK INTER + INTRA:         -10.084
REMARK INTER:                  -8.911
REMARK INTRA:                  -1.174
REMARK UNBOUND:                -1.258
REMARK SMILES CC[C@@H](C=C[C@@H](C)[C@@H]1CC[C@@H]2C3=CC[C@@H]4C[C@H](O)CC[C@]4(C)[C@@H]3CC[C@]21C)C(C)C
REMARK SMILES IDX 6 1 7 2 5 3 4 4 3 5 2 6 1 7 28 8 29 9 30 10 8 11 9 12 26 13
REMARK SMILES IDX 10 14 11 15 25 16 27 17 12 18 24 19 23 20 13 21 21 22 14 23
REMARK SMILES IDX 15 24 20 25 22 26 16 27 19 28 17 29 18 30
REMARK H PARENT 18 31
REMARK Flexibility Score: inf
ROOT
ATOM      1  C   UNL     1     147.385 134.515 150.863  1.00  0.00     0.012 C 
ATOM      2  C   UNL     1     146.668 133.736 151.981  1.00  0.00     0.012 C 
ENDROOT
BRANCH   1   3
ATOM      3  C   UNL     1     148.675 135.051 151.445  1.00  0.00    -0.028 C 
ATOM      4  C   UNL     1     149.882 134.609 151.054  1.00  0.00    -0.027 C 
BRANCH   4   5
ATOM      5  C   UNL     1     151.149 135.109 151.720  1.00  0.00     0.014 C 
BRANCH   5   6
ATOM      6  C   UNL     1     151.193 136.655 151.607  1.00  0.00     0.004 C 
ATOM      7  C   UNL     1     152.327 137.187 150.728  1.00  0.00     0.004 C 
ENDBRANCH   5   6
BRANCH   5   8
ATOM      8  C   UNL     1     152.378 134.343 151.127  1.00  0.00    -0.011 C 
ATOM      9  C   UNL     1     152.062 133.625 149.804  1.00  0.00     0.008 C 
ATOM     10  C   UNL     1     153.041 133.380 152.125  1.00  0.00     0.008 C 
ENDBRANCH   5   8
ENDBRANCH   4   5
ENDBRANCH   1   3
BRANCH   1  11
ATOM     11  C   UNL     1     146.595 135.698 150.207  1.00  0.00     0.002 C 
ATOM     12  C   UNL     1     145.066 135.518 150.052  1.00  0.00     0.005 C 
ATOM     13  C   UNL     1     147.063 136.231 148.828  1.00  0.00    -0.023 C 
ATOM     14  C   UNL     1     144.649 136.410 148.865  1.00  0.00     0.009 C 
ATOM     15  C   UNL     1     145.915 137.193 148.512  1.00  0.00     0.021 C 
ATOM     16  C   UNL     1     148.367 137.060 148.858  1.00  0.00     0.008 C 
ATOM     17  C   UNL     1     147.174 135.089 147.773  1.00  0.00     0.012 C 
ATOM     18  C   UNL     1     146.080 137.847 147.155  1.00  0.00    -0.067 C 
ATOM     19  C   UNL     1     148.634 137.734 147.491  1.00  0.00     0.009 C 
ATOM     20  C   UNL     1     147.419 138.556 146.933  1.00  0.00     0.021 C 
ATOM     21  C   UNL     1     145.001 138.147 146.413  1.00  0.00    -0.027 C 
ATOM     22  C   UNL     1     147.634 139.122 145.470  1.00  0.00    -0.023 C 
ATOM     23  C   UNL     1     145.085 138.872 145.110  1.00  0.00     0.031 C 
ATOM     24  C   UNL     1     146.312 139.804 144.991  1.00  0.00     0.002 C 
ATOM     25  C   UNL     1     148.023 138.016 144.444  1.00  0.00     0.010 C 
ATOM     26  C   UNL     1     148.778 140.179 145.545  1.00  0.00     0.012 C 
ATOM     27  C   UNL     1     146.414 140.354 143.543  1.00  0.00     0.036 C 
ATOM     28  C   UNL     1     148.162 138.549 143.006  1.00  0.00     0.032 C 
ATOM     29  C   UNL     1     146.934 139.327 142.508  1.00  0.00     0.114 C 
BRANCH  29  30
ATOM     30  O   UNL     1     145.924 138.428 142.132  1.00  0.00    -0.393 OA
ATOM     31  H   UNL     1     145.636 138.678 141.216  1.00  0.00     0.210 HD
ENDBRANCH  29  30
ENDBRANCH   1  11
TORSDOF 6
ENDMDL
MODEL 4
REMARK VINA RESULT:    -6.367      4.769      7.446
REMARK INTER + INTRA:          -9.672
REMARK INTER:                  -8.447
REMARK INTRA:                  -1.225
REMARK UNBOUND:                -1.258
REMARK SMILES CC[C@@H](C=C[C@@H](C)[C@@H]1CC[C@@H]2C3=CC[C@@H]4C[C@H](O)CC[C@]4(C)[C@@H]3CC[C@]21C)C(C)C
REMARK SMILES IDX 6 1 7 2 5 3 4 4 3 5 2 6 1 7 28 8 29 9 30 10 8 11 9 12 26 13
REMARK SMILES IDX 10 14 11 15 25 16 27 17 12 18 24 19 23 20 13 21 21 22 14 23
REMARK SMILES IDX 15 24 20 25 22 26 16 27 19 28 17 29 18 30
REMARK H PARENT 18 31
REMARK Flexibility Score: inf
ROOT
ATOM      1  C   UNL     1     141.211 139.214 144.940  1.00  0.00     0.012 C 
ATOM      2  C   UNL     1     142.719 139.405 144.693  1.00  0.00     0.012 C 
ENDROOT
BRANCH   1   3
ATOM      3  C   UNL     1     140.618 140.586 145.176  1.00  0.00    -0.028 C 
ATOM      4  C   UNL     1     140.362 141.061 146.406  1.00  0.00    -0.027 C 
BRANCH   4   5
ATOM      5  C   UNL     1     139.689 142.407 146.600  1.00  0.00     0.014 C 
BRANCH   5   6
ATOM      6  C   UNL     1     139.997 142.913 148.033  1.00  0.00     0.004 C 
ATOM      7  C   UNL     1     140.114 144.434 148.149  1.00  0.00     0.004 C 
ENDBRANCH   5   6
BRANCH   5   8
ATOM      8  C   UNL     1     138.175 142.283 146.226  1.00  0.00    -0.011 C 
ATOM      9  C   UNL     1     137.817 142.989 144.908  1.00  0.00     0.008 C 
ATOM     10  C   UNL     1     137.228 142.722 147.355  1.00  0.00     0.008 C 
ENDBRANCH   5   8
ENDBRANCH   4   5
ENDBRANCH   1   3
BRANCH   1  11
ATOM     11  C   UNL     1     140.802 138.275 146.126  1.00  0.00     0.002 C 
ATOM     12  C   UNL     1     141.895 137.327 146.676  1.00  0.00     0.005 C 
ATOM     13  C   UNL     1     139.553 137.371 145.962  1.00  0.00    -0.023 C 
ATOM     14  C   UNL     1     141.147 136.127 147.293  1.00  0.00     0.009 C 
ATOM     15  C   UNL     1     139.671 136.523 147.232  1.00  0.00     0.021 C 
ATOM     16  C   UNL     1     138.199 138.114 146.026  1.00  0.00     0.008 C 
ATOM     17  C   UNL     1     139.632 136.502 144.671  1.00  0.00     0.012 C 
ATOM     18  C   UNL     1     138.574 135.481 147.320  1.00  0.00    -0.067 C 
ATOM     19  C   UNL     1     137.016 137.118 146.080  1.00  0.00     0.009 C 
ATOM     20  C   UNL     1     137.148 136.026 147.199  1.00  0.00     0.021 C 
ATOM     21  C   UNL     1     138.819 134.289 147.889  1.00  0.00    -0.027 C 
ATOM     22  C   UNL     1     136.018 134.917 147.162  1.00  0.00    -0.023 C 
ATOM     23  C   UNL     1     137.764 133.252 148.093  1.00  0.00     0.031 C 
ATOM     24  C   UNL     1     136.338 133.830 148.238  1.00  0.00     0.002 C 
ATOM     25  C   UNL     1     135.897 134.222 145.773  1.00  0.00     0.010 C 
ATOM     26  C   UNL     1     134.669 135.620 147.505  1.00  0.00     0.012 C 
ATOM     27  C   UNL     1     135.302 132.675 148.247  1.00  0.00     0.036 C 
ATOM     28  C   UNL     1     134.849 133.093 145.753  1.00  0.00     0.032 C 
ATOM     29  C   UNL     1     135.042 132.043 146.859  1.00  0.00     0.114 C 
BRANCH  29  30
ATOM     30  O   UNL     1     136.073 131.162 146.499  1.00  0.00    -0.393 OA
ATOM     31  H   UNL     1     136.930 131.599 146.743  1.00  0.00     0.210 HD
ENDBRANCH  29  30
ENDBRANCH   1  11
TORSDOF 6
ENDMDL
MODEL 5
REMARK VINA RESULT:    -6.344      6.344     11.540
REMARK INTER + INTRA:          -9.641
REMARK INTER:                  -8.393
REMARK INTRA:                  -1.248
REMARK UNBOUND:                -1.258
REMARK SMILES CC[C@@H](C=C[C@@H](C)[C@@H]1CC[C@@H]2C3=CC[C@@H]4C[C@H](O)CC[C@]4(C)[C@@H]3CC[C@]21C)C(C)C
REMARK SMILES IDX 6 1 7 2 5 3 4 4 3 5 2 6 1 7 28 8 29 9 30 10 8 11 9 12 26 13
REMARK SMILES IDX 10 14 11 15 25 16 27 17 12 18 24 19 23 20 13 21 21 22 14 23
REMARK SMILES IDX 15 24 20 25 22 26 16 27 19 28 17 29 18 30
REMARK H PARENT 18 31
REMARK Flexibility Score: inf
ROOT
ATOM      1  C   UNL     1     139.903 141.253 143.747  1.00  0.00     0.012 C 
ATOM      2  C   UNL     1     140.769 139.979 143.729  1.00  0.00     0.012 C 
ENDROOT
BRANCH   1   3
ATOM      3  C   UNL     1     139.778 141.690 145.191  1.00  0.00    -0.028 C 
ATOM      4  C   UNL     1     138.701 141.404 145.941  1.00  0.00    -0.027 C 
BRANCH   4   5
ATOM      5  C   UNL     1     138.574 141.931 147.357  1.00  0.00     0.014 C 
BRANCH   5   6
ATOM      6  C   UNL     1     137.375 142.913 147.416  1.00  0.00     0.004 C 
ATOM      7  C   UNL     1     136.686 142.980 148.780  1.00  0.00     0.004 C 
ENDBRANCH   5   6
BRANCH   5   8
ATOM      8  C   UNL     1     139.954 142.506 147.818  1.00  0.00    -0.011 C 
ATOM      9  C   UNL     1     140.492 141.839 149.095  1.00  0.00     0.008 C 
ATOM     10  C   UNL     1     139.965 144.037 147.956  1.00  0.00     0.008 C 
ENDBRANCH   5   8
ENDBRANCH   4   5
ENDBRANCH   1   3
BRANCH   1  11
ATOM     11  C   UNL     1     138.470 141.143 143.124  1.00  0.00     0.002 C 
ATOM     12  C   UNL     1     138.239 140.011 142.095  1.00  0.00     0.005 C 
ATOM     13  C   UNL     1     137.848 142.400 142.463  1.00  0.00    -0.023 C 
ATOM     14  C   UNL     1     137.088 140.489 141.186  1.00  0.00     0.009 C 
ATOM     15  C   UNL     1     136.593 141.779 141.842  1.00  0.00     0.021 C 
ATOM     16  C   UNL     1     137.382 143.493 143.452  1.00  0.00     0.008 C 
ATOM     17  C   UNL     1     138.791 143.013 141.384  1.00  0.00     0.012 C 
ATOM     18  C   UNL     1     135.786 142.797 141.062  1.00  0.00    -0.067 C 
ATOM     19  C   UNL     1     136.578 144.598 142.727  1.00  0.00     0.009 C 
ATOM     20  C   UNL     1     135.401 144.058 141.840  1.00  0.00     0.021 C 
ATOM     21  C   UNL     1     135.110 142.424 139.962  1.00  0.00    -0.027 C 
ATOM     22  C   UNL     1     134.671 145.170 140.980  1.00  0.00    -0.023 C 
ATOM     23  C   UNL     1     134.222 143.350 139.198  1.00  0.00     0.031 C 
ATOM     24  C   UNL     1     133.615 144.483 140.056  1.00  0.00     0.002 C 
ATOM     25  C   UNL     1     135.653 145.988 140.090  1.00  0.00     0.010 C 
ATOM     26  C   UNL     1     133.956 146.131 141.978  1.00  0.00     0.012 C 
ATOM     27  C   UNL     1     132.875 145.495 139.141  1.00  0.00     0.036 C 
ATOM     28  C   UNL     1     134.940 147.022 139.198  1.00  0.00     0.032 C 
ATOM     29  C   UNL     1     133.811 146.430 138.339  1.00  0.00     0.114 C 
BRANCH  29  30
ATOM     30  O   UNL     1     134.359 145.772 137.227  1.00  0.00    -0.393 OA
ATOM     31  H   UNL     1     134.432 146.441 136.497  1.00  0.00     0.210 HD
ENDBRANCH  29  30
ENDBRANCH   1  11
TORSDOF 6
ENDMDL
MODEL 6
REMARK VINA RESULT:    -6.149      3.557      8.809
REMARK INTER + INTRA:          -9.384
REMARK INTER:                  -7.824
REMARK INTRA:                  -1.561
REMARK UNBOUND:                -1.258
REMARK SMILES CC[C@@H](C=C[C@@H](C)[C@@H]1CC[C@@H]2C3=CC[C@@H]4C[C@H](O)CC[C@]4(C)[C@@H]3CC[C@]21C)C(C)C
REMARK SMILES IDX 6 1 7 2 5 3 4 4 3 5 2 6 1 7 28 8 29 9 30 10 8 11 9 12 26 13
REMARK SMILES IDX 10 14 11 15 25 16 27 17 12 18 24 19 23 20 13 21 21 22 14 23
REMARK SMILES IDX 15 24 20 25 22 26 16 27 19 28 17 29 18 30
REMARK H PARENT 18 31
REMARK Flexibility Score: inf
ROOT
ATOM      1  C   UNL     1     148.766 139.338 147.542  1.00  0.00     0.012 C 
ATOM      2  C   UNL     1     150.155 140.004 147.519  1.00  0.00     0.012 C 
ENDROOT
BRANCH   1   3
ATOM      3  C   UNL     1     148.760 138.354 148.691  1.00  0.00    -0.028 C 
ATOM      4  C   UNL     1     148.987 137.041 148.520  1.00  0.00    -0.027 C 
BRANCH   4   5
ATOM      5  C   UNL     1     148.890 136.073 149.683  1.00  0.00     0.014 C 
BRANCH   5   6
ATOM      6  C   UNL     1     150.311 135.850 150.263  1.00  0.00     0.004 C 
ATOM      7  C   UNL     1     150.781 134.394 150.224  1.00  0.00     0.004 C 
ENDBRANCH   5   6
BRANCH   5   8
ATOM      8  C   UNL     1     148.128 134.787 149.219  1.00  0.00    -0.011 C 
ATOM      9  C   UNL     1     147.751 134.812 147.729  1.00  0.00     0.008 C 
ATOM     10  C   UNL     1     146.904 134.453 150.086  1.00  0.00     0.008 C 
ENDBRANCH   5   8
ENDBRANCH   4   5
ENDBRANCH   1   3
BRANCH   1  11
ATOM     11  C   UNL     1     148.316 138.597 146.237  1.00  0.00     0.002 C 
ATOM     12  C   UNL     1     149.134 138.878 144.954  1.00  0.00     0.005 C 
ATOM     13  C   UNL     1     146.837 138.716 145.787  1.00  0.00    -0.023 C 
ATOM     14  C   UNL     1     148.177 138.621 143.772  1.00  0.00     0.009 C 
ATOM     15  C   UNL     1     146.920 138.033 144.419  1.00  0.00     0.021 C 
ATOM     16  C   UNL     1     145.829 137.916 146.642  1.00  0.00     0.008 C 
ATOM     17  C   UNL     1     146.386 140.204 145.670  1.00  0.00     0.012 C 
ATOM     18  C   UNL     1     145.588 138.046 143.697  1.00  0.00    -0.067 C 
ATOM     19  C   UNL     1     144.424 137.911 145.994  1.00  0.00     0.009 C 
ATOM     20  C   UNL     1     144.413 137.464 144.490  1.00  0.00     0.021 C 
ATOM     21  C   UNL     1     145.545 138.143 142.358  1.00  0.00    -0.027 C 
ATOM     22  C   UNL     1     143.004 137.600 143.780  1.00  0.00    -0.023 C 
ATOM     23  C   UNL     1     144.274 138.070 141.576  1.00  0.00     0.031 C 
ATOM     24  C   UNL     1     143.163 137.247 142.266  1.00  0.00     0.002 C 
ATOM     25  C   UNL     1     142.405 139.033 143.896  1.00  0.00     0.010 C 
ATOM     26  C   UNL     1     142.041 136.582 144.463  1.00  0.00     0.012 C 
ATOM     27  C   UNL     1     141.835 137.395 141.476  1.00  0.00     0.036 C 
ATOM     28  C   UNL     1     141.069 139.190 143.146  1.00  0.00     0.032 C 
ATOM     29  C   UNL     1     141.126 138.756 141.673  1.00  0.00     0.114 C 
BRANCH  29  30
ATOM     30  O   UNL     1     141.733 139.762 140.906  1.00  0.00    -0.393 OA
ATOM     31  H   UNL     1     141.116 140.540 140.903  1.00  0.00     0.210 HD
ENDBRANCH  29  30
ENDBRANCH   1  11
TORSDOF 6
ENDMDL
MODEL 7
REMARK VINA RESULT:    -6.146      3.277      9.340
REMARK INTER + INTRA:          -9.381
REMARK INTER:                  -8.138
REMARK INTRA:                  -1.243
REMARK UNBOUND:                -1.258
REMARK SMILES CC[C@@H](C=C[C@@H](C)[C@@H]1CC[C@@H]2C3=CC[C@@H]4C[C@H](O)CC[C@]4(C)[C@@H]3CC[C@]21C)C(C)C
REMARK SMILES IDX 6 1 7 2 5 3 4 4 3 5 2 6 1 7 28 8 29 9 30 10 8 11 9 12 26 13
REMARK SMILES IDX 10 14 11 15 25 16 27 17 12 18 24 19 23 20 13 21 21 22 14 23
REMARK SMILES IDX 15 24 20 25 22 26 16 27 19 28 17 29 18 30
REMARK H PARENT 18 31
REMARK Flexibility Score: inf
ROOT
ATOM      1  C   UNL     1     147.098 134.538 150.545  1.00  0.00     0.012 C 
ATOM      2  C   UNL     1     146.753 133.627 151.738  1.00  0.00     0.012 C 
ENDROOT
BRANCH   1   3
ATOM      3  C   UNL     1     148.471 135.118 150.806  1.00  0.00    -0.028 C 
ATOM      4  C   UNL     1     149.453 135.089 149.890  1.00  0.00    -0.027 C 
BRANCH   4   5
ATOM      5  C   UNL     1     150.841 135.604 150.216  1.00  0.00     0.014 C 
BRANCH   5   6
ATOM      6  C   UNL     1     151.601 134.511 151.012  1.00  0.00     0.004 C 
ATOM      7  C   UNL     1     152.003 133.294 150.177  1.00  0.00     0.004 C 
ENDBRANCH   5   6
BRANCH   5   8
ATOM      8  C   UNL     1     150.721 137.000 150.913  1.00  0.00    -0.011 C 
ATOM      9  C   UNL     1     150.475 138.151 149.923  1.00  0.00     0.008 C 
ATOM     10  C   UNL     1     151.901 137.324 151.844  1.00  0.00     0.008 C 
ENDBRANCH   5   8
ENDBRANCH   4   5
ENDBRANCH   1   3
BRANCH   1  11
ATOM     11  C   UNL     1     146.103 135.709 150.239  1.00  0.00     0.002 C 
ATOM     12  C   UNL     1     144.743 135.683 150.978  1.00  0.00     0.005 C 
ATOM     13  C   UNL     1     145.735 136.006 148.762  1.00  0.00    -0.023 C 
ATOM     14  C   UNL     1     143.755 136.457 150.081  1.00  0.00     0.009 C 
ATOM     15  C   UNL     1     144.627 137.042 148.968  1.00  0.00     0.021 C 
ATOM     16  C   UNL     1     146.853 136.681 147.936  1.00  0.00     0.008 C 
ATOM     17  C   UNL     1     145.214 134.733 148.029  1.00  0.00     0.012 C 
ATOM     18  C   UNL     1     144.024 137.494 147.654  1.00  0.00    -0.067 C 
ATOM     19  C   UNL     1     146.328 137.140 146.555  1.00  0.00     0.009 C 
ATOM     20  C   UNL     1     145.027 138.015 146.621  1.00  0.00     0.021 C 
ATOM     21  C   UNL     1     142.721 137.816 147.584  1.00  0.00    -0.027 C 
ATOM     22  C   UNL     1     144.403 138.362 145.208  1.00  0.00    -0.023 C 
ATOM     23  C   UNL     1     142.081 138.355 146.346  1.00  0.00     0.031 C 
ATOM     24  C   UNL     1     143.054 139.121 145.422  1.00  0.00     0.002 C 
ATOM     25  C   UNL     1     144.130 137.097 144.341  1.00  0.00     0.010 C 
ATOM     26  C   UNL     1     145.418 139.285 144.467  1.00  0.00     0.012 C 
ATOM     27  C   UNL     1     142.345 139.466 144.086  1.00  0.00     0.036 C 
ATOM     28  C   UNL     1     143.456 137.423 142.995  1.00  0.00     0.032 C 
ATOM     29  C   UNL     1     142.176 138.265 143.125  1.00  0.00     0.114 C 
BRANCH  29  30
ATOM     30  O   UNL     1     141.109 137.443 143.519  1.00  0.00    -0.393 OA
ATOM     31  H   UNL     1     141.274 137.182 144.463  1.00  0.00     0.210 HD
ENDBRANCH  29  30
ENDBRANCH   1  11
TORSDOF 6
ENDMDL
MODEL 8
REMARK VINA RESULT:    -6.122      5.695      9.162
REMARK INTER + INTRA:          -9.349
REMARK INTER:                  -8.324
REMARK INTRA:                  -1.025
REMARK UNBOUND:                -1.258
REMARK SMILES CC[C@@H](C=C[C@@H](C)[C@@H]1CC[C@@H]2C3=CC[C@@H]4C[C@H](O)CC[C@]4(C)[C@@H]3CC[C@]21C)C(C)C
REMARK SMILES IDX 6 1 7 2 5 3 4 4 3 5 2 6 1 7 28 8 29 9 30 10 8 11 9 12 26 13
REMARK SMILES IDX 10 14 11 15 25 16 27 17 12 18 24 19 23 20 13 21 21 22 14 23
REMARK SMILES IDX 15 24 20 25 22 26 16 27 19 28 17 29 18 30
REMARK H PARENT 18 31
REMARK Flexibility Score: inf
ROOT
ATOM      1  C   UNL     1     147.559 137.828 147.012  1.00  0.00     0.012 C 
ATOM      2  C   UNL     1     148.568 138.209 148.112  1.00  0.00     0.012 C 
ENDROOT
BRANCH   1   3
ATOM      3  C   UNL     1     146.970 136.486 147.390  1.00  0.00    -0.028 C 
ATOM      4  C   UNL     1     147.208 135.900 148.575  1.00  0.00    -0.027 C 
BRANCH   4   5
ATOM      5  C   UNL     1     146.668 134.518 148.885  1.00  0.00     0.014 C 
BRANCH   5   6
ATOM      6  C   UNL     1     145.864 134.013 147.658  1.00  0.00     0.004 C 
ATOM      7  C   UNL     1     144.458 133.512 147.995  1.00  0.00     0.004 C 
ENDBRANCH   5   6
BRANCH   5   8
ATOM      8  C   UNL     1     145.893 134.561 150.243  1.00  0.00    -0.011 C 
ATOM      9  C   UNL     1     145.289 135.941 150.551  1.00  0.00     0.008 C 
ATOM     10  C   UNL     1     146.715 134.047 151.436  1.00  0.00     0.008 C 
ENDBRANCH   5   8
ENDBRANCH   4   5
ENDBRANCH   1   3
BRANCH   1  11
ATOM     11  C   UNL     1     148.108 137.747 145.547  1.00  0.00     0.002 C 
ATOM     12  C   UNL     1     149.637 137.578 145.380  1.00  0.00     0.005 C 
ATOM     13  C   UNL     1     147.731 138.872 144.548  1.00  0.00    -0.023 C 
ATOM     14  C   UNL     1     149.984 138.174 144.000  1.00  0.00     0.009 C 
ATOM     15  C   UNL     1     148.627 138.488 143.367  1.00  0.00     0.021 C 
ATOM     16  C   UNL     1     146.269 138.837 144.050  1.00  0.00     0.008 C 
ATOM     17  C   UNL     1     148.078 140.284 145.110  1.00  0.00     0.012 C 
ATOM     18  C   UNL     1     148.504 139.472 142.221  1.00  0.00    -0.067 C 
ATOM     19  C   UNL     1     146.046 139.847 142.899  1.00  0.00     0.009 C 
ATOM     20  C   UNL     1     147.077 139.718 141.723  1.00  0.00     0.021 C 
ATOM     21  C   UNL     1     149.569 139.745 141.448  1.00  0.00    -0.027 C 
ATOM     22  C   UNL     1     146.946 140.842 140.616  1.00  0.00    -0.023 C 
ATOM     23  C   UNL     1     149.498 140.633 140.249  1.00  0.00     0.031 C 
ATOM     24  C   UNL     1     148.105 140.672 139.581  1.00  0.00     0.002 C 
ATOM     25  C   UNL     1     147.014 142.282 141.206  1.00  0.00     0.010 C 
ATOM     26  C   UNL     1     145.571 140.639 139.910  1.00  0.00     0.012 C 
ATOM     27  C   UNL     1     148.083 141.761 138.476  1.00  0.00     0.036 C 
ATOM     28  C   UNL     1     146.960 143.379 140.125  1.00  0.00     0.032 C 
ATOM     29  C   UNL     1     148.007 143.210 139.013  1.00  0.00     0.114 C 
BRANCH  29  30
ATOM     30  O   UNL     1     149.259 143.650 139.470  1.00  0.00    -0.393 OA
ATOM     31  H   UNL     1     149.197 144.634 139.589  1.00  0.00     0.210 HD
ENDBRANCH  29  30
ENDBRANCH   1  11
TORSDOF 6
ENDMDL
MODEL 9
REMARK VINA RESULT:    -6.076      8.810     12.026
REMARK INTER + INTRA:          -9.287
REMARK INTER:                  -8.067
REMARK INTRA:                  -1.221
REMARK UNBOUND:                -1.258
REMARK SMILES CC[C@@H](C=C[C@@H](C)[C@@H]1CC[C@@H]2C3=CC[C@@H]4C[C@H](O)CC[C@]4(C)[C@@H]3CC[C@]21C)C(C)C
REMARK SMILES IDX 6 1 7 2 5 3 4 4 3 5 2 6 1 7 28 8 29 9 30 10 8 11 9 12 26 13
REMARK SMILES IDX 10 14 11 15 25 16 27 17 12 18 24 19 23 20 13 21 21 22 14 23
REMARK SMILES IDX 15 24 20 25 22 26 16 27 19 28 17 29 18 30
REMARK H PARENT 18 31
REMARK Flexibility Score: inf
ROOT
ATOM      1  C   UNL     1     149.246 140.208 141.873  1.00  0.00     0.012 C 
ATOM      2  C   UNL     1     150.176 139.794 143.029  1.00  0.00     0.012 C 
ENDROOT
BRANCH   1   3
ATOM      3  C   UNL     1     147.849 139.757 142.238  1.00  0.00    -0.028 C 
ATOM      4  C   UNL     1     147.607 138.599 142.874  1.00  0.00    -0.027 C 
BRANCH   4   5
ATOM      5  C   UNL     1     146.188 138.140 143.148  1.00  0.00     0.014 C 
BRANCH   5   6
ATOM      6  C   UNL     1     145.234 138.857 142.157  1.00  0.00     0.004 C 
ATOM      7  C   UNL     1     144.069 137.992 141.672  1.00  0.00     0.004 C 
ENDBRANCH   5   6
BRANCH   5   8
ATOM      8  C   UNL     1     145.869 138.334 144.667  1.00  0.00    -0.011 C 
ATOM      9  C   UNL     1     145.140 139.655 144.969  1.00  0.00     0.008 C 
ATOM     10  C   UNL     1     147.096 138.169 145.578  1.00  0.00     0.008 C 
ENDBRANCH   5   8
ENDBRANCH   4   5
ENDBRANCH   1   3
BRANCH   1  11
ATOM     11  C   UNL     1     149.601 139.660 140.449  1.00  0.00     0.002 C 
ATOM     12  C   UNL     1     150.991 139.002 140.278  1.00  0.00     0.005 C 
ATOM     13  C   UNL     1     149.471 140.612 139.232  1.00  0.00    -0.023 C 
ATOM     14  C   UNL     1     151.359 139.162 138.789  1.00  0.00     0.009 C 
ATOM     15  C   UNL     1     150.097 139.736 138.143  1.00  0.00     0.021 C 
ATOM     16  C   UNL     1     148.020 140.922 138.800  1.00  0.00     0.008 C 
ATOM     17  C   UNL     1     150.267 141.935 139.445  1.00  0.00     0.012 C 
ATOM     18  C   UNL     1     150.154 140.448 136.807  1.00  0.00    -0.067 C 
ATOM     19  C   UNL     1     147.988 141.688 137.456  1.00  0.00     0.009 C 
ATOM     20  C   UNL     1     148.817 141.008 136.310  1.00  0.00     0.021 C 
ATOM     21  C   UNL     1     151.170 140.216 135.959  1.00  0.00    -0.027 C 
ATOM     22  C   UNL     1     148.911 141.861 134.980  1.00  0.00    -0.023 C 
ATOM     23  C   UNL     1     151.243 140.812 134.592  1.00  0.00     0.031 C 
ATOM     24  C   UNL     1     149.862 141.134 133.976  1.00  0.00     0.002 C 
ATOM     25  C   UNL     1     149.452 143.302 135.222  1.00  0.00     0.010 C 
ATOM     26  C   UNL     1     147.474 141.945 134.380  1.00  0.00     0.012 C 
ATOM     27  C   UNL     1     150.050 141.922 132.652  1.00  0.00     0.036 C 
ATOM     28  C   UNL     1     149.613 144.112 133.922  1.00  0.00     0.032 C 
ATOM     29  C   UNL     1     150.452 143.404 132.846  1.00  0.00     0.114 C 
BRANCH  29  30
ATOM     30  O   UNL     1     151.815 143.526 133.152  1.00  0.00    -0.393 OA
ATOM     31  H   UNL     1     151.996 144.491 133.302  1.00  0.00     0.210 HD
ENDBRANCH  29  30
ENDBRANCH   1  11
TORSDOF 6
ENDMDL
