MODEL 1
REMARK VINA RESULT:    -3.438      0.000      0.000
REMARK INTER + INTRA:          -4.001
REMARK INTER:                  -4.041
REMARK INTRA:                   0.040
REMARK UNBOUND:                 0.040
REMARK SMILES O=c1c(O)c(-c2ccc(O)cc2)oc2cc(O)cc(O)c12
REMARK SMILES IDX 5 1 3 2 2 3 1 4 21 5 19 6 18 7 16 8 15 9 14 10 13 11 6 12
REMARK SMILES IDX 7 13 8 14 9 15 12 16 11 17 10 18 4 20 20 22 17 24
REMARK H PARENT 10 19 4 21 20 23 17 25
REMARK Flexibility Score: inf
ROOT
ATOM      1  C   UNL     1       0.468  59.678  -5.940  1.00  0.00     0.180 A 
ATOM      2  C   UNL     1       0.189  60.009  -4.603  1.00  0.00     0.208 A 
ATOM      3  C   UNL     1      -1.145  60.005  -4.165  1.00  0.00     0.238 A 
ATOM      4  O   UNL     1      -1.393  60.356  -2.982  1.00  0.00    -0.285 OA
ATOM      5  C   UNL     1      -2.180  59.652  -5.063  1.00  0.00     0.111 A 
ATOM      6  C   UNL     1      -3.562  59.574  -4.716  1.00  0.00     0.134 A 
ATOM      7  C   UNL     1      -4.515  59.343  -5.716  1.00  0.00     0.093 A 
ATOM      8  C   UNL     1      -4.127  59.120  -7.041  1.00  0.00     0.123 A 
ATOM      9  C   UNL     1      -2.776  59.135  -7.378  1.00  0.00     0.094 A 
ATOM     10  C   UNL     1      -1.806  59.400  -6.409  1.00  0.00     0.146 A 
ATOM     11  O   UNL     1      -0.531  59.415  -6.775  1.00  0.00    -0.452 OA
ENDROOT
BRANCH   1  12
ATOM     12  C   UNL     1       1.851  59.636  -6.470  1.00  0.00     0.021 A 
ATOM     13  C   UNL     1       2.835  58.911  -5.776  1.00  0.00     0.016 A 
ATOM     14  C   UNL     1       4.151  58.875  -6.245  1.00  0.00     0.047 A 
ATOM     15  C   UNL     1       4.505  59.575  -7.404  1.00  0.00     0.115 A 
ATOM     16  C   UNL     1       2.217  60.353  -7.624  1.00  0.00     0.016 A 
ATOM     17  C   UNL     1       3.535  60.316  -8.090  1.00  0.00     0.047 A 
BRANCH  15  18
ATOM     18  O   UNL     1       5.819  59.530  -7.861  1.00  0.00    -0.508 OA
ATOM     19  H   UNL     1       6.275  60.348  -8.247  1.00  0.00     0.293 HD
ENDBRANCH  15  18
ENDBRANCH   1  12
BRANCH   2  20
ATOM     20  O   UNL     1       1.224  60.376  -3.739  1.00  0.00    -0.502 OA
ATOM     21  H   UNL     1       1.240  61.265  -3.254  1.00  0.00     0.293 HD
ENDBRANCH   2  20
BRANCH   6  22
ATOM     22  O   UNL     1      -4.047  59.689  -3.409  1.00  0.00    -0.507 OA
ATOM     23  H   UNL     1      -4.493  58.944  -2.894  1.00  0.00     0.293 HD
ENDBRANCH   6  22
BRANCH   8  24
ATOM     24  O   UNL     1      -5.080  58.875  -8.028  1.00  0.00    -0.508 OA
ATOM     25  H   UNL     1      -5.265  57.938  -8.365  1.00  0.00     0.293 HD
ENDBRANCH   8  24
TORSDOF 5
ENDMDL
