MODEL 1
REMARK VINA RESULT:    -7.493      0.000      0.000
REMARK INTER + INTRA:          -9.332
REMARK INTER:                  -9.026
REMARK INTRA:                  -0.306
REMARK UNBOUND:                -0.306
REMARK SMILES O=c1c(O)c(-c2ccc(O)c(O)c2)oc2cc(O)cc(O)c12
REMARK SMILES IDX 5 1 3 2 2 3 1 4 22 5 20 6 19 7 17 8 16 9 15 10 14 11 6 12
REMARK SMILES IDX 7 13 8 14 9 15 13 16 11 17 10 18 12 20 4 22 21 24 18 26
REMARK H PARENT 10 19 12 21 4 23 21 25 18 27
REMARK Flexibility Score: inf
ROOT
ATOM      1  C   UNL     1      22.996  63.030  32.118  1.00  0.00     0.180 A 
ATOM      2  C   UNL     1      22.524  63.297  33.415  1.00  0.00     0.208 A 
ATOM      3  C   UNL     1      23.386  63.095  34.506  1.00  0.00     0.238 A 
ATOM      4  O   UNL     1      22.977  63.387  35.661  1.00  0.00    -0.285 OA
ATOM      5  C   UNL     1      24.698  62.614  34.288  1.00  0.00     0.111 A 
ATOM      6  C   UNL     1      25.642  62.335  35.322  1.00  0.00     0.134 A 
ATOM      7  C   UNL     1      26.956  61.988  34.984  1.00  0.00     0.093 A 
ATOM      8  C   UNL     1      27.343  61.846  33.652  1.00  0.00     0.123 A 
ATOM      9  C   UNL     1      26.412  62.058  32.634  1.00  0.00     0.094 A 
ATOM     10  C   UNL     1      25.105  62.441  32.939  1.00  0.00     0.146 A 
ATOM     11  O   UNL     1      24.253  62.644  31.940  1.00  0.00    -0.452 OA
ENDROOT
BRANCH   1  12
ATOM     12  C   UNL     1      22.141  63.195  30.920  1.00  0.00     0.025 A 
ATOM     13  C   UNL     1      21.489  62.097  30.329  1.00  0.00     0.016 A 
ATOM     14  C   UNL     1      20.707  62.273  29.185  1.00  0.00     0.051 A 
ATOM     15  C   UNL     1      20.574  63.542  28.606  1.00  0.00     0.157 A 
ATOM     16  C   UNL     1      22.021  64.461  30.324  1.00  0.00     0.062 A 
ATOM     17  C   UNL     1      21.238  64.640  29.178  1.00  0.00     0.158 A 
BRANCH  15  18
ATOM     18  O   UNL     1      19.792  63.714  27.466  1.00  0.00    -0.504 OA
ATOM     19  H   UNL     1      19.970  63.191  26.616  1.00  0.00     0.293 HD
ENDBRANCH  15  18
BRANCH  17  20
ATOM     20  O   UNL     1      21.132  65.915  28.623  1.00  0.00    -0.504 OA
ATOM     21  H   UNL     1      20.841  66.062  27.664  1.00  0.00     0.293 HD
ENDBRANCH  17  20
ENDBRANCH   1  12
BRANCH   2  22
ATOM     22  O   UNL     1      21.232  63.792  33.605  1.00  0.00    -0.502 OA
ATOM     23  H   UNL     1      20.478  63.607  32.954  1.00  0.00     0.293 HD
ENDBRANCH   2  22
BRANCH   6  24
ATOM     24  O   UNL     1      25.334  62.358  36.686  1.00  0.00    -0.507 OA
ATOM     25  H   UNL     1      25.370  63.181  37.269  1.00  0.00     0.293 HD
ENDBRANCH   6  24
BRANCH   8  26
ATOM     26  O   UNL     1      28.654  61.484  33.353  1.00  0.00    -0.508 OA
ATOM     27  H   UNL     1      29.068  60.636  33.723  1.00  0.00     0.293 HD
ENDBRANCH   8  26
TORSDOF 6
ENDMDL
MODEL 2
REMARK VINA RESULT:    -7.360      2.147      2.474
REMARK INTER + INTRA:          -9.172
REMARK INTER:                  -8.878
REMARK INTRA:                  -0.294
REMARK UNBOUND:                -0.306
REMARK SMILES O=c1c(O)c(-c2ccc(O)c(O)c2)oc2cc(O)cc(O)c12
REMARK SMILES IDX 5 1 3 2 2 3 1 4 22 5 20 6 19 7 17 8 16 9 15 10 14 11 6 12
REMARK SMILES IDX 7 13 8 14 9 15 13 16 11 17 10 18 12 20 4 22 21 24 18 26
REMARK H PARENT 10 19 12 21 4 23 21 25 18 27
REMARK Flexibility Score: inf
ROOT
ATOM      1  C   UNL     1      22.973  62.889  32.421  1.00  0.00     0.180 A 
ATOM      2  C   UNL     1      23.378  63.068  33.756  1.00  0.00     0.208 A 
ATOM      3  C   UNL     1      24.265  62.141  34.328  1.00  0.00     0.238 A 
ATOM      4  O   UNL     1      24.666  62.337  35.505  1.00  0.00    -0.285 OA
ATOM      5  C   UNL     1      24.722  61.041  33.566  1.00  0.00     0.111 A 
ATOM      6  C   UNL     1      25.590  60.019  34.056  1.00  0.00     0.134 A 
ATOM      7  C   UNL     1      26.082  59.048  33.175  1.00  0.00     0.093 A 
ATOM      8  C   UNL     1      25.688  59.023  31.838  1.00  0.00     0.123 A 
ATOM      9  C   UNL     1      24.793  59.982  31.362  1.00  0.00     0.094 A 
ATOM     10  C   UNL     1      24.314  60.984  32.207  1.00  0.00     0.146 A 
ATOM     11  O   UNL     1      23.471  61.884  31.712  1.00  0.00    -0.452 OA
ENDROOT
BRANCH   1  12
ATOM     12  C   UNL     1      22.022  63.809  31.756  1.00  0.00     0.025 A 
ATOM     13  C   UNL     1      20.641  63.744  32.012  1.00  0.00     0.016 A 
ATOM     14  C   UNL     1      19.760  64.606  31.355  1.00  0.00     0.051 A 
ATOM     15  C   UNL     1      20.241  65.536  30.424  1.00  0.00     0.157 A 
ATOM     16  C   UNL     1      22.498  64.728  30.807  1.00  0.00     0.062 A 
ATOM     17  C   UNL     1      21.618  65.593  30.147  1.00  0.00     0.158 A 
BRANCH  15  18
ATOM     18  O   UNL     1      19.360  66.395  29.771  1.00  0.00    -0.504 OA
ATOM     19  H   UNL     1      19.693  67.177  29.218  1.00  0.00     0.293 HD
ENDBRANCH  15  18
BRANCH  17  20
ATOM     20  O   UNL     1      22.129  66.502  29.221  1.00  0.00    -0.504 OA
ATOM     21  H   UNL     1      21.533  67.003  28.574  1.00  0.00     0.293 HD
ENDBRANCH  17  20
ENDBRANCH   1  12
BRANCH   2  22
ATOM     22  O   UNL     1      22.931  64.174  34.483  1.00  0.00    -0.502 OA
ATOM     23  H   UNL     1      21.980  64.254  34.823  1.00  0.00     0.293 HD
ENDBRANCH   2  22
BRANCH   6  24
ATOM     24  O   UNL     1      25.974  59.898  35.395  1.00  0.00    -0.507 OA
ATOM     25  H   UNL     1      25.493  59.336  36.082  1.00  0.00     0.293 HD
ENDBRANCH   6  24
BRANCH   8  26
ATOM     26  O   UNL     1      26.185  58.033  30.993  1.00  0.00    -0.508 OA
ATOM     27  H   UNL     1      26.904  58.234  30.306  1.00  0.00     0.293 HD
ENDBRANCH   8  26
TORSDOF 6
ENDMDL
MODEL 3
REMARK VINA RESULT:    -7.317      1.686      2.265
REMARK INTER + INTRA:          -9.121
REMARK INTER:                  -8.809
REMARK INTRA:                  -0.312
REMARK UNBOUND:                -0.306
REMARK SMILES O=c1c(O)c(-c2ccc(O)c(O)c2)oc2cc(O)cc(O)c12
REMARK SMILES IDX 5 1 3 2 2 3 1 4 22 5 20 6 19 7 17 8 16 9 15 10 14 11 6 12
REMARK SMILES IDX 7 13 8 14 9 15 13 16 11 17 10 18 12 20 4 22 21 24 18 26
REMARK H PARENT 10 19 12 21 4 23 21 25 18 27
REMARK Flexibility Score: inf
ROOT
ATOM      1  C   UNL     1      23.383  63.537  30.903  1.00  0.00     0.180 A 
ATOM      2  C   UNL     1      22.417  63.690  31.914  1.00  0.00     0.208 A 
ATOM      3  C   UNL     1      22.730  63.279  33.220  1.00  0.00     0.238 A 
ATOM      4  O   UNL     1      21.882  63.468  34.132  1.00  0.00    -0.285 OA
ATOM      5  C   UNL     1      23.995  62.707  33.496  1.00  0.00     0.111 A 
ATOM      6  C   UNL     1      24.403  62.219  34.773  1.00  0.00     0.134 A 
ATOM      7  C   UNL     1      25.724  61.793  34.961  1.00  0.00     0.093 A 
ATOM      8  C   UNL     1      26.632  61.776  33.903  1.00  0.00     0.123 A 
ATOM      9  C   UNL     1      26.226  62.194  32.635  1.00  0.00     0.094 A 
ATOM     10  C   UNL     1      24.926  62.659  32.426  1.00  0.00     0.146 A 
ATOM     11  O   UNL     1      24.583  63.058  31.206  1.00  0.00    -0.452 OA
ENDROOT
BRANCH   1  12
ATOM     12  C   UNL     1      23.119  63.923  29.498  1.00  0.00     0.025 A 
ATOM     13  C   UNL     1      23.283  65.250  29.061  1.00  0.00     0.016 A 
ATOM     14  C   UNL     1      23.005  65.596  27.736  1.00  0.00     0.051 A 
ATOM     15  C   UNL     1      22.548  64.628  26.832  1.00  0.00     0.157 A 
ATOM     16  C   UNL     1      22.641  62.961  28.594  1.00  0.00     0.062 A 
ATOM     17  C   UNL     1      22.363  63.304  27.266  1.00  0.00     0.158 A 
BRANCH  15  18
ATOM     18  O   UNL     1      22.274  64.976  25.511  1.00  0.00    -0.504 OA
ATOM     19  H   UNL     1      22.554  65.872  25.129  1.00  0.00     0.293 HD
ENDBRANCH  15  18
BRANCH  17  20
ATOM     20  O   UNL     1      21.903  62.318  26.394  1.00  0.00    -0.504 OA
ATOM     21  H   UNL     1      20.966  62.334  26.010  1.00  0.00     0.293 HD
ENDBRANCH  17  20
ENDBRANCH   1  12
BRANCH   2  22
ATOM     22  O   UNL     1      21.184  64.277  31.624  1.00  0.00    -0.502 OA
ATOM     23  H   UNL     1      20.449  63.784  31.130  1.00  0.00     0.293 HD
ENDBRANCH   2  22
BRANCH   6  24
ATOM     24  O   UNL     1      23.550  62.108  35.875  1.00  0.00    -0.507 OA
ATOM     25  H   UNL     1      23.184  62.889  36.400  1.00  0.00     0.293 HD
ENDBRANCH   6  24
BRANCH   8  26
ATOM     26  O   UNL     1      27.933  61.331  34.122  1.00  0.00    -0.508 OA
ATOM     27  H   UNL     1      28.632  61.925  34.554  1.00  0.00     0.293 HD
ENDBRANCH   8  26
TORSDOF 6
ENDMDL
MODEL 4
REMARK VINA RESULT:    -7.235      2.288      6.652
REMARK INTER + INTRA:          -9.022
REMARK INTER:                  -9.105
REMARK INTRA:                   0.084
REMARK UNBOUND:                -0.306
REMARK SMILES O=c1c(O)c(-c2ccc(O)c(O)c2)oc2cc(O)cc(O)c12
REMARK SMILES IDX 5 1 3 2 2 3 1 4 22 5 20 6 19 7 17 8 16 9 15 10 14 11 6 12
REMARK SMILES IDX 7 13 8 14 9 15 13 16 11 17 10 18 12 20 4 22 21 24 18 26
REMARK H PARENT 10 19 12 21 4 23 21 25 18 27
REMARK Flexibility Score: inf
ROOT
ATOM      1  C   UNL     1      23.700  62.890  31.175  1.00  0.00     0.180 A 
ATOM      2  C   UNL     1      22.676  63.825  31.406  1.00  0.00     0.208 A 
ATOM      3  C   UNL     1      22.196  64.588  30.328  1.00  0.00     0.238 A 
ATOM      4  O   UNL     1      21.242  65.385  30.530  1.00  0.00    -0.285 OA
ATOM      5  C   UNL     1      22.757  64.420  29.041  1.00  0.00     0.111 A 
ATOM      6  C   UNL     1      22.378  65.169  27.887  1.00  0.00     0.134 A 
ATOM      7  C   UNL     1      22.907  64.828  26.636  1.00  0.00     0.093 A 
ATOM      8  C   UNL     1      23.851  63.810  26.507  1.00  0.00     0.123 A 
ATOM      9  C   UNL     1      24.275  63.111  27.639  1.00  0.00     0.094 A 
ATOM     10  C   UNL     1      23.737  63.403  28.893  1.00  0.00     0.146 A 
ATOM     11  O   UNL     1      24.159  62.708  29.943  1.00  0.00    -0.452 OA
ENDROOT
BRANCH   1  12
ATOM     12  C   UNL     1      24.274  62.065  32.263  1.00  0.00     0.025 A 
ATOM     13  C   UNL     1      24.439  60.676  32.119  1.00  0.00     0.016 A 
ATOM     14  C   UNL     1      24.960  59.914  33.168  1.00  0.00     0.051 A 
ATOM     15  C   UNL     1      25.310  60.525  34.380  1.00  0.00     0.157 A 
ATOM     16  C   UNL     1      24.607  62.669  33.486  1.00  0.00     0.062 A 
ATOM     17  C   UNL     1      25.129  61.909  34.539  1.00  0.00     0.158 A 
BRANCH  15  18
ATOM     18  O   UNL     1      25.831  59.763  35.424  1.00  0.00    -0.504 OA
ATOM     19  H   UNL     1      26.364  58.918  35.250  1.00  0.00     0.293 HD
ENDBRANCH  15  18
BRANCH  17  20
ATOM     20  O   UNL     1      25.462  62.546  35.734  1.00  0.00    -0.504 OA
ATOM     21  H   UNL     1      25.462  62.059  36.622  1.00  0.00     0.293 HD
ENDBRANCH  17  20
ENDBRANCH   1  12
BRANCH   2  22
ATOM     22  O   UNL     1      22.121  63.959  32.681  1.00  0.00    -0.502 OA
ATOM     23  H   UNL     1      21.570  64.765  32.952  1.00  0.00     0.293 HD
ENDBRANCH   2  22
BRANCH   6  24
ATOM     24  O   UNL     1      21.511  66.266  27.919  1.00  0.00    -0.507 OA
ATOM     25  H   UNL     1      21.717  67.148  28.363  1.00  0.00     0.293 HD
ENDBRANCH   6  24
BRANCH   8  26
ATOM     26  O   UNL     1      24.369  63.507  25.250  1.00  0.00    -0.508 OA
ATOM     27  H   UNL     1      23.999  62.745  24.693  1.00  0.00     0.293 HD
ENDBRANCH   8  26
TORSDOF 6
ENDMDL
MODEL 5
REMARK VINA RESULT:    -7.220      1.560      6.707
REMARK INTER + INTRA:          -9.003
REMARK INTER:                  -8.849
REMARK INTRA:                  -0.154
REMARK UNBOUND:                -0.306
REMARK SMILES O=c1c(O)c(-c2ccc(O)c(O)c2)oc2cc(O)cc(O)c12
REMARK SMILES IDX 5 1 3 2 2 3 1 4 22 5 20 6 19 7 17 8 16 9 15 10 14 11 6 12
REMARK SMILES IDX 7 13 8 14 9 15 13 16 11 17 10 18 12 20 4 22 21 24 18 26
REMARK H PARENT 10 19 12 21 4 23 21 25 18 27
REMARK Flexibility Score: inf
ROOT
ATOM      1  C   UNL     1      23.339  62.539  31.991  1.00  0.00     0.180 A 
ATOM      2  C   UNL     1      22.221  63.293  32.388  1.00  0.00     0.208 A 
ATOM      3  C   UNL     1      21.266  63.653  31.422  1.00  0.00     0.238 A 
ATOM      4  O   UNL     1      20.240  64.282  31.793  1.00  0.00    -0.285 OA
ATOM      5  C   UNL     1      21.450  63.270  30.073  1.00  0.00     0.111 A 
ATOM      6  C   UNL     1      20.568  63.614  29.005  1.00  0.00     0.134 A 
ATOM      7  C   UNL     1      20.778  63.070  27.731  1.00  0.00     0.093 A 
ATOM      8  C   UNL     1      21.874  62.248  27.471  1.00  0.00     0.123 A 
ATOM      9  C   UNL     1      22.777  61.954  28.494  1.00  0.00     0.094 A 
ATOM     10  C   UNL     1      22.573  62.451  29.783  1.00  0.00     0.146 A 
ATOM     11  O   UNL     1      23.449  62.138  30.730  1.00  0.00    -0.452 OA
ENDROOT
BRANCH   1  12
ATOM     12  C   UNL     1      24.400  62.142  32.945  1.00  0.00     0.025 A 
ATOM     13  C   UNL     1      24.131  61.275  34.019  1.00  0.00     0.016 A 
ATOM     14  C   UNL     1      25.142  60.934  34.921  1.00  0.00     0.051 A 
ATOM     15  C   UNL     1      26.431  61.462  34.773  1.00  0.00     0.157 A 
ATOM     16  C   UNL     1      25.688  62.685  32.813  1.00  0.00     0.062 A 
ATOM     17  C   UNL     1      26.704  62.345  33.714  1.00  0.00     0.158 A 
BRANCH  15  18
ATOM     18  O   UNL     1      27.438  61.118  35.673  1.00  0.00    -0.504 OA
ATOM     19  H   UNL     1      28.261  61.697  35.795  1.00  0.00     0.293 HD
ENDBRANCH  15  18
BRANCH  17  20
ATOM     20  O   UNL     1      27.974  62.893  33.542  1.00  0.00    -0.504 OA
ATOM     21  H   UNL     1      28.307  63.205  32.637  1.00  0.00     0.293 HD
ENDBRANCH  17  20
ENDBRANCH   1  12
BRANCH   2  22
ATOM     22  O   UNL     1      22.049  63.642  33.729  1.00  0.00    -0.502 OA
ATOM     23  H   UNL     1      21.965  62.950  34.465  1.00  0.00     0.293 HD
ENDBRANCH   2  22
BRANCH   6  24
ATOM     24  O   UNL     1      19.494  64.500  29.135  1.00  0.00    -0.507 OA
ATOM     25  H   UNL     1      18.661  64.482  28.564  1.00  0.00     0.293 HD
ENDBRANCH   6  24
BRANCH   8  26
ATOM     26  O   UNL     1      22.061  61.738  26.189  1.00  0.00    -0.508 OA
ATOM     27  H   UNL     1      21.974  60.746  25.995  1.00  0.00     0.293 HD
ENDBRANCH   8  26
TORSDOF 6
ENDMDL
MODEL 6
REMARK VINA RESULT:    -7.203      2.003      3.667
REMARK INTER + INTRA:          -8.983
REMARK INTER:                  -8.918
REMARK INTRA:                  -0.065
REMARK UNBOUND:                -0.306
REMARK SMILES O=c1c(O)c(-c2ccc(O)c(O)c2)oc2cc(O)cc(O)c12
REMARK SMILES IDX 5 1 3 2 2 3 1 4 22 5 20 6 19 7 17 8 16 9 15 10 14 11 6 12
REMARK SMILES IDX 7 13 8 14 9 15 13 16 11 17 10 18 12 20 4 22 21 24 18 26
REMARK H PARENT 10 19 12 21 4 23 21 25 18 27
REMARK Flexibility Score: inf
ROOT
ATOM      1  C   UNL     1      23.773  63.012  30.910  1.00  0.00     0.180 A 
ATOM      2  C   UNL     1      24.777  62.041  31.078  1.00  0.00     0.208 A 
ATOM      3  C   UNL     1      25.106  61.622  32.378  1.00  0.00     0.238 A 
ATOM      4  O   UNL     1      25.967  60.714  32.519  1.00  0.00    -0.285 OA
ATOM      5  C   UNL     1      24.443  62.189  33.491  1.00  0.00     0.111 A 
ATOM      6  C   UNL     1      24.725  61.869  34.852  1.00  0.00     0.134 A 
ATOM      7  C   UNL     1      23.916  62.395  35.869  1.00  0.00     0.093 A 
ATOM      8  C   UNL     1      22.878  63.279  35.578  1.00  0.00     0.123 A 
ATOM      9  C   UNL     1      22.632  63.646  34.254  1.00  0.00     0.094 A 
ATOM     10  C   UNL     1      23.397  63.110  33.216  1.00  0.00     0.146 A 
ATOM     11  O   UNL     1      23.123  63.476  31.970  1.00  0.00    -0.452 OA
ENDROOT
BRANCH   1  12
ATOM     12  C   UNL     1      23.387  63.522  29.574  1.00  0.00     0.025 A 
ATOM     13  C   UNL     1      23.432  64.895  29.274  1.00  0.00     0.016 A 
ATOM     14  C   UNL     1      23.039  65.356  28.015  1.00  0.00     0.051 A 
ATOM     15  C   UNL     1      22.583  64.456  27.043  1.00  0.00     0.157 A 
ATOM     16  C   UNL     1      22.909  62.626  28.604  1.00  0.00     0.062 A 
ATOM     17  C   UNL     1      22.515  63.084  27.341  1.00  0.00     0.158 A 
BRANCH  15  18
ATOM     18  O   UNL     1      22.194  64.918  25.787  1.00  0.00    -0.504 OA
ATOM     19  H   UNL     1      22.872  65.115  25.060  1.00  0.00     0.293 HD
ENDBRANCH  15  18
BRANCH  17  20
ATOM     20  O   UNL     1      22.060  62.164  26.399  1.00  0.00    -0.504 OA
ATOM     21  H   UNL     1      21.183  62.285  25.908  1.00  0.00     0.293 HD
ENDBRANCH  17  20
ENDBRANCH   1  12
BRANCH   2  22
ATOM     22  O   UNL     1      25.403  61.478  29.964  1.00  0.00    -0.502 OA
ATOM     23  H   UNL     1      26.192  60.846  30.044  1.00  0.00     0.293 HD
ENDBRANCH   2  22
BRANCH   6  24
ATOM     24  O   UNL     1      25.796  61.068  35.260  1.00  0.00    -0.507 OA
ATOM     25  H   UNL     1      26.570  60.800  34.671  1.00  0.00     0.293 HD
ENDBRANCH   6  24
BRANCH   8  26
ATOM     26  O   UNL     1      22.104  63.795  36.614  1.00  0.00    -0.508 OA
ATOM     27  H   UNL     1      22.405  64.601  37.150  1.00  0.00     0.293 HD
ENDBRANCH   8  26
TORSDOF 6
ENDMDL
MODEL 7
REMARK VINA RESULT:    -7.134     10.753     12.847
REMARK INTER + INTRA:          -8.901
REMARK INTER:                  -8.579
REMARK INTRA:                  -0.321
REMARK UNBOUND:                -0.306
REMARK SMILES O=c1c(O)c(-c2ccc(O)c(O)c2)oc2cc(O)cc(O)c12
REMARK SMILES IDX 5 1 3 2 2 3 1 4 22 5 20 6 19 7 17 8 16 9 15 10 14 11 6 12
REMARK SMILES IDX 7 13 8 14 9 15 13 16 11 17 10 18 12 20 4 22 21 24 18 26
REMARK H PARENT 10 19 12 21 4 23 21 25 18 27
REMARK Flexibility Score: inf
ROOT
ATOM      1  C   UNL     1      16.709  56.481  26.370  1.00  0.00     0.180 A 
ATOM      2  C   UNL     1      17.490  57.381  25.624  1.00  0.00     0.208 A 
ATOM      3  C   UNL     1      17.046  58.705  25.474  1.00  0.00     0.238 A 
ATOM      4  O   UNL     1      17.776  59.520  24.851  1.00  0.00    -0.285 OA
ATOM      5  C   UNL     1      15.821  59.107  26.056  1.00  0.00     0.111 A 
ATOM      6  C   UNL     1      15.254  60.412  25.933  1.00  0.00     0.134 A 
ATOM      7  C   UNL     1      14.102  60.736  26.660  1.00  0.00     0.093 A 
ATOM      8  C   UNL     1      13.459  59.787  27.452  1.00  0.00     0.123 A 
ATOM      9  C   UNL     1      13.970  58.490  27.532  1.00  0.00     0.094 A 
ATOM     10  C   UNL     1      15.138  58.147  26.848  1.00  0.00     0.146 A 
ATOM     11  O   UNL     1      15.598  56.906  26.959  1.00  0.00    -0.452 OA
ENDROOT
BRANCH   1  12
ATOM     12  C   UNL     1      17.098  55.064  26.552  1.00  0.00     0.025 A 
ATOM     13  C   UNL     1      17.951  54.669  27.598  1.00  0.00     0.016 A 
ATOM     14  C   UNL     1      18.324  53.329  27.737  1.00  0.00     0.051 A 
ATOM     15  C   UNL     1      17.864  52.368  26.827  1.00  0.00     0.157 A 
ATOM     16  C   UNL     1      16.656  54.101  25.631  1.00  0.00     0.062 A 
ATOM     17  C   UNL     1      17.027  52.758  25.767  1.00  0.00     0.158 A 
BRANCH  15  18
ATOM     18  O   UNL     1      18.236  51.033  26.969  1.00  0.00    -0.504 OA
ATOM     19  H   UNL     1      18.913  50.602  26.349  1.00  0.00     0.293 HD
ENDBRANCH  15  18
BRANCH  17  20
ATOM     20  O   UNL     1      16.557  51.828  24.841  1.00  0.00    -0.504 OA
ATOM     21  H   UNL     1      17.183  51.270  24.274  1.00  0.00     0.293 HD
ENDBRANCH  17  20
ENDBRANCH   1  12
BRANCH   2  22
ATOM     22  O   UNL     1      18.707  56.968  25.076  1.00  0.00    -0.502 OA
ATOM     23  H   UNL     1      19.600  57.297  25.426  1.00  0.00     0.293 HD
ENDBRANCH   2  22
BRANCH   6  24
ATOM     24  O   UNL     1      15.766  61.409  25.097  1.00  0.00    -0.507 OA
ATOM     25  H   UNL     1      16.743  61.652  25.024  1.00  0.00     0.293 HD
ENDBRANCH   6  24
BRANCH   8  26
ATOM     26  O   UNL     1      12.306  60.139  28.149  1.00  0.00    -0.508 OA
ATOM     27  H   UNL     1      11.545  59.483  28.282  1.00  0.00     0.293 HD
ENDBRANCH   8  26
TORSDOF 6
ENDMDL
MODEL 8
REMARK VINA RESULT:    -7.029      3.647      5.360
REMARK INTER + INTRA:          -8.773
REMARK INTER:                  -8.602
REMARK INTRA:                  -0.171
REMARK UNBOUND:                -0.306
REMARK SMILES O=c1c(O)c(-c2ccc(O)c(O)c2)oc2cc(O)cc(O)c12
REMARK SMILES IDX 5 1 3 2 2 3 1 4 22 5 20 6 19 7 17 8 16 9 15 10 14 11 6 12
REMARK SMILES IDX 7 13 8 14 9 15 13 16 11 17 10 18 12 20 4 22 21 24 18 26
REMARK H PARENT 10 19 12 21 4 23 21 25 18 27
REMARK Flexibility Score: inf
ROOT
ATOM      1  C   UNL     1      23.183  63.547  28.040  1.00  0.00     0.180 A 
ATOM      2  C   UNL     1      21.851  63.984  28.139  1.00  0.00     0.208 A 
ATOM      3  C   UNL     1      21.250  64.052  29.407  1.00  0.00     0.238 A 
ATOM      4  O   UNL     1      20.075  64.495  29.496  1.00  0.00    -0.285 OA
ATOM      5  C   UNL     1      21.982  63.666  30.555  1.00  0.00     0.111 A 
ATOM      6  C   UNL     1      21.461  63.656  31.883  1.00  0.00     0.134 A 
ATOM      7  C   UNL     1      22.314  63.381  32.959  1.00  0.00     0.093 A 
ATOM      8  C   UNL     1      23.653  63.052  32.751  1.00  0.00     0.123 A 
ATOM      9  C   UNL     1      24.159  63.001  31.450  1.00  0.00     0.094 A 
ATOM     10  C   UNL     1      23.341  63.306  30.361  1.00  0.00     0.146 A 
ATOM     11  O   UNL     1      23.864  63.256  29.141  1.00  0.00    -0.452 OA
ENDROOT
BRANCH   1  12
ATOM     12  C   UNL     1      23.877  63.426  26.737  1.00  0.00     0.025 A 
ATOM     13  C   UNL     1      24.297  62.177  26.245  1.00  0.00     0.016 A 
ATOM     14  C   UNL     1      24.972  62.090  25.024  1.00  0.00     0.051 A 
ATOM     15  C   UNL     1      25.248  63.247  24.284  1.00  0.00     0.157 A 
ATOM     16  C   UNL     1      24.175  64.584  26.002  1.00  0.00     0.062 A 
ATOM     17  C   UNL     1      24.850  64.501  24.778  1.00  0.00     0.158 A 
BRANCH  15  18
ATOM     18  O   UNL     1      25.920  63.156  23.067  1.00  0.00    -0.504 OA
ATOM     19  H   UNL     1      26.472  62.341  22.824  1.00  0.00     0.293 HD
ENDBRANCH  15  18
BRANCH  17  20
ATOM     20  O   UNL     1      25.116  65.671  24.070  1.00  0.00    -0.504 OA
ATOM     21  H   UNL     1      24.401  66.151  23.536  1.00  0.00     0.293 HD
ENDBRANCH  17  20
ENDBRANCH   1  12
BRANCH   2  22
ATOM     22  O   UNL     1      21.154  64.381  26.995  1.00  0.00    -0.502 OA
ATOM     23  H   UNL     1      21.522  65.065  26.344  1.00  0.00     0.293 HD
ENDBRANCH   2  22
BRANCH   6  24
ATOM     24  O   UNL     1      20.116  63.881  32.196  1.00  0.00    -0.507 OA
ATOM     25  H   UNL     1      19.636  63.483  32.990  1.00  0.00     0.293 HD
ENDBRANCH   6  24
BRANCH   8  26
ATOM     26  O   UNL     1      24.470  62.769  33.842  1.00  0.00    -0.508 OA
ATOM     27  H   UNL     1      24.790  61.827  34.035  1.00  0.00     0.293 HD
ENDBRANCH   8  26
TORSDOF 6
ENDMDL
MODEL 9
REMARK VINA RESULT:    -6.911      1.982      7.226
REMARK INTER + INTRA:          -8.631
REMARK INTER:                  -8.307
REMARK INTRA:                  -0.325
REMARK UNBOUND:                -0.306
REMARK SMILES O=c1c(O)c(-c2ccc(O)c(O)c2)oc2cc(O)cc(O)c12
REMARK SMILES IDX 5 1 3 2 2 3 1 4 22 5 20 6 19 7 17 8 16 9 15 10 14 11 6 12
REMARK SMILES IDX 7 13 8 14 9 15 13 16 11 17 10 18 12 20 4 22 21 24 18 26
REMARK H PARENT 10 19 12 21 4 23 21 25 18 27
REMARK Flexibility Score: inf
ROOT
ATOM      1  C   UNL     1      23.983  62.360  30.976  1.00  0.00     0.180 A 
ATOM      2  C   UNL     1      23.775  61.242  30.149  1.00  0.00     0.208 A 
ATOM      3  C   UNL     1      23.155  61.426  28.902  1.00  0.00     0.238 A 
ATOM      4  O   UNL     1      23.020  60.431  28.142  1.00  0.00    -0.285 OA
ATOM      5  C   UNL     1      22.736  62.718  28.506  1.00  0.00     0.111 A 
ATOM      6  C   UNL     1      22.062  63.013  27.284  1.00  0.00     0.134 A 
ATOM      7  C   UNL     1      21.810  64.347  26.937  1.00  0.00     0.093 A 
ATOM      8  C   UNL     1      22.150  65.391  27.796  1.00  0.00     0.123 A 
ATOM      9  C   UNL     1      22.756  65.109  29.022  1.00  0.00     0.094 A 
ATOM     10  C   UNL     1      23.053  63.793  29.379  1.00  0.00     0.146 A 
ATOM     11  O   UNL     1      23.639  63.569  30.549  1.00  0.00    -0.452 OA
ENDROOT
BRANCH   1  12
ATOM     12  C   UNL     1      24.608  62.244  32.314  1.00  0.00     0.025 A 
ATOM     13  C   UNL     1      23.829  62.094  33.475  1.00  0.00     0.016 A 
ATOM     14  C   UNL     1      24.439  62.011  34.729  1.00  0.00     0.051 A 
ATOM     15  C   UNL     1      25.833  62.089  34.844  1.00  0.00     0.157 A 
ATOM     16  C   UNL     1      26.003  62.343  32.437  1.00  0.00     0.062 A 
ATOM     17  C   UNL     1      26.618  62.259  33.691  1.00  0.00     0.158 A 
BRANCH  15  18
ATOM     18  O   UNL     1      26.439  62.004  36.096  1.00  0.00    -0.504 OA
ATOM     19  H   UNL     1      27.287  61.467  36.240  1.00  0.00     0.293 HD
ENDBRANCH  15  18
BRANCH  17  20
ATOM     20  O   UNL     1      28.007  62.347  33.772  1.00  0.00    -0.504 OA
ATOM     21  H   UNL     1      28.470  62.954  34.438  1.00  0.00     0.293 HD
ENDBRANCH  17  20
ENDBRANCH   1  12
BRANCH   2  22
ATOM     22  O   UNL     1      24.216  59.979  30.550  1.00  0.00    -0.502 OA
ATOM     23  H   UNL     1      23.674  59.138  30.391  1.00  0.00     0.293 HD
ENDBRANCH   2  22
BRANCH   6  24
ATOM     24  O   UNL     1      21.596  62.039  26.395  1.00  0.00    -0.507 OA
ATOM     25  H   UNL     1      20.709  62.076  25.916  1.00  0.00     0.293 HD
ENDBRANCH   6  24
BRANCH   8  26
ATOM     26  O   UNL     1      21.872  66.704  27.426  1.00  0.00    -0.508 OA
ATOM     27  H   UNL     1      21.161  67.249  27.899  1.00  0.00     0.293 HD
ENDBRANCH   8  26
TORSDOF 6
ENDMDL
