MODEL 1
REMARK VINA RESULT:    -3.828      0.000      0.000
REMARK INTER + INTRA:          -7.299
REMARK INTER:                  -6.066
REMARK INTRA:                  -1.233
REMARK UNBOUND:                -1.233
REMARK SMILES CCCCCCCCCCCC(=O)[O-]
REMARK SMILES IDX 7 1 8 2 9 3 10 4 11 5 12 6 13 7 14 8 6 9 5 10 4 11 3 12 2 13
REMARK SMILES IDX 1 14
REMARK H PARENT
REMARK Flexibility Score: inf
ROOT
ATOM      1  C   UNL     1      29.608  15.992 -14.731  1.00  0.00     0.000 C 
ENDROOT
BRANCH   1   2
ATOM      2  C   UNL     1      28.705  15.454 -13.609  1.00  0.00     0.000 C 
BRANCH   2   3
ATOM      3  C   UNL     1      29.003  13.986 -13.258  1.00  0.00     0.000 C 
BRANCH   3   4
ATOM      4  C   UNL     1      27.742  13.191 -12.871  1.00  0.00     0.006 C 
BRANCH   4   5
ATOM      5  C   UNL     1      27.291  13.407 -11.415  1.00  0.00     0.053 C 
BRANCH   5   6
ATOM      6  C   UNL     1      25.961  14.090 -11.317  1.00  0.00     0.041 C 
ATOM      7  O   UNL     1      25.399  14.541 -12.350  1.00  0.00    -0.550 OA
ATOM      8  O   UNL     1      25.356  14.255 -10.077  1.00  0.00    -0.550 OA
ENDBRANCH   5   6
ENDBRANCH   4   5
ENDBRANCH   3   4
ENDBRANCH   2   3
ENDBRANCH   1   2
BRANCH   1   9
ATOM      9  C   UNL     1      30.716  15.000 -15.122  1.00  0.00     0.000 C 
BRANCH   9  10
ATOM     10  C   UNL     1      30.878  14.855 -16.646  1.00  0.00    -0.000 C 
BRANCH  10  11
ATOM     11  C   UNL     1      29.558  14.761 -17.439  1.00  0.00    -0.000 C 
BRANCH  11  12
ATOM     12  C   UNL     1      29.066  13.329 -17.727  1.00  0.00    -0.000 C 
BRANCH  12  13
ATOM     13  C   UNL     1      28.328  12.653 -16.559  1.00  0.00    -0.003 C 
ATOM     14  C   UNL     1      29.076  11.439 -16.007  1.00  0.00     0.004 C 
ENDBRANCH  12  13
ENDBRANCH  11  12
ENDBRANCH  10  11
ENDBRANCH   9  10
ENDBRANCH   1   9
TORSDOF 10
ENDMDL
MODEL 2
REMARK VINA RESULT:    -3.699      1.989      3.541
REMARK INTER + INTRA:          -7.095
REMARK INTER:                  -5.884
REMARK INTRA:                  -1.211
REMARK UNBOUND:                -1.233
REMARK SMILES CCCCCCCCCCCC(=O)[O-]
REMARK SMILES IDX 7 1 8 2 9 3 10 4 11 5 12 6 13 7 14 8 6 9 5 10 4 11 3 12 2 13
REMARK SMILES IDX 1 14
REMARK H PARENT
REMARK Flexibility Score: inf
ROOT
ATOM      1  C   UNL     1      29.116  11.108 -15.835  1.00  0.00     0.000 C 
ENDROOT
BRANCH   1   2
ATOM      2  C   UNL     1      29.559  10.926 -14.375  1.00  0.00     0.000 C 
BRANCH   2   3
ATOM      3  C   UNL     1      30.337  12.138 -13.834  1.00  0.00     0.000 C 
BRANCH   3   4
ATOM      4  C   UNL     1      30.281  12.254 -12.300  1.00  0.00     0.006 C 
BRANCH   4   5
ATOM      5  C   UNL     1      28.926  12.747 -11.761  1.00  0.00     0.053 C 
BRANCH   5   6
ATOM      6  C   UNL     1      28.226  11.717 -10.927  1.00  0.00     0.041 C 
ATOM      7  O   UNL     1      28.833  10.678 -10.557  1.00  0.00    -0.550 OA
ATOM      8  O   UNL     1      26.891  11.892 -10.585  1.00  0.00    -0.550 OA
ENDBRANCH   5   6
ENDBRANCH   4   5
ENDBRANCH   3   4
ENDBRANCH   2   3
ENDBRANCH   1   2
BRANCH   1   9
ATOM      9  C   UNL     1      28.484  12.487 -16.092  1.00  0.00     0.000 C 
BRANCH   9  10
ATOM     10  C   UNL     1      29.031  13.168 -17.361  1.00  0.00    -0.000 C 
BRANCH  10  11
ATOM     11  C   UNL     1      29.477  14.633 -17.176  1.00  0.00    -0.000 C 
BRANCH  11  12
ATOM     12  C   UNL     1      30.915  14.821 -16.654  1.00  0.00    -0.000 C 
BRANCH  12  13
ATOM     13  C   UNL     1      31.015  15.402 -15.233  1.00  0.00    -0.003 C 
ATOM     14  C   UNL     1      29.649  15.710 -14.620  1.00  0.00     0.004 C 
ENDBRANCH  12  13
ENDBRANCH  11  12
ENDBRANCH  10  11
ENDBRANCH   9  10
ENDBRANCH   1   9
TORSDOF 10
ENDMDL
MODEL 3
REMARK VINA RESULT:    -3.651      1.730      2.888
REMARK INTER + INTRA:          -7.018
REMARK INTER:                  -5.833
REMARK INTRA:                  -1.184
REMARK UNBOUND:                -1.233
REMARK SMILES CCCCCCCCCCCC(=O)[O-]
REMARK SMILES IDX 7 1 8 2 9 3 10 4 11 5 12 6 13 7 14 8 6 9 5 10 4 11 3 12 2 13
REMARK SMILES IDX 1 14
REMARK H PARENT
REMARK Flexibility Score: inf
ROOT
ATOM      1  C   UNL     1      28.963  13.837 -17.045  1.00  0.00     0.000 C 
ENDROOT
BRANCH   1   2
ATOM      2  C   UNL     1      30.118  14.277 -16.132  1.00  0.00     0.000 C 
BRANCH   2   3
ATOM      3  C   UNL     1      29.631  14.857 -14.793  1.00  0.00     0.000 C 
BRANCH   3   4
ATOM      4  C   UNL     1      29.454  13.787 -13.701  1.00  0.00     0.006 C 
BRANCH   4   5
ATOM      5  C   UNL     1      27.985  13.478 -13.363  1.00  0.00     0.053 C 
BRANCH   5   6
ATOM      6  C   UNL     1      27.610  13.898 -11.973  1.00  0.00     0.041 C 
ATOM      7  O   UNL     1      27.279  13.038 -11.116  1.00  0.00    -0.550 OA
ATOM      8  O   UNL     1      27.597  15.246 -11.636  1.00  0.00    -0.550 OA
ENDBRANCH   5   6
ENDBRANCH   4   5
ENDBRANCH   3   4
ENDBRANCH   2   3
ENDBRANCH   1   2
BRANCH   1   9
ATOM      9  C   UNL     1      29.456  13.236 -18.373  1.00  0.00     0.000 C 
BRANCH   9  10
ATOM     10  C   UNL     1      30.769  12.446 -18.220  1.00  0.00    -0.000 C 
BRANCH  10  11
ATOM     11  C   UNL     1      30.711  10.982 -18.704  1.00  0.00    -0.000 C 
BRANCH  11  12
ATOM     12  C   UNL     1      30.447   9.936 -17.604  1.00  0.00    -0.000 C 
BRANCH  12  13
ATOM     13  C   UNL     1      30.632  10.451 -16.166  1.00  0.00    -0.003 C 
ATOM     14  C   UNL     1      29.324  10.491 -15.376  1.00  0.00     0.004 C 
ENDBRANCH  12  13
ENDBRANCH  11  12
ENDBRANCH  10  11
ENDBRANCH   9  10
ENDBRANCH   1   9
TORSDOF 10
ENDMDL
MODEL 4
REMARK VINA RESULT:    -3.563      2.557      5.478
REMARK INTER + INTRA:          -6.879
REMARK INTER:                  -5.968
REMARK INTRA:                  -0.911
REMARK UNBOUND:                -1.233
REMARK SMILES CCCCCCCCCCCC(=O)[O-]
REMARK SMILES IDX 7 1 8 2 9 3 10 4 11 5 12 6 13 7 14 8 6 9 5 10 4 11 3 12 2 13
REMARK SMILES IDX 1 14
REMARK H PARENT
REMARK Flexibility Score: inf
ROOT
ATOM      1  C   UNL     1      29.353  11.406 -14.871  1.00  0.00     0.000 C 
ENDROOT
BRANCH   1   2
ATOM      2  C   UNL     1      29.345  11.732 -16.373  1.00  0.00     0.000 C 
BRANCH   2   3
ATOM      3  C   UNL     1      28.432  12.921 -16.718  1.00  0.00     0.000 C 
BRANCH   3   4
ATOM      4  C   UNL     1      29.117  13.965 -17.619  1.00  0.00     0.006 C 
BRANCH   4   5
ATOM      5  C   UNL     1      30.339  14.640 -16.972  1.00  0.00     0.053 C 
BRANCH   5   6
ATOM      6  C   UNL     1      30.001  15.946 -16.319  1.00  0.00     0.041 C 
ATOM      7  O   UNL     1      29.870  16.989 -17.012  1.00  0.00    -0.550 OA
ATOM      8  O   UNL     1      29.863  16.016 -14.938  1.00  0.00    -0.550 OA
ENDBRANCH   5   6
ENDBRANCH   4   5
ENDBRANCH   3   4
ENDBRANCH   2   3
ENDBRANCH   1   2
BRANCH   1   9
ATOM      9  C   UNL     1      30.141  12.439 -14.048  1.00  0.00     0.000 C 
BRANCH   9  10
ATOM     10  C   UNL     1      29.366  12.936 -12.813  1.00  0.00    -0.000 C 
BRANCH  10  11
ATOM     11  C   UNL     1      28.016  13.616 -13.119  1.00  0.00    -0.000 C 
BRANCH  11  12
ATOM     12  C   UNL     1      27.623  14.757 -12.160  1.00  0.00    -0.000 C 
BRANCH  12  13
ATOM     13  C   UNL     1      26.406  14.461 -11.267  1.00  0.00    -0.003 C 
ATOM     14  C   UNL     1      26.286  12.983 -10.897  1.00  0.00     0.004 C 
ENDBRANCH  12  13
ENDBRANCH  11  12
ENDBRANCH  10  11
ENDBRANCH   9  10
ENDBRANCH   1   9
TORSDOF 10
ENDMDL
MODEL 5
REMARK VINA RESULT:    -3.557      4.255      6.301
REMARK INTER + INTRA:          -6.870
REMARK INTER:                  -5.608
REMARK INTRA:                  -1.262
REMARK UNBOUND:                -1.233
REMARK SMILES CCCCCCCCCCCC(=O)[O-]
REMARK SMILES IDX 7 1 8 2 9 3 10 4 11 5 12 6 13 7 14 8 6 9 5 10 4 11 3 12 2 13
REMARK SMILES IDX 1 14
REMARK H PARENT
REMARK Flexibility Score: inf
ROOT
ATOM      1  C   UNL     1      29.233  14.253 -17.236  1.00  0.00     0.000 C 
ENDROOT
BRANCH   1   2
ATOM      2  C   UNL     1      29.516  13.271 -18.383  1.00  0.00     0.000 C 
BRANCH   2   3
ATOM      3  C   UNL     1      30.769  12.413 -18.136  1.00  0.00     0.000 C 
BRANCH   3   4
ATOM      4  C   UNL     1      30.708  11.042 -18.834  1.00  0.00     0.006 C 
BRANCH   4   5
ATOM      5  C   UNL     1      31.014   9.854 -17.904  1.00  0.00     0.053 C 
BRANCH   5   6
ATOM      6  C   UNL     1      30.345   8.588 -18.343  1.00  0.00     0.041 C 
ATOM      7  O   UNL     1      30.703   8.015 -19.406  1.00  0.00    -0.550 OA
ATOM      8  O   UNL     1      29.303   8.057 -17.594  1.00  0.00    -0.550 OA
ENDBRANCH   5   6
ENDBRANCH   4   5
ENDBRANCH   3   4
ENDBRANCH   2   3
ENDBRANCH   1   2
BRANCH   1   9
ATOM      9  C   UNL     1      30.490  15.024 -16.796  1.00  0.00     0.000 C 
BRANCH   9  10
ATOM     10  C   UNL     1      30.794  14.865 -15.295  1.00  0.00    -0.000 C 
BRANCH  10  11
ATOM     11  C   UNL     1      29.617  14.353 -14.439  1.00  0.00    -0.000 C 
BRANCH  11  12
ATOM     12  C   UNL     1      29.903  13.076 -13.625  1.00  0.00    -0.000 C 
BRANCH  12  13
ATOM     13  C   UNL     1      30.325  11.857 -14.463  1.00  0.00    -0.003 C 
ATOM     14  C   UNL     1      29.139  11.138 -15.105  1.00  0.00     0.004 C 
ENDBRANCH  12  13
ENDBRANCH  11  12
ENDBRANCH  10  11
ENDBRANCH   9  10
ENDBRANCH   1   9
TORSDOF 10
ENDMDL
MODEL 6
REMARK VINA RESULT:    -3.554      1.748      2.438
REMARK INTER + INTRA:          -6.864
REMARK INTER:                  -6.040
REMARK INTRA:                  -0.824
REMARK UNBOUND:                -1.233
REMARK SMILES CCCCCCCCCCCC(=O)[O-]
REMARK SMILES IDX 7 1 8 2 9 3 10 4 11 5 12 6 13 7 14 8 6 9 5 10 4 11 3 12 2 13
REMARK SMILES IDX 1 14
REMARK H PARENT
REMARK Flexibility Score: inf
ROOT
ATOM      1  C   UNL     1      28.814  13.512 -14.699  1.00  0.00     0.000 C 
ENDROOT
BRANCH   1   2
ATOM      2  C   UNL     1      29.936  13.078 -13.743  1.00  0.00     0.000 C 
BRANCH   2   3
ATOM      3  C   UNL     1      29.488  11.987 -12.755  1.00  0.00     0.000 C 
BRANCH   3   4
ATOM      4  C   UNL     1      28.949  12.557 -11.431  1.00  0.00     0.006 C 
BRANCH   4   5
ATOM      5  C   UNL     1      27.415  12.515 -11.312  1.00  0.00     0.053 C 
BRANCH   5   6
ATOM      6  C   UNL     1      26.803  13.880 -11.225  1.00  0.00     0.041 C 
ATOM      7  O   UNL     1      25.670  14.038 -10.699  1.00  0.00    -0.550 OA
ATOM      8  O   UNL     1      27.473  14.976 -11.756  1.00  0.00    -0.550 OA
ENDBRANCH   5   6
ENDBRANCH   4   5
ENDBRANCH   3   4
ENDBRANCH   2   3
ENDBRANCH   1   2
BRANCH   1   9
ATOM      9  C   UNL     1      28.595  12.508 -15.845  1.00  0.00     0.000 C 
BRANCH   9  10
ATOM     10  C   UNL     1      28.493  13.187 -17.223  1.00  0.00    -0.000 C 
BRANCH  10  11
ATOM     11  C   UNL     1      29.836  13.394 -17.952  1.00  0.00    -0.000 C 
BRANCH  11  12
ATOM     12  C   UNL     1      30.857  12.252 -17.783  1.00  0.00    -0.000 C 
BRANCH  12  13
ATOM     13  C   UNL     1      30.683  11.080 -18.765  1.00  0.00    -0.003 C 
ATOM     14  C   UNL     1      30.415   9.750 -18.061  1.00  0.00     0.004 C 
ENDBRANCH  12  13
ENDBRANCH  11  12
ENDBRANCH  10  11
ENDBRANCH   9  10
ENDBRANCH   1   9
TORSDOF 10
ENDMDL
MODEL 7
REMARK VINA RESULT:    -3.519      1.154      2.701
REMARK INTER + INTRA:          -6.809
REMARK INTER:                  -5.678
REMARK INTRA:                  -1.131
REMARK UNBOUND:                -1.233
REMARK SMILES CCCCCCCCCCCC(=O)[O-]
REMARK SMILES IDX 7 1 8 2 9 3 10 4 11 5 12 6 13 7 14 8 6 9 5 10 4 11 3 12 2 13
REMARK SMILES IDX 1 14
REMARK H PARENT
REMARK Flexibility Score: inf
ROOT
ATOM      1  C   UNL     1      30.479  11.717 -14.721  1.00  0.00     0.000 C 
ENDROOT
BRANCH   1   2
ATOM      2  C   UNL     1      29.996  12.839 -13.790  1.00  0.00     0.000 C 
BRANCH   2   3
ATOM      3  C   UNL     1      28.488  13.115 -13.922  1.00  0.00     0.000 C 
BRANCH   3   4
ATOM      4  C   UNL     1      27.792  13.324 -12.565  1.00  0.00     0.006 C 
BRANCH   4   5
ATOM      5  C   UNL     1      27.186  14.727 -12.384  1.00  0.00     0.053 C 
BRANCH   5   6
ATOM      6  C   UNL     1      25.806  14.690 -11.800  1.00  0.00     0.041 C 
ATOM      7  O   UNL     1      25.596  14.114 -10.701  1.00  0.00    -0.550 OA
ATOM      8  O   UNL     1      24.746  15.266 -12.488  1.00  0.00    -0.550 OA
ENDBRANCH   5   6
ENDBRANCH   4   5
ENDBRANCH   3   4
ENDBRANCH   2   3
ENDBRANCH   1   2
BRANCH   1   9
ATOM      9  C   UNL     1      29.609  11.582 -15.983  1.00  0.00     0.000 C 
BRANCH   9  10
ATOM     10  C   UNL     1      30.350  11.996 -17.267  1.00  0.00    -0.000 C 
BRANCH  10  11
ATOM     11  C   UNL     1      29.618  13.038 -18.138  1.00  0.00    -0.000 C 
BRANCH  11  12
ATOM     12  C   UNL     1      29.211  14.334 -17.410  1.00  0.00    -0.000 C 
BRANCH  12  13
ATOM     13  C   UNL     1      30.384  15.144 -16.832  1.00  0.00    -0.003 C 
ATOM     14  C   UNL     1      29.974  16.023 -15.650  1.00  0.00     0.004 C 
ENDBRANCH  12  13
ENDBRANCH  11  12
ENDBRANCH  10  11
ENDBRANCH   9  10
ENDBRANCH   1   9
TORSDOF 10
ENDMDL
MODEL 8
REMARK VINA RESULT:    -3.516      3.318      4.571
REMARK INTER + INTRA:          -6.804
REMARK INTER:                  -5.564
REMARK INTRA:                  -1.240
REMARK UNBOUND:                -1.233
REMARK SMILES CCCCCCCCCCCC(=O)[O-]
REMARK SMILES IDX 7 1 8 2 9 3 10 4 11 5 12 6 13 7 14 8 6 9 5 10 4 11 3 12 2 13
REMARK SMILES IDX 1 14
REMARK H PARENT
REMARK Flexibility Score: inf
ROOT
ATOM      1  C   UNL     1      29.622  13.169 -18.395  1.00  0.00     0.000 C 
ENDROOT
BRANCH   1   2
ATOM      2  C   UNL     1      28.755  13.601 -17.203  1.00  0.00     0.000 C 
BRANCH   2   3
ATOM      3  C   UNL     1      28.503  12.457 -16.205  1.00  0.00     0.000 C 
BRANCH   3   4
ATOM      4  C   UNL     1      28.869  12.829 -14.756  1.00  0.00     0.006 C 
BRANCH   4   5
ATOM      5  C   UNL     1      30.241  12.300 -14.304  1.00  0.00     0.053 C 
BRANCH   5   6
ATOM      6  C   UNL     1      30.164  11.498 -13.040  1.00  0.00     0.041 C 
ATOM      7  O   UNL     1      30.682  11.933 -11.978  1.00  0.00    -0.550 OA
ATOM      8  O   UNL     1      29.547  10.254 -13.044  1.00  0.00    -0.550 OA
ENDBRANCH   5   6
ENDBRANCH   4   5
ENDBRANCH   3   4
ENDBRANCH   2   3
ENDBRANCH   1   2
BRANCH   1   9
ATOM      9  C   UNL     1      30.697  12.142 -18.001  1.00  0.00     0.000 C 
BRANCH   9  10
ATOM     10  C   UNL     1      30.783  10.960 -18.984  1.00  0.00    -0.000 C 
BRANCH  10  11
ATOM     11  C   UNL     1      30.988   9.578 -18.331  1.00  0.00    -0.000 C 
BRANCH  11  12
ATOM     12  C   UNL     1      30.760   9.532 -16.807  1.00  0.00    -0.000 C 
BRANCH  12  13
ATOM     13  C   UNL     1      29.431   8.891 -16.372  1.00  0.00    -0.003 C 
ATOM     14  C   UNL     1      29.000   7.741 -17.282  1.00  0.00     0.004 C 
ENDBRANCH  12  13
ENDBRANCH  11  12
ENDBRANCH  10  11
ENDBRANCH   9  10
ENDBRANCH   1   9
TORSDOF 10
ENDMDL
MODEL 9
REMARK VINA RESULT:    -3.484      2.715      3.424
REMARK INTER + INTRA:          -6.754
REMARK INTER:                  -5.721
REMARK INTRA:                  -1.033
REMARK UNBOUND:                -1.233
REMARK SMILES CCCCCCCCCCCC(=O)[O-]
REMARK SMILES IDX 7 1 8 2 9 3 10 4 11 5 12 6 13 7 14 8 6 9 5 10 4 11 3 12 2 13
REMARK SMILES IDX 1 14
REMARK H PARENT
REMARK Flexibility Score: inf
ROOT
ATOM      1  C   UNL     1      28.529  12.752 -16.122  1.00  0.00     0.000 C 
ENDROOT
BRANCH   1   2
ATOM      2  C   UNL     1      29.023  13.148 -14.722  1.00  0.00     0.000 C 
BRANCH   2   3
ATOM      3  C   UNL     1      30.404  12.558 -14.389  1.00  0.00     0.000 C 
BRANCH   3   4
ATOM      4  C   UNL     1      30.333  11.375 -13.406  1.00  0.00     0.006 C 
BRANCH   4   5
ATOM      5  C   UNL     1      30.560  11.770 -11.936  1.00  0.00     0.053 C 
BRANCH   5   6
ATOM      6  C   UNL     1      29.293  11.773 -11.136  1.00  0.00     0.041 C 
ATOM      7  O   UNL     1      28.473  12.722 -11.245  1.00  0.00    -0.550 OA
ATOM      8  O   UNL     1      29.033  10.740 -10.244  1.00  0.00    -0.550 OA
ENDBRANCH   5   6
ENDBRANCH   4   5
ENDBRANCH   3   4
ENDBRANCH   2   3
ENDBRANCH   1   2
BRANCH   1   9
ATOM      9  C   UNL     1      28.898  13.793 -17.193  1.00  0.00     0.000 C 
BRANCH   9  10
ATOM     10  C   UNL     1      29.585  13.168 -18.422  1.00  0.00    -0.000 C 
BRANCH  10  11
ATOM     11  C   UNL     1      30.757  12.217 -18.103  1.00  0.00    -0.000 C 
BRANCH  11  12
ATOM     12  C   UNL     1      30.709  10.853 -18.818  1.00  0.00    -0.000 C 
BRANCH  12  13
ATOM     13  C   UNL     1      30.972   9.639 -17.910  1.00  0.00    -0.003 C 
ATOM     14  C   UNL     1      29.900   9.456 -16.837  1.00  0.00     0.004 C 
ENDBRANCH  12  13
ENDBRANCH  11  12
ENDBRANCH  10  11
ENDBRANCH   9  10
ENDBRANCH   1   9
TORSDOF 10
ENDMDL
