MODEL 1
REMARK VINA RESULT:    -4.752      0.000      0.000
REMARK INTER + INTRA:          -9.248
REMARK INTER:                  -8.085
REMARK INTRA:                  -1.163
REMARK UNBOUND:                -1.163
REMARK SMILES CCCCCCCCCCCCCC(=O)[O-]
REMARK SMILES IDX 8 1 9 2 10 3 11 4 12 5 13 6 14 7 15 8 16 9 7 10 6 11 5 12
REMARK SMILES IDX 4 13 3 14 2 15 1 16
REMARK H PARENT
REMARK Flexibility Score: inf
ROOT
ATOM      1  C   UNL     1      17.604  29.416  31.335  1.00  0.00     0.000 C 
ENDROOT
BRANCH   1   2
ATOM      2  C   UNL     1      18.209  28.761  30.084  1.00  0.00     0.000 C 
BRANCH   2   3
ATOM      3  C   UNL     1      18.376  29.754  28.921  1.00  0.00     0.000 C 
BRANCH   3   4
ATOM      4  C   UNL     1      18.465  29.054  27.556  1.00  0.00     0.000 C 
BRANCH   4   5
ATOM      5  C   UNL     1      17.510  27.852  27.445  1.00  0.00     0.006 C 
BRANCH   5   6
ATOM      6  C   UNL     1      18.199  26.621  26.841  1.00  0.00     0.053 C 
BRANCH   6   7
ATOM      7  C   UNL     1      19.029  25.895  27.854  1.00  0.00     0.041 C 
ATOM      8  O   UNL     1      18.505  25.018  28.592  1.00  0.00    -0.550 OA
ATOM      9  O   UNL     1      20.388  26.161  27.961  1.00  0.00    -0.550 OA
ENDBRANCH   6   7
ENDBRANCH   5   6
ENDBRANCH   4   5
ENDBRANCH   3   4
ENDBRANCH   2   3
ENDBRANCH   1   2
BRANCH   1  10
ATOM     10  C   UNL     1      18.313  30.730  31.713  1.00  0.00     0.000 C 
BRANCH  10  11
ATOM     11  C   UNL     1      18.061  31.140  33.172  1.00  0.00    -0.000 C 
BRANCH  11  12
ATOM     12  C   UNL     1      16.828  30.448  33.776  1.00  0.00    -0.000 C 
BRANCH  12  13
ATOM     13  C   UNL     1      17.201  29.353  34.790  1.00  0.00    -0.000 C 
BRANCH  13  14
ATOM     14  C   UNL     1      18.713  29.301  35.073  1.00  0.00    -0.000 C 
BRANCH  14  15
ATOM     15  C   UNL     1      19.274  27.872  35.016  1.00  0.00    -0.003 C 
ATOM     16  C   UNL     1      19.596  27.418  33.593  1.00  0.00     0.004 C 
ENDBRANCH  14  15
ENDBRANCH  13  14
ENDBRANCH  12  13
ENDBRANCH  11  12
ENDBRANCH  10  11
ENDBRANCH   1  10
TORSDOF 12
ENDMDL
MODEL 2
REMARK VINA RESULT:    -4.673      3.980      7.048
REMARK INTER + INTRA:          -9.113
REMARK INTER:                  -7.709
REMARK INTRA:                  -1.405
REMARK UNBOUND:                -1.163
REMARK SMILES CCCCCCCCCCCCCC(=O)[O-]
REMARK SMILES IDX 8 1 9 2 10 3 11 4 12 5 13 6 14 7 15 8 16 9 7 10 6 11 5 12
REMARK SMILES IDX 4 13 3 14 2 15 1 16
REMARK H PARENT
REMARK Flexibility Score: inf
ROOT
ATOM      1  C   UNL     1      19.696  28.483  32.872  1.00  0.00     0.000 C 
ENDROOT
BRANCH   1   2
ATOM      2  C   UNL     1      18.844  28.207  34.120  1.00  0.00     0.000 C 
BRANCH   2   3
ATOM      3  C   UNL     1      18.387  29.498  34.820  1.00  0.00     0.000 C 
BRANCH   3   4
ATOM      4  C   UNL     1      16.860  29.668  34.805  1.00  0.00     0.000 C 
BRANCH   4   5
ATOM      5  C   UNL     1      16.379  30.590  33.671  1.00  0.00     0.006 C 
BRANCH   5   6
ATOM      6  C   UNL     1      17.028  31.979  33.740  1.00  0.00     0.053 C 
BRANCH   6   7
ATOM      7  C   UNL     1      16.099  32.998  34.326  1.00  0.00     0.041 C 
ATOM      8  O   UNL     1      15.896  33.028  35.568  1.00  0.00    -0.550 OA
ATOM      9  O   UNL     1      15.486  33.935  33.504  1.00  0.00    -0.550 OA
ENDBRANCH   6   7
ENDBRANCH   5   6
ENDBRANCH   4   5
ENDBRANCH   3   4
ENDBRANCH   2   3
ENDBRANCH   1   2
BRANCH   1  10
ATOM     10  C   UNL     1      19.086  27.876  31.595  1.00  0.00     0.000 C 
BRANCH  10  11
ATOM     11  C   UNL     1      17.921  28.711  31.041  1.00  0.00    -0.000 C 
BRANCH  11  12
ATOM     12  C   UNL     1      18.357  30.123  30.614  1.00  0.00    -0.000 C 
BRANCH  12  13
ATOM     13  C   UNL     1      19.168  30.121  29.307  1.00  0.00    -0.000 C 
BRANCH  13  14
ATOM     14  C   UNL     1      18.298  29.834  28.071  1.00  0.00    -0.000 C 
BRANCH  14  15
ATOM     15  C   UNL     1      18.683  28.521  27.372  1.00  0.00    -0.003 C 
ATOM     16  C   UNL     1      17.523  27.530  27.291  1.00  0.00     0.004 C 
ENDBRANCH  14  15
ENDBRANCH  13  14
ENDBRANCH  12  13
ENDBRANCH  11  12
ENDBRANCH  10  11
ENDBRANCH   1  10
TORSDOF 12
ENDMDL
MODEL 3
REMARK VINA RESULT:    -4.661      3.645      6.949
REMARK INTER + INTRA:          -9.093
REMARK INTER:                  -8.054
REMARK INTRA:                  -1.039
REMARK UNBOUND:                -1.163
REMARK SMILES CCCCCCCCCCCCCC(=O)[O-]
REMARK SMILES IDX 8 1 9 2 10 3 11 4 12 5 13 6 14 7 15 8 16 9 7 10 6 11 5 12
REMARK SMILES IDX 4 13 3 14 2 15 1 16
REMARK H PARENT
REMARK Flexibility Score: inf
ROOT
ATOM      1  C   UNL     1      19.270  27.711  31.248  1.00  0.00     0.000 C 
ENDROOT
BRANCH   1   2
ATOM      2  C   UNL     1      19.256  27.730  32.784  1.00  0.00     0.000 C 
BRANCH   2   3
ATOM      3  C   UNL     1      18.738  29.062  33.353  1.00  0.00     0.000 C 
BRANCH   3   4
ATOM      4  C   UNL     1      17.985  28.883  34.681  1.00  0.00     0.000 C 
BRANCH   4   5
ATOM      5  C   UNL     1      16.741  29.783  34.779  1.00  0.00     0.006 C 
BRANCH   5   6
ATOM      6  C   UNL     1      16.632  30.752  33.594  1.00  0.00     0.053 C 
BRANCH   6   7
ATOM      7  C   UNL     1      16.781  32.178  34.027  1.00  0.00     0.041 C 
ATOM      8  O   UNL     1      17.767  32.526  34.730  1.00  0.00    -0.550 OA
ATOM      9  O   UNL     1      15.852  33.129  33.625  1.00  0.00    -0.550 OA
ENDBRANCH   6   7
ENDBRANCH   5   6
ENDBRANCH   4   5
ENDBRANCH   3   4
ENDBRANCH   2   3
ENDBRANCH   1   2
BRANCH   1  10
ATOM     10  C   UNL     1      18.112  28.522  30.638  1.00  0.00     0.000 C 
BRANCH  10  11
ATOM     11  C   UNL     1      18.530  29.299  29.379  1.00  0.00    -0.000 C 
BRANCH  11  12
ATOM     12  C   UNL     1      18.022  28.642  28.085  1.00  0.00    -0.000 C 
BRANCH  12  13
ATOM     13  C   UNL     1      19.006  27.602  27.523  1.00  0.00    -0.000 C 
BRANCH  13  14
ATOM     14  C   UNL     1      18.375  26.205  27.387  1.00  0.00    -0.000 C 
BRANCH  14  15
ATOM     15  C   UNL     1      18.877  25.225  28.459  1.00  0.00    -0.003 C 
ATOM     16  C   UNL     1      18.980  23.788  27.948  1.00  0.00     0.004 C 
ENDBRANCH  14  15
ENDBRANCH  13  14
ENDBRANCH  12  13
ENDBRANCH  11  12
ENDBRANCH  10  11
ENDBRANCH   1  10
TORSDOF 12
ENDMDL
MODEL 4
REMARK VINA RESULT:    -4.629      2.008      4.164
REMARK INTER + INTRA:          -9.040
REMARK INTER:                  -7.730
REMARK INTRA:                  -1.309
REMARK UNBOUND:                -1.163
REMARK SMILES CCCCCCCCCCCCCC(=O)[O-]
REMARK SMILES IDX 8 1 9 2 10 3 11 4 12 5 13 6 14 7 15 8 16 9 7 10 6 11 5 12
REMARK SMILES IDX 4 13 3 14 2 15 1 16
REMARK H PARENT
REMARK Flexibility Score: inf
ROOT
ATOM      1  C   UNL     1      18.567  28.104  34.649  1.00  0.00     0.000 C 
ENDROOT
BRANCH   1   2
ATOM      2  C   UNL     1      19.703  27.389  33.902  1.00  0.00     0.000 C 
BRANCH   2   3
ATOM      3  C   UNL     1      19.541  27.461  32.374  1.00  0.00     0.000 C 
BRANCH   3   4
ATOM      4  C   UNL     1      19.109  28.855  31.892  1.00  0.00     0.000 C 
BRANCH   4   5
ATOM      5  C   UNL     1      17.903  28.803  30.938  1.00  0.00     0.006 C 
BRANCH   5   6
ATOM      6  C   UNL     1      18.192  27.967  29.684  1.00  0.00     0.053 C 
BRANCH   6   7
ATOM      7  C   UNL     1      18.346  28.827  28.467  1.00  0.00     0.041 C 
ATOM      8  O   UNL     1      18.258  30.080  28.562  1.00  0.00    -0.550 OA
ATOM      9  O   UNL     1      18.620  28.247  27.235  1.00  0.00    -0.550 OA
ENDBRANCH   6   7
ENDBRANCH   5   6
ENDBRANCH   4   5
ENDBRANCH   3   4
ENDBRANCH   2   3
ENDBRANCH   1   2
BRANCH   1  10
ATOM     10  C   UNL     1      19.071  29.290  35.491  1.00  0.00     0.000 C 
BRANCH  10  11
ATOM     11  C   UNL     1      18.096  30.477  35.487  1.00  0.00    -0.000 C 
BRANCH  11  12
ATOM     12  C   UNL     1      16.726  30.113  34.890  1.00  0.00    -0.000 C 
BRANCH  12  13
ATOM     13  C   UNL     1      16.451  30.832  33.558  1.00  0.00    -0.000 C 
BRANCH  13  14
ATOM     14  C   UNL     1      17.043  32.252  33.520  1.00  0.00    -0.000 C 
BRANCH  14  15
ATOM     15  C   UNL     1      15.985  33.338  33.770  1.00  0.00    -0.003 C 
ATOM     16  C   UNL     1      15.888  33.744  35.240  1.00  0.00     0.004 C 
ENDBRANCH  14  15
ENDBRANCH  13  14
ENDBRANCH  12  13
ENDBRANCH  11  12
ENDBRANCH  10  11
ENDBRANCH   1  10
TORSDOF 12
ENDMDL
MODEL 5
REMARK VINA RESULT:    -4.588      3.687      6.791
REMARK INTER + INTRA:          -8.969
REMARK INTER:                  -7.652
REMARK INTRA:                  -1.317
REMARK UNBOUND:                -1.163
REMARK SMILES CCCCCCCCCCCCCC(=O)[O-]
REMARK SMILES IDX 8 1 9 2 10 3 11 4 12 5 13 6 14 7 15 8 16 9 7 10 6 11 5 12
REMARK SMILES IDX 4 13 3 14 2 15 1 16
REMARK H PARENT
REMARK Flexibility Score: inf
ROOT
ATOM      1  C   UNL     1      19.486  27.138  34.683  1.00  0.00     0.000 C 
ENDROOT
BRANCH   1   2
ATOM      2  C   UNL     1      19.901  28.367  35.505  1.00  0.00     0.000 C 
BRANCH   2   3
ATOM      3  C   UNL     1      18.854  29.493  35.453  1.00  0.00     0.000 C 
BRANCH   3   4
ATOM      4  C   UNL     1      17.494  29.010  34.925  1.00  0.00     0.000 C 
BRANCH   4   5
ATOM      5  C   UNL     1      16.524  30.171  34.643  1.00  0.00     0.006 C 
BRANCH   5   6
ATOM      6  C   UNL     1      16.973  31.022  33.448  1.00  0.00     0.053 C 
BRANCH   6   7
ATOM      7  C   UNL     1      16.909  32.487  33.754  1.00  0.00     0.041 C 
ATOM      8  O   UNL     1      17.946  33.106  34.110  1.00  0.00    -0.550 OA
ATOM      9  O   UNL     1      15.711  33.176  33.612  1.00  0.00    -0.550 OA
ENDBRANCH   6   7
ENDBRANCH   5   6
ENDBRANCH   4   5
ENDBRANCH   3   4
ENDBRANCH   2   3
ENDBRANCH   1   2
BRANCH   1  10
ATOM     10  C   UNL     1      20.444  26.864  33.509  1.00  0.00     0.000 C 
BRANCH  10  11
ATOM     11  C   UNL     1      19.772  27.047  32.139  1.00  0.00    -0.000 C 
BRANCH  11  12
ATOM     12  C   UNL     1      19.449  28.520  31.833  1.00  0.00    -0.000 C 
BRANCH  12  13
ATOM     13  C   UNL     1      18.173  28.681  30.988  1.00  0.00    -0.000 C 
BRANCH  13  14
ATOM     14  C   UNL     1      18.233  27.888  29.671  1.00  0.00    -0.000 C 
BRANCH  14  15
ATOM     15  C   UNL     1      18.300  28.800  28.436  1.00  0.00    -0.003 C 
ATOM     16  C   UNL     1      18.483  30.274  28.797  1.00  0.00     0.004 C 
ENDBRANCH  14  15
ENDBRANCH  13  14
ENDBRANCH  12  13
ENDBRANCH  11  12
ENDBRANCH  10  11
ENDBRANCH   1  10
TORSDOF 12
ENDMDL
MODEL 6
REMARK VINA RESULT:    -4.576      2.095      4.433
REMARK INTER + INTRA:          -8.949
REMARK INTER:                  -7.505
REMARK INTRA:                  -1.445
REMARK UNBOUND:                -1.163
REMARK SMILES CCCCCCCCCCCCCC(=O)[O-]
REMARK SMILES IDX 8 1 9 2 10 3 11 4 12 5 13 6 14 7 15 8 16 9 7 10 6 11 5 12
REMARK SMILES IDX 4 13 3 14 2 15 1 16
REMARK H PARENT
REMARK Flexibility Score: inf
ROOT
ATOM      1  C   UNL     1      18.326  29.494  35.188  1.00  0.00     0.000 C 
ENDROOT
BRANCH   1   2
ATOM      2  C   UNL     1      18.925  28.087  35.033  1.00  0.00     0.000 C 
BRANCH   2   3
ATOM      3  C   UNL     1      19.990  28.018  33.925  1.00  0.00     0.000 C 
BRANCH   3   4
ATOM      4  C   UNL     1      19.406  27.582  32.572  1.00  0.00     0.000 C 
BRANCH   4   5
ATOM      5  C   UNL     1      19.182  28.766  31.616  1.00  0.00     0.006 C 
BRANCH   5   6
ATOM      6  C   UNL     1      17.986  28.538  30.682  1.00  0.00     0.053 C 
BRANCH   6   7
ATOM      7  C   UNL     1      18.399  27.887  29.398  1.00  0.00     0.041 C 
ATOM      8  O   UNL     1      19.548  28.092  28.926  1.00  0.00    -0.550 OA
ATOM      9  O   UNL     1      17.529  27.026  28.743  1.00  0.00    -0.550 OA
ENDBRANCH   6   7
ENDBRANCH   5   6
ENDBRANCH   4   5
ENDBRANCH   3   4
ENDBRANCH   2   3
ENDBRANCH   1   2
BRANCH   1  10
ATOM     10  C   UNL     1      16.855  29.560  34.737  1.00  0.00     0.000 C 
BRANCH  10  11
ATOM     11  C   UNL     1      16.635  30.541  33.575  1.00  0.00    -0.000 C 
BRANCH  11  12
ATOM     12  C   UNL     1      17.162  31.952  33.886  1.00  0.00    -0.000 C 
BRANCH  12  13
ATOM     13  C   UNL     1      16.042  33.005  33.933  1.00  0.00    -0.000 C 
BRANCH  13  14
ATOM     14  C   UNL     1      16.024  33.790  35.256  1.00  0.00    -0.000 C 
BRANCH  14  15
ATOM     15  C   UNL     1      16.532  32.956  36.443  1.00  0.00    -0.003 C 
ATOM     16  C   UNL     1      15.421  32.161  37.128  1.00  0.00     0.004 C 
ENDBRANCH  14  15
ENDBRANCH  13  14
ENDBRANCH  12  13
ENDBRANCH  11  12
ENDBRANCH  10  11
ENDBRANCH   1  10
TORSDOF 12
ENDMDL
MODEL 7
REMARK VINA RESULT:    -4.539      1.432      2.943
REMARK INTER + INTRA:          -8.885
REMARK INTER:                  -7.102
REMARK INTRA:                  -1.784
REMARK UNBOUND:                -1.163
REMARK SMILES CCCCCCCCCCCCCC(=O)[O-]
REMARK SMILES IDX 8 1 9 2 10 3 11 4 12 5 13 6 14 7 15 8 16 9 7 10 6 11 5 12
REMARK SMILES IDX 4 13 3 14 2 15 1 16
REMARK H PARENT
REMARK Flexibility Score: inf
ROOT
ATOM      1  C   UNL     1      19.886  29.111  32.107  1.00  0.00     0.000 C 
ENDROOT
BRANCH   1   2
ATOM      2  C   UNL     1      18.865  28.078  31.608  1.00  0.00     0.000 C 
BRANCH   2   3
ATOM      3  C   UNL     1      17.953  28.637  30.502  1.00  0.00     0.000 C 
BRANCH   3   4
ATOM      4  C   UNL     1      18.480  29.955  29.913  1.00  0.00     0.000 C 
BRANCH   4   5
ATOM      5  C   UNL     1      18.418  29.981  28.376  1.00  0.00     0.006 C 
BRANCH   5   6
ATOM      6  C   UNL     1      18.095  28.601  27.787  1.00  0.00     0.053 C 
BRANCH   6   7
ATOM      7  C   UNL     1      19.291  27.984  27.129  1.00  0.00     0.041 C 
ATOM      8  O   UNL     1      19.391  27.981  25.873  1.00  0.00    -0.550 OA
ATOM      9  O   UNL     1      20.310  27.444  27.902  1.00  0.00    -0.550 OA
ENDBRANCH   6   7
ENDBRANCH   5   6
ENDBRANCH   4   5
ENDBRANCH   3   4
ENDBRANCH   2   3
ENDBRANCH   1   2
BRANCH   1  10
ATOM     10  C   UNL     1      20.055  29.081  33.637  1.00  0.00     0.000 C 
BRANCH  10  11
ATOM     11  C   UNL     1      18.830  28.494  34.357  1.00  0.00    -0.000 C 
BRANCH  11  12
ATOM     12  C   UNL     1      18.111  29.530  35.239  1.00  0.00    -0.000 C 
BRANCH  12  13
ATOM     13  C   UNL     1      16.661  29.780  34.794  1.00  0.00    -0.000 C 
BRANCH  13  14
ATOM     14  C   UNL     1      16.575  30.488  33.430  1.00  0.00    -0.000 C 
BRANCH  14  15
ATOM     15  C   UNL     1      16.894  31.988  33.524  1.00  0.00    -0.003 C 
ATOM     16  C   UNL     1      18.140  32.381  32.731  1.00  0.00     0.004 C 
ENDBRANCH  14  15
ENDBRANCH  13  14
ENDBRANCH  12  13
ENDBRANCH  11  12
ENDBRANCH  10  11
ENDBRANCH   1  10
TORSDOF 12
ENDMDL
MODEL 8
REMARK VINA RESULT:    -4.538      1.270      2.844
REMARK INTER + INTRA:          -8.883
REMARK INTER:                  -7.527
REMARK INTRA:                  -1.356
REMARK UNBOUND:                -1.163
REMARK SMILES CCCCCCCCCCCCCC(=O)[O-]
REMARK SMILES IDX 8 1 9 2 10 3 11 4 12 5 13 6 14 7 15 8 16 9 7 10 6 11 5 12
REMARK SMILES IDX 4 13 3 14 2 15 1 16
REMARK H PARENT
REMARK Flexibility Score: inf
ROOT
ATOM      1  C   UNL     1      19.158  28.075  31.389  1.00  0.00     0.000 C 
ENDROOT
BRANCH   1   2
ATOM      2  C   UNL     1      17.928  28.975  31.197  1.00  0.00     0.000 C 
BRANCH   2   3
ATOM      3  C   UNL     1      18.288  30.345  30.597  1.00  0.00     0.000 C 
BRANCH   3   4
ATOM      4  C   UNL     1      19.080  30.225  29.285  1.00  0.00     0.000 C 
BRANCH   4   5
ATOM      5  C   UNL     1      18.240  29.633  28.141  1.00  0.00     0.006 C 
BRANCH   5   6
ATOM      6  C   UNL     1      18.931  28.434  27.476  1.00  0.00     0.053 C 
BRANCH   6   7
ATOM      7  C   UNL     1      18.045  27.226  27.450  1.00  0.00     0.041 C 
ATOM      8  O   UNL     1      17.824  26.627  26.365  1.00  0.00    -0.550 OA
ATOM      9  O   UNL     1      17.493  26.743  28.629  1.00  0.00    -0.550 OA
ENDBRANCH   6   7
ENDBRANCH   5   6
ENDBRANCH   4   5
ENDBRANCH   3   4
ENDBRANCH   2   3
ENDBRANCH   1   2
BRANCH   1  10
ATOM     10  C   UNL     1      19.904  28.369  32.704  1.00  0.00     0.000 C 
BRANCH  10  11
ATOM     11  C   UNL     1      19.595  27.341  33.804  1.00  0.00    -0.000 C 
BRANCH  11  12
ATOM     12  C   UNL     1      19.067  27.995  35.092  1.00  0.00    -0.000 C 
BRANCH  12  13
ATOM     13  C   UNL     1      18.592  29.441  34.870  1.00  0.00    -0.000 C 
BRANCH  13  14
ATOM     14  C   UNL     1      17.058  29.564  34.872  1.00  0.00    -0.000 C 
BRANCH  14  15
ATOM     15  C   UNL     1      16.585  31.026  34.899  1.00  0.00    -0.003 C 
ATOM     16  C   UNL     1      16.838  31.757  33.581  1.00  0.00     0.004 C 
ENDBRANCH  14  15
ENDBRANCH  13  14
ENDBRANCH  12  13
ENDBRANCH  11  12
ENDBRANCH  10  11
ENDBRANCH   1  10
TORSDOF 12
ENDMDL
MODEL 9
REMARK VINA RESULT:    -4.534      1.578      2.070
REMARK INTER + INTRA:          -8.878
REMARK INTER:                  -7.433
REMARK INTRA:                  -1.445
REMARK UNBOUND:                -1.163
REMARK SMILES CCCCCCCCCCCCCC(=O)[O-]
REMARK SMILES IDX 8 1 9 2 10 3 11 4 12 5 13 6 14 7 15 8 16 9 7 10 6 11 5 12
REMARK SMILES IDX 4 13 3 14 2 15 1 16
REMARK H PARENT
REMARK Flexibility Score: inf
ROOT
ATOM      1  C   UNL     1      19.186  29.592  30.954  1.00  0.00     0.000 C 
ENDROOT
BRANCH   1   2
ATOM      2  C   UNL     1      18.553  28.194  31.022  1.00  0.00     0.000 C 
BRANCH   2   3
ATOM      3  C   UNL     1      19.491  27.096  30.492  1.00  0.00     0.000 C 
BRANCH   3   4
ATOM      4  C   UNL     1      19.003  26.492  29.166  1.00  0.00     0.000 C 
BRANCH   4   5
ATOM      5  C   UNL     1      17.614  27.013  28.756  1.00  0.00     0.006 C 
BRANCH   5   6
ATOM      6  C   UNL     1      17.571  27.447  27.284  1.00  0.00     0.053 C 
BRANCH   6   7
ATOM      7  C   UNL     1      18.784  28.237  26.902  1.00  0.00     0.041 C 
ATOM      8  O   UNL     1      19.593  27.783  26.050  1.00  0.00    -0.550 OA
ATOM      9  O   UNL     1      19.004  29.490  27.460  1.00  0.00    -0.550 OA
ENDBRANCH   6   7
ENDBRANCH   5   6
ENDBRANCH   4   5
ENDBRANCH   3   4
ENDBRANCH   2   3
ENDBRANCH   1   2
BRANCH   1  10
ATOM     10  C   UNL     1      18.286  30.676  31.575  1.00  0.00     0.000 C 
BRANCH  10  11
ATOM     11  C   UNL     1      17.235  30.096  32.534  1.00  0.00    -0.000 C 
BRANCH  11  12
ATOM     12  C   UNL     1      17.069  30.941  33.809  1.00  0.00    -0.000 C 
BRANCH  12  13
ATOM     13  C   UNL     1      17.601  30.228  35.064  1.00  0.00    -0.000 C 
BRANCH  13  14
ATOM     14  C   UNL     1      17.905  28.741  34.814  1.00  0.00    -0.000 C 
BRANCH  14  15
ATOM     15  C   UNL     1      19.359  28.373  35.147  1.00  0.00    -0.003 C 
ATOM     16  C   UNL     1      19.841  27.127  34.403  1.00  0.00     0.004 C 
ENDBRANCH  14  15
ENDBRANCH  13  14
ENDBRANCH  12  13
ENDBRANCH  11  12
ENDBRANCH  10  11
ENDBRANCH   1  10
TORSDOF 12
ENDMDL
