MODEL 1
REMARK VINA RESULT:    -8.551      0.000      0.000
REMARK INTER + INTRA:         -17.032
REMARK INTER:                 -14.049
REMARK INTRA:                  -2.983
REMARK UNBOUND:                -2.983
REMARK SMILES C[C@H]1O[C@H](OC[C@@H]2O[C@H](Oc3c(-c4ccc(O)c(O)c4)oc4cc(O)cc(O)c4c3=O)[C@@H](O)[C@H](O)[C@H]2O)[C@@H](O)[C@H](O)[C@@H]1O
REMARK SMILES IDX 7 1 36 2 34 3 32 4 9 5 8 6 6 7 5 8 4 9 1 10 2 11 42 12 3 13
REMARK SMILES IDX 40 14 38 15 43 16 41 18 39 20 37 22 35 24 10 26 11 27 12 28
REMARK SMILES IDX 30 29 21 30 29 31 31 32 22 33 27 34 23 35 26 36 24 37 13 38
REMARK SMILES IDX 20 39 14 40 18 41 15 42 16 43 19 44 17 46 28 48 25 50 33 52
REMARK H PARENT 43 17 41 19 39 21 37 23 35 25 19 45 17 47 28 49 25 51 33 53
REMARK Flexibility Score: inf
ROOT
ATOM      1  C   UNL     1      21.841   7.213  20.119  1.00  0.00     0.180 C 
ATOM      2  C   UNL     1      21.568   8.747  20.258  1.00  0.00     0.177 C 
ATOM      3  C   UNL     1      20.400   9.112  21.212  1.00  0.00     0.180 C 
ATOM      4  C   UNL     1      20.309   8.155  22.415  1.00  0.00     0.214 C 
ATOM      5  C   UNL     1      20.424   6.693  21.961  1.00  0.00     0.339 C 
ATOM      6  O   UNL     1      21.661   6.460  21.313  1.00  0.00    -0.332 OA
ENDROOT
BRANCH   1   7
ATOM      7  C   UNL     1      21.173   6.544  18.903  1.00  0.00     0.198 C 
BRANCH   7   8
ATOM      8  O   UNL     1      20.911   7.530  17.927  1.00  0.00    -0.347 OA
BRANCH   8   9
ATOM      9  C   UNL     1      19.589   7.486  17.406  1.00  0.00     0.281 C 
ATOM     10  C   UNL     1      16.693   7.342  18.330  1.00  0.00     0.041 C 
ATOM     11  C   UNL     1      17.437   8.468  17.573  1.00  0.00     0.150 C 
ATOM     12  C   UNL     1      17.232   8.429  16.043  1.00  0.00     0.174 C 
ATOM     13  O   UNL     1      18.812   8.557  17.939  1.00  0.00    -0.344 OA
ATOM     14  C   UNL     1      18.102   7.326  15.391  1.00  0.00     0.179 C 
ATOM     15  C   UNL     1      19.557   7.454  15.855  1.00  0.00     0.202 C 
BRANCH  12  16
ATOM     16  O   UNL     1      17.556   9.693  15.519  1.00  0.00    -0.388 OA
ATOM     17  H   UNL     1      17.297   9.688  14.558  1.00  0.00     0.211 HD
ENDBRANCH  12  16
BRANCH  14  18
ATOM     18  O   UNL     1      18.058   7.422  13.986  1.00  0.00    -0.387 OA
ATOM     19  H   UNL     1      18.934   7.095  13.654  1.00  0.00     0.211 HD
ENDBRANCH  14  18
BRANCH  15  20
ATOM     20  O   UNL     1      20.297   6.348  15.383  1.00  0.00    -0.385 OA
ATOM     21  H   UNL     1      21.103   6.273  15.957  1.00  0.00     0.211 HD
ENDBRANCH  15  20
ENDBRANCH   8   9
ENDBRANCH   7   8
ENDBRANCH   1   7
BRANCH   2  22
ATOM     22  O   UNL     1      22.739   9.427  20.656  1.00  0.00    -0.387 OA
ATOM     23  H   UNL     1      23.314   9.524  19.853  1.00  0.00     0.211 HD
ENDBRANCH   2  22
BRANCH   3  24
ATOM     24  O   UNL     1      19.166   9.193  20.539  1.00  0.00    -0.387 OA
ATOM     25  H   UNL     1      18.494   9.593  21.150  1.00  0.00     0.211 HD
ENDBRANCH   3  24
BRANCH   5  26
ATOM     26  O   UNL     1      19.327   6.247  21.148  1.00  0.00    -0.454 OA
BRANCH  26  27
ATOM     27  C   UNL     1      18.429   5.242  21.545  1.00  0.00     0.214 A 
ATOM     28  C   UNL     1      18.738   3.875  21.343  1.00  0.00     0.180 A 
ATOM     29  C   UNL     1      17.173   5.574  22.077  1.00  0.00     0.239 A 
ATOM     30  O   UNL     1      17.891   2.937  21.775  1.00  0.00    -0.452 OA
ATOM     31  C   UNL     1      16.319   4.553  22.539  1.00  0.00     0.111 A 
ATOM     32  O   UNL     1      16.798   6.783  22.082  1.00  0.00    -0.285 OA
ATOM     33  C   UNL     1      16.739   3.211  22.373  1.00  0.00     0.146 A 
ATOM     34  C   UNL     1      15.073   4.811  23.162  1.00  0.00     0.134 A 
ATOM     35  C   UNL     1      15.934   2.155  22.820  1.00  0.00     0.094 A 
ATOM     36  C   UNL     1      14.270   3.741  23.585  1.00  0.00     0.093 A 
ATOM     37  C   UNL     1      14.698   2.413  23.415  1.00  0.00     0.123 A 
BRANCH  28  38
ATOM     38  C   UNL     1      19.940   3.427  20.593  1.00  0.00     0.025 A 
ATOM     39  C   UNL     1      21.170   3.143  21.219  1.00  0.00     0.062 A 
ATOM     40  C   UNL     1      19.838   3.255  19.196  1.00  0.00     0.016 A 
ATOM     41  C   UNL     1      22.291   2.767  20.453  1.00  0.00     0.158 A 
ATOM     42  C   UNL     1      20.946   2.853  18.439  1.00  0.00     0.051 A 
ATOM     43  C   UNL     1      22.176   2.622  19.059  1.00  0.00     0.157 A 
BRANCH  41  44
ATOM     44  O   UNL     1      23.514   2.517  21.070  1.00  0.00    -0.504 OA
ATOM     45  H   UNL     1      23.728   1.608  21.488  1.00  0.00     0.293 HD
ENDBRANCH  41  44
BRANCH  43  46
ATOM     46  O   UNL     1      23.281   2.241  18.304  1.00  0.00    -0.504 OA
ATOM     47  H   UNL     1      23.835   2.920  17.781  1.00  0.00     0.293 HD
ENDBRANCH  43  46
ENDBRANCH  28  38
BRANCH  34  48
ATOM     48  O   UNL     1      14.629   6.119  23.366  1.00  0.00    -0.507 OA
ATOM     49  H   UNL     1      14.111   6.387  24.203  1.00  0.00     0.293 HD
ENDBRANCH  34  48
BRANCH  37  50
ATOM     50  O   UNL     1      13.898   1.348  23.838  1.00  0.00    -0.508 OA
ATOM     51  H   UNL     1      13.273   1.435  24.636  1.00  0.00     0.293 HD
ENDBRANCH  37  50
ENDBRANCH  26  27
ENDBRANCH   5  26
BRANCH   4  52
ATOM     52  O   UNL     1      21.340   8.434  23.331  1.00  0.00    -0.384 OA
ATOM     53  H   UNL     1      21.457   7.631  23.903  1.00  0.00     0.211 HD
ENDBRANCH   4  52
TORSDOF 16
ENDMDL
MODEL 2
REMARK VINA RESULT:    -8.483      2.765      5.258
REMARK INTER + INTRA:         -16.922
REMARK INTER:                 -13.725
REMARK INTRA:                  -3.197
REMARK UNBOUND:                -2.983
REMARK SMILES C[C@H]1O[C@H](OC[C@@H]2O[C@H](Oc3c(-c4ccc(O)c(O)c4)oc4cc(O)cc(O)c4c3=O)[C@@H](O)[C@H](O)[C@H]2O)[C@@H](O)[C@H](O)[C@@H]1O
REMARK SMILES IDX 7 1 36 2 34 3 32 4 9 5 8 6 6 7 5 8 4 9 1 10 2 11 42 12 3 13
REMARK SMILES IDX 40 14 38 15 43 16 41 18 39 20 37 22 35 24 10 26 11 27 12 28
REMARK SMILES IDX 30 29 21 30 29 31 31 32 22 33 27 34 23 35 26 36 24 37 13 38
REMARK SMILES IDX 20 39 14 40 18 41 15 42 16 43 19 44 17 46 28 48 25 50 33 52
REMARK H PARENT 43 17 41 19 39 21 37 23 35 25 19 45 17 47 28 49 25 51 33 53
REMARK Flexibility Score: inf
ROOT
ATOM      1  C   UNL     1      21.728   6.090  22.093  1.00  0.00     0.180 C 
ATOM      2  C   UNL     1      21.162   5.892  23.538  1.00  0.00     0.177 C 
ATOM      3  C   UNL     1      20.368   4.576  23.747  1.00  0.00     0.180 C 
ATOM      4  C   UNL     1      20.952   3.408  22.933  1.00  0.00     0.214 C 
ATOM      5  C   UNL     1      21.244   3.839  21.488  1.00  0.00     0.339 C 
ATOM      6  O   UNL     1      22.179   4.901  21.456  1.00  0.00    -0.332 OA
ENDROOT
BRANCH   1   7
ATOM      7  C   UNL     1      20.847   6.949  21.165  1.00  0.00     0.198 C 
BRANCH   7   8
ATOM      8  O   UNL     1      19.884   7.624  21.947  1.00  0.00    -0.347 OA
BRANCH   8   9
ATOM      9  C   UNL     1      18.564   7.549  21.425  1.00  0.00     0.281 C 
ATOM     10  C   UNL     1      16.468   5.502  20.599  1.00  0.00     0.041 C 
ATOM     11  C   UNL     1      16.440   6.544  21.743  1.00  0.00     0.150 C 
ATOM     12  C   UNL     1      15.699   7.849  21.377  1.00  0.00     0.174 C 
ATOM     13  O   UNL     1      17.732   6.784  22.295  1.00  0.00    -0.344 OA
ATOM     14  C   UNL     1      16.578   8.758  20.483  1.00  0.00     0.179 C 
ATOM     15  C   UNL     1      17.962   8.945  21.113  1.00  0.00     0.202 C 
BRANCH  12  16
ATOM     16  O   UNL     1      15.350   8.510  22.568  1.00  0.00    -0.388 OA
ATOM     17  H   UNL     1      16.175   8.578  23.120  1.00  0.00     0.211 HD
ENDBRANCH  12  16
BRANCH  14  18
ATOM     18  O   UNL     1      15.977  10.021  20.313  1.00  0.00    -0.387 OA
ATOM     19  H   UNL     1      16.574  10.679  20.756  1.00  0.00     0.211 HD
ENDBRANCH  14  18
BRANCH  15  20
ATOM     20  O   UNL     1      18.798   9.635  20.209  1.00  0.00    -0.385 OA
ATOM     21  H   UNL     1      19.653   9.134  20.165  1.00  0.00     0.211 HD
ENDBRANCH  15  20
ENDBRANCH   8   9
ENDBRANCH   7   8
ENDBRANCH   1   7
BRANCH   2  22
ATOM     22  O   UNL     1      22.197   5.982  24.494  1.00  0.00    -0.387 OA
ATOM     23  H   UNL     1      22.178   6.901  24.867  1.00  0.00     0.211 HD
ENDBRANCH   2  22
BRANCH   3  24
ATOM     24  O   UNL     1      18.994   4.734  23.485  1.00  0.00    -0.387 OA
ATOM     25  H   UNL     1      18.718   4.065  22.807  1.00  0.00     0.211 HD
ENDBRANCH   3  24
BRANCH   5  26
ATOM     26  O   UNL     1      20.069   4.166  20.729  1.00  0.00    -0.454 OA
BRANCH  26  27
ATOM     27  C   UNL     1      19.644   3.434  19.608  1.00  0.00     0.214 A 
ATOM     28  C   UNL     1      20.081   3.786  18.307  1.00  0.00     0.180 A 
ATOM     29  C   UNL     1      18.715   2.391  19.744  1.00  0.00     0.239 A 
ATOM     30  O   UNL     1      19.704   3.044  17.263  1.00  0.00    -0.452 OA
ATOM     31  C   UNL     1      18.360   1.621  18.618  1.00  0.00     0.111 A 
ATOM     32  O   UNL     1      18.163   2.191  20.865  1.00  0.00    -0.285 OA
ATOM     33  C   UNL     1      18.906   1.988  17.364  1.00  0.00     0.146 A 
ATOM     34  C   UNL     1      17.494   0.503  18.690  1.00  0.00     0.134 A 
ATOM     35  C   UNL     1      18.593   1.255  16.213  1.00  0.00     0.094 A 
ATOM     36  C   UNL     1      17.176  -0.209  17.523  1.00  0.00     0.093 A 
ATOM     37  C   UNL     1      17.724   0.166  16.284  1.00  0.00     0.123 A 
BRANCH  28  38
ATOM     38  C   UNL     1      20.888   5.003  18.034  1.00  0.00     0.025 A 
ATOM     39  C   UNL     1      22.297   4.997  18.008  1.00  0.00     0.062 A 
ATOM     40  C   UNL     1      20.213   6.213  17.763  1.00  0.00     0.016 A 
ATOM     41  C   UNL     1      23.012   6.191  17.789  1.00  0.00     0.158 A 
ATOM     42  C   UNL     1      20.926   7.393  17.518  1.00  0.00     0.051 A 
ATOM     43  C   UNL     1      22.322   7.391  17.544  1.00  0.00     0.157 A 
BRANCH  41  44
ATOM     44  O   UNL     1      24.404   6.189  17.795  1.00  0.00    -0.504 OA
ATOM     45  H   UNL     1      24.944   6.045  16.938  1.00  0.00     0.293 HD
ENDBRANCH  41  44
BRANCH  43  46
ATOM     46  O   UNL     1      23.029   8.568  17.318  1.00  0.00    -0.504 OA
ATOM     47  H   UNL     1      23.611   8.993  18.042  1.00  0.00     0.293 HD
ENDBRANCH  43  46
ENDBRANCH  28  38
BRANCH  34  48
ATOM     48  O   UNL     1      16.950   0.091  19.909  1.00  0.00    -0.507 OA
ATOM     49  H   UNL     1      16.035   0.410  20.224  1.00  0.00     0.293 HD
ENDBRANCH  34  48
BRANCH  37  50
ATOM     50  O   UNL     1      17.408  -0.544  15.123  1.00  0.00    -0.508 OA
ATOM     51  H   UNL     1      16.623  -0.280  14.533  1.00  0.00     0.293 HD
ENDBRANCH  37  50
ENDBRANCH  26  27
ENDBRANCH   5  26
BRANCH   4  52
ATOM     52  O   UNL     1      22.145   2.956  23.526  1.00  0.00    -0.384 OA
ATOM     53  H   UNL     1      22.208   1.978  23.364  1.00  0.00     0.211 HD
ENDBRANCH   4  52
TORSDOF 16
ENDMDL
MODEL 3
REMARK VINA RESULT:    -8.479      3.559      8.203
REMARK INTER + INTRA:         -16.915
REMARK INTER:                 -14.686
REMARK INTRA:                  -2.229
REMARK UNBOUND:                -2.983
REMARK SMILES C[C@H]1O[C@H](OC[C@@H]2O[C@H](Oc3c(-c4ccc(O)c(O)c4)oc4cc(O)cc(O)c4c3=O)[C@@H](O)[C@H](O)[C@H]2O)[C@@H](O)[C@H](O)[C@@H]1O
REMARK SMILES IDX 7 1 36 2 34 3 32 4 9 5 8 6 6 7 5 8 4 9 1 10 2 11 42 12 3 13
REMARK SMILES IDX 40 14 38 15 43 16 41 18 39 20 37 22 35 24 10 26 11 27 12 28
REMARK SMILES IDX 30 29 21 30 29 31 31 32 22 33 27 34 23 35 26 36 24 37 13 38
REMARK SMILES IDX 20 39 14 40 18 41 15 42 16 43 19 44 17 46 28 48 25 50 33 52
REMARK H PARENT 43 17 41 19 39 21 37 23 35 25 19 45 17 47 28 49 25 51 33 53
REMARK Flexibility Score: inf
ROOT
ATOM      1  C   UNL     1      22.965   4.482  20.838  1.00  0.00     0.180 C 
ATOM      2  C   UNL     1      22.698   2.949  21.007  1.00  0.00     0.177 C 
ATOM      3  C   UNL     1      21.923   2.295  19.834  1.00  0.00     0.180 C 
ATOM      4  C   UNL     1      22.292   2.914  18.474  1.00  0.00     0.214 C 
ATOM      5  C   UNL     1      22.298   4.447  18.553  1.00  0.00     0.339 C 
ATOM      6  O   UNL     1      23.240   4.901  19.507  1.00  0.00    -0.332 OA
ENDROOT
BRANCH   1   7
ATOM      7  C   UNL     1      21.941   5.397  21.537  1.00  0.00     0.198 C 
BRANCH   7   8
ATOM      8  O   UNL     1      22.625   6.490  22.112  1.00  0.00    -0.347 OA
BRANCH   8   9
ATOM      9  C   UNL     1      23.852   6.137  22.737  1.00  0.00     0.281 C 
ATOM     10  C   UNL     1      26.370   4.504  22.234  1.00  0.00     0.041 C 
ATOM     11  C   UNL     1      26.199   6.031  22.414  1.00  0.00     0.150 C 
ATOM     12  C   UNL     1      26.481   6.525  23.849  1.00  0.00     0.174 C 
ATOM     13  O   UNL     1      24.952   6.504  21.907  1.00  0.00    -0.344 OA
ATOM     14  C   UNL     1      25.291   6.215  24.791  1.00  0.00     0.179 C 
ATOM     15  C   UNL     1      23.980   6.713  24.172  1.00  0.00     0.202 C 
BRANCH  12  16
ATOM     16  O   UNL     1      26.732   7.908  23.803  1.00  0.00    -0.388 OA
ATOM     17  H   UNL     1      25.849   8.366  23.795  1.00  0.00     0.211 HD
ENDBRANCH  12  16
BRANCH  14  18
ATOM     18  O   UNL     1      25.472   6.834  26.043  1.00  0.00    -0.387 OA
ATOM     19  H   UNL     1      25.265   6.147  26.729  1.00  0.00     0.211 HD
ENDBRANCH  14  18
BRANCH  15  20
ATOM     20  O   UNL     1      22.895   6.277  24.962  1.00  0.00    -0.385 OA
ATOM     21  H   UNL     1      22.847   6.882  25.747  1.00  0.00     0.211 HD
ENDBRANCH  15  20
ENDBRANCH   8   9
ENDBRANCH   7   8
ENDBRANCH   1   7
BRANCH   2  22
ATOM     22  O   UNL     1      23.908   2.255  21.224  1.00  0.00    -0.387 OA
ATOM     23  H   UNL     1      23.985   1.562  20.518  1.00  0.00     0.211 HD
ENDBRANCH   2  22
BRANCH   3  24
ATOM     24  O   UNL     1      20.529   2.319  20.036  1.00  0.00    -0.387 OA
ATOM     25  H   UNL     1      20.209   1.390  20.167  1.00  0.00     0.211 HD
ENDBRANCH   3  24
BRANCH   5  26
ATOM     26  O   UNL     1      21.004   5.023  18.795  1.00  0.00    -0.454 OA
BRANCH  26  27
ATOM     27  C   UNL     1      20.289   5.752  17.829  1.00  0.00     0.214 A 
ATOM     28  C   UNL     1      20.198   7.162  17.909  1.00  0.00     0.180 A 
ATOM     29  C   UNL     1      19.583   5.090  16.812  1.00  0.00     0.239 A 
ATOM     30  O   UNL     1      19.556   7.836  16.952  1.00  0.00    -0.452 OA
ATOM     31  C   UNL     1      18.936   5.842  15.811  1.00  0.00     0.111 A 
ATOM     32  O   UNL     1      19.488   3.829  16.839  1.00  0.00    -0.285 OA
ATOM     33  C   UNL     1      18.961   7.253  15.919  1.00  0.00     0.146 A 
ATOM     34  C   UNL     1      18.273   5.248  14.708  1.00  0.00     0.134 A 
ATOM     35  C   UNL     1      18.340   8.050  14.950  1.00  0.00     0.094 A 
ATOM     36  C   UNL     1      17.640   6.062  13.756  1.00  0.00     0.093 A 
ATOM     37  C   UNL     1      17.671   7.462  13.875  1.00  0.00     0.123 A 
BRANCH  28  38
ATOM     38  C   UNL     1      20.724   7.936  19.064  1.00  0.00     0.025 A 
ATOM     39  C   UNL     1      19.941   8.255  20.191  1.00  0.00     0.062 A 
ATOM     40  C   UNL     1      22.074   8.347  19.042  1.00  0.00     0.016 A 
ATOM     41  C   UNL     1      20.478   9.032  21.236  1.00  0.00     0.158 A 
ATOM     42  C   UNL     1      22.614   9.095  20.095  1.00  0.00     0.051 A 
ATOM     43  C   UNL     1      21.818   9.452  21.186  1.00  0.00     0.157 A 
BRANCH  41  44
ATOM     44  O   UNL     1      19.693   9.374  22.335  1.00  0.00    -0.504 OA
ATOM     45  H   UNL     1      18.678   9.472  22.259  1.00  0.00     0.293 HD
ENDBRANCH  41  44
BRANCH  43  46
ATOM     46  O   UNL     1      22.351  10.211  22.224  1.00  0.00    -0.504 OA
ATOM     47  H   UNL     1      23.022  10.960  22.052  1.00  0.00     0.293 HD
ENDBRANCH  43  46
ENDBRANCH  28  38
BRANCH  34  48
ATOM     48  O   UNL     1      18.242   3.862  14.548  1.00  0.00    -0.507 OA
ATOM     49  H   UNL     1      17.834   3.424  13.723  1.00  0.00     0.293 HD
ENDBRANCH  34  48
BRANCH  37  50
ATOM     50  O   UNL     1      17.041   8.271  12.926  1.00  0.00    -0.508 OA
ATOM     51  H   UNL     1      16.058   8.153  12.692  1.00  0.00     0.293 HD
ENDBRANCH  37  50
ENDBRANCH  26  27
ENDBRANCH   5  26
BRANCH   4  52
ATOM     52  O   UNL     1      23.566   2.470  18.072  1.00  0.00    -0.384 OA
ATOM     53  H   UNL     1      23.434   1.733  17.420  1.00  0.00     0.211 HD
ENDBRANCH   4  52
TORSDOF 16
ENDMDL
MODEL 4
REMARK VINA RESULT:    -8.464      4.153      7.840
REMARK INTER + INTRA:         -16.890
REMARK INTER:                 -14.995
REMARK INTRA:                  -1.896
REMARK UNBOUND:                -2.983
REMARK SMILES C[C@H]1O[C@H](OC[C@@H]2O[C@H](Oc3c(-c4ccc(O)c(O)c4)oc4cc(O)cc(O)c4c3=O)[C@@H](O)[C@H](O)[C@H]2O)[C@@H](O)[C@H](O)[C@@H]1O
REMARK SMILES IDX 7 1 36 2 34 3 32 4 9 5 8 6 6 7 5 8 4 9 1 10 2 11 42 12 3 13
REMARK SMILES IDX 40 14 38 15 43 16 41 18 39 20 37 22 35 24 10 26 11 27 12 28
REMARK SMILES IDX 30 29 21 30 29 31 31 32 22 33 27 34 23 35 26 36 24 37 13 38
REMARK SMILES IDX 20 39 14 40 18 41 15 42 16 43 19 44 17 46 28 48 25 50 33 52
REMARK H PARENT 43 17 41 19 39 21 37 23 35 25 19 45 17 47 28 49 25 51 33 53
REMARK Flexibility Score: inf
ROOT
ATOM      1  C   UNL     1      20.896   6.128  22.628  1.00  0.00     0.180 C 
ATOM      2  C   UNL     1      20.552   4.609  22.780  1.00  0.00     0.177 C 
ATOM      3  C   UNL     1      21.692   3.746  23.382  1.00  0.00     0.180 C 
ATOM      4  C   UNL     1      22.502   4.509  24.445  1.00  0.00     0.214 C 
ATOM      5  C   UNL     1      22.864   5.917  23.951  1.00  0.00     0.339 C 
ATOM      6  O   UNL     1      21.699   6.670  23.670  1.00  0.00    -0.332 OA
ENDROOT
BRANCH   1   7
ATOM      7  C   UNL     1      21.399   6.541  21.231  1.00  0.00     0.198 C 
BRANCH   7   8
ATOM      8  O   UNL     1      20.926   7.839  20.942  1.00  0.00    -0.347 OA
BRANCH   8   9
ATOM      9  C   UNL     1      19.569   7.876  20.520  1.00  0.00     0.281 C 
ATOM     10  C   UNL     1      16.763   7.303  21.548  1.00  0.00     0.041 C 
ATOM     11  C   UNL     1      17.405   8.642  21.113  1.00  0.00     0.150 C 
ATOM     12  C   UNL     1      17.080   9.044  19.658  1.00  0.00     0.174 C 
ATOM     13  O   UNL     1      18.801   8.697  21.398  1.00  0.00    -0.344 OA
ATOM     14  C   UNL     1      17.932   8.233  18.651  1.00  0.00     0.179 C 
ATOM     15  C   UNL     1      19.415   8.300  19.035  1.00  0.00     0.202 C 
BRANCH  12  16
ATOM     16  O   UNL     1      17.317  10.422  19.514  1.00  0.00    -0.388 OA
ATOM     17  H   UNL     1      18.164  10.626  19.994  1.00  0.00     0.211 HD
ENDBRANCH  12  16
BRANCH  14  18
ATOM     18  O   UNL     1      17.773   8.735  17.344  1.00  0.00    -0.387 OA
ATOM     19  H   UNL     1      16.913   9.231  17.337  1.00  0.00     0.211 HD
ENDBRANCH  14  18
BRANCH  15  20
ATOM     20  O   UNL     1      20.152   7.425  18.208  1.00  0.00    -0.385 OA
ATOM     21  H   UNL     1      21.074   7.786  18.155  1.00  0.00     0.211 HD
ENDBRANCH  15  20
ENDBRANCH   8   9
ENDBRANCH   7   8
ENDBRANCH   1   7
BRANCH   2  22
ATOM     22  O   UNL     1      19.373   4.439  23.538  1.00  0.00    -0.387 OA
ATOM     23  H   UNL     1      18.884   3.664  23.158  1.00  0.00     0.211 HD
ENDBRANCH   2  22
BRANCH   3  24
ATOM     24  O   UNL     1      22.538   3.213  22.391  1.00  0.00    -0.387 OA
ATOM     25  H   UNL     1      23.084   3.946  22.008  1.00  0.00     0.211 HD
ENDBRANCH   3  24
BRANCH   5  26
ATOM     26  O   UNL     1      23.765   5.929  22.832  1.00  0.00    -0.454 OA
BRANCH  26  27
ATOM     27  C   UNL     1      24.977   6.638  22.823  1.00  0.00     0.214 A 
ATOM     28  C   UNL     1      25.448   7.249  21.636  1.00  0.00     0.180 A 
ATOM     29  C   UNL     1      25.786   6.688  23.970  1.00  0.00     0.239 A 
ATOM     30  O   UNL     1      26.579   7.961  21.665  1.00  0.00    -0.452 OA
ATOM     31  C   UNL     1      26.960   7.468  23.962  1.00  0.00     0.111 A 
ATOM     32  O   UNL     1      25.481   5.986  24.978  1.00  0.00    -0.285 OA
ATOM     33  C   UNL     1      27.319   8.115  22.755  1.00  0.00     0.146 A 
ATOM     34  C   UNL     1      27.784   7.634  25.103  1.00  0.00     0.134 A 
ATOM     35  C   UNL     1      28.472   8.907  22.691  1.00  0.00     0.094 A 
ATOM     36  C   UNL     1      28.945   8.417  25.015  1.00  0.00     0.093 A 
ATOM     37  C   UNL     1      29.291   9.053  23.811  1.00  0.00     0.123 A 
BRANCH  28  38
ATOM     38  C   UNL     1      24.779   7.070  20.322  1.00  0.00     0.025 A 
ATOM     39  C   UNL     1      24.135   8.123  19.642  1.00  0.00     0.062 A 
ATOM     40  C   UNL     1      24.811   5.795  19.716  1.00  0.00     0.016 A 
ATOM     41  C   UNL     1      23.476   7.886  18.420  1.00  0.00     0.158 A 
ATOM     42  C   UNL     1      24.178   5.568  18.488  1.00  0.00     0.051 A 
ATOM     43  C   UNL     1      23.498   6.604  17.843  1.00  0.00     0.157 A 
BRANCH  41  44
ATOM     44  O   UNL     1      22.813   8.920  17.764  1.00  0.00    -0.504 OA
ATOM     45  H   UNL     1      23.203   9.363  16.929  1.00  0.00     0.293 HD
ENDBRANCH  41  44
BRANCH  43  46
ATOM     46  O   UNL     1      22.855   6.373  16.631  1.00  0.00    -0.504 OA
ATOM     47  H   UNL     1      22.023   5.785  16.568  1.00  0.00     0.293 HD
ENDBRANCH  43  46
ENDBRANCH  28  38
BRANCH  34  48
ATOM     48  O   UNL     1      27.456   7.033  26.320  1.00  0.00    -0.507 OA
ATOM     49  H   UNL     1      26.971   7.542  27.058  1.00  0.00     0.293 HD
ENDBRANCH  34  48
BRANCH  37  50
ATOM     50  O   UNL     1      30.448   9.833  23.726  1.00  0.00    -0.508 OA
ATOM     51  H   UNL     1      30.406  10.850  23.713  1.00  0.00     0.293 HD
ENDBRANCH  37  50
ENDBRANCH  26  27
ENDBRANCH   5  26
BRANCH   4  52
ATOM     52  O   UNL     1      21.756   4.617  25.633  1.00  0.00    -0.384 OA
ATOM     53  H   UNL     1      21.538   3.696  25.934  1.00  0.00     0.211 HD
ENDBRANCH   4  52
TORSDOF 16
ENDMDL
MODEL 5
REMARK VINA RESULT:    -8.464      2.777      7.605
REMARK INTER + INTRA:         -16.889
REMARK INTER:                 -13.770
REMARK INTRA:                  -3.120
REMARK UNBOUND:                -2.983
REMARK SMILES C[C@H]1O[C@H](OC[C@@H]2O[C@H](Oc3c(-c4ccc(O)c(O)c4)oc4cc(O)cc(O)c4c3=O)[C@@H](O)[C@H](O)[C@H]2O)[C@@H](O)[C@H](O)[C@@H]1O
REMARK SMILES IDX 7 1 36 2 34 3 32 4 9 5 8 6 6 7 5 8 4 9 1 10 2 11 42 12 3 13
REMARK SMILES IDX 40 14 38 15 43 16 41 18 39 20 37 22 35 24 10 26 11 27 12 28
REMARK SMILES IDX 30 29 21 30 29 31 31 32 22 33 27 34 23 35 26 36 24 37 13 38
REMARK SMILES IDX 20 39 14 40 18 41 15 42 16 43 19 44 17 46 28 48 25 50 33 52
REMARK H PARENT 43 17 41 19 39 21 37 23 35 25 19 45 17 47 28 49 25 51 33 53
REMARK Flexibility Score: inf
ROOT
ATOM      1  C   UNL     1      21.872   2.844  20.836  1.00  0.00     0.180 C 
ATOM      2  C   UNL     1      22.087   3.598  22.191  1.00  0.00     0.177 C 
ATOM      3  C   UNL     1      21.290   4.921  22.327  1.00  0.00     0.180 C 
ATOM      4  C   UNL     1      19.912   4.845  21.646  1.00  0.00     0.214 C 
ATOM      5  C   UNL     1      20.027   4.228  20.245  1.00  0.00     0.339 C 
ATOM      6  O   UNL     1      20.552   2.915  20.311  1.00  0.00    -0.332 OA
ENDROOT
BRANCH   1   7
ATOM      7  C   UNL     1      22.941   3.127  19.763  1.00  0.00     0.198 C 
BRANCH   7   8
ATOM      8  O   UNL     1      24.219   2.924  20.327  1.00  0.00    -0.347 OA
BRANCH   8   9
ATOM      9  C   UNL     1      24.989   4.112  20.449  1.00  0.00     0.281 C 
ATOM     10  C   UNL     1      26.054   6.416  18.768  1.00  0.00     0.041 C 
ATOM     11  C   UNL     1      25.027   6.425  19.926  1.00  0.00     0.150 C 
ATOM     12  C   UNL     1      25.640   6.788  21.297  1.00  0.00     0.174 C 
ATOM     13  O   UNL     1      24.246   5.233  19.974  1.00  0.00    -0.344 OA
ATOM     14  C   UNL     1      26.408   5.587  21.901  1.00  0.00     0.179 C 
ATOM     15  C   UNL     1      25.528   4.332  21.887  1.00  0.00     0.202 C 
BRANCH  12  16
ATOM     16  O   UNL     1      24.601   7.196  22.153  1.00  0.00    -0.388 OA
ATOM     17  H   UNL     1      24.564   8.190  22.117  1.00  0.00     0.211 HD
ENDBRANCH  12  16
BRANCH  14  18
ATOM     18  O   UNL     1      26.797   5.860  23.227  1.00  0.00    -0.387 OA
ATOM     19  H   UNL     1      27.277   6.729  23.206  1.00  0.00     0.211 HD
ENDBRANCH  14  18
BRANCH  15  20
ATOM     20  O   UNL     1      26.298   3.218  22.286  1.00  0.00    -0.385 OA
ATOM     21  H   UNL     1      25.829   2.804  23.056  1.00  0.00     0.211 HD
ENDBRANCH  15  20
ENDBRANCH   8   9
ENDBRANCH   7   8
ENDBRANCH   1   7
BRANCH   2  22
ATOM     22  O   UNL     1      21.796   2.750  23.282  1.00  0.00    -0.387 OA
ATOM     23  H   UNL     1      22.466   2.937  23.990  1.00  0.00     0.211 HD
ENDBRANCH   2  22
BRANCH   3  24
ATOM     24  O   UNL     1      22.019   6.034  21.866  1.00  0.00    -0.387 OA
ATOM     25  H   UNL     1      22.938   5.740  21.634  1.00  0.00     0.211 HD
ENDBRANCH   3  24
BRANCH   5  26
ATOM     26  O   UNL     1      20.771   5.031  19.314  1.00  0.00    -0.454 OA
BRANCH  26  27
ATOM     27  C   UNL     1      20.175   5.746  18.261  1.00  0.00     0.214 A 
ATOM     28  C   UNL     1      20.067   7.157  18.317  1.00  0.00     0.180 A 
ATOM     29  C   UNL     1      19.602   5.072  17.171  1.00  0.00     0.239 A 
ATOM     30  O   UNL     1      19.542   7.819  17.282  1.00  0.00    -0.452 OA
ATOM     31  C   UNL     1      19.077   5.810  16.092  1.00  0.00     0.111 A 
ATOM     32  O   UNL     1      19.511   3.810  17.198  1.00  0.00    -0.285 OA
ATOM     33  C   UNL     1      19.081   7.223  16.190  1.00  0.00     0.146 A 
ATOM     34  C   UNL     1      18.558   5.203  14.922  1.00  0.00     0.134 A 
ATOM     35  C   UNL     1      18.579   8.007  15.144  1.00  0.00     0.094 A 
ATOM     36  C   UNL     1      18.041   6.005  13.892  1.00  0.00     0.093 A 
ATOM     37  C   UNL     1      18.050   7.406  14.002  1.00  0.00     0.123 A 
BRANCH  28  38
ATOM     38  C   UNL     1      20.443   7.944  19.520  1.00  0.00     0.025 A 
ATOM     39  C   UNL     1      21.723   8.506  19.696  1.00  0.00     0.062 A 
ATOM     40  C   UNL     1      19.468   8.159  20.518  1.00  0.00     0.016 A 
ATOM     41  C   UNL     1      22.039   9.203  20.879  1.00  0.00     0.158 A 
ATOM     42  C   UNL     1      19.776   8.876  21.680  1.00  0.00     0.051 A 
ATOM     43  C   UNL     1      21.062   9.387  21.872  1.00  0.00     0.157 A 
BRANCH  41  44
ATOM     44  O   UNL     1      23.315   9.731  21.066  1.00  0.00    -0.504 OA
ATOM     45  H   UNL     1      23.463  10.730  21.225  1.00  0.00     0.293 HD
ENDBRANCH  41  44
BRANCH  43  46
ATOM     46  O   UNL     1      21.372  10.085  23.035  1.00  0.00    -0.504 OA
ATOM     47  H   UNL     1      21.017  11.026  23.208  1.00  0.00     0.293 HD
ENDBRANCH  43  46
ENDBRANCH  28  38
BRANCH  34  48
ATOM     48  O   UNL     1      18.554   3.815  14.773  1.00  0.00    -0.507 OA
ATOM     49  H   UNL     1      18.007   3.354  14.047  1.00  0.00     0.293 HD
ENDBRANCH  34  48
BRANCH  37  50
ATOM     50  O   UNL     1      17.536   8.202  12.975  1.00  0.00    -0.508 OA
ATOM     51  H   UNL     1      16.604   8.050  12.597  1.00  0.00     0.293 HD
ENDBRANCH  37  50
ENDBRANCH  26  27
ENDBRANCH   5  26
BRANCH   4  52
ATOM     52  O   UNL     1      19.034   4.064  22.420  1.00  0.00    -0.384 OA
ATOM     53  H   UNL     1      19.351   3.125  22.376  1.00  0.00     0.211 HD
ENDBRANCH   4  52
TORSDOF 16
ENDMDL
MODEL 6
REMARK VINA RESULT:    -8.461      1.858      7.488
REMARK INTER + INTRA:         -16.885
REMARK INTER:                 -13.889
REMARK INTRA:                  -2.996
REMARK UNBOUND:                -2.983
REMARK SMILES C[C@H]1O[C@H](OC[C@@H]2O[C@H](Oc3c(-c4ccc(O)c(O)c4)oc4cc(O)cc(O)c4c3=O)[C@@H](O)[C@H](O)[C@H]2O)[C@@H](O)[C@H](O)[C@@H]1O
REMARK SMILES IDX 7 1 36 2 34 3 32 4 9 5 8 6 6 7 5 8 4 9 1 10 2 11 42 12 3 13
REMARK SMILES IDX 40 14 38 15 43 16 41 18 39 20 37 22 35 24 10 26 11 27 12 28
REMARK SMILES IDX 30 29 21 30 29 31 31 32 22 33 27 34 23 35 26 36 24 37 13 38
REMARK SMILES IDX 20 39 14 40 18 41 15 42 16 43 19 44 17 46 28 48 25 50 33 52
REMARK H PARENT 43 17 41 19 39 21 37 23 35 25 19 45 17 47 28 49 25 51 33 53
REMARK Flexibility Score: inf
ROOT
ATOM      1  C   UNL     1      22.055   4.508  21.248  1.00  0.00     0.180 C 
ATOM      2  C   UNL     1      22.336   2.979  21.073  1.00  0.00     0.177 C 
ATOM      3  C   UNL     1      22.172   2.454  19.623  1.00  0.00     0.180 C 
ATOM      4  C   UNL     1      22.616   3.490  18.574  1.00  0.00     0.214 C 
ATOM      5  C   UNL     1      22.039   4.876  18.896  1.00  0.00     0.339 C 
ATOM      6  O   UNL     1      22.479   5.326  20.164  1.00  0.00    -0.332 OA
ENDROOT
BRANCH   1   7
ATOM      7  C   UNL     1      20.628   4.855  21.714  1.00  0.00     0.198 C 
BRANCH   7   8
ATOM      8  O   UNL     1      20.060   3.718  22.329  1.00  0.00    -0.347 OA
BRANCH   8   9
ATOM      9  C   UNL     1      18.753   3.406  21.866  1.00  0.00     0.281 C 
ATOM     10  C   UNL     1      17.226   2.894  19.283  1.00  0.00     0.041 C 
ATOM     11  C   UNL     1      17.522   1.940  20.465  1.00  0.00     0.150 C 
ATOM     12  C   UNL     1      16.367   1.836  21.485  1.00  0.00     0.174 C 
ATOM     13  O   UNL     1      18.777   2.212  21.085  1.00  0.00    -0.344 OA
ATOM     14  C   UNL     1      16.326   3.076  22.411  1.00  0.00     0.179 C 
ATOM     15  C   UNL     1      17.712   3.336  23.014  1.00  0.00     0.202 C 
BRANCH  12  16
ATOM     16  O   UNL     1      16.542   0.660  22.236  1.00  0.00    -0.388 OA
ATOM     17  H   UNL     1      15.741   0.559  22.816  1.00  0.00     0.211 HD
ENDBRANCH  12  16
BRANCH  14  18
ATOM     18  O   UNL     1      15.399   2.888  23.456  1.00  0.00    -0.387 OA
ATOM     19  H   UNL     1      15.837   3.219  24.283  1.00  0.00     0.211 HD
ENDBRANCH  14  18
BRANCH  15  20
ATOM     20  O   UNL     1      17.693   4.559  23.719  1.00  0.00    -0.385 OA
ATOM     21  H   UNL     1      17.453   4.347  24.658  1.00  0.00     0.211 HD
ENDBRANCH  15  20
ENDBRANCH   8   9
ENDBRANCH   7   8
ENDBRANCH   1   7
BRANCH   2  22
ATOM     22  O   UNL     1      23.621   2.651  21.557  1.00  0.00    -0.387 OA
ATOM     23  H   UNL     1      23.917   1.831  21.083  1.00  0.00     0.211 HD
ENDBRANCH   2  22
BRANCH   3  24
ATOM     24  O   UNL     1      20.865   2.003  19.363  1.00  0.00    -0.387 OA
ATOM     25  H   UNL     1      20.352   2.736  18.935  1.00  0.00     0.211 HD
ENDBRANCH   3  24
BRANCH   5  26
ATOM     26  O   UNL     1      20.608   4.950  18.794  1.00  0.00    -0.454 OA
BRANCH  26  27
ATOM     27  C   UNL     1      19.940   5.713  17.821  1.00  0.00     0.214 A 
ATOM     28  C   UNL     1      19.739   7.102  18.006  1.00  0.00     0.180 A 
ATOM     29  C   UNL     1      19.389   5.100  16.685  1.00  0.00     0.239 A 
ATOM     30  O   UNL     1      19.146   7.816  17.044  1.00  0.00    -0.452 OA
ATOM     31  C   UNL     1      18.791   5.893  15.686  1.00  0.00     0.111 A 
ATOM     32  O   UNL     1      19.385   3.838  16.599  1.00  0.00    -0.285 OA
ATOM     33  C   UNL     1      18.701   7.288  15.911  1.00  0.00     0.146 A 
ATOM     34  C   UNL     1      18.286   5.358  14.475  1.00  0.00     0.134 A 
ATOM     35  C   UNL     1      18.122   8.126  14.949  1.00  0.00     0.094 A 
ATOM     36  C   UNL     1      17.692   6.210  13.531  1.00  0.00     0.093 A 
ATOM     37  C   UNL     1      17.608   7.593  13.766  1.00  0.00     0.123 A 
BRANCH  28  38
ATOM     38  C   UNL     1      20.089   7.803  19.268  1.00  0.00     0.025 A 
ATOM     39  C   UNL     1      21.337   8.422  19.479  1.00  0.00     0.062 A 
ATOM     40  C   UNL     1      19.119   7.874  20.292  1.00  0.00     0.016 A 
ATOM     41  C   UNL     1      21.632   9.032  20.714  1.00  0.00     0.158 A 
ATOM     42  C   UNL     1      19.405   8.505  21.509  1.00  0.00     0.051 A 
ATOM     43  C   UNL     1      20.662   9.072  21.730  1.00  0.00     0.157 A 
BRANCH  41  44
ATOM     44  O   UNL     1      22.877   9.616  20.931  1.00  0.00    -0.504 OA
ATOM     45  H   UNL     1      23.131  10.513  20.509  1.00  0.00     0.293 HD
ENDBRANCH  41  44
BRANCH  43  46
ATOM     46  O   UNL     1      20.950   9.684  22.946  1.00  0.00    -0.504 OA
ATOM     47  H   UNL     1      20.312   9.628  23.741  1.00  0.00     0.293 HD
ENDBRANCH  43  46
ENDBRANCH  28  38
BRANCH  34  48
ATOM     48  O   UNL     1      18.373   3.992  14.201  1.00  0.00    -0.507 OA
ATOM     49  H   UNL     1      17.913   3.296  14.786  1.00  0.00     0.293 HD
ENDBRANCH  34  48
BRANCH  37  50
ATOM     50  O   UNL     1      17.018   8.440  12.825  1.00  0.00    -0.508 OA
ATOM     51  H   UNL     1      16.112   8.230  12.412  1.00  0.00     0.293 HD
ENDBRANCH  37  50
ENDBRANCH  26  27
ENDBRANCH   5  26
BRANCH   4  52
ATOM     52  O   UNL     1      24.020   3.573  18.543  1.00  0.00    -0.384 OA
ATOM     53  H   UNL     1      24.297   4.216  19.247  1.00  0.00     0.211 HD
ENDBRANCH   4  52
TORSDOF 16
ENDMDL
MODEL 7
REMARK VINA RESULT:    -8.412      4.179      7.798
REMARK INTER + INTRA:         -16.804
REMARK INTER:                 -14.236
REMARK INTRA:                  -2.568
REMARK UNBOUND:                -2.983
REMARK SMILES C[C@H]1O[C@H](OC[C@@H]2O[C@H](Oc3c(-c4ccc(O)c(O)c4)oc4cc(O)cc(O)c4c3=O)[C@@H](O)[C@H](O)[C@H]2O)[C@@H](O)[C@H](O)[C@@H]1O
REMARK SMILES IDX 7 1 36 2 34 3 32 4 9 5 8 6 6 7 5 8 4 9 1 10 2 11 42 12 3 13
REMARK SMILES IDX 40 14 38 15 43 16 41 18 39 20 37 22 35 24 10 26 11 27 12 28
REMARK SMILES IDX 30 29 21 30 29 31 31 32 22 33 27 34 23 35 26 36 24 37 13 38
REMARK SMILES IDX 20 39 14 40 18 41 15 42 16 43 19 44 17 46 28 48 25 50 33 52
REMARK H PARENT 43 17 41 19 39 21 37 23 35 25 19 45 17 47 28 49 25 51 33 53
REMARK Flexibility Score: inf
ROOT
ATOM      1  C   UNL     1      20.893   6.247  22.758  1.00  0.00     0.180 C 
ATOM      2  C   UNL     1      20.532   4.725  22.818  1.00  0.00     0.177 C 
ATOM      3  C   UNL     1      21.677   3.810  23.326  1.00  0.00     0.180 C 
ATOM      4  C   UNL     1      22.529   4.490  24.413  1.00  0.00     0.214 C 
ATOM      5  C   UNL     1      22.896   5.924  24.004  1.00  0.00     0.339 C 
ATOM      6  O   UNL     1      21.733   6.708  23.809  1.00  0.00    -0.332 OA
ENDROOT
BRANCH   1   7
ATOM      7  C   UNL     1      21.360   6.747  21.377  1.00  0.00     0.198 C 
BRANCH   7   8
ATOM      8  O   UNL     1      21.134   5.731  20.423  1.00  0.00    -0.347 OA
BRANCH   8   9
ATOM      9  C   UNL     1      20.192   6.083  19.420  1.00  0.00     0.281 C 
ATOM     10  C   UNL     1      17.805   7.916  18.965  1.00  0.00     0.041 C 
ATOM     11  C   UNL     1      19.199   7.918  18.292  1.00  0.00     0.150 C 
ATOM     12  C   UNL     1      19.235   7.183  16.934  1.00  0.00     0.174 C 
ATOM     13  O   UNL     1      20.232   7.488  19.175  1.00  0.00    -0.344 OA
ATOM     14  C   UNL     1      19.259   5.647  17.131  1.00  0.00     0.179 C 
ATOM     15  C   UNL     1      20.364   5.255  18.119  1.00  0.00     0.202 C 
BRANCH  12  16
ATOM     16  O   UNL     1      20.371   7.612  16.227  1.00  0.00    -0.388 OA
ATOM     17  H   UNL     1      21.163   7.193  16.661  1.00  0.00     0.211 HD
ENDBRANCH  12  16
BRANCH  14  18
ATOM     18  O   UNL     1      19.485   4.990  15.905  1.00  0.00    -0.387 OA
ATOM     19  H   UNL     1      20.168   5.525  15.422  1.00  0.00     0.211 HD
ENDBRANCH  14  18
BRANCH  15  20
ATOM     20  O   UNL     1      20.263   3.878  18.410  1.00  0.00    -0.385 OA
ATOM     21  H   UNL     1      20.084   3.800  19.383  1.00  0.00     0.211 HD
ENDBRANCH  15  20
ENDBRANCH   8   9
ENDBRANCH   7   8
ENDBRANCH   1   7
BRANCH   2  22
ATOM     22  O   UNL     1      19.374   4.519  23.598  1.00  0.00    -0.387 OA
ATOM     23  H   UNL     1      18.860   5.368  23.597  1.00  0.00     0.211 HD
ENDBRANCH   2  22
BRANCH   3  24
ATOM     24  O   UNL     1      22.486   3.335  22.276  1.00  0.00    -0.387 OA
ATOM     25  H   UNL     1      22.167   3.726  21.423  1.00  0.00     0.211 HD
ENDBRANCH   3  24
BRANCH   5  26
ATOM     26  O   UNL     1      23.763   6.000  22.861  1.00  0.00    -0.454 OA
BRANCH  26  27
ATOM     27  C   UNL     1      24.994   6.678  22.869  1.00  0.00     0.214 A 
ATOM     28  C   UNL     1      25.502   7.266  21.685  1.00  0.00     0.180 A 
ATOM     29  C   UNL     1      25.783   6.716  24.030  1.00  0.00     0.239 A 
ATOM     30  O   UNL     1      26.650   7.948  21.729  1.00  0.00    -0.452 OA
ATOM     31  C   UNL     1      26.977   7.464  24.037  1.00  0.00     0.111 A 
ATOM     32  O   UNL     1      25.442   6.030  25.037  1.00  0.00    -0.285 OA
ATOM     33  C   UNL     1      27.375   8.091  22.832  1.00  0.00     0.146 A 
ATOM     34  C   UNL     1      27.784   7.618  25.191  1.00  0.00     0.134 A 
ATOM     35  C   UNL     1      28.549   8.853  22.783  1.00  0.00     0.094 A 
ATOM     36  C   UNL     1      28.968   8.369  25.119  1.00  0.00     0.093 A 
ATOM     37  C   UNL     1      29.352   8.986  23.916  1.00  0.00     0.123 A 
BRANCH  28  38
ATOM     38  C   UNL     1      24.852   7.094  20.361  1.00  0.00     0.025 A 
ATOM     39  C   UNL     1      24.119   8.119  19.730  1.00  0.00     0.062 A 
ATOM     40  C   UNL     1      24.996   5.858  19.694  1.00  0.00     0.016 A 
ATOM     41  C   UNL     1      23.484   7.885  18.495  1.00  0.00     0.158 A 
ATOM     42  C   UNL     1      24.387   5.638  18.452  1.00  0.00     0.051 A 
ATOM     43  C   UNL     1      23.619   6.640  17.856  1.00  0.00     0.157 A 
BRANCH  41  44
ATOM     44  O   UNL     1      22.733   8.889  17.887  1.00  0.00    -0.504 OA
ATOM     45  H   UNL     1      22.467   9.739  18.390  1.00  0.00     0.293 HD
ENDBRANCH  41  44
BRANCH  43  46
ATOM     46  O   UNL     1      23.000   6.414  16.631  1.00  0.00    -0.504 OA
ATOM     47  H   UNL     1      22.262   5.717  16.522  1.00  0.00     0.293 HD
ENDBRANCH  43  46
ENDBRANCH  28  38
BRANCH  34  48
ATOM     48  O   UNL     1      27.419   7.036  26.406  1.00  0.00    -0.507 OA
ATOM     49  H   UNL     1      26.616   7.364  26.941  1.00  0.00     0.293 HD
ENDBRANCH  34  48
BRANCH  37  50
ATOM     50  O   UNL     1      30.530   9.735  23.846  1.00  0.00    -0.508 OA
ATOM     51  H   UNL     1      31.293   9.472  23.227  1.00  0.00     0.293 HD
ENDBRANCH  37  50
ENDBRANCH  26  27
ENDBRANCH   5  26
BRANCH   4  52
ATOM     52  O   UNL     1      21.820   4.527  25.628  1.00  0.00    -0.384 OA
ATOM     53  H   UNL     1      20.908   4.867  25.431  1.00  0.00     0.211 HD
ENDBRANCH   4  52
TORSDOF 16
ENDMDL
MODEL 8
REMARK VINA RESULT:    -8.411      2.980      6.436
REMARK INTER + INTRA:         -16.802
REMARK INTER:                 -13.516
REMARK INTRA:                  -3.286
REMARK UNBOUND:                -2.983
REMARK SMILES C[C@H]1O[C@H](OC[C@@H]2O[C@H](Oc3c(-c4ccc(O)c(O)c4)oc4cc(O)cc(O)c4c3=O)[C@@H](O)[C@H](O)[C@H]2O)[C@@H](O)[C@H](O)[C@@H]1O
REMARK SMILES IDX 7 1 36 2 34 3 32 4 9 5 8 6 6 7 5 8 4 9 1 10 2 11 42 12 3 13
REMARK SMILES IDX 40 14 38 15 43 16 41 18 39 20 37 22 35 24 10 26 11 27 12 28
REMARK SMILES IDX 30 29 21 30 29 31 31 32 22 33 27 34 23 35 26 36 24 37 13 38
REMARK SMILES IDX 20 39 14 40 18 41 15 42 16 43 19 44 17 46 28 48 25 50 33 52
REMARK H PARENT 43 17 41 19 39 21 37 23 35 25 19 45 17 47 28 49 25 51 33 53
REMARK Flexibility Score: inf
ROOT
ATOM      1  C   UNL     1      22.594   4.831  17.784  1.00  0.00     0.180 C 
ATOM      2  C   UNL     1      23.295   3.849  18.781  1.00  0.00     0.177 C 
ATOM      3  C   UNL     1      22.491   3.560  20.075  1.00  0.00     0.180 C 
ATOM      4  C   UNL     1      20.973   3.520  19.822  1.00  0.00     0.214 C 
ATOM      5  C   UNL     1      20.529   4.713  18.963  1.00  0.00     0.339 C 
ATOM      6  O   UNL     1      21.179   4.701  17.706  1.00  0.00    -0.332 OA
ENDROOT
BRANCH   1   7
ATOM      7  C   UNL     1      23.037   6.301  17.905  1.00  0.00     0.198 C 
BRANCH   7   8
ATOM      8  O   UNL     1      24.445   6.347  18.007  1.00  0.00    -0.347 OA
BRANCH   8   9
ATOM      9  C   UNL     1      24.915   6.879  19.238  1.00  0.00     0.281 C 
ATOM     10  C   UNL     1      24.416   9.193  21.152  1.00  0.00     0.041 C 
ATOM     11  C   UNL     1      24.225   7.672  21.364  1.00  0.00     0.150 C 
ATOM     12  C   UNL     1      25.415   6.989  22.074  1.00  0.00     0.174 C 
ATOM     13  O   UNL     1      23.840   6.997  20.169  1.00  0.00    -0.344 OA
ATOM     14  C   UNL     1      26.597   6.771  21.098  1.00  0.00     0.179 C 
ATOM     15  C   UNL     1      26.110   6.078  19.820  1.00  0.00     0.202 C 
BRANCH  12  16
ATOM     16  O   UNL     1      24.973   5.763  22.602  1.00  0.00    -0.388 OA
ATOM     17  H   UNL     1      23.978   5.772  22.573  1.00  0.00     0.211 HD
ENDBRANCH  12  16
BRANCH  14  18
ATOM     18  O   UNL     1      27.598   5.980  21.696  1.00  0.00    -0.387 OA
ATOM     19  H   UNL     1      27.995   5.432  20.970  1.00  0.00     0.211 HD
ENDBRANCH  14  18
BRANCH  15  20
ATOM     20  O   UNL     1      27.163   6.037  18.881  1.00  0.00    -0.385 OA
ATOM     21  H   UNL     1      27.450   5.091  18.809  1.00  0.00     0.211 HD
ENDBRANCH  15  20
ENDBRANCH   8   9
ENDBRANCH   7   8
ENDBRANCH   1   7
BRANCH   2  22
ATOM     22  O   UNL     1      23.617   2.634  18.138  1.00  0.00    -0.387 OA
ATOM     23  H   UNL     1      22.766   2.151  17.972  1.00  0.00     0.211 HD
ENDBRANCH   2  22
BRANCH   3  24
ATOM     24  O   UNL     1      22.805   4.460  21.111  1.00  0.00    -0.387 OA
ATOM     25  H   UNL     1      23.365   3.992  21.783  1.00  0.00     0.211 HD
ENDBRANCH   3  24
BRANCH   5  26
ATOM     26  O   UNL     1      20.685   5.987  19.610  1.00  0.00    -0.454 OA
BRANCH  26  27
ATOM     27  C   UNL     1      19.605   6.755  20.075  1.00  0.00     0.214 A 
ATOM     28  C   UNL     1      19.309   6.823  21.457  1.00  0.00     0.180 A 
ATOM     29  C   UNL     1      18.749   7.407  19.172  1.00  0.00     0.239 A 
ATOM     30  O   UNL     1      18.308   7.601  21.879  1.00  0.00    -0.452 OA
ATOM     31  C   UNL     1      17.718   8.234  19.662  1.00  0.00     0.111 A 
ATOM     32  O   UNL     1      18.877   7.198  17.931  1.00  0.00    -0.285 OA
ATOM     33  C   UNL     1      17.539   8.312  21.064  1.00  0.00     0.146 A 
ATOM     34  C   UNL     1      16.867   8.987  18.816  1.00  0.00     0.134 A 
ATOM     35  C   UNL     1      16.535   9.123  21.606  1.00  0.00     0.094 A 
ATOM     36  C   UNL     1      15.853   9.780  19.377  1.00  0.00     0.093 A 
ATOM     37  C   UNL     1      15.685   9.848  20.771  1.00  0.00     0.123 A 
BRANCH  28  38
ATOM     38  C   UNL     1      20.017   6.000  22.471  1.00  0.00     0.025 A 
ATOM     39  C   UNL     1      21.107   6.482  23.222  1.00  0.00     0.062 A 
ATOM     40  C   UNL     1      19.562   4.685  22.709  1.00  0.00     0.016 A 
ATOM     41  C   UNL     1      21.771   5.641  24.137  1.00  0.00     0.158 A 
ATOM     42  C   UNL     1      20.206   3.860  23.640  1.00  0.00     0.051 A 
ATOM     43  C   UNL     1      21.318   4.326  24.344  1.00  0.00     0.157 A 
BRANCH  41  44
ATOM     44  O   UNL     1      22.868   6.109  24.856  1.00  0.00    -0.504 OA
ATOM     45  H   UNL     1      23.498   5.471  25.349  1.00  0.00     0.293 HD
ENDBRANCH  41  44
BRANCH  43  46
ATOM     46  O   UNL     1      21.968   3.500  25.256  1.00  0.00    -0.504 OA
ATOM     47  H   UNL     1      22.535   2.708  24.952  1.00  0.00     0.293 HD
ENDBRANCH  43  46
ENDBRANCH  28  38
BRANCH  34  48
ATOM     48  O   UNL     1      17.021   8.958  17.429  1.00  0.00    -0.507 OA
ATOM     49  H   UNL     1      17.878   9.275  16.977  1.00  0.00     0.293 HD
ENDBRANCH  34  48
BRANCH  37  50
ATOM     50  O   UNL     1      14.676  10.639  21.327  1.00  0.00    -0.508 OA
ATOM     51  H   UNL     1      13.913  10.231  21.862  1.00  0.00     0.293 HD
ENDBRANCH  37  50
ENDBRANCH  26  27
ENDBRANCH   5  26
BRANCH   4  52
ATOM     52  O   UNL     1      20.625   2.326  19.164  1.00  0.00    -0.384 OA
ATOM     53  H   UNL     1      21.260   2.205  18.410  1.00  0.00     0.211 HD
ENDBRANCH   4  52
TORSDOF 16
ENDMDL
MODEL 9
REMARK VINA RESULT:    -8.321      2.102      4.998
REMARK INTER + INTRA:         -16.654
REMARK INTER:                 -13.434
REMARK INTRA:                  -3.221
REMARK UNBOUND:                -2.983
REMARK SMILES C[C@H]1O[C@H](OC[C@@H]2O[C@H](Oc3c(-c4ccc(O)c(O)c4)oc4cc(O)cc(O)c4c3=O)[C@@H](O)[C@H](O)[C@H]2O)[C@@H](O)[C@H](O)[C@@H]1O
REMARK SMILES IDX 7 1 36 2 34 3 32 4 9 5 8 6 6 7 5 8 4 9 1 10 2 11 42 12 3 13
REMARK SMILES IDX 40 14 38 15 43 16 41 18 39 20 37 22 35 24 10 26 11 27 12 28
REMARK SMILES IDX 30 29 21 30 29 31 31 32 22 33 27 34 23 35 26 36 24 37 13 38
REMARK SMILES IDX 20 39 14 40 18 41 15 42 16 43 19 44 17 46 28 48 25 50 33 52
REMARK H PARENT 43 17 41 19 39 21 37 23 35 25 19 45 17 47 28 49 25 51 33 53
REMARK Flexibility Score: inf
ROOT
ATOM      1  C   UNL     1      21.355   8.736  19.947  1.00  0.00     0.180 C 
ATOM      2  C   UNL     1      22.601   8.182  19.182  1.00  0.00     0.177 C 
ATOM      3  C   UNL     1      22.491   6.694  18.758  1.00  0.00     0.180 C 
ATOM      4  C   UNL     1      21.054   6.305  18.366  1.00  0.00     0.214 C 
ATOM      5  C   UNL     1      20.045   6.825  19.400  1.00  0.00     0.339 C 
ATOM      6  O   UNL     1      20.101   8.236  19.497  1.00  0.00    -0.332 OA
ENDROOT
BRANCH   1   7
ATOM      7  C   UNL     1      21.474   8.709  21.483  1.00  0.00     0.198 C 
BRANCH   7   8
ATOM      8  O   UNL     1      22.708   9.286  21.855  1.00  0.00    -0.347 OA
BRANCH   8   9
ATOM      9  C   UNL     1      23.609   8.371  22.465  1.00  0.00     0.281 C 
ATOM     10  C   UNL     1      23.740   6.348  24.735  1.00  0.00     0.041 C 
ATOM     11  C   UNL     1      23.846   6.131  23.206  1.00  0.00     0.150 C 
ATOM     12  C   UNL     1      25.299   6.048  22.689  1.00  0.00     0.174 C 
ATOM     13  O   UNL     1      23.054   7.057  22.466  1.00  0.00    -0.344 OA
ATOM     14  C   UNL     1      25.941   7.455  22.601  1.00  0.00     0.179 C 
ATOM     15  C   UNL     1      25.024   8.410  21.829  1.00  0.00     0.202 C 
BRANCH  12  16
ATOM     16  O   UNL     1      25.288   5.426  21.429  1.00  0.00    -0.388 OA
ATOM     17  H   UNL     1      24.460   5.721  20.963  1.00  0.00     0.211 HD
ENDBRANCH  12  16
BRANCH  14  18
ATOM     18  O   UNL     1      27.190   7.393  21.952  1.00  0.00    -0.387 OA
ATOM     19  H   UNL     1      27.546   6.480  22.113  1.00  0.00     0.211 HD
ENDBRANCH  14  18
BRANCH  15  20
ATOM     20  O   UNL     1      25.546   9.720  21.901  1.00  0.00    -0.385 OA
ATOM     21  H   UNL     1      26.474   9.680  21.553  1.00  0.00     0.211 HD
ENDBRANCH  15  20
ENDBRANCH   8   9
ENDBRANCH   7   8
ENDBRANCH   1   7
BRANCH   2  22
ATOM     22  O   UNL     1      22.887   8.981  18.052  1.00  0.00    -0.387 OA
ATOM     23  H   UNL     1      22.246   9.739  18.056  1.00  0.00     0.211 HD
ENDBRANCH   2  22
BRANCH   3  24
ATOM     24  O   UNL     1      23.000   5.821  19.737  1.00  0.00    -0.387 OA
ATOM     25  H   UNL     1      22.970   6.275  20.618  1.00  0.00     0.211 HD
ENDBRANCH   3  24
BRANCH   5  26
ATOM     26  O   UNL     1      20.171   6.216  20.695  1.00  0.00    -0.454 OA
BRANCH  26  27
ATOM     27  C   UNL     1      19.227   5.319  21.223  1.00  0.00     0.214 A 
ATOM     28  C   UNL     1      19.511   3.934  21.301  1.00  0.00     0.180 A 
ATOM     29  C   UNL     1      17.952   5.766  21.609  1.00  0.00     0.239 A 
ATOM     30  O   UNL     1      18.617   3.109  21.854  1.00  0.00    -0.452 OA
ATOM     31  C   UNL     1      17.049   4.864  22.206  1.00  0.00     0.111 A 
ATOM     32  O   UNL     1      17.610   6.959  21.363  1.00  0.00    -0.285 OA
ATOM     33  C   UNL     1      17.442   3.509  22.322  1.00  0.00     0.146 A 
ATOM     34  C   UNL     1      15.778   5.256  22.695  1.00  0.00     0.134 A 
ATOM     35  C   UNL     1      16.587   2.571  22.913  1.00  0.00     0.094 A 
ATOM     36  C   UNL     1      14.927   4.298  23.267  1.00  0.00     0.093 A 
ATOM     37  C   UNL     1      15.329   2.956  23.376  1.00  0.00     0.123 A 
BRANCH  28  38
ATOM     38  C   UNL     1      20.739   3.333  20.721  1.00  0.00     0.025 A 
ATOM     39  C   UNL     1      21.942   3.205  21.442  1.00  0.00     0.062 A 
ATOM     40  C   UNL     1      20.691   2.847  19.396  1.00  0.00     0.016 A 
ATOM     41  C   UNL     1      23.090   2.670  20.826  1.00  0.00     0.158 A 
ATOM     42  C   UNL     1      21.826   2.289  18.795  1.00  0.00     0.051 A 
ATOM     43  C   UNL     1      23.030   2.211  19.498  1.00  0.00     0.157 A 
BRANCH  41  44
ATOM     44  O   UNL     1      24.288   2.572  21.530  1.00  0.00    -0.504 OA
ATOM     45  H   UNL     1      24.747   3.397  21.924  1.00  0.00     0.293 HD
ENDBRANCH  41  44
BRANCH  43  46
ATOM     46  O   UNL     1      24.162   1.673  18.894  1.00  0.00    -0.504 OA
ATOM     47  H   UNL     1      24.684   0.906  19.318  1.00  0.00     0.293 HD
ENDBRANCH  43  46
ENDBRANCH  28  38
BRANCH  34  48
ATOM     48  O   UNL     1      15.358   6.585  22.622  1.00  0.00    -0.507 OA
ATOM     49  H   UNL     1      16.011   7.362  22.722  1.00  0.00     0.293 HD
ENDBRANCH  34  48
BRANCH  37  50
ATOM     50  O   UNL     1      14.480   2.004  23.947  1.00  0.00    -0.508 OA
ATOM     51  H   UNL     1      14.754   1.468  24.767  1.00  0.00     0.293 HD
ENDBRANCH  37  50
ENDBRANCH  26  27
ENDBRANCH   5  26
BRANCH   4  52
ATOM     52  O   UNL     1      20.736   6.841  17.104  1.00  0.00    -0.384 OA
ATOM     53  H   UNL     1      19.975   6.318  16.740  1.00  0.00     0.211 HD
ENDBRANCH   4  52
TORSDOF 16
ENDMDL
