MODEL 1
REMARK VINA RESULT:    -4.172      0.000      0.000
REMARK INTER + INTRA:          -7.346
REMARK INTER:                  -6.610
REMARK INTRA:                  -0.735
REMARK UNBOUND:                -0.735
REMARK SMILES CCCCCCCCCCCC(=O)[O-]
REMARK SMILES IDX 7 1 8 2 9 3 10 4 11 5 12 6 13 7 14 8 6 9 5 10 4 11 3 12 2 13
REMARK SMILES IDX 1 14
REMARK H PARENT
REMARK Flexibility Score: inf
ROOT
ATOM      1  C   UNL     1      28.335  27.056 -15.728  1.00  0.00     0.000 C 
ENDROOT
BRANCH   1   2
ATOM      2  C   UNL     1      28.880  27.517 -17.085  1.00  0.00     0.000 C 
BRANCH   2   3
ATOM      3  C   UNL     1      28.998  29.048 -17.139  1.00  0.00     0.000 C 
BRANCH   3   4
ATOM      4  C   UNL     1      27.630  29.747 -17.178  1.00  0.00     0.006 C 
BRANCH   4   5
ATOM      5  C   UNL     1      26.868  29.481 -18.483  1.00  0.00     0.053 C 
BRANCH   5   6
ATOM      6  C   UNL     1      26.828  30.716 -19.325  1.00  0.00     0.041 C 
ATOM      7  O   UNL     1      27.594  30.833 -20.318  1.00  0.00    -0.550 OA
ATOM      8  O   UNL     1      25.907  31.718 -19.046  1.00  0.00    -0.550 OA
ENDBRANCH   5   6
ENDBRANCH   4   5
ENDBRANCH   3   4
ENDBRANCH   2   3
ENDBRANCH   1   2
BRANCH   1   9
ATOM      9  C   UNL     1      27.420  25.834 -15.890  1.00  0.00     0.000 C 
BRANCH   9  10
ATOM     10  C   UNL     1      26.918  25.646 -17.333  1.00  0.00    -0.000 C 
BRANCH  10  11
ATOM     11  C   UNL     1      27.379  24.347 -18.020  1.00  0.00    -0.000 C 
BRANCH  11  12
ATOM     12  C   UNL     1      26.969  24.207 -19.497  1.00  0.00    -0.000 C 
BRANCH  12  13
ATOM     13  C   UNL     1      27.917  23.314 -20.324  1.00  0.00    -0.003 C 
ATOM     14  C   UNL     1      29.378  23.449 -19.897  1.00  0.00     0.004 C 
ENDBRANCH  12  13
ENDBRANCH  11  12
ENDBRANCH  10  11
ENDBRANCH   9  10
ENDBRANCH   1   9
TORSDOF 10
ENDMDL
MODEL 2
REMARK VINA RESULT:    -4.088      1.425      2.363
REMARK INTER + INTRA:          -7.213
REMARK INTER:                  -6.239
REMARK INTRA:                  -0.974
REMARK UNBOUND:                -0.735
REMARK SMILES CCCCCCCCCCCC(=O)[O-]
REMARK SMILES IDX 7 1 8 2 9 3 10 4 11 5 12 6 13 7 14 8 6 9 5 10 4 11 3 12 2 13
REMARK SMILES IDX 1 14
REMARK H PARENT
REMARK Flexibility Score: inf
ROOT
ATOM      1  C   UNL     1      30.310  26.442 -16.032  1.00  0.00     0.000 C 
ENDROOT
BRANCH   1   2
ATOM      2  C   UNL     1      30.032  27.918 -16.339  1.00  0.00     0.000 C 
BRANCH   2   3
ATOM      3  C   UNL     1      28.587  28.117 -16.823  1.00  0.00     0.000 C 
BRANCH   3   4
ATOM      4  C   UNL     1      28.376  29.473 -17.515  1.00  0.00     0.006 C 
BRANCH   4   5
ATOM      5  C   UNL     1      26.920  29.696 -17.944  1.00  0.00     0.053 C 
BRANCH   5   6
ATOM      6  C   UNL     1      26.848  30.715 -19.036  1.00  0.00     0.041 C 
ATOM      7  O   UNL     1      27.634  30.650 -20.018  1.00  0.00    -0.550 OA
ATOM      8  O   UNL     1      25.877  31.708 -18.997  1.00  0.00    -0.550 OA
ENDBRANCH   5   6
ENDBRANCH   4   5
ENDBRANCH   3   4
ENDBRANCH   2   3
ENDBRANCH   1   2
BRANCH   1   9
ATOM      9  C   UNL     1      30.968  25.745 -17.232  1.00  0.00     0.000 C 
BRANCH   9  10
ATOM     10  C   UNL     1      30.428  24.323 -17.469  1.00  0.00    -0.000 C 
BRANCH  10  11
ATOM     11  C   UNL     1      29.331  24.213 -18.545  1.00  0.00    -0.000 C 
BRANCH  11  12
ATOM     12  C   UNL     1      27.952  23.765 -18.028  1.00  0.00    -0.000 C 
BRANCH  12  13
ATOM     13  C   UNL     1      26.980  24.933 -17.759  1.00  0.00    -0.003 C 
ATOM     14  C   UNL     1      26.627  25.079 -16.279  1.00  0.00     0.004 C 
ENDBRANCH  12  13
ENDBRANCH  11  12
ENDBRANCH  10  11
ENDBRANCH   9  10
ENDBRANCH   1   9
TORSDOF 10
ENDMDL
MODEL 3
REMARK VINA RESULT:    -4.062      2.775      5.282
REMARK INTER + INTRA:          -7.172
REMARK INTER:                  -6.098
REMARK INTRA:                  -1.074
REMARK UNBOUND:                -0.735
REMARK SMILES CCCCCCCCCCCC(=O)[O-]
REMARK SMILES IDX 7 1 8 2 9 3 10 4 11 5 12 6 13 7 14 8 6 9 5 10 4 11 3 12 2 13
REMARK SMILES IDX 1 14
REMARK H PARENT
REMARK Flexibility Score: inf
ROOT
ATOM      1  C   UNL     1      28.028  26.111 -14.581  1.00  0.00     0.000 C 
ENDROOT
BRANCH   1   2
ATOM      2  C   UNL     1      27.363  24.732 -14.656  1.00  0.00     0.000 C 
BRANCH   2   3
ATOM      3  C   UNL     1      27.686  24.036 -15.987  1.00  0.00     0.000 C 
BRANCH   3   4
ATOM      4  C   UNL     1      27.196  24.833 -17.207  1.00  0.00     0.006 C 
BRANCH   4   5
ATOM      5  C   UNL     1      27.797  24.327 -18.524  1.00  0.00     0.053 C 
BRANCH   5   6
ATOM      6  C   UNL     1      26.788  24.408 -19.624  1.00  0.00     0.041 C 
ATOM      7  O   UNL     1      26.913  23.693 -20.654  1.00  0.00    -0.550 OA
ATOM      8  O   UNL     1      25.680  25.236 -19.491  1.00  0.00    -0.550 OA
ENDBRANCH   5   6
ENDBRANCH   4   5
ENDBRANCH   3   4
ENDBRANCH   2   3
ENDBRANCH   1   2
BRANCH   1   9
ATOM      9  C   UNL     1      29.556  25.980 -14.494  1.00  0.00     0.000 C 
BRANCH   9  10
ATOM     10  C   UNL     1      30.297  27.070 -15.290  1.00  0.00    -0.000 C 
BRANCH  10  11
ATOM     11  C   UNL     1      29.792  27.283 -16.729  1.00  0.00    -0.000 C 
BRANCH  11  12
ATOM     12  C   UNL     1      29.166  28.663 -17.004  1.00  0.00    -0.000 C 
BRANCH  12  13
ATOM     13  C   UNL     1      27.638  28.621 -17.214  1.00  0.00    -0.003 C 
ATOM     14  C   UNL     1      27.114  29.834 -17.984  1.00  0.00     0.004 C 
ENDBRANCH  12  13
ENDBRANCH  11  12
ENDBRANCH  10  11
ENDBRANCH   9  10
ENDBRANCH   1   9
TORSDOF 10
ENDMDL
MODEL 4
REMARK VINA RESULT:    -4.010      3.217      5.573
REMARK INTER + INTRA:          -7.089
REMARK INTER:                  -5.834
REMARK INTRA:                  -1.255
REMARK UNBOUND:                -0.735
REMARK SMILES CCCCCCCCCCCC(=O)[O-]
REMARK SMILES IDX 7 1 8 2 9 3 10 4 11 5 12 6 13 7 14 8 6 9 5 10 4 11 3 12 2 13
REMARK SMILES IDX 1 14
REMARK H PARENT
REMARK Flexibility Score: inf
ROOT
ATOM      1  C   UNL     1      29.404  27.791 -16.626  1.00  0.00     0.000 C 
ENDROOT
BRANCH   1   2
ATOM      2  C   UNL     1      27.937  27.367 -16.768  1.00  0.00     0.000 C 
BRANCH   2   3
ATOM      3  C   UNL     1      27.744  25.903 -16.342  1.00  0.00     0.000 C 
BRANCH   3   4
ATOM      4  C   UNL     1      26.796  25.135 -17.277  1.00  0.00     0.006 C 
BRANCH   4   5
ATOM      5  C   UNL     1      27.530  24.478 -18.453  1.00  0.00     0.053 C 
BRANCH   5   6
ATOM      6  C   UNL     1      26.677  24.503 -19.681  1.00  0.00     0.041 C 
ATOM      7  O   UNL     1      25.669  25.256 -19.738  1.00  0.00    -0.550 OA
ATOM      8  O   UNL     1      27.023  23.732 -20.783  1.00  0.00    -0.550 OA
ENDBRANCH   5   6
ENDBRANCH   4   5
ENDBRANCH   3   4
ENDBRANCH   2   3
ENDBRANCH   1   2
BRANCH   1   9
ATOM      9  C   UNL     1      30.339  26.576 -16.715  1.00  0.00     0.000 C 
BRANCH   9  10
ATOM     10  C   UNL     1      31.565  26.693 -15.791  1.00  0.00    -0.000 C 
BRANCH  10  11
ATOM     11  C   UNL     1      31.280  26.453 -14.297  1.00  0.00    -0.000 C 
BRANCH  11  12
ATOM     12  C   UNL     1      30.669  25.080 -13.961  1.00  0.00    -0.000 C 
BRANCH  12  13
ATOM     13  C   UNL     1      29.369  25.164 -13.134  1.00  0.00    -0.003 C 
ATOM     14  C   UNL     1      28.910  26.603 -12.901  1.00  0.00     0.004 C 
ENDBRANCH  12  13
ENDBRANCH  11  12
ENDBRANCH  10  11
ENDBRANCH   9  10
ENDBRANCH   1   9
TORSDOF 10
ENDMDL
MODEL 5
REMARK VINA RESULT:    -3.961      3.139      5.220
REMARK INTER + INTRA:          -7.013
REMARK INTER:                  -5.672
REMARK INTRA:                  -1.340
REMARK UNBOUND:                -0.735
REMARK SMILES CCCCCCCCCCCC(=O)[O-]
REMARK SMILES IDX 7 1 8 2 9 3 10 4 11 5 12 6 13 7 14 8 6 9 5 10 4 11 3 12 2 13
REMARK SMILES IDX 1 14
REMARK H PARENT
REMARK Flexibility Score: inf
ROOT
ATOM      1  C   UNL     1      30.206  26.678 -16.573  1.00  0.00     0.000 C 
ENDROOT
BRANCH   1   2
ATOM      2  C   UNL     1      29.134  27.773 -16.520  1.00  0.00     0.000 C 
BRANCH   2   3
ATOM      3  C   UNL     1      27.763  27.222 -16.942  1.00  0.00     0.000 C 
BRANCH   3   4
ATOM      4  C   UNL     1      27.804  25.722 -17.273  1.00  0.00     0.006 C 
BRANCH   4   5
ATOM      5  C   UNL     1      26.458  25.193 -17.783  1.00  0.00     0.053 C 
BRANCH   5   6
ATOM      6  C   UNL     1      26.585  24.711 -19.193  1.00  0.00     0.041 C 
ATOM      7  O   UNL     1      25.791  25.123 -20.079  1.00  0.00    -0.550 OA
ATOM      8  O   UNL     1      27.614  23.844 -19.541  1.00  0.00    -0.550 OA
ENDBRANCH   5   6
ENDBRANCH   4   5
ENDBRANCH   3   4
ENDBRANCH   2   3
ENDBRANCH   1   2
BRANCH   1   9
ATOM      9  C   UNL     1      31.081  26.703 -15.312  1.00  0.00     0.000 C 
BRANCH   9  10
ATOM     10  C   UNL     1      30.264  26.868 -14.018  1.00  0.00    -0.000 C 
BRANCH  10  11
ATOM     11  C   UNL     1      29.483  25.616 -13.575  1.00  0.00    -0.000 C 
BRANCH  11  12
ATOM     12  C   UNL     1      27.966  25.819 -13.404  1.00  0.00    -0.000 C 
BRANCH  12  13
ATOM     13  C   UNL     1      27.128  24.577 -13.771  1.00  0.00    -0.003 C 
ATOM     14  C   UNL     1      25.676  24.921 -14.103  1.00  0.00     0.004 C 
ENDBRANCH  12  13
ENDBRANCH  11  12
ENDBRANCH  10  11
ENDBRANCH   9  10
ENDBRANCH   1   9
TORSDOF 10
ENDMDL
MODEL 6
REMARK VINA RESULT:    -3.948      3.505      5.333
REMARK INTER + INTRA:          -6.991
REMARK INTER:                  -6.314
REMARK INTRA:                  -0.676
REMARK UNBOUND:                -0.735
REMARK SMILES CCCCCCCCCCCC(=O)[O-]
REMARK SMILES IDX 7 1 8 2 9 3 10 4 11 5 12 6 13 7 14 8 6 9 5 10 4 11 3 12 2 13
REMARK SMILES IDX 1 14
REMARK H PARENT
REMARK Flexibility Score: inf
ROOT
ATOM      1  C   UNL     1      27.874  27.544 -16.671  1.00  0.00     0.000 C 
ENDROOT
BRANCH   1   2
ATOM      2  C   UNL     1      27.792  26.453 -15.597  1.00  0.00     0.000 C 
BRANCH   2   3
ATOM      3  C   UNL     1      27.417  25.098 -16.217  1.00  0.00     0.000 C 
BRANCH   3   4
ATOM      4  C   UNL     1      26.763  25.240 -17.601  1.00  0.00     0.006 C 
BRANCH   4   5
ATOM      5  C   UNL     1      27.318  24.239 -18.622  1.00  0.00     0.053 C 
BRANCH   5   6
ATOM      6  C   UNL     1      26.617  24.390 -19.935  1.00  0.00     0.041 C 
ATOM      7  O   UNL     1      25.739  25.280 -20.087  1.00  0.00    -0.550 OA
ATOM      8  O   UNL     1      26.971  23.581 -21.008  1.00  0.00    -0.550 OA
ENDBRANCH   5   6
ENDBRANCH   4   5
ENDBRANCH   3   4
ENDBRANCH   2   3
ENDBRANCH   1   2
BRANCH   1   9
ATOM      9  C   UNL     1      29.299  28.106 -16.777  1.00  0.00     0.000 C 
BRANCH   9  10
ATOM     10  C   UNL     1      30.310  27.346 -15.900  1.00  0.00    -0.000 C 
BRANCH  10  11
ATOM     11  C   UNL     1      31.330  26.489 -16.673  1.00  0.00    -0.000 C 
BRANCH  11  12
ATOM     12  C   UNL     1      32.641  26.195 -15.919  1.00  0.00    -0.000 C 
BRANCH  12  13
ATOM     13  C   UNL     1      33.876  26.090 -16.838  1.00  0.00    -0.003 C 
ATOM     14  C   UNL     1      33.507  26.039 -18.320  1.00  0.00     0.004 C 
ENDBRANCH  12  13
ENDBRANCH  11  12
ENDBRANCH  10  11
ENDBRANCH   9  10
ENDBRANCH   1   9
TORSDOF 10
ENDMDL
MODEL 7
REMARK VINA RESULT:    -3.919      3.739      4.753
REMARK INTER + INTRA:          -6.946
REMARK INTER:                  -5.988
REMARK INTRA:                  -0.957
REMARK UNBOUND:                -0.735
REMARK SMILES CCCCCCCCCCCC(=O)[O-]
REMARK SMILES IDX 7 1 8 2 9 3 10 4 11 5 12 6 13 7 14 8 6 9 5 10 4 11 3 12 2 13
REMARK SMILES IDX 1 14
REMARK H PARENT
REMARK Flexibility Score: inf
ROOT
ATOM      1  C   UNL     1      29.656  24.889 -17.526  1.00  0.00     0.000 C 
ENDROOT
BRANCH   1   2
ATOM      2  C   UNL     1      30.483  26.111 -17.111  1.00  0.00     0.000 C 
BRANCH   2   3
ATOM      3  C   UNL     1      29.603  27.163 -16.419  1.00  0.00     0.000 C 
BRANCH   3   4
ATOM      4  C   UNL     1      28.124  26.748 -16.355  1.00  0.00     0.006 C 
BRANCH   4   5
ATOM      5  C   UNL     1      27.640  26.504 -14.920  1.00  0.00     0.053 C 
BRANCH   5   6
ATOM      6  C   UNL     1      27.077  25.125 -14.786  1.00  0.00     0.041 C 
ATOM      7  O   UNL     1      25.838  24.931 -14.906  1.00  0.00    -0.550 OA
ATOM      8  O   UNL     1      27.926  24.045 -14.578  1.00  0.00    -0.550 OA
ENDBRANCH   5   6
ENDBRANCH   4   5
ENDBRANCH   3   4
ENDBRANCH   2   3
ENDBRANCH   1   2
BRANCH   1   9
ATOM      9  C   UNL     1      30.428  24.014 -18.523  1.00  0.00     0.000 C 
BRANCH   9  10
ATOM     10  C   UNL     1      29.559  23.537 -19.702  1.00  0.00    -0.000 C 
BRANCH  10  11
ATOM     11  C   UNL     1      28.043  23.530 -19.433  1.00  0.00    -0.000 C 
BRANCH  11  12
ATOM     12  C   UNL     1      27.174  24.086 -20.576  1.00  0.00    -0.000 C 
BRANCH  12  13
ATOM     13  C   UNL     1      25.970  24.921 -20.093  1.00  0.00    -0.003 C 
ATOM     14  C   UNL     1      25.894  25.020 -18.569  1.00  0.00     0.004 C 
ENDBRANCH  12  13
ENDBRANCH  11  12
ENDBRANCH  10  11
ENDBRANCH   9  10
ENDBRANCH   1   9
TORSDOF 10
ENDMDL
MODEL 8
REMARK VINA RESULT:    -3.885      3.156      5.216
REMARK INTER + INTRA:          -6.892
REMARK INTER:                  -5.310
REMARK INTRA:                  -1.581
REMARK UNBOUND:                -0.735
REMARK SMILES CCCCCCCCCCCC(=O)[O-]
REMARK SMILES IDX 7 1 8 2 9 3 10 4 11 5 12 6 13 7 14 8 6 9 5 10 4 11 3 12 2 13
REMARK SMILES IDX 1 14
REMARK H PARENT
REMARK Flexibility Score: inf
ROOT
ATOM      1  C   UNL     1      28.489  23.588 -14.822  1.00  0.00     0.000 C 
ENDROOT
BRANCH   1   2
ATOM      2  C   UNL     1      28.845  22.814 -16.096  1.00  0.00     0.000 C 
BRANCH   2   3
ATOM      3  C   UNL     1      29.743  23.654 -17.017  1.00  0.00     0.000 C 
BRANCH   3   4
ATOM      4  C   UNL     1      28.956  24.341 -18.146  1.00  0.00     0.006 C 
BRANCH   4   5
ATOM      5  C   UNL     1      27.790  23.487 -18.657  1.00  0.00     0.053 C 
BRANCH   5   6
ATOM      6  C   UNL     1      26.729  24.356 -19.256  1.00  0.00     0.041 C 
ATOM      7  O   UNL     1      26.066  25.140 -18.527  1.00  0.00    -0.550 OA
ATOM      8  O   UNL     1      26.508  24.337 -20.627  1.00  0.00    -0.550 OA
ENDBRANCH   5   6
ENDBRANCH   4   5
ENDBRANCH   3   4
ENDBRANCH   2   3
ENDBRANCH   1   2
BRANCH   1   9
ATOM      9  C   UNL     1      26.991  23.925 -14.782  1.00  0.00     0.000 C 
BRANCH   9  10
ATOM     10  C   UNL     1      26.694  25.383 -15.177  1.00  0.00    -0.000 C 
BRANCH  10  11
ATOM     11  C   UNL     1      27.902  26.336 -15.110  1.00  0.00    -0.000 C 
BRANCH  11  12
ATOM     12  C   UNL     1      28.048  27.289 -16.311  1.00  0.00    -0.000 C 
BRANCH  12  13
ATOM     13  C   UNL     1      29.511  27.651 -16.642  1.00  0.00    -0.003 C 
ATOM     14  C   UNL     1      30.506  27.066 -15.640  1.00  0.00     0.004 C 
ENDBRANCH  12  13
ENDBRANCH  11  12
ENDBRANCH  10  11
ENDBRANCH   9  10
ENDBRANCH   1   9
TORSDOF 10
ENDMDL
MODEL 9
REMARK VINA RESULT:    -3.860      3.886      4.863
REMARK INTER + INTRA:          -6.851
REMARK INTER:                  -5.757
REMARK INTRA:                  -1.094
REMARK UNBOUND:                -0.735
REMARK SMILES CCCCCCCCCCCC(=O)[O-]
REMARK SMILES IDX 7 1 8 2 9 3 10 4 11 5 12 6 13 7 14 8 6 9 5 10 4 11 3 12 2 13
REMARK SMILES IDX 1 14
REMARK H PARENT
REMARK Flexibility Score: inf
ROOT
ATOM      1  C   UNL     1      28.620  25.638 -17.112  1.00  0.00     0.000 C 
ENDROOT
BRANCH   1   2
ATOM      2  C   UNL     1      29.270  26.672 -16.185  1.00  0.00     0.000 C 
BRANCH   2   3
ATOM      3  C   UNL     1      29.366  26.138 -14.748  1.00  0.00     0.000 C 
BRANCH   3   4
ATOM      4  C   UNL     1      28.102  26.428 -13.922  1.00  0.00     0.006 C 
BRANCH   4   5
ATOM      5  C   UNL     1      27.545  25.176 -13.235  1.00  0.00     0.053 C 
BRANCH   5   6
ATOM      6  C   UNL     1      26.699  24.391 -14.186  1.00  0.00     0.041 C 
ATOM      7  O   UNL     1      25.530  24.773 -14.460  1.00  0.00    -0.550 OA
ATOM      8  O   UNL     1      27.218  23.264 -14.811  1.00  0.00    -0.550 OA
ENDBRANCH   5   6
ENDBRANCH   4   5
ENDBRANCH   3   4
ENDBRANCH   2   3
ENDBRANCH   1   2
BRANCH   1   9
ATOM      9  C   UNL     1      27.176  26.035 -17.453  1.00  0.00     0.000 C 
BRANCH   9  10
ATOM     10  C   UNL     1      26.360  24.876 -18.052  1.00  0.00    -0.000 C 
BRANCH  10  11
ATOM     11  C   UNL     1      26.091  24.981 -19.564  1.00  0.00    -0.000 C 
BRANCH  11  12
ATOM     12  C   UNL     1      26.971  24.079 -20.449  1.00  0.00    -0.000 C 
BRANCH  12  13
ATOM     13  C   UNL     1      27.911  23.151 -19.650  1.00  0.00    -0.003 C 
ATOM     14  C   UNL     1      29.384  23.365 -19.995  1.00  0.00     0.004 C 
ENDBRANCH  12  13
ENDBRANCH  11  12
ENDBRANCH  10  11
ENDBRANCH   9  10
ENDBRANCH   1   9
TORSDOF 10
ENDMDL
