MODEL 1
REMARK VINA RESULT:    -3.994      0.000      0.000
REMARK INTER + INTRA:          -9.203
REMARK INTER:                  -7.263
REMARK INTRA:                  -1.940
REMARK UNBOUND:                -1.940
REMARK SMILES CCCCCCCCCCCCCCCC(=O)[O-]
REMARK SMILES IDX 9 1 10 2 11 3 12 4 13 5 14 6 15 7 16 8 17 9 18 10 8 11 7 12
REMARK SMILES IDX 6 13 5 14 4 15 3 16 2 17 1 18
REMARK H PARENT
REMARK Flexibility Score: inf
ROOT
ATOM      1  C   UNL     1      29.240   9.284 -13.637  1.00  0.00     0.000 C 
ENDROOT
BRANCH   1   2
ATOM      2  C   UNL     1      30.305   8.624 -12.742  1.00  0.00     0.000 C 
BRANCH   2   3
ATOM      3  C   UNL     1      30.151   8.994 -11.256  1.00  0.00     0.000 C 
BRANCH   3   4
ATOM      4  C   UNL     1      30.122  10.513 -11.027  1.00  0.00     0.000 C 
BRANCH   4   5
ATOM      5  C   UNL     1      28.888  10.972 -10.235  1.00  0.00     0.000 C 
BRANCH   5   6
ATOM      6  C   UNL     1      27.910  11.737 -11.139  1.00  0.00     0.006 C 
BRANCH   6   7
ATOM      7  C   UNL     1      28.378  13.172 -11.418  1.00  0.00     0.053 C 
BRANCH   7   8
ATOM      8  C   UNL     1      27.223  14.102 -11.621  1.00  0.00     0.041 C 
ATOM      9  O   UNL     1      27.396  15.348 -11.576  1.00  0.00    -0.550 OA
ATOM     10  O   UNL     1      25.959  13.593 -11.890  1.00  0.00    -0.550 OA
ENDBRANCH   7   8
ENDBRANCH   6   7
ENDBRANCH   5   6
ENDBRANCH   4   5
ENDBRANCH   3   4
ENDBRANCH   2   3
ENDBRANCH   1   2
BRANCH   1  11
ATOM     11  C   UNL     1      29.774   9.882 -14.952  1.00  0.00     0.000 C 
BRANCH  11  12
ATOM     12  C   UNL     1      30.776  11.028 -14.724  1.00  0.00    -0.000 C 
BRANCH  12  13
ATOM     13  C   UNL     1      30.083  12.373 -14.443  1.00  0.00    -0.000 C 
BRANCH  13  14
ATOM     14  C   UNL     1      28.859  12.603 -15.345  1.00  0.00    -0.000 C 
BRANCH  14  15
ATOM     15  C   UNL     1      29.103  13.672 -16.426  1.00  0.00    -0.000 C 
BRANCH  15  16
ATOM     16  C   UNL     1      29.282  13.129 -17.855  1.00  0.00    -0.000 C 
BRANCH  16  17
ATOM     17  C   UNL     1      30.701  12.606 -18.124  1.00  0.00    -0.003 C 
ATOM     18  C   UNL     1      30.669  11.177 -18.661  1.00  0.00     0.004 C 
ENDBRANCH  16  17
ENDBRANCH  15  16
ENDBRANCH  14  15
ENDBRANCH  13  14
ENDBRANCH  12  13
ENDBRANCH  11  12
ENDBRANCH   1  11
TORSDOF 14
ENDMDL
MODEL 2
REMARK VINA RESULT:    -3.923      1.446      2.728
REMARK INTER + INTRA:          -9.074
REMARK INTER:                  -7.273
REMARK INTRA:                  -1.801
REMARK UNBOUND:                -1.940
REMARK SMILES CCCCCCCCCCCCCCCC(=O)[O-]
REMARK SMILES IDX 9 1 10 2 11 3 12 4 13 5 14 6 15 7 16 8 17 9 18 10 8 11 7 12
REMARK SMILES IDX 6 13 5 14 4 15 3 16 2 17 1 18
REMARK H PARENT
REMARK Flexibility Score: inf
ROOT
ATOM      1  C   UNL     1      29.589   9.899 -15.451  1.00  0.00     0.000 C 
ENDROOT
BRANCH   1   2
ATOM      2  C   UNL     1      29.282  11.088 -14.523  1.00  0.00     0.000 C 
BRANCH   2   3
ATOM      3  C   UNL     1      30.469  11.464 -13.618  1.00  0.00     0.000 C 
BRANCH   3   4
ATOM      4  C   UNL     1      30.043  12.307 -12.406  1.00  0.00     0.000 C 
BRANCH   4   5
ATOM      5  C   UNL     1      29.255  11.495 -11.365  1.00  0.00     0.000 C 
BRANCH   5   6
ATOM      6  C   UNL     1      27.857  12.095 -11.147  1.00  0.00     0.006 C 
BRANCH   6   7
ATOM      7  C   UNL     1      27.613  13.332 -12.022  1.00  0.00     0.053 C 
BRANCH   7   8
ATOM      8  C   UNL     1      26.469  14.154 -11.514  1.00  0.00     0.041 C 
ATOM      9  O   UNL     1      25.913  13.860 -10.424  1.00  0.00    -0.550 OA
ATOM     10  O   UNL     1      26.038  15.263 -12.231  1.00  0.00    -0.550 OA
ENDBRANCH   7   8
ENDBRANCH   6   7
ENDBRANCH   5   6
ENDBRANCH   4   5
ENDBRANCH   3   4
ENDBRANCH   2   3
ENDBRANCH   1   2
BRANCH   1  11
ATOM     11  C   UNL     1      30.782  10.106 -16.403  1.00  0.00     0.000 C 
BRANCH  11  12
ATOM     12  C   UNL     1      30.436   9.793 -17.870  1.00  0.00    -0.000 C 
BRANCH  12  13
ATOM     13  C   UNL     1      30.692  10.985 -18.807  1.00  0.00    -0.000 C 
BRANCH  13  14
ATOM     14  C   UNL     1      30.751  12.324 -18.052  1.00  0.00    -0.000 C 
BRANCH  14  15
ATOM     15  C   UNL     1      29.411  13.083 -18.072  1.00  0.00    -0.000 C 
BRANCH  15  16
ATOM     16  C   UNL     1      29.398  14.408 -17.288  1.00  0.00    -0.000 C 
BRANCH  16  17
ATOM     17  C   UNL     1      30.232  14.350 -16.000  1.00  0.00    -0.003 C 
ATOM     18  C   UNL     1      29.526  15.069 -14.853  1.00  0.00     0.004 C 
ENDBRANCH  16  17
ENDBRANCH  15  16
ENDBRANCH  14  15
ENDBRANCH  13  14
ENDBRANCH  12  13
ENDBRANCH  11  12
ENDBRANCH   1  11
TORSDOF 14
ENDMDL
MODEL 3
REMARK VINA RESULT:    -3.908      1.665      4.265
REMARK INTER + INTRA:          -9.046
REMARK INTER:                  -7.398
REMARK INTRA:                  -1.648
REMARK UNBOUND:                -1.940
REMARK SMILES CCCCCCCCCCCCCCCC(=O)[O-]
REMARK SMILES IDX 9 1 10 2 11 3 12 4 13 5 14 6 15 7 16 8 17 9 18 10 8 11 7 12
REMARK SMILES IDX 6 13 5 14 4 15 3 16 2 17 1 18
REMARK H PARENT
REMARK Flexibility Score: inf
ROOT
ATOM      1  C   UNL     1      28.503  13.253 -17.351  1.00  0.00     0.000 C 
ENDROOT
BRANCH   1   2
ATOM      2  C   UNL     1      28.960  13.174 -15.883  1.00  0.00     0.000 C 
BRANCH   2   3
ATOM      3  C   UNL     1      29.373  14.541 -15.309  1.00  0.00     0.000 C 
BRANCH   3   4
ATOM      4  C   UNL     1      29.244  14.601 -13.779  1.00  0.00     0.000 C 
BRANCH   4   5
ATOM      5  C   UNL     1      28.339  13.494 -13.215  1.00  0.00     0.000 C 
BRANCH   5   6
ATOM      6  C   UNL     1      28.133  13.674 -11.703  1.00  0.00     0.006 C 
BRANCH   6   7
ATOM      7  C   UNL     1      26.802  13.078 -11.223  1.00  0.00     0.053 C 
BRANCH   7   8
ATOM      8  C   UNL     1      25.753  14.133 -11.053  1.00  0.00     0.041 C 
ATOM      9  O   UNL     1      25.223  14.325  -9.928  1.00  0.00    -0.550 OA
ATOM     10  O   UNL     1      25.381  14.924 -12.133  1.00  0.00    -0.550 OA
ENDBRANCH   7   8
ENDBRANCH   6   7
ENDBRANCH   5   6
ENDBRANCH   4   5
ENDBRANCH   3   4
ENDBRANCH   2   3
ENDBRANCH   1   2
BRANCH   1  11
ATOM     11  C   UNL     1      29.635  13.166 -18.392  1.00  0.00     0.000 C 
BRANCH  11  12
ATOM     12  C   UNL     1      30.793  12.258 -17.941  1.00  0.00    -0.000 C 
BRANCH  12  13
ATOM     13  C   UNL     1      30.723  10.855 -18.566  1.00  0.00    -0.000 C 
BRANCH  13  14
ATOM     14  C   UNL     1      30.775   9.737 -17.510  1.00  0.00    -0.000 C 
BRANCH  14  15
ATOM     15  C   UNL     1      29.596   9.794 -16.520  1.00  0.00    -0.000 C 
BRANCH  15  16
ATOM     16  C   UNL     1      29.836   9.081 -15.176  1.00  0.00    -0.000 C 
BRANCH  16  17
ATOM     17  C   UNL     1      29.824  10.041 -13.978  1.00  0.00    -0.003 C 
ATOM     18  C   UNL     1      31.070  10.923 -13.966  1.00  0.00     0.004 C 
ENDBRANCH  16  17
ENDBRANCH  15  16
ENDBRANCH  14  15
ENDBRANCH  13  14
ENDBRANCH  12  13
ENDBRANCH  11  12
ENDBRANCH   1  11
TORSDOF 14
ENDMDL
MODEL 4
REMARK VINA RESULT:    -3.882      1.179      2.089
REMARK INTER + INTRA:          -9.000
REMARK INTER:                  -7.035
REMARK INTRA:                  -1.965
REMARK UNBOUND:                -1.940
REMARK SMILES CCCCCCCCCCCCCCCC(=O)[O-]
REMARK SMILES IDX 9 1 10 2 11 3 12 4 13 5 14 6 15 7 16 8 17 9 18 10 8 11 7 12
REMARK SMILES IDX 6 13 5 14 4 15 3 16 2 17 1 18
REMARK H PARENT
REMARK Flexibility Score: inf
ROOT
ATOM      1  C   UNL     1      29.301   9.304 -13.192  1.00  0.00     0.000 C 
ENDROOT
BRANCH   1   2
ATOM      2  C   UNL     1      29.799   9.088 -11.751  1.00  0.00     0.000 C 
BRANCH   2   3
ATOM      3  C   UNL     1      30.057  10.407 -11.002  1.00  0.00     0.000 C 
BRANCH   3   4
ATOM      4  C   UNL     1      28.845  10.860 -10.172  1.00  0.00     0.000 C 
BRANCH   4   5
ATOM      5  C   UNL     1      27.905  11.793 -10.952  1.00  0.00     0.000 C 
BRANCH   5   6
ATOM      6  C   UNL     1      28.705  12.836 -11.746  1.00  0.00     0.006 C 
BRANCH   6   7
ATOM      7  C   UNL     1      27.869  13.485 -12.858  1.00  0.00     0.053 C 
BRANCH   7   8
ATOM      8  C   UNL     1      27.257  14.776 -12.410  1.00  0.00     0.041 C 
ATOM      9  O   UNL     1      26.156  14.779 -11.800  1.00  0.00    -0.550 OA
ATOM     10  O   UNL     1      27.919  15.976 -12.639  1.00  0.00    -0.550 OA
ENDBRANCH   7   8
ENDBRANCH   6   7
ENDBRANCH   5   6
ENDBRANCH   4   5
ENDBRANCH   3   4
ENDBRANCH   2   3
ENDBRANCH   1   2
BRANCH   1  11
ATOM     11  C   UNL     1      30.387   9.715 -14.204  1.00  0.00     0.000 C 
BRANCH  11  12
ATOM     12  C   UNL     1      30.233  11.168 -14.688  1.00  0.00    -0.000 C 
BRANCH  12  13
ATOM     13  C   UNL     1      29.043  11.350 -15.645  1.00  0.00    -0.000 C 
BRANCH  13  14
ATOM     14  C   UNL     1      29.455  11.997 -16.979  1.00  0.00    -0.000 C 
BRANCH  14  15
ATOM     15  C   UNL     1      28.773  13.356 -17.222  1.00  0.00    -0.000 C 
BRANCH  15  16
ATOM     16  C   UNL     1      29.714  14.574 -17.197  1.00  0.00    -0.000 C 
BRANCH  16  17
ATOM     17  C   UNL     1      29.697  15.318 -15.854  1.00  0.00    -0.003 C 
ATOM     18  C   UNL     1      30.807  14.820 -14.933  1.00  0.00     0.004 C 
ENDBRANCH  16  17
ENDBRANCH  15  16
ENDBRANCH  14  15
ENDBRANCH  13  14
ENDBRANCH  12  13
ENDBRANCH  11  12
ENDBRANCH   1  11
TORSDOF 14
ENDMDL
MODEL 5
REMARK VINA RESULT:    -3.864      2.390      4.427
REMARK INTER + INTRA:          -8.967
REMARK INTER:                  -7.491
REMARK INTRA:                  -1.476
REMARK UNBOUND:                -1.940
REMARK SMILES CCCCCCCCCCCCCCCC(=O)[O-]
REMARK SMILES IDX 9 1 10 2 11 3 12 4 13 5 14 6 15 7 16 8 17 9 18 10 8 11 7 12
REMARK SMILES IDX 6 13 5 14 4 15 3 16 2 17 1 18
REMARK H PARENT
REMARK Flexibility Score: inf
ROOT
ATOM      1  C   UNL     1      26.460  14.144 -12.261  1.00  0.00     0.000 C 
ENDROOT
BRANCH   1   2
ATOM      2  C   UNL     1      26.172  13.572 -10.861  1.00  0.00     0.000 C 
BRANCH   2   3
ATOM      3  C   UNL     1      26.731  12.151 -10.668  1.00  0.00     0.000 C 
BRANCH   3   4
ATOM      4  C   UNL     1      28.229  12.057 -10.997  1.00  0.00     0.000 C 
BRANCH   4   5
ATOM      5  C   UNL     1      28.878  10.774 -10.454  1.00  0.00     0.000 C 
BRANCH   5   6
ATOM      6  C   UNL     1      30.044  10.329 -11.350  1.00  0.00     0.006 C 
BRANCH   6   7
ATOM      7  C   UNL     1      29.916   8.862 -11.784  1.00  0.00     0.053 C 
BRANCH   7   8
ATOM      8  C   UNL     1      29.178   8.730 -13.081  1.00  0.00     0.041 C 
ATOM      9  O   UNL     1      29.236   9.648 -13.940  1.00  0.00    -0.550 OA
ATOM     10  O   UNL     1      28.451   7.578 -13.353  1.00  0.00    -0.550 OA
ENDBRANCH   7   8
ENDBRANCH   6   7
ENDBRANCH   5   6
ENDBRANCH   4   5
ENDBRANCH   3   4
ENDBRANCH   2   3
ENDBRANCH   1   2
BRANCH   1  11
ATOM     11  C   UNL     1      27.452  15.322 -12.293  1.00  0.00     0.000 C 
BRANCH  11  12
ATOM     12  C   UNL     1      28.555  15.145 -13.352  1.00  0.00    -0.000 C 
BRANCH  12  13
ATOM     13  C   UNL     1      28.534  13.751 -14.002  1.00  0.00    -0.000 C 
BRANCH  13  14
ATOM     14  C   UNL     1      29.943  13.153 -14.155  1.00  0.00    -0.000 C 
BRANCH  14  15
ATOM     15  C   UNL     1      30.309  12.848 -15.619  1.00  0.00    -0.000 C 
BRANCH  15  16
ATOM     16  C   UNL     1      29.123  12.466 -16.524  1.00  0.00    -0.000 C 
BRANCH  16  17
ATOM     17  C   UNL     1      28.948  13.416 -17.717  1.00  0.00    -0.003 C 
ATOM     18  C   UNL     1      29.572  14.780 -17.432  1.00  0.00     0.004 C 
ENDBRANCH  16  17
ENDBRANCH  15  16
ENDBRANCH  14  15
ENDBRANCH  13  14
ENDBRANCH  12  13
ENDBRANCH  11  12
ENDBRANCH   1  11
TORSDOF 14
ENDMDL
MODEL 6
REMARK VINA RESULT:    -3.835      1.221      4.823
REMARK INTER + INTRA:          -8.914
REMARK INTER:                  -6.795
REMARK INTRA:                  -2.118
REMARK UNBOUND:                -1.940
REMARK SMILES CCCCCCCCCCCCCCCC(=O)[O-]
REMARK SMILES IDX 9 1 10 2 11 3 12 4 13 5 14 6 15 7 16 8 17 9 18 10 8 11 7 12
REMARK SMILES IDX 6 13 5 14 4 15 3 16 2 17 1 18
REMARK H PARENT
REMARK Flexibility Score: inf
ROOT
ATOM      1  C   UNL     1      29.295  13.344 -17.677  1.00  0.00     0.000 C 
ENDROOT
BRANCH   1   2
ATOM      2  C   UNL     1      29.678  14.775 -17.256  1.00  0.00     0.000 C 
BRANCH   2   3
ATOM      3  C   UNL     1      29.599  14.994 -15.735  1.00  0.00     0.000 C 
BRANCH   3   4
ATOM      4  C   UNL     1      30.659  14.187 -14.969  1.00  0.00     0.000 C 
BRANCH   4   5
ATOM      5  C   UNL     1      30.048  13.281 -13.887  1.00  0.00     0.000 C 
BRANCH   5   6
ATOM      6  C   UNL     1      28.514  13.286 -13.971  1.00  0.00     0.006 C 
BRANCH   6   7
ATOM      7  C   UNL     1      27.857  13.386 -12.588  1.00  0.00     0.053 C 
BRANCH   7   8
ATOM      8  C   UNL     1      27.172  14.704 -12.395  1.00  0.00     0.041 C 
ATOM      9  O   UNL     1      27.742  15.772 -12.739  1.00  0.00    -0.550 OA
ATOM     10  O   UNL     1      25.890  14.749 -11.861  1.00  0.00    -0.550 OA
ENDBRANCH   7   8
ENDBRANCH   6   7
ENDBRANCH   5   6
ENDBRANCH   4   5
ENDBRANCH   3   4
ENDBRANCH   2   3
ENDBRANCH   1   2
BRANCH   1  11
ATOM     11  C   UNL     1      30.416  12.546 -18.369  1.00  0.00     0.000 C 
BRANCH  11  12
ATOM     12  C   UNL     1      30.391  11.049 -18.010  1.00  0.00    -0.000 C 
BRANCH  12  13
ATOM     13  C   UNL     1      30.559  10.798 -16.502  1.00  0.00    -0.000 C 
BRANCH  13  14
ATOM     14  C   UNL     1      29.301  10.183 -15.865  1.00  0.00    -0.000 C 
BRANCH  14  15
ATOM     15  C   UNL     1      29.628   9.163 -14.759  1.00  0.00    -0.000 C 
BRANCH  15  16
ATOM     16  C   UNL     1      30.155   9.768 -13.445  1.00  0.00    -0.000 C 
BRANCH  16  17
ATOM     17  C   UNL     1      29.309   9.379 -12.224  1.00  0.00    -0.003 C 
ATOM     18  C   UNL     1      29.530  10.352 -11.068  1.00  0.00     0.004 C 
ENDBRANCH  16  17
ENDBRANCH  15  16
ENDBRANCH  14  15
ENDBRANCH  13  14
ENDBRANCH  12  13
ENDBRANCH  11  12
ENDBRANCH   1  11
TORSDOF 14
ENDMDL
MODEL 7
REMARK VINA RESULT:    -3.821     16.789     18.109
REMARK INTER + INTRA:          -8.888
REMARK INTER:                  -7.033
REMARK INTRA:                  -1.856
REMARK UNBOUND:                -1.940
REMARK SMILES CCCCCCCCCCCCCCCC(=O)[O-]
REMARK SMILES IDX 9 1 10 2 11 3 12 4 13 5 14 6 15 7 16 8 17 9 18 10 8 11 7 12
REMARK SMILES IDX 6 13 5 14 4 15 3 16 2 17 1 18
REMARK H PARENT
REMARK Flexibility Score: inf
ROOT
ATOM      1  C   UNL     1      18.928  -0.319 -13.992  1.00  0.00     0.000 C 
ENDROOT
BRANCH   1   2
ATOM      2  C   UNL     1      18.185  -1.551 -13.443  1.00  0.00     0.000 C 
BRANCH   2   3
ATOM      3  C   UNL     1      17.858  -1.435 -11.944  1.00  0.00     0.000 C 
BRANCH   3   4
ATOM      4  C   UNL     1      16.346  -1.451 -11.669  1.00  0.00     0.000 C 
BRANCH   4   5
ATOM      5  C   UNL     1      15.778  -0.051 -11.387  1.00  0.00     0.000 C 
BRANCH   5   6
ATOM      6  C   UNL     1      14.327   0.060 -11.878  1.00  0.00     0.006 C 
BRANCH   6   7
ATOM      7  C   UNL     1      13.995  -0.987 -12.951  1.00  0.00     0.053 C 
BRANCH   7   8
ATOM      8  C   UNL     1      12.601  -0.823 -13.472  1.00  0.00     0.041 C 
ATOM      9  O   UNL     1      12.308  -1.213 -14.633  1.00  0.00    -0.550 OA
ATOM     10  O   UNL     1      11.616  -0.269 -12.664  1.00  0.00    -0.550 OA
ENDBRANCH   7   8
ENDBRANCH   6   7
ENDBRANCH   5   6
ENDBRANCH   4   5
ENDBRANCH   3   4
ENDBRANCH   2   3
ENDBRANCH   1   2
BRANCH   1  11
ATOM     11  C   UNL     1      18.159   0.487 -15.054  1.00  0.00     0.000 C 
BRANCH  11  12
ATOM     12  C   UNL     1      16.633   0.427 -14.860  1.00  0.00    -0.000 C 
BRANCH  12  13
ATOM     13  C   UNL     1      15.909  -0.226 -16.049  1.00  0.00    -0.000 C 
BRANCH  13  14
ATOM     14  C   UNL     1      16.777  -0.259 -17.319  1.00  0.00    -0.000 C 
BRANCH  14  15
ATOM     15  C   UNL     1      16.335   0.772 -18.374  1.00  0.00    -0.000 C 
BRANCH  15  16
ATOM     16  C   UNL     1      16.784   2.219 -18.103  1.00  0.00    -0.000 C 
BRANCH  16  17
ATOM     17  C   UNL     1      15.629   3.135 -17.673  1.00  0.00    -0.003 C 
ATOM     18  C   UNL     1      14.278   2.469 -17.915  1.00  0.00     0.004 C 
ENDBRANCH  16  17
ENDBRANCH  15  16
ENDBRANCH  14  15
ENDBRANCH  13  14
ENDBRANCH  12  13
ENDBRANCH  11  12
ENDBRANCH   1  11
TORSDOF 14
ENDMDL
MODEL 8
REMARK VINA RESULT:    -3.779      1.511      2.524
REMARK INTER + INTRA:          -8.811
REMARK INTER:                  -7.036
REMARK INTRA:                  -1.775
REMARK UNBOUND:                -1.940
REMARK SMILES CCCCCCCCCCCCCCCC(=O)[O-]
REMARK SMILES IDX 9 1 10 2 11 3 12 4 13 5 14 6 15 7 16 8 17 9 18 10 8 11 7 12
REMARK SMILES IDX 6 13 5 14 4 15 3 16 2 17 1 18
REMARK H PARENT
REMARK Flexibility Score: inf
ROOT
ATOM      1  C   UNL     1      30.923   9.220 -11.633  1.00  0.00     0.000 C 
ENDROOT
BRANCH   1   2
ATOM      2  C   UNL     1      30.366   9.312 -10.201  1.00  0.00     0.000 C 
BRANCH   2   3
ATOM      3  C   UNL     1      29.781  10.697  -9.874  1.00  0.00     0.000 C 
BRANCH   3   4
ATOM      4  C   UNL     1      30.265  11.785 -10.845  1.00  0.00     0.000 C 
BRANCH   4   5
ATOM      5  C   UNL     1      29.184  12.835 -11.148  1.00  0.00     0.000 C 
BRANCH   5   6
ATOM      6  C   UNL     1      27.913  12.169 -11.698  1.00  0.00     0.006 C 
BRANCH   6   7
ATOM      7  C   UNL     1      26.711  12.349 -10.761  1.00  0.00     0.053 C 
BRANCH   7   8
ATOM      8  C   UNL     1      25.967  13.615 -11.052  1.00  0.00     0.041 C 
ATOM      9  O   UNL     1      25.822  14.008 -12.239  1.00  0.00    -0.550 OA
ATOM     10  O   UNL     1      25.406  14.347 -10.012  1.00  0.00    -0.550 OA
ENDBRANCH   7   8
ENDBRANCH   6   7
ENDBRANCH   5   6
ENDBRANCH   4   5
ENDBRANCH   3   4
ENDBRANCH   2   3
ENDBRANCH   1   2
BRANCH   1  11
ATOM     11  C   UNL     1      30.078   8.381 -12.609  1.00  0.00     0.000 C 
BRANCH  11  12
ATOM     12  C   UNL     1      29.255   9.245 -13.581  1.00  0.00    -0.000 C 
BRANCH  12  13
ATOM     13  C   UNL     1      30.070  10.403 -14.180  1.00  0.00    -0.000 C 
BRANCH  13  14
ATOM     14  C   UNL     1      29.688  10.696 -15.642  1.00  0.00    -0.000 C 
BRANCH  14  15
ATOM     15  C   UNL     1      28.647  11.823 -15.775  1.00  0.00    -0.000 C 
BRANCH  15  16
ATOM     16  C   UNL     1      28.989  13.122 -15.023  1.00  0.00    -0.000 C 
BRANCH  16  17
ATOM     17  C   UNL     1      29.609  14.195 -15.931  1.00  0.00    -0.003 C 
ATOM     18  C   UNL     1      30.122  15.378 -15.115  1.00  0.00     0.004 C 
ENDBRANCH  16  17
ENDBRANCH  15  16
ENDBRANCH  14  15
ENDBRANCH  13  14
ENDBRANCH  12  13
ENDBRANCH  11  12
ENDBRANCH   1  11
TORSDOF 14
ENDMDL
MODEL 9
REMARK VINA RESULT:    -3.715      2.598      5.924
REMARK INTER + INTRA:          -8.695
REMARK INTER:                  -7.271
REMARK INTRA:                  -1.424
REMARK UNBOUND:                -1.940
REMARK SMILES CCCCCCCCCCCCCCCC(=O)[O-]
REMARK SMILES IDX 9 1 10 2 11 3 12 4 13 5 14 6 15 7 16 8 17 9 18 10 8 11 7 12
REMARK SMILES IDX 6 13 5 14 4 15 3 16 2 17 1 18
REMARK H PARENT
REMARK Flexibility Score: inf
ROOT
ATOM      1  C   UNL     1      30.759  12.400 -18.118  1.00  0.00     0.000 C 
ENDROOT
BRANCH   1   2
ATOM      2  C   UNL     1      29.452  13.201 -18.259  1.00  0.00     0.000 C 
BRANCH   2   3
ATOM      3  C   UNL     1      28.643  13.263 -16.951  1.00  0.00     0.000 C 
BRANCH   3   4
ATOM      4  C   UNL     1      29.542  13.332 -15.706  1.00  0.00     0.000 C 
BRANCH   4   5
ATOM      5  C   UNL     1      29.401  14.659 -14.945  1.00  0.00     0.000 C 
BRANCH   5   6
ATOM      6  C   UNL     1      30.663  15.520 -15.108  1.00  0.00     0.006 C 
BRANCH   6   7
ATOM      7  C   UNL     1      30.719  16.215 -16.475  1.00  0.00     0.053 C 
BRANCH   7   8
ATOM      8  C   UNL     1      29.930  17.487 -16.484  1.00  0.00     0.041 C 
ATOM      9  O   UNL     1      29.516  17.970 -17.570  1.00  0.00    -0.550 OA
ATOM     10  O   UNL     1      29.624  18.124 -15.287  1.00  0.00    -0.550 OA
ENDBRANCH   7   8
ENDBRANCH   6   7
ENDBRANCH   5   6
ENDBRANCH   4   5
ENDBRANCH   3   4
ENDBRANCH   2   3
ENDBRANCH   1   2
BRANCH   1  11
ATOM     11  C   UNL     1      30.743  11.005 -18.771  1.00  0.00     0.000 C 
BRANCH  11  12
ATOM     12  C   UNL     1      30.979   9.870 -17.758  1.00  0.00    -0.000 C 
BRANCH  12  13
ATOM     13  C   UNL     1      29.805   9.696 -16.779  1.00  0.00    -0.000 C 
BRANCH  13  14
ATOM     14  C   UNL     1      30.246   9.092 -15.435  1.00  0.00    -0.000 C 
BRANCH  14  15
ATOM     15  C   UNL     1      29.807   9.938 -14.225  1.00  0.00    -0.000 C 
BRANCH  15  16
ATOM     16  C   UNL     1      29.239   9.138 -13.039  1.00  0.00    -0.000 C 
BRANCH  16  17
ATOM     17  C   UNL     1      29.470   9.825 -11.686  1.00  0.00    -0.003 C 
ATOM     18  C   UNL     1      28.908  11.244 -11.685  1.00  0.00     0.004 C 
ENDBRANCH  16  17
ENDBRANCH  15  16
ENDBRANCH  14  15
ENDBRANCH  13  14
ENDBRANCH  12  13
ENDBRANCH  11  12
ENDBRANCH   1  11
TORSDOF 14
ENDMDL
