MODEL 1
REMARK VINA RESULT:    -7.705      0.000      0.000
REMARK INTER + INTRA:          -8.156
REMARK INTER:                  -8.156
REMARK INTRA:                   0.000
REMARK UNBOUND:                 0.000
REMARK SMILES O=c1ccc2cc(O)c(O)cc2o1
REMARK SMILES IDX 4 1 3 2 2 3 1 4 13 5 12 6 11 7 9 8 7 9 6 10 5 11 8 12 10 14
REMARK H PARENT 8 13 10 15
REMARK Flexibility Score: inf
ROOT
ATOM      1  C   UNL     1      34.040  24.913  16.996  1.00  0.00     0.019 A 
ATOM      2  C   UNL     1      33.566  25.433  15.793  1.00  0.00     0.094 A 
ATOM      3  C   UNL     1      33.026  26.724  15.778  1.00  0.00     0.336 A 
ATOM      4  O   UNL     1      32.592  27.212  14.702  1.00  0.00    -0.246 OA
ATOM      5  O   UNL     1      32.969  27.442  16.898  1.00  0.00    -0.423 OA
ATOM      6  C   UNL     1      33.412  26.983  18.066  1.00  0.00     0.142 A 
ATOM      7  C   UNL     1      33.325  27.782  19.208  1.00  0.00     0.098 A 
ATOM      8  C   UNL     1      33.787  27.313  20.446  1.00  0.00     0.161 A 
ATOM      9  C   UNL     1      34.345  26.014  20.537  1.00  0.00     0.158 A 
ATOM     10  C   UNL     1      34.430  25.214  19.389  1.00  0.00     0.062 A 
ATOM     11  C   UNL     1      33.967  25.690  18.156  1.00  0.00     0.022 A 
ENDROOT
BRANCH   9  12
ATOM     12  O   UNL     1      34.824  25.482  21.736  1.00  0.00    -0.504 OA
ATOM     13  H   UNL     1      35.784  25.207  21.889  1.00  0.00     0.293 HD
ENDBRANCH   9  12
BRANCH   8  14
ATOM     14  O   UNL     1      33.671  28.162  21.547  1.00  0.00    -0.504 OA
ATOM     15  H   UNL     1      33.605  29.168  21.481  1.00  0.00     0.293 HD
ENDBRANCH   8  14
TORSDOF 2
ENDMDL
MODEL 2
REMARK VINA RESULT:    -7.158      1.276      4.604
REMARK INTER + INTRA:          -7.577
REMARK INTER:                  -7.577
REMARK INTRA:                   0.000
REMARK UNBOUND:                 0.000
REMARK SMILES O=c1ccc2cc(O)c(O)cc2o1
REMARK SMILES IDX 4 1 3 2 2 3 1 4 13 5 12 6 11 7 9 8 7 9 6 10 5 11 8 12 10 14
REMARK H PARENT 8 13 10 15
REMARK Flexibility Score: inf
ROOT
ATOM      1  C   UNL     1      34.818  25.246  20.876  1.00  0.00     0.019 A 
ATOM      2  C   UNL     1      34.711  25.984  22.053  1.00  0.00     0.094 A 
ATOM      3  C   UNL     1      34.094  27.240  22.013  1.00  0.00     0.336 A 
ATOM      4  O   UNL     1      33.987  27.923  23.065  1.00  0.00    -0.246 OA
ATOM      5  O   UNL     1      33.618  27.719  20.866  1.00  0.00    -0.423 OA
ATOM      6  C   UNL     1      33.700  27.046  19.720  1.00  0.00     0.142 A 
ATOM      7  C   UNL     1      33.182  27.600  18.547  1.00  0.00     0.098 A 
ATOM      8  C   UNL     1      33.261  26.904  17.333  1.00  0.00     0.161 A 
ATOM      9  C   UNL     1      33.872  25.626  17.298  1.00  0.00     0.158 A 
ATOM     10  C   UNL     1      34.391  25.073  18.476  1.00  0.00     0.062 A 
ATOM     11  C   UNL     1      34.309  25.775  19.686  1.00  0.00     0.022 A 
ENDROOT
BRANCH   9  12
ATOM     12  O   UNL     1      33.985  24.877  16.124  1.00  0.00    -0.504 OA
ATOM     13  H   UNL     1      34.309  25.252  15.244  1.00  0.00     0.293 HD
ENDBRANCH   9  12
BRANCH   8  14
ATOM     14  O   UNL     1      32.723  27.513  16.198  1.00  0.00    -0.504 OA
ATOM     15  H   UNL     1      32.230  28.394  16.210  1.00  0.00     0.293 HD
ENDBRANCH   8  14
TORSDOF 2
ENDMDL
MODEL 3
REMARK VINA RESULT:    -7.117      1.647      4.806
REMARK INTER + INTRA:          -7.533
REMARK INTER:                  -7.533
REMARK INTRA:                   0.000
REMARK UNBOUND:                 0.000
REMARK SMILES O=c1ccc2cc(O)c(O)cc2o1
REMARK SMILES IDX 4 1 3 2 2 3 1 4 13 5 12 6 11 7 9 8 7 9 6 10 5 11 8 12 10 14
REMARK H PARENT 8 13 10 15
REMARK Flexibility Score: inf
ROOT
ATOM      1  C   UNL     1      33.714  27.155  19.946  1.00  0.00     0.019 A 
ATOM      2  C   UNL     1      34.269  26.022  20.539  1.00  0.00     0.094 A 
ATOM      3  C   UNL     1      34.560  24.912  19.739  1.00  0.00     0.336 A 
ATOM      4  O   UNL     1      35.061  23.878  20.255  1.00  0.00    -0.246 OA
ATOM      5  O   UNL     1      34.310  24.940  18.432  1.00  0.00    -0.423 OA
ATOM      6  C   UNL     1      33.783  26.001  17.827  1.00  0.00     0.142 A 
ATOM      7  C   UNL     1      33.542  25.974  16.451  1.00  0.00     0.098 A 
ATOM      8  C   UNL     1      32.987  27.083  15.800  1.00  0.00     0.161 A 
ATOM      9  C   UNL     1      32.666  28.244  16.547  1.00  0.00     0.158 A 
ATOM     10  C   UNL     1      32.907  28.269  17.927  1.00  0.00     0.062 A 
ATOM     11  C   UNL     1      33.463  27.156  18.570  1.00  0.00     0.022 A 
ENDROOT
BRANCH   9  12
ATOM     12  O   UNL     1      32.110  29.385  15.963  1.00  0.00    -0.504 OA
ATOM     13  H   UNL     1      32.570  29.938  15.255  1.00  0.00     0.293 HD
ENDBRANCH   9  12
BRANCH   8  14
ATOM     14  O   UNL     1      32.773  26.990  14.424  1.00  0.00    -0.504 OA
ATOM     15  H   UNL     1      31.865  27.054  13.987  1.00  0.00     0.293 HD
ENDBRANCH   8  14
TORSDOF 2
ENDMDL
MODEL 4
REMARK VINA RESULT:    -7.039      1.372      5.184
REMARK INTER + INTRA:          -7.450
REMARK INTER:                  -7.450
REMARK INTRA:                   0.000
REMARK UNBOUND:                 0.000
REMARK SMILES O=c1ccc2cc(O)c(O)cc2o1
REMARK SMILES IDX 4 1 3 2 2 3 1 4 13 5 12 6 11 7 9 8 7 9 6 10 5 11 8 12 10 14
REMARK H PARENT 8 13 10 15
REMARK Flexibility Score: inf
ROOT
ATOM      1  C   UNL     1      33.665  27.991  20.889  1.00  0.00     0.019 A 
ATOM      2  C   UNL     1      34.132  27.592  22.140  1.00  0.00     0.094 A 
ATOM      3  C   UNL     1      34.676  26.311  22.284  1.00  0.00     0.336 A 
ATOM      4  O   UNL     1      35.103  25.931  23.406  1.00  0.00    -0.246 OA
ATOM      5  O   UNL     1      34.745  25.488  21.241  1.00  0.00    -0.423 OA
ATOM      6  C   UNL     1      34.312  25.830  20.030  1.00  0.00     0.142 A 
ATOM      7  C   UNL     1      34.411  24.924  18.971  1.00  0.00     0.098 A 
ATOM      8  C   UNL     1      33.959  25.270  17.690  1.00  0.00     0.161 A 
ATOM      9  C   UNL     1      33.396  26.551  17.469  1.00  0.00     0.158 A 
ATOM     10  C   UNL     1      33.297  27.457  18.533  1.00  0.00     0.062 A 
ATOM     11  C   UNL     1      33.751  27.105  19.810  1.00  0.00     0.022 A 
ENDROOT
BRANCH   9  12
ATOM     12  O   UNL     1      32.925  26.962  16.220  1.00  0.00    -0.504 OA
ATOM     13  H   UNL     1      33.517  27.311  15.481  1.00  0.00     0.293 HD
ENDBRANCH   9  12
BRANCH   8  14
ATOM     14  O   UNL     1      34.088  24.318  16.677  1.00  0.00    -0.504 OA
ATOM     15  H   UNL     1      33.348  23.694  16.390  1.00  0.00     0.293 HD
ENDBRANCH   8  14
TORSDOF 2
ENDMDL
MODEL 5
REMARK VINA RESULT:    -7.024      1.148      4.503
REMARK INTER + INTRA:          -7.435
REMARK INTER:                  -7.435
REMARK INTRA:                   0.000
REMARK UNBOUND:                 0.000
REMARK SMILES O=c1ccc2cc(O)c(O)cc2o1
REMARK SMILES IDX 4 1 3 2 2 3 1 4 13 5 12 6 11 7 9 8 7 9 6 10 5 11 8 12 10 14
REMARK H PARENT 8 13 10 15
REMARK Flexibility Score: inf
ROOT
ATOM      1  C   UNL     1      34.636  24.975  19.708  1.00  0.00     0.019 A 
ATOM      2  C   UNL     1      34.803  25.398  21.025  1.00  0.00     0.094 A 
ATOM      3  C   UNL     1      34.379  26.683  21.384  1.00  0.00     0.336 A 
ATOM      4  O   UNL     1      34.521  27.084  22.569  1.00  0.00    -0.246 OA
ATOM      5  O   UNL     1      33.826  27.486  20.479  1.00  0.00    -0.423 OA
ATOM      6  C   UNL     1      33.648  27.120  19.211  1.00  0.00     0.142 A 
ATOM      7  C   UNL     1      33.061  28.006  18.304  1.00  0.00     0.098 A 
ATOM      8  C   UNL     1      32.868  27.636  16.967  1.00  0.00     0.161 A 
ATOM      9  C   UNL     1      33.273  26.350  16.531  1.00  0.00     0.158 A 
ATOM     10  C   UNL     1      33.862  25.464  17.443  1.00  0.00     0.062 A 
ATOM     11  C   UNL     1      34.052  25.841  18.778  1.00  0.00     0.022 A 
ENDROOT
BRANCH   9  12
ATOM     12  O   UNL     1      33.111  25.915  15.214  1.00  0.00    -0.504 OA
ATOM     13  H   UNL     1      32.743  25.010  14.959  1.00  0.00     0.293 HD
ENDBRANCH   9  12
BRANCH   8  14
ATOM     14  O   UNL     1      32.275  28.569  16.113  1.00  0.00    -0.504 OA
ATOM     15  H   UNL     1      32.784  29.120  15.438  1.00  0.00     0.293 HD
ENDBRANCH   8  14
TORSDOF 2
ENDMDL
MODEL 6
REMARK VINA RESULT:    -7.015      1.356      2.025
REMARK INTER + INTRA:          -7.425
REMARK INTER:                  -7.425
REMARK INTRA:                   0.000
REMARK UNBOUND:                 0.000
REMARK SMILES O=c1ccc2cc(O)c(O)cc2o1
REMARK SMILES IDX 4 1 3 2 2 3 1 4 13 5 12 6 11 7 9 8 7 9 6 10 5 11 8 12 10 14
REMARK H PARENT 8 13 10 15
REMARK Flexibility Score: inf
ROOT
ATOM      1  C   UNL     1      34.412  25.110  18.947  1.00  0.00     0.019 A 
ATOM      2  C   UNL     1      33.926  25.649  17.757  1.00  0.00     0.094 A 
ATOM      3  C   UNL     1      33.363  26.930  17.773  1.00  0.00     0.336 A 
ATOM      4  O   UNL     1      32.918  27.435  16.709  1.00  0.00    -0.246 OA
ATOM      5  O   UNL     1      33.294  27.621  18.909  1.00  0.00    -0.423 OA
ATOM      6  C   UNL     1      33.747  27.143  20.066  1.00  0.00     0.142 A 
ATOM      7  C   UNL     1      33.648  27.914  21.227  1.00  0.00     0.098 A 
ATOM      8  C   UNL     1      34.120  27.425  22.452  1.00  0.00     0.161 A 
ATOM      9  C   UNL     1      34.703  26.135  22.512  1.00  0.00     0.158 A 
ATOM     10  C   UNL     1      34.801  25.363  21.346  1.00  0.00     0.062 A 
ATOM     11  C   UNL     1      34.326  25.859  20.125  1.00  0.00     0.022 A 
ENDROOT
BRANCH   9  12
ATOM     12  O   UNL     1      35.194  25.584  23.698  1.00  0.00    -0.504 OA
ATOM     13  H   UNL     1      35.823  26.065  24.326  1.00  0.00     0.293 HD
ENDBRANCH   9  12
BRANCH   8  14
ATOM     14  O   UNL     1      33.992  28.246  23.573  1.00  0.00    -0.504 OA
ATOM     15  H   UNL     1      33.145  28.738  23.820  1.00  0.00     0.293 HD
ENDBRANCH   8  14
TORSDOF 2
ENDMDL
MODEL 7
REMARK VINA RESULT:    -6.901      1.122      2.355
REMARK INTER + INTRA:          -7.304
REMARK INTER:                  -7.304
REMARK INTRA:                   0.000
REMARK UNBOUND:                 0.000
REMARK SMILES O=c1ccc2cc(O)c(O)cc2o1
REMARK SMILES IDX 4 1 3 2 2 3 1 4 13 5 12 6 11 7 9 8 7 9 6 10 5 11 8 12 10 14
REMARK H PARENT 8 13 10 15
REMARK Flexibility Score: inf
ROOT
ATOM      1  C   UNL     1      32.699  28.610  17.737  1.00  0.00     0.019 A 
ATOM      2  C   UNL     1      32.522  28.463  16.363  1.00  0.00     0.094 A 
ATOM      3  C   UNL     1      32.917  27.268  15.751  1.00  0.00     0.336 A 
ATOM      4  O   UNL     1      32.766  27.116  14.511  1.00  0.00    -0.246 OA
ATOM      5  O   UNL     1      33.455  26.289  16.474  1.00  0.00    -0.423 OA
ATOM      6  C   UNL     1      33.640  26.388  17.788  1.00  0.00     0.142 A 
ATOM      7  C   UNL     1      34.210  25.326  18.496  1.00  0.00     0.098 A 
ATOM      8  C   UNL     1      34.412  25.416  19.879  1.00  0.00     0.161 A 
ATOM      9  C   UNL     1      34.036  26.596  20.566  1.00  0.00     0.158 A 
ATOM     10  C   UNL     1      33.466  27.660  19.854  1.00  0.00     0.062 A 
ATOM     11  C   UNL     1      33.266  27.563  18.471  1.00  0.00     0.022 A 
ENDROOT
BRANCH   9  12
ATOM     12  O   UNL     1      34.208  26.754  21.943  1.00  0.00    -0.504 OA
ATOM     13  H   UNL     1      33.608  26.336  22.639  1.00  0.00     0.293 HD
ENDBRANCH   9  12
BRANCH   8  14
ATOM     14  O   UNL     1      34.984  24.318  20.525  1.00  0.00    -0.504 OA
ATOM     15  H   UNL     1      35.979  24.185  20.639  1.00  0.00     0.293 HD
ENDBRANCH   8  14
TORSDOF 2
ENDMDL
MODEL 8
REMARK VINA RESULT:    -6.897      1.316      1.700
REMARK INTER + INTRA:          -7.300
REMARK INTER:                  -7.300
REMARK INTRA:                   0.000
REMARK UNBOUND:                 0.000
REMARK SMILES O=c1ccc2cc(O)c(O)cc2o1
REMARK SMILES IDX 4 1 3 2 2 3 1 4 13 5 12 6 11 7 9 8 7 9 6 10 5 11 8 12 10 14
REMARK H PARENT 8 13 10 15
REMARK Flexibility Score: inf
ROOT
ATOM      1  C   UNL     1      33.262  26.398  16.226  1.00  0.00     0.019 A 
ATOM      2  C   UNL     1      32.728  27.558  15.665  1.00  0.00     0.094 A 
ATOM      3  C   UNL     1      32.486  28.661  16.491  1.00  0.00     0.336 A 
ATOM      4  O   UNL     1      32.005  29.718  16.005  1.00  0.00    -0.246 OA
ATOM      5  O   UNL     1      32.762  28.601  17.792  1.00  0.00    -0.423 OA
ATOM      6  C   UNL     1      33.272  27.514  18.366  1.00  0.00     0.142 A 
ATOM      7  C   UNL     1      33.542  27.509  19.737  1.00  0.00     0.098 A 
ATOM      8  C   UNL     1      34.079  26.372  20.356  1.00  0.00     0.161 A 
ATOM      9  C   UNL     1      34.350  25.217  19.582  1.00  0.00     0.158 A 
ATOM     10  C   UNL     1      34.078  25.224  18.207  1.00  0.00     0.062 A 
ATOM     11  C   UNL     1      33.542  26.364  17.596  1.00  0.00     0.022 A 
ENDROOT
BRANCH   9  12
ATOM     12  O   UNL     1      34.885  24.050  20.132  1.00  0.00    -0.504 OA
ATOM     13  H   UNL     1      34.922  23.164  19.650  1.00  0.00     0.293 HD
ENDBRANCH   9  12
BRANCH   8  14
ATOM     14  O   UNL     1      34.325  26.434  21.728  1.00  0.00    -0.504 OA
ATOM     15  H   UNL     1      34.398  27.295  22.251  1.00  0.00     0.293 HD
ENDBRANCH   8  14
TORSDOF 2
ENDMDL
MODEL 9
REMARK VINA RESULT:    -6.867      2.226      3.047
REMARK INTER + INTRA:          -7.268
REMARK INTER:                  -7.268
REMARK INTRA:                   0.000
REMARK UNBOUND:                 0.000
REMARK SMILES O=c1ccc2cc(O)c(O)cc2o1
REMARK SMILES IDX 4 1 3 2 2 3 1 4 13 5 12 6 11 7 9 8 7 9 6 10 5 11 8 12 10 14
REMARK H PARENT 8 13 10 15
REMARK Flexibility Score: inf
ROOT
ATOM      1  C   UNL     1      32.875  26.271  18.157  1.00  0.00     0.019 A 
ATOM      2  C   UNL     1      32.900  25.063  17.461  1.00  0.00     0.094 A 
ATOM      3  C   UNL     1      33.660  24.004  17.970  1.00  0.00     0.336 A 
ATOM      4  O   UNL     1      33.696  22.905  17.356  1.00  0.00    -0.246 OA
ATOM      5  O   UNL     1      34.348  24.150  19.099  1.00  0.00    -0.423 OA
ATOM      6  C   UNL     1      34.350  25.286  19.794  1.00  0.00     0.142 A 
ATOM      7  C   UNL     1      35.091  25.381  20.974  1.00  0.00     0.098 A 
ATOM      8  C   UNL     1      35.104  26.570  21.716  1.00  0.00     0.161 A 
ATOM      9  C   UNL     1      34.357  27.686  21.262  1.00  0.00     0.158 A 
ATOM     10  C   UNL     1      33.616  27.587  20.078  1.00  0.00     0.062 A 
ATOM     11  C   UNL     1      33.608  26.396  19.342  1.00  0.00     0.022 A 
ENDROOT
BRANCH   9  12
ATOM     12  O   UNL     1      34.325  28.901  21.951  1.00  0.00    -0.504 OA
ATOM     13  H   UNL     1      33.896  29.025  22.856  1.00  0.00     0.293 HD
ENDBRANCH   9  12
BRANCH   8  14
ATOM     14  O   UNL     1      35.864  26.598  22.886  1.00  0.00    -0.504 OA
ATOM     15  H   UNL     1      35.848  25.873  23.589  1.00  0.00     0.293 HD
ENDBRANCH   8  14
TORSDOF 2
ENDMDL
