MODEL 1
REMARK VINA RESULT:     3.338      0.000      0.000
REMARK INTER + INTRA:           8.101
REMARK INTER:                   8.411
REMARK INTRA:                  -0.310
REMARK UNBOUND:                -0.310
REMARK SMILES CCCCCCCCCCCCCCCCCCCCCCCCCCCC(=O)[O-]
REMARK SMILES IDX 15 1 16 2 17 3 18 4 19 5 20 6 21 7 22 8 23 9 24 10 25 11
REMARK SMILES IDX 26 12 27 13 28 14 29 15 30 16 14 17 13 18 12 19 11 20 10 21
REMARK SMILES IDX 9 22 8 23 7 24 6 25 5 26 4 27 3 28 2 29 1 30
REMARK H PARENT
REMARK Flexibility Score: inf
ROOT
ATOM      1  C   UNL     1       6.098 -35.904  24.194  1.00  0.00     0.000 C 
ENDROOT
BRANCH   1   2
ATOM      2  C   UNL     1       5.469 -34.506  24.321  1.00  0.00     0.000 C 
BRANCH   2   3
ATOM      3  C   UNL     1       4.966 -33.964  22.973  1.00  0.00     0.000 C 
BRANCH   3   4
ATOM      4  C   UNL     1       5.354 -34.875  21.795  1.00  0.00     0.000 C 
BRANCH   4   5
ATOM      5  C   UNL     1       6.125 -34.124  20.697  1.00  0.00     0.000 C 
BRANCH   5   6
ATOM      6  C   UNL     1       5.683 -34.527  19.278  1.00  0.00     0.000 C 
BRANCH   6   7
ATOM      7  C   UNL     1       4.967 -33.383  18.541  1.00  0.00     0.000 C 
BRANCH   7   8
ATOM      8  C   UNL     1       4.794 -33.671  17.038  1.00  0.00     0.000 C 
BRANCH   8   9
ATOM      9  C   UNL     1       4.558 -35.162  16.736  1.00  0.00     0.000 C 
BRANCH   9  10
ATOM     10  C   UNL     1       3.079 -35.577  16.624  1.00  0.00     0.000 C 
BRANCH  10  11
ATOM     11  C   UNL     1       2.437 -35.154  15.295  1.00  0.00     0.000 C 
BRANCH  11  12
ATOM     12  C   UNL     1       2.816 -36.126  14.168  1.00  0.00     0.006 C 
BRANCH  12  13
ATOM     13  C   UNL     1       3.389 -37.443  14.706  1.00  0.00     0.053 C 
BRANCH  13  14
ATOM     14  C   UNL     1       4.770 -37.701  14.186  1.00  0.00     0.041 C 
ATOM     15  O   UNL     1       5.565 -36.745  13.992  1.00  0.00    -0.550 OA
ATOM     16  O   UNL     1       5.188 -39.003  13.944  1.00  0.00    -0.550 OA
ENDBRANCH  13  14
ENDBRANCH  12  13
ENDBRANCH  11  12
ENDBRANCH  10  11
ENDBRANCH   9  10
ENDBRANCH   8   9
ENDBRANCH   7   8
ENDBRANCH   6   7
ENDBRANCH   5   6
ENDBRANCH   4   5
ENDBRANCH   3   4
ENDBRANCH   2   3
ENDBRANCH   1   2
BRANCH   1  17
ATOM     17  C   UNL     1       6.049 -36.695  25.511  1.00  0.00     0.000 C 
BRANCH  17  18
ATOM     18  C   UNL     1       4.814 -37.609  25.610  1.00  0.00     0.000 C 
BRANCH  18  19
ATOM     19  C   UNL     1       5.110 -39.051  25.171  1.00  0.00     0.000 C 
BRANCH  19  20
ATOM     20  C   UNL     1       4.747 -39.306  23.697  1.00  0.00     0.000 C 
BRANCH  20  21
ATOM     21  C   UNL     1       5.678 -40.330  23.031  1.00  0.00     0.000 C 
BRANCH  21  22
ATOM     22  C   UNL     1       5.900 -40.043  21.535  1.00  0.00    -0.000 C 
BRANCH  22  23
ATOM     23  C   UNL     1       6.096 -38.546  21.245  1.00  0.00    -0.000 C 
BRANCH  23  24
ATOM     24  C   UNL     1       5.640 -38.155  19.828  1.00  0.00    -0.000 C 
BRANCH  24  25
ATOM     25  C   UNL     1       4.760 -36.886  19.826  1.00  0.00    -0.000 C 
BRANCH  25  26
ATOM     26  C   UNL     1       3.514 -36.991  20.728  1.00  0.00    -0.000 C 
BRANCH  26  27
ATOM     27  C   UNL     1       2.199 -36.540  20.071  1.00  0.00    -0.000 C 
BRANCH  27  28
ATOM     28  C   UNL     1       1.510 -37.666  19.286  1.00  0.00    -0.000 C 
BRANCH  28  29
ATOM     29  C   UNL     1       1.258 -37.247  17.834  1.00  0.00    -0.003 C 
ATOM     30  C   UNL     1      -0.237 -37.168  17.535  1.00  0.00     0.004 C 
ENDBRANCH  28  29
ENDBRANCH  27  28
ENDBRANCH  26  27
ENDBRANCH  25  26
ENDBRANCH  24  25
ENDBRANCH  23  24
ENDBRANCH  22  23
ENDBRANCH  21  22
ENDBRANCH  20  21
ENDBRANCH  19  20
ENDBRANCH  18  19
ENDBRANCH  17  18
ENDBRANCH   1  17
TORSDOF 26
ENDMDL
MODEL 2
REMARK VINA RESULT:     4.916      4.717      9.178
REMARK INTER + INTRA:          12.079
REMARK INTER:                  11.888
REMARK INTRA:                   0.191
REMARK UNBOUND:                -0.310
REMARK SMILES CCCCCCCCCCCCCCCCCCCCCCCCCCCC(=O)[O-]
REMARK SMILES IDX 15 1 16 2 17 3 18 4 19 5 20 6 21 7 22 8 23 9 24 10 25 11
REMARK SMILES IDX 26 12 27 13 28 14 29 15 30 16 14 17 13 18 12 19 11 20 10 21
REMARK SMILES IDX 9 22 8 23 7 24 6 25 5 26 4 27 3 28 2 29 1 30
REMARK H PARENT
REMARK Flexibility Score: inf
ROOT
ATOM      1  C   UNL     1       2.604 -37.494  19.330  1.00  0.00     0.000 C 
ENDROOT
BRANCH   1   2
ATOM      2  C   UNL     1       3.741 -37.387  20.362  1.00  0.00     0.000 C 
BRANCH   2   3
ATOM      3  C   UNL     1       5.097 -37.832  19.789  1.00  0.00     0.000 C 
BRANCH   3   4
ATOM      4  C   UNL     1       6.116 -38.170  20.892  1.00  0.00     0.000 C 
BRANCH   4   5
ATOM      5  C   UNL     1       5.970 -39.610  21.410  1.00  0.00     0.000 C 
BRANCH   5   6
ATOM      6  C   UNL     1       5.701 -39.673  22.924  1.00  0.00     0.000 C 
BRANCH   6   7
ATOM      7  C   UNL     1       5.224 -38.326  23.492  1.00  0.00     0.000 C 
BRANCH   7   8
ATOM      8  C   UNL     1       5.274 -38.287  25.030  1.00  0.00     0.000 C 
BRANCH   8   9
ATOM      9  C   UNL     1       4.617 -37.025  25.619  1.00  0.00     0.000 C 
BRANCH   9  10
ATOM     10  C   UNL     1       3.840 -37.247  26.930  1.00  0.00     0.000 C 
BRANCH  10  11
ATOM     11  C   UNL     1       2.364 -36.839  26.828  1.00  0.00     0.000 C 
BRANCH  11  12
ATOM     12  C   UNL     1       1.895 -36.146  28.117  1.00  0.00     0.006 C 
BRANCH  12  13
ATOM     13  C   UNL     1       1.709 -34.635  27.928  1.00  0.00     0.053 C 
BRANCH  13  14
ATOM     14  C   UNL     1       1.137 -33.989  29.152  1.00  0.00     0.041 C 
ATOM     15  O   UNL     1      -0.007 -33.464  29.119  1.00  0.00    -0.550 OA
ATOM     16  O   UNL     1       1.858 -33.992  30.340  1.00  0.00    -0.550 OA
ENDBRANCH  13  14
ENDBRANCH  12  13
ENDBRANCH  11  12
ENDBRANCH  10  11
ENDBRANCH   9  10
ENDBRANCH   8   9
ENDBRANCH   7   8
ENDBRANCH   6   7
ENDBRANCH   5   6
ENDBRANCH   4   5
ENDBRANCH   3   4
ENDBRANCH   2   3
ENDBRANCH   1   2
BRANCH   1  17
ATOM     17  C   UNL     1       1.283 -36.903  19.844  1.00  0.00     0.000 C 
BRANCH  17  18
ATOM     18  C   UNL     1       0.192 -36.850  18.759  1.00  0.00     0.000 C 
BRANCH  18  19
ATOM     19  C   UNL     1       0.743 -37.142  17.355  1.00  0.00     0.000 C 
BRANCH  19  20
ATOM     20  C   UNL     1       2.102 -36.465  17.101  1.00  0.00     0.000 C 
BRANCH  20  21
ATOM     21  C   UNL     1       2.088 -35.569  15.854  1.00  0.00     0.000 C 
BRANCH  21  22
ATOM     22  C   UNL     1       3.502 -35.172  15.394  1.00  0.00    -0.000 C 
BRANCH  22  23
ATOM     23  C   UNL     1       4.537 -35.263  16.526  1.00  0.00    -0.000 C 
BRANCH  23  24
ATOM     24  C   UNL     1       4.288 -34.227  17.638  1.00  0.00    -0.000 C 
BRANCH  24  25
ATOM     25  C   UNL     1       5.601 -33.617  18.174  1.00  0.00    -0.000 C 
BRANCH  25  26
ATOM     26  C   UNL     1       6.059 -34.210  19.521  1.00  0.00    -0.000 C 
BRANCH  26  27
ATOM     27  C   UNL     1       4.965 -34.952  20.307  1.00  0.00    -0.000 C 
BRANCH  27  28
ATOM     28  C   UNL     1       4.797 -34.419  21.738  1.00  0.00    -0.000 C 
BRANCH  28  29
ATOM     29  C   UNL     1       6.092 -34.587  22.540  1.00  0.00    -0.003 C 
ATOM     30  C   UNL     1       5.831 -34.477  24.040  1.00  0.00     0.004 C 
ENDBRANCH  28  29
ENDBRANCH  27  28
ENDBRANCH  26  27
ENDBRANCH  25  26
ENDBRANCH  24  25
ENDBRANCH  23  24
ENDBRANCH  22  23
ENDBRANCH  21  22
ENDBRANCH  20  21
ENDBRANCH  19  20
ENDBRANCH  18  19
ENDBRANCH  17  18
ENDBRANCH   1  17
TORSDOF 26
ENDMDL
MODEL 3
REMARK VINA RESULT:     5.364      3.071      5.597
REMARK INTER + INTRA:          13.206
REMARK INTER:                  13.701
REMARK INTRA:                  -0.496
REMARK UNBOUND:                -0.310
REMARK SMILES CCCCCCCCCCCCCCCCCCCCCCCCCCCC(=O)[O-]
REMARK SMILES IDX 15 1 16 2 17 3 18 4 19 5 20 6 21 7 22 8 23 9 24 10 25 11
REMARK SMILES IDX 26 12 27 13 28 14 29 15 30 16 14 17 13 18 12 19 11 20 10 21
REMARK SMILES IDX 9 22 8 23 7 24 6 25 5 26 4 27 3 28 2 29 1 30
REMARK H PARENT
REMARK Flexibility Score: inf
ROOT
ATOM      1  C   UNL     1       5.207 -36.878  21.380  1.00  0.00     0.000 C 
ENDROOT
BRANCH   1   2
ATOM      2  C   UNL     1       5.975 -35.782  22.139  1.00  0.00     0.000 C 
BRANCH   2   3
ATOM      3  C   UNL     1       5.227 -34.438  22.145  1.00  0.00     0.000 C 
BRANCH   3   4
ATOM      4  C   UNL     1       4.975 -33.902  20.724  1.00  0.00     0.000 C 
BRANCH   4   5
ATOM      5  C   UNL     1       6.106 -34.265  19.748  1.00  0.00     0.000 C 
BRANCH   5   6
ATOM      6  C   UNL     1       5.927 -33.618  18.363  1.00  0.00     0.000 C 
BRANCH   6   7
ATOM      7  C   UNL     1       4.584 -33.989  17.712  1.00  0.00     0.000 C 
BRANCH   7   8
ATOM      8  C   UNL     1       4.352 -35.510  17.670  1.00  0.00     0.000 C 
BRANCH   8   9
ATOM      9  C   UNL     1       4.118 -36.043  16.245  1.00  0.00     0.000 C 
BRANCH   9  10
ATOM     10  C   UNL     1       3.092 -35.251  15.414  1.00  0.00     0.000 C 
BRANCH  10  11
ATOM     11  C   UNL     1       1.639 -35.600  15.764  1.00  0.00     0.000 C 
BRANCH  11  12
ATOM     12  C   UNL     1       1.578 -36.796  16.726  1.00  0.00     0.006 C 
BRANCH  12  13
ATOM     13  C   UNL     1       0.532 -36.599  17.831  1.00  0.00     0.053 C 
BRANCH  13  14
ATOM     14  C   UNL     1       1.083 -36.933  19.183  1.00  0.00     0.041 C 
ATOM     15  O   UNL     1       0.383 -36.760  20.215  1.00  0.00    -0.550 OA
ATOM     16  O   UNL     1       2.361 -37.463  19.300  1.00  0.00    -0.550 OA
ENDBRANCH  13  14
ENDBRANCH  12  13
ENDBRANCH  11  12
ENDBRANCH  10  11
ENDBRANCH   9  10
ENDBRANCH   8   9
ENDBRANCH   7   8
ENDBRANCH   6   7
ENDBRANCH   5   6
ENDBRANCH   4   5
ENDBRANCH   3   4
ENDBRANCH   2   3
ENDBRANCH   1   2
BRANCH   1  17
ATOM     17  C   UNL     1       6.122 -37.728  20.485  1.00  0.00     0.000 C 
BRANCH  17  18
ATOM     18  C   UNL     1       5.825 -39.234  20.592  1.00  0.00     0.000 C 
BRANCH  18  19
ATOM     19  C   UNL     1       6.049 -39.781  22.010  1.00  0.00     0.000 C 
BRANCH  19  20
ATOM     20  C   UNL     1       5.779 -38.727  23.098  1.00  0.00     0.000 C 
BRANCH  20  21
ATOM     21  C   UNL     1       5.112 -39.326  24.345  1.00  0.00     0.000 C 
BRANCH  21  22
ATOM     22  C   UNL     1       5.471 -38.563  25.633  1.00  0.00    -0.000 C 
BRANCH  22  23
ATOM     23  C   UNL     1       5.529 -37.042  25.420  1.00  0.00    -0.000 C 
BRANCH  23  24
ATOM     24  C   UNL     1       4.300 -36.318  25.997  1.00  0.00    -0.000 C 
BRANCH  24  25
ATOM     25  C   UNL     1       3.380 -37.268  26.793  1.00  0.00    -0.000 C 
BRANCH  25  26
ATOM     26  C   UNL     1       2.006 -36.661  27.137  1.00  0.00    -0.000 C 
BRANCH  26  27
ATOM     27  C   UNL     1       2.035 -35.174  27.530  1.00  0.00    -0.000 C 
BRANCH  27  28
ATOM     28  C   UNL     1       1.137 -34.862  28.737  1.00  0.00    -0.000 C 
BRANCH  28  29
ATOM     29  C   UNL     1       1.357 -33.426  29.226  1.00  0.00    -0.003 C 
ATOM     30  C   UNL     1       1.937 -33.406  30.637  1.00  0.00     0.004 C 
ENDBRANCH  28  29
ENDBRANCH  27  28
ENDBRANCH  26  27
ENDBRANCH  25  26
ENDBRANCH  24  25
ENDBRANCH  23  24
ENDBRANCH  22  23
ENDBRANCH  21  22
ENDBRANCH  20  21
ENDBRANCH  19  20
ENDBRANCH  18  19
ENDBRANCH  17  18
ENDBRANCH   1  17
TORSDOF 26
ENDMDL
MODEL 4
REMARK VINA RESULT:     5.879      4.668      8.581
REMARK INTER + INTRA:          14.506
REMARK INTER:                  16.587
REMARK INTRA:                  -2.081
REMARK UNBOUND:                -0.310
REMARK SMILES CCCCCCCCCCCCCCCCCCCCCCCCCCCC(=O)[O-]
REMARK SMILES IDX 15 1 16 2 17 3 18 4 19 5 20 6 21 7 22 8 23 9 24 10 25 11
REMARK SMILES IDX 26 12 27 13 28 14 29 15 30 16 14 17 13 18 12 19 11 20 10 21
REMARK SMILES IDX 9 22 8 23 7 24 6 25 5 26 4 27 3 28 2 29 1 30
REMARK H PARENT
REMARK Flexibility Score: inf
ROOT
ATOM      1  C   UNL     1       5.149 -36.756  21.980  1.00  0.00     0.000 C 
ENDROOT
BRANCH   1   2
ATOM      2  C   UNL     1       5.985 -37.468  20.904  1.00  0.00     0.000 C 
BRANCH   2   3
ATOM      3  C   UNL     1       5.898 -39.000  21.011  1.00  0.00     0.000 C 
BRANCH   3   4
ATOM      4  C   UNL     1       4.872 -39.455  22.065  1.00  0.00     0.000 C 
BRANCH   4   5
ATOM      5  C   UNL     1       5.508 -40.298  23.181  1.00  0.00     0.000 C 
BRANCH   5   6
ATOM      6  C   UNL     1       5.152 -39.787  24.589  1.00  0.00     0.000 C 
BRANCH   6   7
ATOM      7  C   UNL     1       5.583 -38.328  24.809  1.00  0.00     0.000 C 
BRANCH   7   8
ATOM      8  C   UNL     1       5.400 -37.875  26.269  1.00  0.00     0.000 C 
BRANCH   8   9
ATOM      9  C   UNL     1       5.000 -36.393  26.392  1.00  0.00     0.000 C 
BRANCH   9  10
ATOM     10  C   UNL     1       3.515 -36.095  26.117  1.00  0.00     0.000 C 
BRANCH  10  11
ATOM     11  C   UNL     1       2.566 -37.058  26.845  1.00  0.00     0.000 C 
BRANCH  11  12
ATOM     12  C   UNL     1       1.750 -36.319  27.917  1.00  0.00     0.006 C 
BRANCH  12  13
ATOM     13  C   UNL     1       2.060 -34.818  27.950  1.00  0.00     0.053 C 
BRANCH  13  14
ATOM     14  C   UNL     1       1.294 -34.115  29.028  1.00  0.00     0.041 C 
ATOM     15  O   UNL     1       1.847 -33.840  30.125  1.00  0.00    -0.550 OA
ATOM     16  O   UNL     1      -0.025 -33.738  28.809  1.00  0.00    -0.550 OA
ENDBRANCH  13  14
ENDBRANCH  12  13
ENDBRANCH  11  12
ENDBRANCH  10  11
ENDBRANCH   9  10
ENDBRANCH   8   9
ENDBRANCH   7   8
ENDBRANCH   6   7
ENDBRANCH   5   6
ENDBRANCH   4   5
ENDBRANCH   3   4
ENDBRANCH   2   3
ENDBRANCH   1   2
BRANCH   1  17
ATOM     17  C   UNL     1       5.991 -35.815  22.856  1.00  0.00     0.000 C 
BRANCH  17  18
ATOM     18  C   UNL     1       5.735 -34.329  22.550  1.00  0.00     0.000 C 
BRANCH  18  19
ATOM     19  C   UNL     1       6.083 -33.956  21.101  1.00  0.00     0.000 C 
BRANCH  19  20
ATOM     20  C   UNL     1       5.015 -34.424  20.098  1.00  0.00     0.000 C 
BRANCH  20  21
ATOM     21  C   UNL     1       5.262 -33.884  18.681  1.00  0.00     0.000 C 
BRANCH  21  22
ATOM     22  C   UNL     1       5.075 -34.960  17.596  1.00  0.00    -0.000 C 
BRANCH  22  23
ATOM     23  C   UNL     1       4.034 -34.557  16.540  1.00  0.00    -0.000 C 
BRANCH  23  24
ATOM     24  C   UNL     1       3.942 -35.571  15.385  1.00  0.00    -0.000 C 
BRANCH  24  25
ATOM     25  C   UNL     1       2.497 -36.060  15.148  1.00  0.00    -0.000 C 
BRANCH  25  26
ATOM     26  C   UNL     1       1.493 -35.572  16.212  1.00  0.00    -0.000 C 
BRANCH  26  27
ATOM     27  C   UNL     1       1.108 -36.621  17.269  1.00  0.00    -0.000 C 
BRANCH  27  28
ATOM     28  C   UNL     1       2.326 -37.367  17.836  1.00  0.00    -0.000 C 
BRANCH  28  29
ATOM     29  C   UNL     1       2.510 -37.061  19.326  1.00  0.00    -0.003 C 
ATOM     30  C   UNL     1       1.178 -36.717  19.987  1.00  0.00     0.004 C 
ENDBRANCH  28  29
ENDBRANCH  27  28
ENDBRANCH  26  27
ENDBRANCH  25  26
ENDBRANCH  24  25
ENDBRANCH  23  24
ENDBRANCH  22  23
ENDBRANCH  21  22
ENDBRANCH  20  21
ENDBRANCH  19  20
ENDBRANCH  18  19
ENDBRANCH  17  18
ENDBRANCH   1  17
TORSDOF 26
ENDMDL
MODEL 5
REMARK VINA RESULT:     6.154      3.744      8.621
REMARK INTER + INTRA:          15.198
REMARK INTER:                  12.503
REMARK INTRA:                   2.695
REMARK UNBOUND:                -0.310
REMARK SMILES CCCCCCCCCCCCCCCCCCCCCCCCCCCC(=O)[O-]
REMARK SMILES IDX 15 1 16 2 17 3 18 4 19 5 20 6 21 7 22 8 23 9 24 10 25 11
REMARK SMILES IDX 26 12 27 13 28 14 29 15 30 16 14 17 13 18 12 19 11 20 10 21
REMARK SMILES IDX 9 22 8 23 7 24 6 25 5 26 4 27 3 28 2 29 1 30
REMARK H PARENT
REMARK Flexibility Score: inf
ROOT
ATOM      1  C   UNL     1       1.034 -36.982  19.526  1.00  0.00     0.000 C 
ENDROOT
BRANCH   1   2
ATOM      2  C   UNL     1       2.348 -37.685  19.144  1.00  0.00     0.000 C 
BRANCH   2   3
ATOM      3  C   UNL     1       3.585 -36.962  19.705  1.00  0.00     0.000 C 
BRANCH   3   4
ATOM      4  C   UNL     1       4.063 -37.569  21.037  1.00  0.00     0.000 C 
BRANCH   4   5
ATOM      5  C   UNL     1       5.590 -37.732  21.096  1.00  0.00     0.000 C 
BRANCH   5   6
ATOM      6  C   UNL     1       6.036 -39.202  20.995  1.00  0.00     0.000 C 
BRANCH   6   7
ATOM      7  C   UNL     1       5.344 -40.097  22.037  1.00  0.00     0.000 C 
BRANCH   7   8
ATOM      8  C   UNL     1       5.828 -39.814  23.470  1.00  0.00     0.000 C 
BRANCH   8   9
ATOM      9  C   UNL     1       5.122 -38.608  24.115  1.00  0.00     0.000 C 
BRANCH   9  10
ATOM     10  C   UNL     1       5.816 -38.040  25.367  1.00  0.00     0.000 C 
BRANCH  10  11
ATOM     11  C   UNL     1       5.653 -36.519  25.504  1.00  0.00     0.000 C 
BRANCH  11  12
ATOM     12  C   UNL     1       4.213 -36.154  25.894  1.00  0.00     0.006 C 
BRANCH  12  13
ATOM     13  C   UNL     1       3.549 -37.243  26.745  1.00  0.00     0.053 C 
BRANCH  13  14
ATOM     14  C   UNL     1       2.133 -36.893  27.089  1.00  0.00     0.041 C 
ATOM     15  O   UNL     1       1.873 -35.825  27.703  1.00  0.00    -0.550 OA
ATOM     16  O   UNL     1       1.097 -37.734  26.703  1.00  0.00    -0.550 OA
ENDBRANCH  13  14
ENDBRANCH  12  13
ENDBRANCH  11  12
ENDBRANCH  10  11
ENDBRANCH   9  10
ENDBRANCH   8   9
ENDBRANCH   7   8
ENDBRANCH   6   7
ENDBRANCH   5   6
ENDBRANCH   4   5
ENDBRANCH   3   4
ENDBRANCH   2   3
ENDBRANCH   1   2
BRANCH   1  17
ATOM     17  C   UNL     1       0.288 -36.422  18.305  1.00  0.00     0.000 C 
BRANCH  17  18
ATOM     18  C   UNL     1       0.890 -36.898  16.970  1.00  0.00     0.000 C 
BRANCH  18  19
ATOM     19  C   UNL     1       1.953 -35.932  16.425  1.00  0.00     0.000 C 
BRANCH  19  20
ATOM     20  C   UNL     1       1.625 -35.434  15.006  1.00  0.00     0.000 C 
BRANCH  20  21
ATOM     21  C   UNL     1       2.813 -35.579  14.043  1.00  0.00     0.000 C 
BRANCH  21  22
ATOM     22  C   UNL     1       4.139 -35.849  14.775  1.00  0.00    -0.000 C 
BRANCH  22  23
ATOM     23  C   UNL     1       3.961 -35.952  16.298  1.00  0.00    -0.000 C 
BRANCH  23  24
ATOM     24  C   UNL     1       4.355 -34.655  17.028  1.00  0.00    -0.000 C 
BRANCH  24  25
ATOM     25  C   UNL     1       5.263 -34.922  18.248  1.00  0.00    -0.000 C 
BRANCH  25  26
ATOM     26  C   UNL     1       6.028 -33.677  18.738  1.00  0.00    -0.000 C 
BRANCH  26  27
ATOM     27  C   UNL     1       6.123 -33.535  20.266  1.00  0.00    -0.000 C 
BRANCH  27  28
ATOM     28  C   UNL     1       5.243 -34.550  21.012  1.00  0.00    -0.000 C 
BRANCH  28  29
ATOM     29  C   UNL     1       5.793 -34.822  22.417  1.00  0.00    -0.003 C 
ATOM     30  C   UNL     1       5.387 -33.720  23.391  1.00  0.00     0.004 C 
ENDBRANCH  28  29
ENDBRANCH  27  28
ENDBRANCH  26  27
ENDBRANCH  25  26
ENDBRANCH  24  25
ENDBRANCH  23  24
ENDBRANCH  22  23
ENDBRANCH  21  22
ENDBRANCH  20  21
ENDBRANCH  19  20
ENDBRANCH  18  19
ENDBRANCH  17  18
ENDBRANCH   1  17
TORSDOF 26
ENDMDL
MODEL 6
REMARK VINA RESULT:     6.159      2.011      3.588
REMARK INTER + INTRA:          15.210
REMARK INTER:                  12.074
REMARK INTRA:                   3.135
REMARK UNBOUND:                -0.310
REMARK SMILES CCCCCCCCCCCCCCCCCCCCCCCCCCCC(=O)[O-]
REMARK SMILES IDX 15 1 16 2 17 3 18 4 19 5 20 6 21 7 22 8 23 9 24 10 25 11
REMARK SMILES IDX 26 12 27 13 28 14 29 15 30 16 14 17 13 18 12 19 11 20 10 21
REMARK SMILES IDX 9 22 8 23 7 24 6 25 5 26 4 27 3 28 2 29 1 30
REMARK H PARENT
REMARK Flexibility Score: inf
ROOT
ATOM      1  C   UNL     1       4.237 -33.729  23.082  1.00  0.00     0.000 C 
ENDROOT
BRANCH   1   2
ATOM      2  C   UNL     1       4.324 -33.694  21.546  1.00  0.00     0.000 C 
BRANCH   2   3
ATOM      3  C   UNL     1       4.934 -34.980  20.963  1.00  0.00     0.000 C 
BRANCH   3   4
ATOM      4  C   UNL     1       6.124 -34.692  20.031  1.00  0.00     0.000 C 
BRANCH   4   5
ATOM      5  C   UNL     1       6.035 -33.307  19.370  1.00  0.00     0.000 C 
BRANCH   5   6
ATOM      6  C   UNL     1       5.299 -33.339  18.019  1.00  0.00     0.000 C 
BRANCH   6   7
ATOM      7  C   UNL     1       5.126 -34.768  17.478  1.00  0.00     0.000 C 
BRANCH   7   8
ATOM      8  C   UNL     1       3.934 -34.891  16.513  1.00  0.00     0.000 C 
BRANCH   8   9
ATOM      9  C   UNL     1       4.050 -36.100  15.566  1.00  0.00     0.000 C 
BRANCH   9  10
ATOM     10  C   UNL     1       2.989 -36.159  14.452  1.00  0.00     0.000 C 
BRANCH  10  11
ATOM     11  C   UNL     1       1.659 -35.506  14.856  1.00  0.00     0.000 C 
BRANCH  11  12
ATOM     12  C   UNL     1       1.528 -35.426  16.384  1.00  0.00     0.006 C 
BRANCH  12  13
ATOM     13  C   UNL     1       1.789 -36.777  17.061  1.00  0.00     0.053 C 
BRANCH  13  14
ATOM     14  C   UNL     1       0.558 -37.311  17.729  1.00  0.00     0.041 C 
ATOM     15  O   UNL     1      -0.583 -36.959  17.331  1.00  0.00    -0.550 OA
ATOM     16  O   UNL     1       0.674 -38.220  18.772  1.00  0.00    -0.550 OA
ENDBRANCH  13  14
ENDBRANCH  12  13
ENDBRANCH  11  12
ENDBRANCH  10  11
ENDBRANCH   9  10
ENDBRANCH   8   9
ENDBRANCH   7   8
ENDBRANCH   6   7
ENDBRANCH   5   6
ENDBRANCH   4   5
ENDBRANCH   3   4
ENDBRANCH   2   3
ENDBRANCH   1   2
BRANCH   1  17
ATOM     17  C   UNL     1       5.467 -33.103  23.757  1.00  0.00     0.000 C 
BRANCH  17  18
ATOM     18  C   UNL     1       6.125 -34.042  24.784  1.00  0.00     0.000 C 
BRANCH  18  19
ATOM     19  C   UNL     1       5.596 -35.481  24.690  1.00  0.00     0.000 C 
BRANCH  19  20
ATOM     20  C   UNL     1       5.596 -36.199  26.052  1.00  0.00     0.000 C 
BRANCH  20  21
ATOM     21  C   UNL     1       4.466 -37.233  26.171  1.00  0.00     0.000 C 
BRANCH  21  22
ATOM     22  C   UNL     1       4.897 -38.637  25.711  1.00  0.00    -0.000 C 
BRANCH  22  23
ATOM     23  C   UNL     1       5.535 -38.628  24.312  1.00  0.00    -0.000 C 
BRANCH  23  24
ATOM     24  C   UNL     1       5.430 -39.993  23.607  1.00  0.00    -0.000 C 
BRANCH  24  25
ATOM     25  C   UNL     1       5.679 -39.887  22.087  1.00  0.00    -0.000 C 
BRANCH  25  26
ATOM     26  C   UNL     1       6.123 -38.485  21.626  1.00  0.00    -0.000 C 
BRANCH  26  27
ATOM     27  C   UNL     1       5.589 -38.058  20.248  1.00  0.00    -0.000 C 
BRANCH  27  28
ATOM     28  C   UNL     1       4.056 -38.106  20.164  1.00  0.00    -0.000 C 
BRANCH  28  29
ATOM     29  C   UNL     1       3.504 -36.849  19.484  1.00  0.00    -0.003 C 
ATOM     30  C   UNL     1       2.424 -36.189  20.337  1.00  0.00     0.004 C 
ENDBRANCH  28  29
ENDBRANCH  27  28
ENDBRANCH  26  27
ENDBRANCH  25  26
ENDBRANCH  24  25
ENDBRANCH  23  24
ENDBRANCH  22  23
ENDBRANCH  21  22
ENDBRANCH  20  21
ENDBRANCH  19  20
ENDBRANCH  18  19
ENDBRANCH  17  18
ENDBRANCH   1  17
TORSDOF 26
ENDMDL
MODEL 7
REMARK VINA RESULT:     6.179      2.609      5.215
REMARK INTER + INTRA:          15.261
REMARK INTER:                  15.770
REMARK INTRA:                  -0.509
REMARK UNBOUND:                -0.310
REMARK SMILES CCCCCCCCCCCCCCCCCCCCCCCCCCCC(=O)[O-]
REMARK SMILES IDX 15 1 16 2 17 3 18 4 19 5 20 6 21 7 22 8 23 9 24 10 25 11
REMARK SMILES IDX 26 12 27 13 28 14 29 15 30 16 14 17 13 18 12 19 11 20 10 21
REMARK SMILES IDX 9 22 8 23 7 24 6 25 5 26 4 27 3 28 2 29 1 30
REMARK H PARENT
REMARK Flexibility Score: inf
ROOT
ATOM      1  C   UNL     1       4.925 -36.577  21.876  1.00  0.00     0.000 C 
ENDROOT
BRANCH   1   2
ATOM      2  C   UNL     1       5.959 -35.783  22.694  1.00  0.00     0.000 C 
BRANCH   2   3
ATOM      3  C   UNL     1       5.679 -34.271  22.686  1.00  0.00     0.000 C 
BRANCH   3   4
ATOM      4  C   UNL     1       5.146 -33.782  21.327  1.00  0.00     0.000 C 
BRANCH   4   5
ATOM      5  C   UNL     1       6.125 -34.061  20.175  1.00  0.00     0.000 C 
BRANCH   5   6
ATOM      6  C   UNL     1       5.625 -33.519  18.824  1.00  0.00     0.000 C 
BRANCH   6   7
ATOM      7  C   UNL     1       4.825 -34.566  18.032  1.00  0.00     0.000 C 
BRANCH   7   8
ATOM      8  C   UNL     1       5.026 -35.992  18.573  1.00  0.00     0.000 C 
BRANCH   8   9
ATOM      9  C   UNL     1       3.801 -36.897  18.351  1.00  0.00     0.000 C 
BRANCH   9  10
ATOM     10  C   UNL     1       2.554 -36.519  19.172  1.00  0.00     0.000 C 
BRANCH  10  11
ATOM     11  C   UNL     1       1.240 -36.878  18.465  1.00  0.00     0.000 C 
BRANCH  11  12
ATOM     12  C   UNL     1       1.464 -37.086  16.960  1.00  0.00     0.006 C 
BRANCH  12  13
ATOM     13  C   UNL     1       1.526 -35.760  16.194  1.00  0.00     0.053 C 
BRANCH  13  14
ATOM     14  C   UNL     1       2.516 -35.813  15.070  1.00  0.00     0.041 C 
ATOM     15  O   UNL     1       2.155 -35.551  13.892  1.00  0.00    -0.550 OA
ATOM     16  O   UNL     1       3.844 -36.125  15.329  1.00  0.00    -0.550 OA
ENDBRANCH  13  14
ENDBRANCH  12  13
ENDBRANCH  11  12
ENDBRANCH  10  11
ENDBRANCH   9  10
ENDBRANCH   8   9
ENDBRANCH   7   8
ENDBRANCH   6   7
ENDBRANCH   5   6
ENDBRANCH   4   5
ENDBRANCH   3   4
ENDBRANCH   2   3
ENDBRANCH   1   2
BRANCH   1  17
ATOM     17  C   UNL     1       5.569 -37.677  21.019  1.00  0.00     0.000 C 
BRANCH  17  18
ATOM     18  C   UNL     1       5.084 -39.088  21.399  1.00  0.00     0.000 C 
BRANCH  18  19
ATOM     19  C   UNL     1       5.736 -39.608  22.689  1.00  0.00     0.000 C 
BRANCH  19  20
ATOM     20  C   UNL     1       5.447 -38.706  23.902  1.00  0.00     0.000 C 
BRANCH  20  21
ATOM     21  C   UNL     1       5.325 -39.501  25.210  1.00  0.00     0.000 C 
BRANCH  21  22
ATOM     22  C   UNL     1       5.617 -38.643  26.454  1.00  0.00    -0.000 C 
BRANCH  22  23
ATOM     23  C   UNL     1       5.715 -37.145  26.126  1.00  0.00    -0.000 C 
BRANCH  23  24
ATOM     24  C   UNL     1       4.335 -36.469  26.034  1.00  0.00    -0.000 C 
BRANCH  24  25
ATOM     25  C   UNL     1       3.189 -37.421  26.441  1.00  0.00    -0.000 C 
BRANCH  25  26
ATOM     26  C   UNL     1       1.898 -36.694  26.868  1.00  0.00    -0.000 C 
BRANCH  26  27
ATOM     27  C   UNL     1       1.996 -35.930  28.199  1.00  0.00    -0.000 C 
BRANCH  27  28
ATOM     28  C   UNL     1       1.303 -34.560  28.149  1.00  0.00    -0.000 C 
BRANCH  28  29
ATOM     29  C   UNL     1       1.729 -33.687  29.335  1.00  0.00    -0.003 C 
ATOM     30  C   UNL     1       0.526 -32.996  29.971  1.00  0.00     0.004 C 
ENDBRANCH  28  29
ENDBRANCH  27  28
ENDBRANCH  26  27
ENDBRANCH  25  26
ENDBRANCH  24  25
ENDBRANCH  23  24
ENDBRANCH  22  23
ENDBRANCH  21  22
ENDBRANCH  20  21
ENDBRANCH  19  20
ENDBRANCH  18  19
ENDBRANCH  17  18
ENDBRANCH   1  17
TORSDOF 26
ENDMDL
