MODEL 1
REMARK VINA RESULT:    -5.261      0.000      0.000
REMARK INTER + INTRA:          -5.765
REMARK INTER:                  -5.722
REMARK INTRA:                  -0.043
REMARK UNBOUND:                -0.043
REMARK SMILES COc1cc2ccc(=O)oc2cc1O
REMARK SMILES IDX 3 1 13 2 12 3 11 4 5 5 4 6 6 7 7 8 8 9 9 10 10 11 2 12 1 13
REMARK SMILES IDX 14 14
REMARK H PARENT 14 15
REMARK Flexibility Score: inf
ROOT
ATOM      1  C   UNL     1      19.702  -1.570 -18.966  1.00  0.00     0.161 A 
ATOM      2  C   UNL     1      19.952  -0.293 -18.427  1.00  0.00     0.161 A 
ATOM      3  C   UNL     1      20.589   0.685 -19.199  1.00  0.00     0.098 A 
ATOM      4  C   UNL     1      20.984   0.407 -20.509  1.00  0.00     0.142 A 
ATOM      5  C   UNL     1      20.738  -0.869 -21.058  1.00  0.00     0.022 A 
ATOM      6  C   UNL     1      20.101  -1.851 -20.289  1.00  0.00     0.062 A 
ATOM      7  C   UNL     1      21.145  -1.118 -22.373  1.00  0.00     0.019 A 
ATOM      8  C   UNL     1      21.776  -0.107 -23.098  1.00  0.00     0.094 A 
ATOM      9  C   UNL     1      21.987   1.134 -22.488  1.00  0.00     0.336 A 
ATOM     10  O   UNL     1      22.554   2.059 -23.125  1.00  0.00    -0.246 OA
ATOM     11  O   UNL     1      21.590   1.344 -21.235  1.00  0.00    -0.423 OA
ENDROOT
BRANCH   1  12
ATOM     12  O   UNL     1      19.060  -2.528 -18.165  1.00  0.00    -0.493 OA
ATOM     13  C   UNL     1      18.635  -3.809 -18.620  1.00  0.00     0.278 C 
ENDBRANCH   1  12
BRANCH   2  14
ATOM     14  O   UNL     1      19.573   0.024 -17.123  1.00  0.00    -0.504 OA
ATOM     15  H   UNL     1      19.999   0.782 -16.605  1.00  0.00     0.293 HD
ENDBRANCH   2  14
TORSDOF 2
ENDMDL
MODEL 2
REMARK VINA RESULT:    -5.028     16.203     18.306
REMARK INTER + INTRA:          -5.512
REMARK INTER:                  -5.467
REMARK INTRA:                  -0.045
REMARK UNBOUND:                -0.043
REMARK SMILES COc1cc2ccc(=O)oc2cc1O
REMARK SMILES IDX 3 1 13 2 12 3 11 4 5 5 4 6 6 7 7 8 8 9 9 10 10 11 2 12 1 13
REMARK SMILES IDX 14 14
REMARK H PARENT 14 15
REMARK Flexibility Score: inf
ROOT
ATOM      1  C   UNL     1       8.057  -6.744  -6.769  1.00  0.00     0.161 A 
ATOM      2  C   UNL     1       8.293  -8.057  -7.224  1.00  0.00     0.161 A 
ATOM      3  C   UNL     1       8.416  -8.316  -8.594  1.00  0.00     0.098 A 
ATOM      4  C   UNL     1       8.306  -7.280  -9.523  1.00  0.00     0.142 A 
ATOM      5  C   UNL     1       8.070  -5.962  -9.077  1.00  0.00     0.022 A 
ATOM      6  C   UNL     1       7.947  -5.698  -7.708  1.00  0.00     0.062 A 
ATOM      7  C   UNL     1       7.965  -4.945 -10.032  1.00  0.00     0.019 A 
ATOM      8  C   UNL     1       8.096  -5.259 -11.385  1.00  0.00     0.094 A 
ATOM      9  C   UNL     1       8.329  -6.588 -11.752  1.00  0.00     0.336 A 
ATOM     10  O   UNL     1       8.450  -6.892 -12.968  1.00  0.00    -0.246 OA
ATOM     11  O   UNL     1       8.424  -7.536 -10.824  1.00  0.00    -0.423 OA
ENDROOT
BRANCH   1  12
ATOM     12  O   UNL     1       7.940  -6.519  -5.388  1.00  0.00    -0.493 OA
ATOM     13  C   UNL     1       8.281  -5.300  -4.736  1.00  0.00     0.278 C 
ENDBRANCH   1  12
BRANCH   2  14
ATOM     14  O   UNL     1       8.409  -9.118  -6.327  1.00  0.00    -0.504 OA
ATOM     15  H   UNL     1       7.627  -9.445  -5.773  1.00  0.00     0.293 HD
ENDBRANCH   2  14
TORSDOF 2
ENDMDL
MODEL 3
REMARK VINA RESULT:    -4.977      1.557      2.643
REMARK INTER + INTRA:          -5.457
REMARK INTER:                  -5.413
REMARK INTRA:                  -0.044
REMARK UNBOUND:                -0.043
REMARK SMILES COc1cc2ccc(=O)oc2cc1O
REMARK SMILES IDX 3 1 13 2 12 3 11 4 5 5 4 6 6 7 7 8 8 9 9 10 10 11 2 12 1 13
REMARK SMILES IDX 14 14
REMARK H PARENT 14 15
REMARK Flexibility Score: inf
ROOT
ATOM      1  C   UNL     1      19.145  -1.632 -18.001  1.00  0.00     0.161 A 
ATOM      2  C   UNL     1      19.245  -2.705 -18.909  1.00  0.00     0.161 A 
ATOM      3  C   UNL     1      19.899  -2.532 -20.134  1.00  0.00     0.098 A 
ATOM      4  C   UNL     1      20.459  -1.298 -20.470  1.00  0.00     0.142 A 
ATOM      5  C   UNL     1      20.365  -0.219 -19.567  1.00  0.00     0.022 A 
ATOM      6  C   UNL     1      19.711  -0.386 -18.340  1.00  0.00     0.062 A 
ATOM      7  C   UNL     1      20.937   1.005 -19.931  1.00  0.00     0.019 A 
ATOM      8  C   UNL     1      21.577   1.122 -21.164  1.00  0.00     0.094 A 
ATOM      9  C   UNL     1      21.632   0.008 -22.008  1.00  0.00     0.336 A 
ATOM     10  O   UNL     1      22.205   0.093 -23.125  1.00  0.00    -0.246 OA
ATOM     11  O   UNL     1      21.079  -1.144 -21.637  1.00  0.00    -0.423 OA
ENDROOT
BRANCH   1  12
ATOM     12  O   UNL     1      18.482  -1.840 -16.780  1.00  0.00    -0.493 OA
ATOM     13  C   UNL     1      18.027  -0.800 -15.921  1.00  0.00     0.278 C 
ENDBRANCH   1  12
BRANCH   2  14
ATOM     14  O   UNL     1      18.698  -3.953 -18.610  1.00  0.00    -0.504 OA
ATOM     15  H   UNL     1      19.255  -4.798 -18.594  1.00  0.00     0.293 HD
ENDBRANCH   2  14
TORSDOF 2
ENDMDL
MODEL 4
REMARK VINA RESULT:    -4.939     16.005     17.941
REMARK INTER + INTRA:          -5.415
REMARK INTER:                  -5.380
REMARK INTRA:                  -0.036
REMARK UNBOUND:                -0.043
REMARK SMILES COc1cc2ccc(=O)oc2cc1O
REMARK SMILES IDX 3 1 13 2 12 3 11 4 5 5 4 6 6 7 7 8 8 9 9 10 10 11 2 12 1 13
REMARK SMILES IDX 14 14
REMARK H PARENT 14 15
REMARK Flexibility Score: inf
ROOT
ATOM      1  C   UNL     1       8.146  -7.203  -7.433  1.00  0.00     0.161 A 
ATOM      2  C   UNL     1       7.817  -5.850  -7.217  1.00  0.00     0.161 A 
ATOM      3  C   UNL     1       7.658  -4.982  -8.304  1.00  0.00     0.098 A 
ATOM      4  C   UNL     1       7.824  -5.445  -9.610  1.00  0.00     0.142 A 
ATOM      5  C   UNL     1       8.153  -6.798  -9.837  1.00  0.00     0.022 A 
ATOM      6  C   UNL     1       8.313  -7.671  -8.753  1.00  0.00     0.062 A 
ATOM      7  C   UNL     1       8.312  -7.233 -11.157  1.00  0.00     0.019 A 
ATOM      8  C   UNL     1       8.143  -6.325 -12.202  1.00  0.00     0.094 A 
ATOM      9  C   UNL     1       7.816  -4.998 -11.901  1.00  0.00     0.336 A 
ATOM     10  O   UNL     1       7.659  -4.164 -12.830  1.00  0.00    -0.246 OA
ATOM     11  O   UNL     1       7.672  -4.611 -10.636  1.00  0.00    -0.423 OA
ENDROOT
BRANCH   1  12
ATOM     12  O   UNL     1       8.297  -8.048  -6.321  1.00  0.00    -0.493 OA
ATOM     13  C   UNL     1       7.230  -8.740  -5.681  1.00  0.00     0.278 C 
ENDBRANCH   1  12
BRANCH   2  14
ATOM     14  O   UNL     1       7.643  -5.350  -5.927  1.00  0.00    -0.504 OA
ATOM     15  H   UNL     1       6.739  -5.056  -5.578  1.00  0.00     0.293 HD
ENDBRANCH   2  14
TORSDOF 2
ENDMDL
MODEL 5
REMARK VINA RESULT:    -4.777     15.369     17.702
REMARK INTER + INTRA:          -5.239
REMARK INTER:                  -5.194
REMARK INTRA:                  -0.046
REMARK UNBOUND:                -0.043
REMARK SMILES COc1cc2ccc(=O)oc2cc1O
REMARK SMILES IDX 3 1 13 2 12 3 11 4 5 5 4 6 6 7 7 8 8 9 9 10 10 11 2 12 1 13
REMARK SMILES IDX 14 14
REMARK H PARENT 14 15
REMARK Flexibility Score: inf
ROOT
ATOM      1  C   UNL     1       8.043  -5.799  -7.030  1.00  0.00     0.161 A 
ATOM      2  C   UNL     1       7.349  -5.346  -8.170  1.00  0.00     0.161 A 
ATOM      3  C   UNL     1       7.824  -5.650  -9.451  1.00  0.00     0.098 A 
ATOM      4  C   UNL     1       8.988  -6.403  -9.614  1.00  0.00     0.142 A 
ATOM      5  C   UNL     1       9.690  -6.862  -8.479  1.00  0.00     0.022 A 
ATOM      6  C   UNL     1       9.218  -6.560  -7.195  1.00  0.00     0.062 A 
ATOM      7  C   UNL     1      10.853  -7.615  -8.674  1.00  0.00     0.019 A 
ATOM      8  C   UNL     1      11.281  -7.888  -9.973  1.00  0.00     0.094 A 
ATOM      9  C   UNL     1      10.534  -7.401 -11.051  1.00  0.00     0.336 A 
ATOM     10  O   UNL     1      10.904  -7.636 -12.230  1.00  0.00    -0.246 OA
ATOM     11  O   UNL     1       9.432  -6.686 -10.836  1.00  0.00    -0.423 OA
ENDROOT
BRANCH   1  12
ATOM     12  O   UNL     1       7.539  -5.477  -5.759  1.00  0.00    -0.493 OA
ATOM     13  C   UNL     1       8.336  -5.318  -4.591  1.00  0.00     0.278 C 
ENDBRANCH   1  12
BRANCH   2  14
ATOM     14  O   UNL     1       6.183  -4.591  -8.048  1.00  0.00    -0.504 OA
ATOM     15  H   UNL     1       5.809  -4.047  -8.815  1.00  0.00     0.293 HD
ENDBRANCH   2  14
TORSDOF 2
ENDMDL
MODEL 6
REMARK VINA RESULT:    -4.774     15.933     18.377
REMARK INTER + INTRA:          -5.236
REMARK INTER:                  -5.184
REMARK INTRA:                  -0.053
REMARK UNBOUND:                -0.043
REMARK SMILES COc1cc2ccc(=O)oc2cc1O
REMARK SMILES IDX 3 1 13 2 12 3 11 4 5 5 4 6 6 7 7 8 8 9 9 10 10 11 2 12 1 13
REMARK SMILES IDX 14 14
REMARK H PARENT 14 15
REMARK Flexibility Score: inf
ROOT
ATOM      1  C   UNL     1       8.037  -6.885 -11.175  1.00  0.00     0.161 A 
ATOM      2  C   UNL     1       8.011  -5.495 -10.946  1.00  0.00     0.161 A 
ATOM      3  C   UNL     1       7.983  -4.997  -9.639  1.00  0.00     0.098 A 
ATOM      4  C   UNL     1       7.980  -5.869  -8.548  1.00  0.00     0.142 A 
ATOM      5  C   UNL     1       8.006  -7.262  -8.767  1.00  0.00     0.022 A 
ATOM      6  C   UNL     1       8.034  -7.766 -10.073  1.00  0.00     0.062 A 
ATOM      7  C   UNL     1       8.003  -8.111  -7.655  1.00  0.00     0.019 A 
ATOM      8  C   UNL     1       7.975  -7.561  -6.374  1.00  0.00     0.094 A 
ATOM      9  C   UNL     1       7.951  -6.169  -6.234  1.00  0.00     0.336 A 
ATOM     10  O   UNL     1       7.925  -5.653  -5.086  1.00  0.00    -0.246 OA
ATOM     11  O   UNL     1       7.953  -5.385  -7.309  1.00  0.00    -0.423 OA
ENDROOT
BRANCH   1  12
ATOM     12  O   UNL     1       8.065  -7.352 -12.499  1.00  0.00    -0.493 OA
ATOM     13  C   UNL     1       9.001  -8.298 -13.002  1.00  0.00     0.278 C 
ENDBRANCH   1  12
BRANCH   2  14
ATOM     14  O   UNL     1       8.013  -4.592 -12.009  1.00  0.00    -0.504 OA
ATOM     15  H   UNL     1       8.861  -4.335 -12.499  1.00  0.00     0.293 HD
ENDBRANCH   2  14
TORSDOF 2
ENDMDL
MODEL 7
REMARK VINA RESULT:    -4.758     15.709     18.299
REMARK INTER + INTRA:          -5.219
REMARK INTER:                  -5.172
REMARK INTRA:                  -0.047
REMARK UNBOUND:                -0.043
REMARK SMILES COc1cc2ccc(=O)oc2cc1O
REMARK SMILES IDX 3 1 13 2 12 3 11 4 5 5 4 6 6 7 7 8 8 9 9 10 10 11 2 12 1 13
REMARK SMILES IDX 14 14
REMARK H PARENT 14 15
REMARK Flexibility Score: inf
ROOT
ATOM      1  C   UNL     1       8.038  -5.522 -11.506  1.00  0.00     0.161 A 
ATOM      2  C   UNL     1       8.017  -6.917 -11.701  1.00  0.00     0.161 A 
ATOM      3  C   UNL     1       7.985  -7.782 -10.602  1.00  0.00     0.098 A 
ATOM      4  C   UNL     1       7.974  -7.274  -9.301  1.00  0.00     0.142 A 
ATOM      5  C   UNL     1       7.995  -5.878  -9.095  1.00  0.00     0.022 A 
ATOM      6  C   UNL     1       8.027  -5.009 -10.192  1.00  0.00     0.062 A 
ATOM      7  C   UNL     1       7.983  -5.399  -7.781  1.00  0.00     0.019 A 
ATOM      8  C   UNL     1       7.951  -6.306  -6.721  1.00  0.00     0.094 A 
ATOM      9  C   UNL     1       7.932  -7.676  -7.002  1.00  0.00     0.336 A 
ATOM     10  O   UNL     1       7.903  -8.510  -6.061  1.00  0.00    -0.246 OA
ATOM     11  O   UNL     1       7.945  -8.104  -8.262  1.00  0.00    -0.423 OA
ENDROOT
BRANCH   1  12
ATOM     12  O   UNL     1       8.070  -4.682 -12.631  1.00  0.00    -0.493 OA
ATOM     13  C   UNL     1       7.394  -3.432 -12.725  1.00  0.00     0.278 C 
ENDBRANCH   1  12
BRANCH   2  14
ATOM     14  O   UNL     1       8.027  -7.463 -12.985  1.00  0.00    -0.504 OA
ATOM     15  H   UNL     1       8.596  -7.080 -13.730  1.00  0.00     0.293 HD
ENDBRANCH   2  14
TORSDOF 2
ENDMDL
MODEL 8
REMARK VINA RESULT:    -4.690     15.064     17.418
REMARK INTER + INTRA:          -5.145
REMARK INTER:                  -5.100
REMARK INTRA:                  -0.045
REMARK UNBOUND:                -0.043
REMARK SMILES COc1cc2ccc(=O)oc2cc1O
REMARK SMILES IDX 3 1 13 2 12 3 11 4 5 5 4 6 6 7 7 8 8 9 9 10 10 11 2 12 1 13
REMARK SMILES IDX 14 14
REMARK H PARENT 14 15
REMARK Flexibility Score: inf
ROOT
ATOM      1  C   UNL     1      10.089  -7.056 -10.920  1.00  0.00     0.161 A 
ATOM      2  C   UNL     1      11.284  -6.767 -10.231  1.00  0.00     0.161 A 
ATOM      3  C   UNL     1      11.242  -6.314  -8.908  1.00  0.00     0.098 A 
ATOM      4  C   UNL     1      10.019  -6.142  -8.257  1.00  0.00     0.142 A 
ATOM      5  C   UNL     1       8.817  -6.429  -8.938  1.00  0.00     0.022 A 
ATOM      6  C   UNL     1       8.854  -6.883 -10.262  1.00  0.00     0.062 A 
ATOM      7  C   UNL     1       7.608  -6.248  -8.258  1.00  0.00     0.019 A 
ATOM      8  C   UNL     1       7.624  -5.794  -6.940  1.00  0.00     0.094 A 
ATOM      9  C   UNL     1       8.854  -5.530  -6.329  1.00  0.00     0.336 A 
ATOM     10  O   UNL     1       8.890  -5.119  -5.140  1.00  0.00    -0.246 OA
ATOM     11  O   UNL     1       9.990  -5.710  -6.998  1.00  0.00    -0.423 OA
ENDROOT
BRANCH   1  12
ATOM     12  O   UNL     1      10.166  -7.510 -12.247  1.00  0.00    -0.493 OA
ATOM     13  C   UNL     1       9.173  -8.302 -12.889  1.00  0.00     0.278 C 
ENDBRANCH   1  12
BRANCH   2  14
ATOM     14  O   UNL     1      12.524  -6.925 -10.848  1.00  0.00    -0.504 OA
ATOM     15  H   UNL     1      13.392  -6.682 -10.387  1.00  0.00     0.293 HD
ENDBRANCH   2  14
TORSDOF 2
ENDMDL
MODEL 9
REMARK VINA RESULT:    -4.609     14.451     18.397
REMARK INTER + INTRA:          -5.057
REMARK INTER:                  -4.997
REMARK INTRA:                  -0.060
REMARK UNBOUND:                -0.043
REMARK SMILES COc1cc2ccc(=O)oc2cc1O
REMARK SMILES IDX 3 1 13 2 12 3 11 4 5 5 4 6 6 7 7 8 8 9 9 10 10 11 2 12 1 13
REMARK SMILES IDX 14 14
REMARK H PARENT 14 15
REMARK Flexibility Score: inf
ROOT
ATOM      1  C   UNL     1      11.301  -6.830  -9.415  1.00  0.00     0.161 A 
ATOM      2  C   UNL     1      11.001  -8.190  -9.630  1.00  0.00     0.161 A 
ATOM      3  C   UNL     1      10.025  -8.825  -8.855  1.00  0.00     0.098 A 
ATOM      4  C   UNL     1       9.338  -8.122  -7.863  1.00  0.00     0.142 A 
ATOM      5  C   UNL     1       9.631  -6.760  -7.641  1.00  0.00     0.022 A 
ATOM      6  C   UNL     1      10.608  -6.119  -8.414  1.00  0.00     0.062 A 
ATOM      7  C   UNL     1       8.927  -6.082  -6.641  1.00  0.00     0.019 A 
ATOM      8  C   UNL     1       7.963  -6.764  -5.899  1.00  0.00     0.094 A 
ATOM      9  C   UNL     1       7.726  -8.115  -6.175  1.00  0.00     0.336 A 
ATOM     10  O   UNL     1       6.862  -8.749  -5.516  1.00  0.00    -0.246 OA
ATOM     11  O   UNL     1       8.412  -8.736  -7.131  1.00  0.00    -0.423 OA
ENDROOT
BRANCH   1  12
ATOM     12  O   UNL     1      12.286  -6.221 -10.211  1.00  0.00    -0.493 OA
ATOM     13  C   UNL     1      12.043  -5.158 -11.125  1.00  0.00     0.278 C 
ENDBRANCH   1  12
BRANCH   2  14
ATOM     14  O   UNL     1      11.665  -8.926 -10.610  1.00  0.00    -0.504 OA
ATOM     15  H   UNL     1      12.568  -9.353 -10.446  1.00  0.00     0.293 HD
ENDBRANCH   2  14
TORSDOF 2
ENDMDL
