MODEL 1
REMARK VINA RESULT:    -3.717      0.000      0.000
REMARK INTER + INTRA:         -12.628
REMARK INTER:                  -8.498
REMARK INTRA:                  -4.130
REMARK UNBOUND:                -4.130
REMARK SMILES CCCCCCCCCCCCCCCCCCCCCCCC(=O)[O-]
REMARK SMILES IDX 13 1 14 2 15 3 16 4 17 5 18 6 19 7 20 8 21 9 22 10 23 11
REMARK SMILES IDX 24 12 25 13 26 14 12 15 11 16 10 17 9 18 8 19 7 20 6 21 5 22
REMARK SMILES IDX 4 23 3 24 2 25 1 26
REMARK H PARENT
REMARK Flexibility Score: inf
ROOT
ATOM      1  C   UNL     1     126.942 120.797 117.863  1.00  0.00     0.000 C 
ENDROOT
BRANCH   1   2
ATOM      2  C   UNL     1     125.809 119.768 117.996  1.00  0.00     0.000 C 
BRANCH   2   3
ATOM      3  C   UNL     1     124.466 120.299 117.475  1.00  0.00     0.000 C 
BRANCH   3   4
ATOM      4  C   UNL     1     124.557 121.752 116.975  1.00  0.00     0.000 C 
BRANCH   4   5
ATOM      5  C   UNL     1     123.566 122.683 117.705  1.00  0.00     0.000 C 
BRANCH   5   6
ATOM      6  C   UNL     1     122.589 121.940 118.633  1.00  0.00     0.000 C 
BRANCH   6   7
ATOM      7  C   UNL     1     122.751 122.331 120.108  1.00  0.00     0.000 C 
BRANCH   7   8
ATOM      8  C   UNL     1     123.643 121.330 120.851  1.00  0.00     0.000 C 
BRANCH   8   9
ATOM      9  C   UNL     1     125.075 121.867 120.984  1.00  0.00     0.000 C 
BRANCH   9  10
ATOM     10  C   UNL     1     126.044 120.853 121.617  1.00  0.00     0.006 C 
BRANCH  10  11
ATOM     11  C   UNL     1     125.344 119.728 122.401  1.00  0.00     0.053 C 
BRANCH  11  12
ATOM     12  C   UNL     1     125.567 119.828 123.879  1.00  0.00     0.041 C 
ATOM     13  O   UNL     1     125.349 120.911 124.483  1.00  0.00    -0.550 OA
ATOM     14  O   UNL     1     126.056 118.734 124.584  1.00  0.00    -0.550 OA
ENDBRANCH  11  12
ENDBRANCH  10  11
ENDBRANCH   9  10
ENDBRANCH   8   9
ENDBRANCH   7   8
ENDBRANCH   6   7
ENDBRANCH   5   6
ENDBRANCH   4   5
ENDBRANCH   3   4
ENDBRANCH   2   3
ENDBRANCH   1   2
BRANCH   1  15
ATOM     15  C   UNL     1     128.313 120.111 117.897  1.00  0.00     0.000 C 
BRANCH  15  16
ATOM     16  C   UNL     1     129.353 120.998 118.597  1.00  0.00     0.000 C 
BRANCH  16  17
ATOM     17  C   UNL     1     128.892 121.470 119.985  1.00  0.00     0.000 C 
BRANCH  17  18
ATOM     18  C   UNL     1     129.920 122.382 120.673  1.00  0.00    -0.000 C 
BRANCH  18  19
ATOM     19  C   UNL     1     131.307 122.224 120.039  1.00  0.00    -0.000 C 
BRANCH  19  20
ATOM     20  C   UNL     1     132.206 121.324 120.897  1.00  0.00    -0.000 C 
BRANCH  20  21
ATOM     21  C   UNL     1     133.023 120.366 120.023  1.00  0.00    -0.000 C 
BRANCH  21  22
ATOM     22  C   UNL     1     132.289 119.030 119.839  1.00  0.00    -0.000 C 
BRANCH  22  23
ATOM     23  C   UNL     1     131.290 118.745 120.971  1.00  0.00    -0.000 C 
BRANCH  23  24
ATOM     24  C   UNL     1     130.174 117.776 120.543  1.00  0.00    -0.000 C 
BRANCH  24  25
ATOM     25  C   UNL     1     128.828 118.097 121.210  1.00  0.00    -0.003 C 
ATOM     26  C   UNL     1     127.635 117.557 120.421  1.00  0.00     0.004 C 
ENDBRANCH  24  25
ENDBRANCH  23  24
ENDBRANCH  22  23
ENDBRANCH  21  22
ENDBRANCH  20  21
ENDBRANCH  19  20
ENDBRANCH  18  19
ENDBRANCH  17  18
ENDBRANCH  16  17
ENDBRANCH  15  16
ENDBRANCH   1  15
TORSDOF 22
ENDMDL
MODEL 2
REMARK VINA RESULT:    -3.689      1.397      3.058
REMARK INTER + INTRA:         -12.563
REMARK INTER:                  -9.048
REMARK INTRA:                  -3.515
REMARK UNBOUND:                -4.130
REMARK SMILES CCCCCCCCCCCCCCCCCCCCCCCC(=O)[O-]
REMARK SMILES IDX 13 1 14 2 15 3 16 4 17 5 18 6 19 7 20 8 21 9 22 10 23 11
REMARK SMILES IDX 24 12 25 13 26 14 12 15 11 16 10 17 9 18 8 19 7 20 6 21 5 22
REMARK SMILES IDX 4 23 3 24 2 25 1 26
REMARK H PARENT
REMARK Flexibility Score: inf
ROOT
ATOM      1  C   UNL     1     127.935 121.391 121.106  1.00  0.00     0.000 C 
ENDROOT
BRANCH   1   2
ATOM      2  C   UNL     1     126.982 120.607 120.191  1.00  0.00     0.000 C 
BRANCH   2   3
ATOM      3  C   UNL     1     127.317 120.783 118.702  1.00  0.00     0.000 C 
BRANCH   3   4
ATOM      4  C   UNL     1     126.508 119.836 117.797  1.00  0.00     0.000 C 
BRANCH   4   5
ATOM      5  C   UNL     1     125.006 120.188 117.780  1.00  0.00     0.000 C 
BRANCH   5   6
ATOM      6  C   UNL     1     124.695 121.540 117.113  1.00  0.00     0.000 C 
BRANCH   6   7
ATOM      7  C   UNL     1     123.299 122.071 117.462  1.00  0.00     0.000 C 
BRANCH   7   8
ATOM      8  C   UNL     1     123.348 122.995 118.686  1.00  0.00     0.000 C 
BRANCH   8   9
ATOM      9  C   UNL     1     122.796 122.286 119.929  1.00  0.00     0.000 C 
BRANCH   9  10
ATOM     10  C   UNL     1     123.864 122.043 121.010  1.00  0.00     0.006 C 
BRANCH  10  11
ATOM     11  C   UNL     1     123.445 121.018 122.080  1.00  0.00     0.053 C 
BRANCH  11  12
ATOM     12  C   UNL     1     124.389 120.980 123.244  1.00  0.00     0.041 C 
ATOM     13  O   UNL     1     124.260 121.796 124.195  1.00  0.00    -0.550 OA
ATOM     14  O   UNL     1     125.437 120.067 123.260  1.00  0.00    -0.550 OA
ENDBRANCH  11  12
ENDBRANCH  10  11
ENDBRANCH   9  10
ENDBRANCH   8   9
ENDBRANCH   7   8
ENDBRANCH   6   7
ENDBRANCH   5   6
ENDBRANCH   4   5
ENDBRANCH   3   4
ENDBRANCH   2   3
ENDBRANCH   1   2
BRANCH   1  15
ATOM     15  C   UNL     1     129.153 121.899 120.323  1.00  0.00     0.000 C 
BRANCH  15  16
ATOM     16  C   UNL     1     129.859 123.033 121.082  1.00  0.00     0.000 C 
BRANCH  16  17
ATOM     17  C   UNL     1     131.376 123.055 120.837  1.00  0.00     0.000 C 
BRANCH  17  18
ATOM     18  C   UNL     1     131.862 121.845 120.025  1.00  0.00    -0.000 C 
BRANCH  18  19
ATOM     19  C   UNL     1     132.650 120.871 120.909  1.00  0.00    -0.000 C 
BRANCH  19  20
ATOM     20  C   UNL     1     132.473 119.424 120.428  1.00  0.00    -0.000 C 
BRANCH  20  21
ATOM     21  C   UNL     1     131.173 118.817 120.970  1.00  0.00    -0.000 C 
BRANCH  21  22
ATOM     22  C   UNL     1     130.168 118.572 119.835  1.00  0.00    -0.000 C 
BRANCH  22  23
ATOM     23  C   UNL     1     130.848 118.423 118.466  1.00  0.00    -0.000 C 
BRANCH  23  24
ATOM     24  C   UNL     1     130.467 119.552 117.492  1.00  0.00    -0.000 C 
BRANCH  24  25
ATOM     25  C   UNL     1     131.660 120.030 116.650  1.00  0.00    -0.003 C 
ATOM     26  C   UNL     1     132.951 119.277 116.976  1.00  0.00     0.004 C 
ENDBRANCH  24  25
ENDBRANCH  23  24
ENDBRANCH  22  23
ENDBRANCH  21  22
ENDBRANCH  20  21
ENDBRANCH  19  20
ENDBRANCH  18  19
ENDBRANCH  17  18
ENDBRANCH  16  17
ENDBRANCH  15  16
ENDBRANCH   1  15
TORSDOF 22
ENDMDL
MODEL 3
REMARK VINA RESULT:    -3.654      2.909      7.793
REMARK INTER + INTRA:         -12.483
REMARK INTER:                  -9.532
REMARK INTRA:                  -2.951
REMARK UNBOUND:                -4.130
REMARK SMILES CCCCCCCCCCCCCCCCCCCCCCCC(=O)[O-]
REMARK SMILES IDX 13 1 14 2 15 3 16 4 17 5 18 6 19 7 20 8 21 9 22 10 23 11
REMARK SMILES IDX 24 12 25 13 26 14 12 15 11 16 10 17 9 18 8 19 7 20 6 21 5 22
REMARK SMILES IDX 4 23 3 24 2 25 1 26
REMARK H PARENT
REMARK Flexibility Score: inf
ROOT
ATOM      1  C   UNL     1     128.205 121.540 121.138  1.00  0.00     0.000 C 
ENDROOT
BRANCH   1   2
ATOM      2  C   UNL     1     129.439 121.825 120.269  1.00  0.00     0.000 C 
BRANCH   2   3
ATOM      3  C   UNL     1     130.327 122.935 120.851  1.00  0.00     0.000 C 
BRANCH   3   4
ATOM      4  C   UNL     1     131.818 122.734 120.525  1.00  0.00     0.000 C 
BRANCH   4   5
ATOM      5  C   UNL     1     132.347 121.376 121.032  1.00  0.00     0.000 C 
BRANCH   5   6
ATOM      6  C   UNL     1     132.904 120.475 119.915  1.00  0.00     0.000 C 
BRANCH   6   7
ATOM      7  C   UNL     1     132.599 118.988 120.139  1.00  0.00     0.000 C 
BRANCH   7   8
ATOM      8  C   UNL     1     131.393 118.805 121.068  1.00  0.00     0.000 C 
BRANCH   8   9
ATOM      9  C   UNL     1     130.191 118.239 120.299  1.00  0.00     0.000 C 
BRANCH   9  10
ATOM     10  C   UNL     1     130.592 117.504 119.007  1.00  0.00     0.006 C 
BRANCH  10  11
ATOM     11  C   UNL     1     129.915 118.058 117.740  1.00  0.00     0.053 C 
BRANCH  11  12
ATOM     12  C   UNL     1     130.762 119.068 117.027  1.00  0.00     0.041 C 
ATOM     13  O   UNL     1     131.600 118.699 116.162  1.00  0.00    -0.550 OA
ATOM     14  O   UNL     1     130.653 120.417 117.347  1.00  0.00    -0.550 OA
ENDBRANCH  11  12
ENDBRANCH  10  11
ENDBRANCH   9  10
ENDBRANCH   8   9
ENDBRANCH   7   8
ENDBRANCH   6   7
ENDBRANCH   5   6
ENDBRANCH   4   5
ENDBRANCH   3   4
ENDBRANCH   2   3
ENDBRANCH   1   2
BRANCH   1  15
ATOM     15  C   UNL     1     127.018 121.094 120.276  1.00  0.00     0.000 C 
BRANCH  15  16
ATOM     16  C   UNL     1     127.501 120.371 119.009  1.00  0.00     0.000 C 
BRANCH  16  17
ATOM     17  C   UNL     1     126.625 120.674 117.784  1.00  0.00     0.000 C 
BRANCH  17  18
ATOM     18  C   UNL     1     125.256 119.979 117.847  1.00  0.00    -0.000 C 
BRANCH  18  19
ATOM     19  C   UNL     1     124.200 120.769 117.065  1.00  0.00    -0.000 C 
BRANCH  19  20
ATOM     20  C   UNL     1     124.372 122.279 117.278  1.00  0.00    -0.000 C 
BRANCH  20  21
ATOM     21  C   UNL     1     123.066 122.921 117.761  1.00  0.00    -0.000 C 
BRANCH  21  22
ATOM     22  C   UNL     1     122.500 122.169 118.974  1.00  0.00    -0.000 C 
BRANCH  22  23
ATOM     23  C   UNL     1     123.341 122.381 120.243  1.00  0.00    -0.000 C 
BRANCH  23  24
ATOM     24  C   UNL     1     122.563 122.049 121.529  1.00  0.00    -0.000 C 
BRANCH  24  25
ATOM     25  C   UNL     1     123.203 122.669 122.780  1.00  0.00    -0.003 C 
ATOM     26  C   UNL     1     123.985 121.650 123.609  1.00  0.00     0.004 C 
ENDBRANCH  24  25
ENDBRANCH  23  24
ENDBRANCH  22  23
ENDBRANCH  21  22
ENDBRANCH  20  21
ENDBRANCH  19  20
ENDBRANCH  18  19
ENDBRANCH  17  18
ENDBRANCH  16  17
ENDBRANCH  15  16
ENDBRANCH   1  15
TORSDOF 22
ENDMDL
MODEL 4
REMARK VINA RESULT:    -3.627      9.506     12.119
REMARK INTER + INTRA:         -12.423
REMARK INTER:                  -7.689
REMARK INTRA:                  -4.734
REMARK UNBOUND:                -4.130
REMARK SMILES CCCCCCCCCCCCCCCCCCCCCCCC(=O)[O-]
REMARK SMILES IDX 13 1 14 2 15 3 16 4 17 5 18 6 19 7 20 8 21 9 22 10 23 11
REMARK SMILES IDX 24 12 25 13 26 14 12 15 11 16 10 17 9 18 8 19 7 20 6 21 5 22
REMARK SMILES IDX 4 23 3 24 2 25 1 26
REMARK H PARENT
REMARK Flexibility Score: inf
ROOT
ATOM      1  C   UNL     1     124.284 126.882 124.945  1.00  0.00     0.000 C 
ENDROOT
BRANCH   1   2
ATOM      2  C   UNL     1     123.366 126.934 126.176  1.00  0.00     0.000 C 
BRANCH   2   3
ATOM      3  C   UNL     1     122.628 128.276 126.304  1.00  0.00     0.000 C 
BRANCH   3   4
ATOM      4  C   UNL     1     121.890 128.671 125.013  1.00  0.00     0.000 C 
BRANCH   4   5
ATOM      5  C   UNL     1     121.803 130.201 124.836  1.00  0.00     0.000 C 
BRANCH   5   6
ATOM      6  C   UNL     1     122.792 130.983 125.719  1.00  0.00     0.000 C 
BRANCH   6   7
ATOM      7  C   UNL     1     123.978 131.551 124.929  1.00  0.00     0.000 C 
BRANCH   7   8
ATOM      8  C   UNL     1     125.095 130.510 124.783  1.00  0.00     0.000 C 
BRANCH   8   9
ATOM      9  C   UNL     1     126.431 131.185 124.444  1.00  0.00     0.000 C 
BRANCH   9  10
ATOM     10  C   UNL     1     127.595 130.187 124.313  1.00  0.00     0.006 C 
BRANCH  10  11
ATOM     11  C   UNL     1     128.085 129.621 125.658  1.00  0.00     0.053 C 
BRANCH  11  12
ATOM     12  C   UNL     1     129.346 130.275 126.136  1.00  0.00     0.041 C 
ATOM     13  O   UNL     1     130.070 130.922 125.334  1.00  0.00    -0.550 OA
ATOM     14  O   UNL     1     129.742 130.138 127.462  1.00  0.00    -0.550 OA
ENDBRANCH  11  12
ENDBRANCH  10  11
ENDBRANCH   9  10
ENDBRANCH   8   9
ENDBRANCH   7   8
ENDBRANCH   6   7
ENDBRANCH   5   6
ENDBRANCH   4   5
ENDBRANCH   3   4
ENDBRANCH   2   3
ENDBRANCH   1   2
BRANCH   1  15
ATOM     15  C   UNL     1     125.760 126.855 125.362  1.00  0.00     0.000 C 
BRANCH  15  16
ATOM     16  C   UNL     1     125.958 125.999 126.622  1.00  0.00     0.000 C 
BRANCH  16  17
ATOM     17  C   UNL     1     127.051 126.554 127.550  1.00  0.00     0.000 C 
BRANCH  17  18
ATOM     18  C   UNL     1     126.650 126.503 129.032  1.00  0.00    -0.000 C 
BRANCH  18  19
ATOM     19  C   UNL     1     125.281 125.837 129.211  1.00  0.00    -0.000 C 
BRANCH  19  20
ATOM     20  C   UNL     1     124.502 126.480 130.365  1.00  0.00    -0.000 C 
BRANCH  20  21
ATOM     21  C   UNL     1     123.458 127.474 129.842  1.00  0.00    -0.000 C 
BRANCH  21  22
ATOM     22  C   UNL     1     123.767 128.898 130.324  1.00  0.00    -0.000 C 
BRANCH  22  23
ATOM     23  C   UNL     1     123.880 129.902 129.167  1.00  0.00    -0.000 C 
BRANCH  23  24
ATOM     24  C   UNL     1     125.162 129.706 128.338  1.00  0.00    -0.000 C 
BRANCH  24  25
ATOM     25  C   UNL     1     126.262 130.712 128.711  1.00  0.00    -0.003 C 
ATOM     26  C   UNL     1     127.194 130.188 129.803  1.00  0.00     0.004 C 
ENDBRANCH  24  25
ENDBRANCH  23  24
ENDBRANCH  22  23
ENDBRANCH  21  22
ENDBRANCH  20  21
ENDBRANCH  19  20
ENDBRANCH  18  19
ENDBRANCH  17  18
ENDBRANCH  16  17
ENDBRANCH  15  16
ENDBRANCH   1  15
TORSDOF 22
ENDMDL
MODEL 5
REMARK VINA RESULT:    -3.615     11.147     14.568
REMARK INTER + INTRA:         -12.394
REMARK INTER:                  -9.871
REMARK INTRA:                  -2.524
REMARK UNBOUND:                -4.130
REMARK SMILES CCCCCCCCCCCCCCCCCCCCCCCC(=O)[O-]
REMARK SMILES IDX 13 1 14 2 15 3 16 4 17 5 18 6 19 7 20 8 21 9 22 10 23 11
REMARK SMILES IDX 24 12 25 13 26 14 12 15 11 16 10 17 9 18 8 19 7 20 6 21 5 22
REMARK SMILES IDX 4 23 3 24 2 25 1 26
REMARK H PARENT
REMARK Flexibility Score: inf
ROOT
ATOM      1  C   UNL     1     126.016 125.181 131.974  1.00  0.00     0.000 C 
ENDROOT
BRANCH   1   2
ATOM      2  C   UNL     1     127.253 125.993 132.386  1.00  0.00     0.000 C 
BRANCH   2   3
ATOM      3  C   UNL     1     128.074 125.300 133.484  1.00  0.00     0.000 C 
BRANCH   3   4
ATOM      4  C   UNL     1     128.791 126.299 134.409  1.00  0.00     0.000 C 
BRANCH   4   5
ATOM      5  C   UNL     1     130.323 126.262 134.232  1.00  0.00     0.000 C 
BRANCH   5   6
ATOM      6  C   UNL     1     131.090 127.028 135.325  1.00  0.00     0.000 C 
BRANCH   6   7
ATOM      7  C   UNL     1     132.519 126.508 135.528  1.00  0.00     0.000 C 
BRANCH   7   8
ATOM      8  C   UNL     1     132.539 124.980 135.658  1.00  0.00     0.000 C 
BRANCH   8   9
ATOM      9  C   UNL     1     133.635 124.369 134.774  1.00  0.00     0.000 C 
BRANCH   9  10
ATOM     10  C   UNL     1     133.090 123.367 133.742  1.00  0.00     0.006 C 
BRANCH  10  11
ATOM     11  C   UNL     1     131.648 122.904 134.024  1.00  0.00     0.053 C 
BRANCH  11  12
ATOM     12  C   UNL     1     131.584 121.501 134.546  1.00  0.00     0.041 C 
ATOM     13  O   UNL     1     131.980 121.237 135.713  1.00  0.00    -0.550 OA
ATOM     14  O   UNL     1     131.123 120.474 133.730  1.00  0.00    -0.550 OA
ENDBRANCH  11  12
ENDBRANCH  10  11
ENDBRANCH   9  10
ENDBRANCH   8   9
ENDBRANCH   7   8
ENDBRANCH   6   7
ENDBRANCH   5   6
ENDBRANCH   4   5
ENDBRANCH   3   4
ENDBRANCH   2   3
ENDBRANCH   1   2
BRANCH   1  15
ATOM     15  C   UNL     1     125.387 125.751 130.696  1.00  0.00     0.000 C 
BRANCH  15  16
ATOM     16  C   UNL     1     126.442 126.464 129.836  1.00  0.00     0.000 C 
BRANCH  16  17
ATOM     17  C   UNL     1     126.478 125.943 128.391  1.00  0.00     0.000 C 
BRANCH  17  18
ATOM     18  C   UNL     1     127.392 126.781 127.483  1.00  0.00    -0.000 C 
BRANCH  18  19
ATOM     19  C   UNL     1     126.652 127.224 126.215  1.00  0.00    -0.000 C 
BRANCH  19  20
ATOM     20  C   UNL     1     125.312 126.491 126.075  1.00  0.00    -0.000 C 
BRANCH  20  21
ATOM     21  C   UNL     1     124.226 127.424 125.526  1.00  0.00    -0.000 C 
BRANCH  21  22
ATOM     22  C   UNL     1     123.110 127.636 126.560  1.00  0.00    -0.000 C 
BRANCH  22  23
ATOM     23  C   UNL     1     123.651 128.078 127.928  1.00  0.00    -0.000 C 
BRANCH  23  24
ATOM     24  C   UNL     1     123.575 129.602 128.128  1.00  0.00    -0.000 C 
BRANCH  24  25
ATOM     25  C   UNL     1     124.864 130.317 127.697  1.00  0.00    -0.003 C 
ATOM     26  C   UNL     1     126.050 129.993 128.605  1.00  0.00     0.004 C 
ENDBRANCH  24  25
ENDBRANCH  23  24
ENDBRANCH  22  23
ENDBRANCH  21  22
ENDBRANCH  20  21
ENDBRANCH  19  20
ENDBRANCH  18  19
ENDBRANCH  17  18
ENDBRANCH  16  17
ENDBRANCH  15  16
ENDBRANCH   1  15
TORSDOF 22
ENDMDL
MODEL 6
REMARK VINA RESULT:    -3.600      9.520     12.363
REMARK INTER + INTRA:         -12.360
REMARK INTER:                  -7.979
REMARK INTRA:                  -4.381
REMARK UNBOUND:                -4.130
REMARK SMILES CCCCCCCCCCCCCCCCCCCCCCCC(=O)[O-]
REMARK SMILES IDX 13 1 14 2 15 3 16 4 17 5 18 6 19 7 20 8 21 9 22 10 23 11
REMARK SMILES IDX 24 12 25 13 26 14 12 15 11 16 10 17 9 18 8 19 7 20 6 21 5 22
REMARK SMILES IDX 4 23 3 24 2 25 1 26
REMARK H PARENT
REMARK Flexibility Score: inf
ROOT
ATOM      1  C   UNL     1     125.975 130.135 127.227  1.00  0.00     0.000 C 
ENDROOT
BRANCH   1   2
ATOM      2  C   UNL     1     127.159 131.058 127.554  1.00  0.00     0.000 C 
BRANCH   2   3
ATOM      3  C   UNL     1     128.365 130.292 128.117  1.00  0.00     0.000 C 
BRANCH   3   4
ATOM      4  C   UNL     1     129.478 130.091 127.074  1.00  0.00     0.000 C 
BRANCH   4   5
ATOM      5  C   UNL     1     129.477 131.198 125.999  1.00  0.00     0.000 C 
BRANCH   5   6
ATOM      6  C   UNL     1     129.494 130.661 124.557  1.00  0.00     0.000 C 
BRANCH   6   7
ATOM      7  C   UNL     1     129.137 131.730 123.516  1.00  0.00     0.000 C 
BRANCH   7   8
ATOM      8  C   UNL     1     127.826 132.438 123.878  1.00  0.00     0.000 C 
BRANCH   8   9
ATOM      9  C   UNL     1     126.795 132.289 122.752  1.00  0.00     0.000 C 
BRANCH   9  10
ATOM     10  C   UNL     1     127.076 131.089 121.831  1.00  0.00     0.006 C 
BRANCH  10  11
ATOM     11  C   UNL     1     126.250 131.094 120.531  1.00  0.00     0.053 C 
BRANCH  11  12
ATOM     12  C   UNL     1     127.084 130.826 119.315  1.00  0.00     0.041 C 
ATOM     13  O   UNL     1     127.282 129.644 118.928  1.00  0.00    -0.550 OA
ATOM     14  O   UNL     1     127.677 131.882 118.631  1.00  0.00    -0.550 OA
ENDBRANCH  11  12
ENDBRANCH  10  11
ENDBRANCH   9  10
ENDBRANCH   8   9
ENDBRANCH   7   8
ENDBRANCH   6   7
ENDBRANCH   5   6
ENDBRANCH   4   5
ENDBRANCH   3   4
ENDBRANCH   2   3
ENDBRANCH   1   2
BRANCH   1  15
ATOM     15  C   UNL     1     125.453 130.394 125.808  1.00  0.00     0.000 C 
BRANCH  15  16
ATOM     16  C   UNL     1     126.009 129.356 124.822  1.00  0.00     0.000 C 
BRANCH  16  17
ATOM     17  C   UNL     1     126.711 128.185 125.527  1.00  0.00     0.000 C 
BRANCH  17  18
ATOM     18  C   UNL     1     125.935 126.865 125.399  1.00  0.00    -0.000 C 
BRANCH  18  19
ATOM     19  C   UNL     1     126.177 125.964 126.615  1.00  0.00    -0.000 C 
BRANCH  19  20
ATOM     20  C   UNL     1     127.219 126.580 127.558  1.00  0.00    -0.000 C 
BRANCH  20  21
ATOM     21  C   UNL     1     126.654 126.744 128.974  1.00  0.00    -0.000 C 
BRANCH  21  22
ATOM     22  C   UNL     1     125.265 126.099 129.089  1.00  0.00    -0.000 C 
BRANCH  22  23
ATOM     23  C   UNL     1     124.242 127.019 129.772  1.00  0.00    -0.000 C 
BRANCH  23  24
ATOM     24  C   UNL     1     123.591 128.010 128.792  1.00  0.00    -0.000 C 
BRANCH  24  25
ATOM     25  C   UNL     1     123.061 127.322 127.525  1.00  0.00    -0.003 C 
ATOM     26  C   UNL     1     122.734 128.313 126.408  1.00  0.00     0.004 C 
ENDBRANCH  24  25
ENDBRANCH  23  24
ENDBRANCH  22  23
ENDBRANCH  21  22
ENDBRANCH  20  21
ENDBRANCH  19  20
ENDBRANCH  18  19
ENDBRANCH  17  18
ENDBRANCH  16  17
ENDBRANCH  15  16
ENDBRANCH   1  15
TORSDOF 22
ENDMDL
MODEL 7
REMARK VINA RESULT:    -3.532      2.199      7.186
REMARK INTER + INTRA:         -12.205
REMARK INTER:                  -8.259
REMARK INTRA:                  -3.946
REMARK UNBOUND:                -4.130
REMARK SMILES CCCCCCCCCCCCCCCCCCCCCCCC(=O)[O-]
REMARK SMILES IDX 13 1 14 2 15 3 16 4 17 5 18 6 19 7 20 8 21 9 22 10 23 11
REMARK SMILES IDX 24 12 25 13 26 14 12 15 11 16 10 17 9 18 8 19 7 20 6 21 5 22
REMARK SMILES IDX 4 23 3 24 2 25 1 26
REMARK H PARENT
REMARK Flexibility Score: inf
ROOT
ATOM      1  C   UNL     1     129.122 121.482 119.955  1.00  0.00     0.000 C 
ENDROOT
BRANCH   1   2
ATOM      2  C   UNL     1     129.355 121.066 118.494  1.00  0.00     0.000 C 
BRANCH   2   3
ATOM      3  C   UNL     1     129.290 119.544 118.297  1.00  0.00     0.000 C 
BRANCH   3   4
ATOM      4  C   UNL     1     130.455 119.007 117.447  1.00  0.00     0.000 C 
BRANCH   4   5
ATOM      5  C   UNL     1     131.670 119.958 117.454  1.00  0.00     0.000 C 
BRANCH   5   6
ATOM      6  C   UNL     1     132.818 119.488 118.365  1.00  0.00     0.000 C 
BRANCH   6   7
ATOM      7  C   UNL     1     132.958 120.335 119.636  1.00  0.00     0.000 C 
BRANCH   7   8
ATOM      8  C   UNL     1     132.164 119.726 120.798  1.00  0.00     0.000 C 
BRANCH   8   9
ATOM      9  C   UNL     1     132.123 118.196 120.690  1.00  0.00     0.000 C 
BRANCH   9  10
ATOM     10  C   UNL     1     130.989 117.562 121.514  1.00  0.00     0.006 C 
BRANCH  10  11
ATOM     11  C   UNL     1     130.645 116.120 121.096  1.00  0.00     0.053 C 
BRANCH  11  12
ATOM     12  C   UNL     1     130.119 115.299 122.233  1.00  0.00     0.041 C 
ATOM     13  O   UNL     1     129.812 115.846 123.325  1.00  0.00    -0.550 OA
ATOM     14  O   UNL     1     130.004 113.919 122.101  1.00  0.00    -0.550 OA
ENDBRANCH  11  12
ENDBRANCH  10  11
ENDBRANCH   9  10
ENDBRANCH   8   9
ENDBRANCH   7   8
ENDBRANCH   6   7
ENDBRANCH   5   6
ENDBRANCH   4   5
ENDBRANCH   3   4
ENDBRANCH   2   3
ENDBRANCH   1   2
BRANCH   1  15
ATOM     15  C   UNL     1     128.583 120.307 120.780  1.00  0.00     0.000 C 
BRANCH  15  16
ATOM     16  C   UNL     1     127.279 120.692 121.495  1.00  0.00     0.000 C 
BRANCH  16  17
ATOM     17  C   UNL     1     126.171 121.117 120.519  1.00  0.00     0.000 C 
BRANCH  17  18
ATOM     18  C   UNL     1     125.336 119.929 120.018  1.00  0.00    -0.000 C 
BRANCH  18  19
ATOM     19  C   UNL     1     125.718 119.555 118.581  1.00  0.00    -0.000 C 
BRANCH  19  20
ATOM     20  C   UNL     1     125.673 120.782 117.661  1.00  0.00    -0.000 C 
BRANCH  20  21
ATOM     21  C   UNL     1     124.241 121.072 117.196  1.00  0.00    -0.000 C 
BRANCH  21  22
ATOM     22  C   UNL     1     123.921 122.570 117.306  1.00  0.00    -0.000 C 
BRANCH  22  23
ATOM     23  C   UNL     1     122.991 122.889 118.486  1.00  0.00    -0.000 C 
BRANCH  23  24
ATOM     24  C   UNL     1     122.339 121.629 119.082  1.00  0.00    -0.000 C 
BRANCH  24  25
ATOM     25  C   UNL     1     121.765 121.872 120.486  1.00  0.00    -0.003 C 
ATOM     26  C   UNL     1     122.831 122.303 121.493  1.00  0.00     0.004 C 
ENDBRANCH  24  25
ENDBRANCH  23  24
ENDBRANCH  22  23
ENDBRANCH  21  22
ENDBRANCH  20  21
ENDBRANCH  19  20
ENDBRANCH  18  19
ENDBRANCH  17  18
ENDBRANCH  16  17
ENDBRANCH  15  16
ENDBRANCH   1  15
TORSDOF 22
ENDMDL
MODEL 8
REMARK VINA RESULT:    -3.531      2.259      4.128
REMARK INTER + INTRA:         -12.203
REMARK INTER:                  -7.718
REMARK INTRA:                  -4.486
REMARK UNBOUND:                -4.130
REMARK SMILES CCCCCCCCCCCCCCCCCCCCCCCC(=O)[O-]
REMARK SMILES IDX 13 1 14 2 15 3 16 4 17 5 18 6 19 7 20 8 21 9 22 10 23 11
REMARK SMILES IDX 24 12 25 13 26 14 12 15 11 16 10 17 9 18 8 19 7 20 6 21 5 22
REMARK SMILES IDX 4 23 3 24 2 25 1 26
REMARK H PARENT
REMARK Flexibility Score: inf
ROOT
ATOM      1  C   UNL     1     127.575 120.765 117.930  1.00  0.00     0.000 C 
ENDROOT
BRANCH   1   2
ATOM      2  C   UNL     1     127.021 119.350 117.702  1.00  0.00     0.000 C 
BRANCH   2   3
ATOM      3  C   UNL     1     127.812 118.278 118.467  1.00  0.00     0.000 C 
BRANCH   3   4
ATOM      4  C   UNL     1     126.976 117.595 119.564  1.00  0.00     0.000 C 
BRANCH   4   5
ATOM      5  C   UNL     1     127.632 117.716 120.956  1.00  0.00     0.000 C 
BRANCH   5   6
ATOM      6  C   UNL     1     126.989 118.791 121.851  1.00  0.00     0.000 C 
BRANCH   6   7
ATOM      7  C   UNL     1     125.526 119.074 121.488  1.00  0.00     0.000 C 
BRANCH   7   8
ATOM      8  C   UNL     1     125.221 120.576 121.548  1.00  0.00     0.000 C 
BRANCH   8   9
ATOM      9  C   UNL     1     124.779 121.099 120.175  1.00  0.00     0.000 C 
BRANCH   9  10
ATOM     10  C   UNL     1     123.992 120.059 119.357  1.00  0.00     0.006 C 
BRANCH  10  11
ATOM     11  C   UNL     1     122.603 120.544 118.905  1.00  0.00     0.053 C 
BRANCH  11  12
ATOM     12  C   UNL     1     122.281 121.921 119.401  1.00  0.00     0.041 C 
ATOM     13  O   UNL     1     122.567 122.931 118.704  1.00  0.00    -0.550 OA
ATOM     14  O   UNL     1     121.701 122.092 120.652  1.00  0.00    -0.550 OA
ENDBRANCH  11  12
ENDBRANCH  10  11
ENDBRANCH   9  10
ENDBRANCH   8   9
ENDBRANCH   7   8
ENDBRANCH   6   7
ENDBRANCH   5   6
ENDBRANCH   4   5
ENDBRANCH   3   4
ENDBRANCH   2   3
ENDBRANCH   1   2
BRANCH   1  15
ATOM     15  C   UNL     1     128.811 120.731 118.837  1.00  0.00     0.000 C 
BRANCH  15  16
ATOM     16  C   UNL     1     128.555 121.501 120.141  1.00  0.00     0.000 C 
BRANCH  16  17
ATOM     17  C   UNL     1     129.808 122.229 120.655  1.00  0.00     0.000 C 
BRANCH  17  18
ATOM     18  C   UNL     1     131.054 121.934 119.807  1.00  0.00    -0.000 C 
BRANCH  18  19
ATOM     19  C   UNL     1     132.235 121.514 120.690  1.00  0.00    -0.000 C 
BRANCH  19  20
ATOM     20  C   UNL     1     132.681 120.082 120.367  1.00  0.00    -0.000 C 
BRANCH  20  21
ATOM     21  C   UNL     1     131.708 119.053 120.954  1.00  0.00    -0.000 C 
BRANCH  21  22
ATOM     22  C   UNL     1     131.184 118.107 119.864  1.00  0.00    -0.000 C 
BRANCH  22  23
ATOM     23  C   UNL     1     132.039 118.148 118.588  1.00  0.00    -0.000 C 
BRANCH  23  24
ATOM     24  C   UNL     1     131.226 118.544 117.344  1.00  0.00    -0.000 C 
BRANCH  24  25
ATOM     25  C   UNL     1     131.723 119.851 116.708  1.00  0.00    -0.003 C 
ATOM     26  C   UNL     1     133.225 119.834 116.423  1.00  0.00     0.004 C 
ENDBRANCH  24  25
ENDBRANCH  23  24
ENDBRANCH  22  23
ENDBRANCH  21  22
ENDBRANCH  20  21
ENDBRANCH  19  20
ENDBRANCH  18  19
ENDBRANCH  17  18
ENDBRANCH  16  17
ENDBRANCH  15  16
ENDBRANCH   1  15
TORSDOF 22
ENDMDL
MODEL 9
REMARK VINA RESULT:    -3.474      9.322     12.199
REMARK INTER + INTRA:         -12.071
REMARK INTER:                  -7.991
REMARK INTRA:                  -4.080
REMARK UNBOUND:                -4.130
REMARK SMILES CCCCCCCCCCCCCCCCCCCCCCCC(=O)[O-]
REMARK SMILES IDX 13 1 14 2 15 3 16 4 17 5 18 6 19 7 20 8 21 9 22 10 23 11
REMARK SMILES IDX 24 12 25 13 26 14 12 15 11 16 10 17 9 18 8 19 7 20 6 21 5 22
REMARK SMILES IDX 4 23 3 24 2 25 1 26
REMARK H PARENT
REMARK Flexibility Score: inf
ROOT
ATOM      1  C   UNL     1     125.447 126.707 125.189  1.00  0.00     0.000 C 
ENDROOT
BRANCH   1   2
ATOM      2  C   UNL     1     125.355 126.000 126.550  1.00  0.00     0.000 C 
BRANCH   2   3
ATOM      3  C   UNL     1     126.668 126.076 127.343  1.00  0.00     0.000 C 
BRANCH   3   4
ATOM      4  C   UNL     1     126.525 126.873 128.651  1.00  0.00     0.000 C 
BRANCH   4   5
ATOM      5  C   UNL     1     125.074 126.872 129.179  1.00  0.00     0.000 C 
BRANCH   5   6
ATOM      6  C   UNL     1     124.694 128.152 129.944  1.00  0.00     0.000 C 
BRANCH   6   7
ATOM      7  C   UNL     1     123.754 129.067 129.148  1.00  0.00     0.000 C 
BRANCH   7   8
ATOM      8  C   UNL     1     124.470 130.353 128.716  1.00  0.00     0.000 C 
BRANCH   8   9
ATOM      9  C   UNL     1     125.113 130.182 127.333  1.00  0.00     0.000 C 
BRANCH   9  10
ATOM     10  C   UNL     1     126.616 130.513 127.322  1.00  0.00     0.006 C 
BRANCH  10  11
ATOM     11  C   UNL     1     127.439 129.638 126.358  1.00  0.00     0.053 C 
BRANCH  11  12
ATOM     12  C   UNL     1     128.841 130.137 126.180  1.00  0.00     0.041 C 
ATOM     13  O   UNL     1     129.146 130.833 125.176  1.00  0.00    -0.550 OA
ATOM     14  O   UNL     1     129.823 129.799 127.105  1.00  0.00    -0.550 OA
ENDBRANCH  11  12
ENDBRANCH  10  11
ENDBRANCH   9  10
ENDBRANCH   8   9
ENDBRANCH   7   8
ENDBRANCH   6   7
ENDBRANCH   5   6
ENDBRANCH   4   5
ENDBRANCH   3   4
ENDBRANCH   2   3
ENDBRANCH   1   2
BRANCH   1  15
ATOM     15  C   UNL     1     124.329 127.746 125.034  1.00  0.00     0.000 C 
BRANCH  15  16
ATOM     16  C   UNL     1     123.132 127.402 125.934  1.00  0.00     0.000 C 
BRANCH  16  17
ATOM     17  C   UNL     1     121.917 128.306 125.674  1.00  0.00     0.000 C 
BRANCH  17  18
ATOM     18  C   UNL     1     122.150 129.296 124.523  1.00  0.00    -0.000 C 
BRANCH  18  19
ATOM     19  C   UNL     1     122.332 130.724 125.052  1.00  0.00    -0.000 C 
BRANCH  19  20
ATOM     20  C   UNL     1     122.963 131.630 123.988  1.00  0.00    -0.000 C 
BRANCH  20  21
ATOM     21  C   UNL     1     124.484 131.444 123.936  1.00  0.00    -0.000 C 
BRANCH  21  22
ATOM     22  C   UNL     1     124.910 130.766 122.626  1.00  0.00    -0.000 C 
BRANCH  22  23
ATOM     23  C   UNL     1     123.912 131.011 121.484  1.00  0.00    -0.000 C 
BRANCH  23  24
ATOM     24  C   UNL     1     124.248 130.198 120.221  1.00  0.00    -0.000 C 
BRANCH  24  25
ATOM     25  C   UNL     1     125.274 130.905 119.322  1.00  0.00    -0.003 C 
ATOM     26  C   UNL     1     126.654 130.249 119.375  1.00  0.00     0.004 C 
ENDBRANCH  24  25
ENDBRANCH  23  24
ENDBRANCH  22  23
ENDBRANCH  21  22
ENDBRANCH  20  21
ENDBRANCH  19  20
ENDBRANCH  18  19
ENDBRANCH  17  18
ENDBRANCH  16  17
ENDBRANCH  15  16
ENDBRANCH   1  15
TORSDOF 22
ENDMDL
