MODEL 1
REMARK VINA RESULT:    -0.317      0.000      0.000
REMARK INTER + INTRA:          -0.622
REMARK INTER:                  -0.799
REMARK INTRA:                   0.177
REMARK UNBOUND:                 0.177
REMARK SMILES CCCCCCCCCCCCCCCCCCCCCCCCCCCC(=O)[O-]
REMARK SMILES IDX 15 1 16 2 17 3 18 4 19 5 20 6 21 7 22 8 23 9 24 10 25 11
REMARK SMILES IDX 26 12 27 13 28 14 29 15 30 16 14 17 13 18 12 19 11 20 10 21
REMARK SMILES IDX 9 22 8 23 7 24 6 25 5 26 4 27 3 28 2 29 1 30
REMARK H PARENT
REMARK Flexibility Score: inf
ROOT
ATOM      1  C   UNL     1       2.968   3.954  15.299  1.00  0.00     0.000 C 
ENDROOT
BRANCH   1   2
ATOM      2  C   UNL     1       4.370   3.915  15.927  1.00  0.00     0.000 C 
BRANCH   2   3
ATOM      3  C   UNL     1       4.750   2.486  16.333  1.00  0.00     0.000 C 
BRANCH   3   4
ATOM      4  C   UNL     1       3.532   1.726  16.878  1.00  0.00     0.000 C 
BRANCH   4   5
ATOM      5  C   UNL     1       3.678   0.197  16.770  1.00  0.00     0.000 C 
BRANCH   5   6
ATOM      6  C   UNL     1       5.119  -0.335  16.876  1.00  0.00     0.000 C 
BRANCH   6   7
ATOM      7  C   UNL     1       5.203  -1.711  17.557  1.00  0.00     0.000 C 
BRANCH   7   8
ATOM      8  C   UNL     1       6.329  -1.795  18.604  1.00  0.00     0.000 C 
BRANCH   8   9
ATOM      9  C   UNL     1       6.696  -0.462  19.281  1.00  0.00     0.000 C 
BRANCH   9  10
ATOM     10  C   UNL     1       5.744  -0.086  20.426  1.00  0.00     0.000 C 
BRANCH  10  11
ATOM     11  C   UNL     1       4.300   0.043  19.920  1.00  0.00     0.000 C 
BRANCH  11  12
ATOM     12  C   UNL     1       3.722   1.459  20.097  1.00  0.00     0.006 C 
BRANCH  12  13
ATOM     13  C   UNL     1       2.326   1.646  19.475  1.00  0.00     0.053 C 
BRANCH  13  14
ATOM     14  C   UNL     1       1.245   1.741  20.509  1.00  0.00     0.041 C 
ATOM     15  O   UNL     1       0.592   0.716  20.839  1.00  0.00    -0.550 OA
ATOM     16  O   UNL     1       0.931   2.967  21.081  1.00  0.00    -0.550 OA
ENDBRANCH  13  14
ENDBRANCH  12  13
ENDBRANCH  11  12
ENDBRANCH  10  11
ENDBRANCH   9  10
ENDBRANCH   8   9
ENDBRANCH   7   8
ENDBRANCH   6   7
ENDBRANCH   5   6
ENDBRANCH   4   5
ENDBRANCH   3   4
ENDBRANCH   2   3
ENDBRANCH   1   2
BRANCH   1  17
ATOM     17  C   UNL     1       2.988   4.319  13.803  1.00  0.00     0.000 C 
BRANCH  17  18
ATOM     18  C   UNL     1       3.794   3.363  12.904  1.00  0.00     0.000 C 
BRANCH  18  19
ATOM     19  C   UNL     1       5.302   3.377  13.212  1.00  0.00     0.000 C 
BRANCH  19  20
ATOM     20  C   UNL     1       5.804   2.052  13.814  1.00  0.00     0.000 C 
BRANCH  20  21
ATOM     21  C   UNL     1       6.661   1.185  12.875  1.00  0.00     0.000 C 
BRANCH  21  22
ATOM     22  C   UNL     1       7.529   0.163  13.626  1.00  0.00    -0.000 C 
BRANCH  22  23
ATOM     23  C   UNL     1       6.657  -0.900  14.310  1.00  0.00    -0.000 C 
BRANCH  23  24
ATOM     24  C   UNL     1       6.307  -2.077  13.381  1.00  0.00    -0.000 C 
BRANCH  24  25
ATOM     25  C   UNL     1       4.845  -2.115  12.902  1.00  0.00    -0.000 C 
BRANCH  25  26
ATOM     26  C   UNL     1       3.899  -1.305  13.800  1.00  0.00    -0.000 C 
BRANCH  26  27
ATOM     27  C   UNL     1       2.437  -1.710  13.561  1.00  0.00    -0.000 C 
BRANCH  27  28
ATOM     28  C   UNL     1       1.612  -1.773  14.860  1.00  0.00    -0.000 C 
BRANCH  28  29
ATOM     29  C   UNL     1       0.650  -0.589  15.072  1.00  0.00    -0.003 C 
ATOM     30  C   UNL     1       1.155   0.712  14.449  1.00  0.00     0.004 C 
ENDBRANCH  28  29
ENDBRANCH  27  28
ENDBRANCH  26  27
ENDBRANCH  25  26
ENDBRANCH  24  25
ENDBRANCH  23  24
ENDBRANCH  22  23
ENDBRANCH  21  22
ENDBRANCH  20  21
ENDBRANCH  19  20
ENDBRANCH  18  19
ENDBRANCH  17  18
ENDBRANCH   1  17
TORSDOF 26
ENDMDL
MODEL 2
REMARK VINA RESULT:     1.537      1.006      4.438
REMARK INTER + INTRA:           4.051
REMARK INTER:                   3.737
REMARK INTRA:                   0.314
REMARK UNBOUND:                 0.177
REMARK SMILES CCCCCCCCCCCCCCCCCCCCCCCCCCCC(=O)[O-]
REMARK SMILES IDX 15 1 16 2 17 3 18 4 19 5 20 6 21 7 22 8 23 9 24 10 25 11
REMARK SMILES IDX 26 12 27 13 28 14 29 15 30 16 14 17 13 18 12 19 11 20 10 21
REMARK SMILES IDX 9 22 8 23 7 24 6 25 5 26 4 27 3 28 2 29 1 30
REMARK H PARENT
REMARK Flexibility Score: inf
ROOT
ATOM      1  C   UNL     1       2.490  -1.279  14.991  1.00  0.00     0.000 C 
ENDROOT
BRANCH   1   2
ATOM      2  C   UNL     1       1.070  -1.173  14.414  1.00  0.00     0.000 C 
BRANCH   2   3
ATOM      3  C   UNL     1       0.469   0.212  14.686  1.00  0.00     0.000 C 
BRANCH   3   4
ATOM      4  C   UNL     1       1.554   1.206  15.125  1.00  0.00     0.000 C 
BRANCH   4   5
ATOM      5  C   UNL     1       1.450   2.566  14.411  1.00  0.00     0.000 C 
BRANCH   5   6
ATOM      6  C   UNL     1       2.794   3.249  14.095  1.00  0.00     0.000 C 
BRANCH   6   7
ATOM      7  C   UNL     1       3.179   4.322  15.128  1.00  0.00     0.000 C 
BRANCH   7   8
ATOM      8  C   UNL     1       4.566   4.082  15.753  1.00  0.00     0.000 C 
BRANCH   8   9
ATOM      9  C   UNL     1       4.936   2.606  15.983  1.00  0.00     0.000 C 
BRANCH   9  10
ATOM     10  C   UNL     1       4.269   2.006  17.230  1.00  0.00     0.000 C 
BRANCH  10  11
ATOM     11  C   UNL     1       2.775   1.752  16.986  1.00  0.00     0.000 C 
BRANCH  11  12
ATOM     12  C   UNL     1       2.010   1.367  18.266  1.00  0.00     0.006 C 
BRANCH  12  13
ATOM     13  C   UNL     1       2.275   2.304  19.458  1.00  0.00     0.053 C 
BRANCH  13  14
ATOM     14  C   UNL     1       1.293   2.108  20.572  1.00  0.00     0.041 C 
ATOM     15  O   UNL     1       1.039   0.950  20.997  1.00  0.00    -0.550 OA
ATOM     16  O   UNL     1       0.627   3.199  21.117  1.00  0.00    -0.550 OA
ENDBRANCH  13  14
ENDBRANCH  12  13
ENDBRANCH  11  12
ENDBRANCH  10  11
ENDBRANCH   9  10
ENDBRANCH   8   9
ENDBRANCH   7   8
ENDBRANCH   6   7
ENDBRANCH   5   6
ENDBRANCH   4   5
ENDBRANCH   3   4
ENDBRANCH   2   3
ENDBRANCH   1   2
BRANCH   1  17
ATOM     17  C   UNL     1       3.489  -1.928  14.016  1.00  0.00     0.000 C 
BRANCH  17  18
ATOM     18  C   UNL     1       3.987  -1.015  12.879  1.00  0.00     0.000 C 
BRANCH  18  19
ATOM     19  C   UNL     1       3.950   0.478  13.248  1.00  0.00     0.000 C 
BRANCH  19  20
ATOM     20  C   UNL     1       5.291   1.191  12.995  1.00  0.00     0.000 C 
BRANCH  20  21
ATOM     21  C   UNL     1       6.521   0.270  12.911  1.00  0.00     0.000 C 
BRANCH  21  22
ATOM     22  C   UNL     1       7.038  -0.169  14.290  1.00  0.00    -0.000 C 
BRANCH  22  23
ATOM     23  C   UNL     1       6.931  -1.693  14.456  1.00  0.00    -0.000 C 
BRANCH  23  24
ATOM     24  C   UNL     1       6.539  -2.113  15.885  1.00  0.00    -0.000 C 
BRANCH  24  25
ATOM     25  C   UNL     1       5.338  -1.356  16.479  1.00  0.00    -0.000 C 
BRANCH  25  26
ATOM     26  C   UNL     1       4.883  -1.919  17.833  1.00  0.00    -0.000 C 
BRANCH  26  27
ATOM     27  C   UNL     1       5.961  -1.703  18.906  1.00  0.00    -0.000 C 
BRANCH  27  28
ATOM     28  C   UNL     1       6.481  -0.255  18.951  1.00  0.00    -0.000 C 
BRANCH  28  29
ATOM     29  C   UNL     1       5.971   0.577  20.143  1.00  0.00    -0.003 C 
ATOM     30  C   UNL     1       4.459   0.475  20.340  1.00  0.00     0.004 C 
ENDBRANCH  28  29
ENDBRANCH  27  28
ENDBRANCH  26  27
ENDBRANCH  25  26
ENDBRANCH  24  25
ENDBRANCH  23  24
ENDBRANCH  22  23
ENDBRANCH  21  22
ENDBRANCH  20  21
ENDBRANCH  19  20
ENDBRANCH  18  19
ENDBRANCH  17  18
ENDBRANCH   1  17
TORSDOF 26
ENDMDL
MODEL 3
REMARK VINA RESULT:     1.568      1.619      5.020
REMARK INTER + INTRA:           4.128
REMARK INTER:                   3.581
REMARK INTRA:                   0.547
REMARK UNBOUND:                 0.177
REMARK SMILES CCCCCCCCCCCCCCCCCCCCCCCCCCCC(=O)[O-]
REMARK SMILES IDX 15 1 16 2 17 3 18 4 19 5 20 6 21 7 22 8 23 9 24 10 25 11
REMARK SMILES IDX 26 12 27 13 28 14 29 15 30 16 14 17 13 18 12 19 11 20 10 21
REMARK SMILES IDX 9 22 8 23 7 24 6 25 5 26 4 27 3 28 2 29 1 30
REMARK H PARENT
REMARK Flexibility Score: inf
ROOT
ATOM      1  C   UNL     1       2.464   4.600  14.119  1.00  0.00     0.000 C 
ENDROOT
BRANCH   1   2
ATOM      2  C   UNL     1       2.774   3.492  13.101  1.00  0.00     0.000 C 
BRANCH   2   3
ATOM      3  C   UNL     1       4.287   3.292  12.951  1.00  0.00     0.000 C 
BRANCH   3   4
ATOM      4  C   UNL     1       4.641   1.799  12.876  1.00  0.00     0.000 C 
BRANCH   4   5
ATOM      5  C   UNL     1       6.145   1.527  13.059  1.00  0.00     0.000 C 
BRANCH   5   6
ATOM      6  C   UNL     1       6.496   0.444  14.096  1.00  0.00     0.000 C 
BRANCH   6   7
ATOM      7  C   UNL     1       7.367  -0.683  13.516  1.00  0.00     0.000 C 
BRANCH   7   8
ATOM      8  C   UNL     1       6.812  -2.087  13.820  1.00  0.00     0.000 C 
BRANCH   8   9
ATOM      9  C   UNL     1       5.349  -2.125  14.297  1.00  0.00     0.000 C 
BRANCH   9  10
ATOM     10  C   UNL     1       4.338  -2.000  13.147  1.00  0.00     0.000 C 
BRANCH  10  11
ATOM     11  C   UNL     1       3.155  -1.107  13.550  1.00  0.00     0.000 C 
BRANCH  11  12
ATOM     12  C   UNL     1       2.438  -1.591  14.823  1.00  0.00     0.006 C 
BRANCH  12  13
ATOM     13  C   UNL     1       1.015  -1.029  14.991  1.00  0.00     0.053 C 
BRANCH  13  14
ATOM     14  C   UNL     1       1.012   0.406  15.422  1.00  0.00     0.041 C 
ATOM     15  O   UNL     1       1.261   1.318  14.590  1.00  0.00    -0.550 OA
ATOM     16  O   UNL     1       0.771   0.737  16.750  1.00  0.00    -0.550 OA
ENDBRANCH  13  14
ENDBRANCH  12  13
ENDBRANCH  11  12
ENDBRANCH  10  11
ENDBRANCH   9  10
ENDBRANCH   8   9
ENDBRANCH   7   8
ENDBRANCH   6   7
ENDBRANCH   5   6
ENDBRANCH   4   5
ENDBRANCH   3   4
ENDBRANCH   2   3
ENDBRANCH   1   2
BRANCH   1  17
ATOM     17  C   UNL     1       3.323   4.505  15.393  1.00  0.00     0.000 C 
BRANCH  17  18
ATOM     18  C   UNL     1       4.845   4.488  15.161  1.00  0.00     0.000 C 
BRANCH  18  19
ATOM     19  C   UNL     1       5.612   3.726  16.257  1.00  0.00     0.000 C 
BRANCH  19  20
ATOM     20  C   UNL     1       4.721   2.746  17.040  1.00  0.00     0.000 C 
BRANCH  20  21
ATOM     21  C   UNL     1       4.272   1.497  16.260  1.00  0.00     0.000 C 
BRANCH  21  22
ATOM     22  C   UNL     1       5.085   0.242  16.615  1.00  0.00    -0.000 C 
BRANCH  22  23
ATOM     23  C   UNL     1       4.252  -0.730  17.463  1.00  0.00    -0.000 C 
BRANCH  23  24
ATOM     24  C   UNL     1       5.107  -1.808  18.154  1.00  0.00    -0.000 C 
BRANCH  24  25
ATOM     25  C   UNL     1       6.399  -1.289  18.810  1.00  0.00    -0.000 C 
BRANCH  25  26
ATOM     26  C   UNL     1       6.140  -0.232  19.893  1.00  0.00    -0.000 C 
BRANCH  26  27
ATOM     27  C   UNL     1       4.634  -0.020  20.104  1.00  0.00    -0.000 C 
BRANCH  27  28
ATOM     28  C   UNL     1       4.133   1.324  19.545  1.00  0.00    -0.000 C 
BRANCH  28  29
ATOM     29  C   UNL     1       2.627   1.582  19.738  1.00  0.00    -0.003 C 
ATOM     30  C   UNL     1       2.024   0.773  20.885  1.00  0.00     0.004 C 
ENDBRANCH  28  29
ENDBRANCH  27  28
ENDBRANCH  26  27
ENDBRANCH  25  26
ENDBRANCH  24  25
ENDBRANCH  23  24
ENDBRANCH  22  23
ENDBRANCH  21  22
ENDBRANCH  20  21
ENDBRANCH  19  20
ENDBRANCH  18  19
ENDBRANCH  17  18
ENDBRANCH   1  17
TORSDOF 26
ENDMDL
MODEL 4
REMARK VINA RESULT:     2.044      1.868      6.054
REMARK INTER + INTRA:           5.329
REMARK INTER:                   5.680
REMARK INTRA:                  -0.351
REMARK UNBOUND:                 0.177
REMARK SMILES CCCCCCCCCCCCCCCCCCCCCCCCCCCC(=O)[O-]
REMARK SMILES IDX 15 1 16 2 17 3 18 4 19 5 20 6 21 7 22 8 23 9 24 10 25 11
REMARK SMILES IDX 26 12 27 13 28 14 29 15 30 16 14 17 13 18 12 19 11 20 10 21
REMARK SMILES IDX 9 22 8 23 7 24 6 25 5 26 4 27 3 28 2 29 1 30
REMARK H PARENT
REMARK Flexibility Score: inf
ROOT
ATOM      1  C   UNL     1       6.311  -0.580  17.639  1.00  0.00     0.000 C 
ENDROOT
BRANCH   1   2
ATOM      2  C   UNL     1       5.121  -0.496  16.671  1.00  0.00     0.000 C 
BRANCH   2   3
ATOM      3  C   UNL     1       5.035  -1.754  15.798  1.00  0.00     0.000 C 
BRANCH   3   4
ATOM      4  C   UNL     1       6.413  -2.125  15.229  1.00  0.00     0.000 C 
BRANCH   4   5
ATOM      5  C   UNL     1       6.483  -2.009  13.696  1.00  0.00     0.000 C 
BRANCH   5   6
ATOM      6  C   UNL     1       7.534  -1.020  13.158  1.00  0.00     0.000 C 
BRANCH   6   7
ATOM      7  C   UNL     1       6.959   0.382  12.895  1.00  0.00     0.000 C 
BRANCH   7   8
ATOM      8  C   UNL     1       6.726   1.187  14.186  1.00  0.00     0.000 C 
BRANCH   8   9
ATOM      9  C   UNL     1       5.445   2.041  14.205  1.00  0.00     0.000 C 
BRANCH   9  10
ATOM     10  C   UNL     1       5.187   2.768  12.876  1.00  0.00     0.000 C 
BRANCH  10  11
ATOM     11  C   UNL     1       4.799   4.233  13.118  1.00  0.00     0.000 C 
BRANCH  11  12
ATOM     12  C   UNL     1       3.285   4.433  13.315  1.00  0.00     0.006 C 
BRANCH  12  13
ATOM     13  C   UNL     1       2.755   3.904  14.660  1.00  0.00     0.053 C 
BRANCH  13  14
ATOM     14  C   UNL     1       3.720   4.126  15.785  1.00  0.00     0.041 C 
ATOM     15  O   UNL     1       4.142   5.284  16.038  1.00  0.00    -0.550 OA
ATOM     16  O   UNL     1       4.184   3.049  16.530  1.00  0.00    -0.550 OA
ENDBRANCH  13  14
ENDBRANCH  12  13
ENDBRANCH  11  12
ENDBRANCH  10  11
ENDBRANCH   9  10
ENDBRANCH   8   9
ENDBRANCH   7   8
ENDBRANCH   6   7
ENDBRANCH   5   6
ENDBRANCH   4   5
ENDBRANCH   3   4
ENDBRANCH   2   3
ENDBRANCH   1   2
BRANCH   1  17
ATOM     17  C   UNL     1       5.921  -1.118  19.028  1.00  0.00     0.000 C 
BRANCH  17  18
ATOM     18  C   UNL     1       4.801  -0.339  19.744  1.00  0.00     0.000 C 
BRANCH  18  19
ATOM     19  C   UNL     1       4.931   1.185  19.582  1.00  0.00     0.000 C 
BRANCH  19  20
ATOM     20  C   UNL     1       3.642   1.940  19.953  1.00  0.00     0.000 C 
BRANCH  20  21
ATOM     21  C   UNL     1       2.372   1.074  20.031  1.00  0.00     0.000 C 
BRANCH  21  22
ATOM     22  C   UNL     1       1.095   1.843  19.657  1.00  0.00    -0.000 C 
BRANCH  22  23
ATOM     23  C   UNL     1       0.952   1.960  18.132  1.00  0.00    -0.000 C 
BRANCH  23  24
ATOM     24  C   UNL     1       2.236   1.571  17.377  1.00  0.00    -0.000 C 
BRANCH  24  25
ATOM     25  C   UNL     1       2.067   0.442  16.345  1.00  0.00    -0.000 C 
BRANCH  25  26
ATOM     26  C   UNL     1       0.624   0.308  15.835  1.00  0.00    -0.000 C 
BRANCH  26  27
ATOM     27  C   UNL     1       0.571  -0.548  14.560  1.00  0.00    -0.000 C 
BRANCH  27  28
ATOM     28  C   UNL     1       1.457  -1.804  14.644  1.00  0.00    -0.000 C 
BRANCH  28  29
ATOM     29  C   UNL     1       2.835  -1.668  13.968  1.00  0.00    -0.003 C 
ATOM     30  C   UNL     1       2.997  -0.357  13.200  1.00  0.00     0.004 C 
ENDBRANCH  28  29
ENDBRANCH  27  28
ENDBRANCH  26  27
ENDBRANCH  25  26
ENDBRANCH  24  25
ENDBRANCH  23  24
ENDBRANCH  22  23
ENDBRANCH  21  22
ENDBRANCH  20  21
ENDBRANCH  19  20
ENDBRANCH  18  19
ENDBRANCH  17  18
ENDBRANCH   1  17
TORSDOF 26
ENDMDL
