MODEL 1
REMARK VINA RESULT:    -7.352      0.000      0.000
REMARK INTER + INTRA:          -8.812
REMARK INTER:                  -8.641
REMARK INTRA:                  -0.171
REMARK UNBOUND:                -0.171
REMARK SMILES O=c1c(O)c(-c2ccc(O)cc2)oc2cc(O)cc(O)c12
REMARK SMILES IDX 5 1 3 2 2 3 1 4 21 5 19 6 18 7 16 8 15 9 14 10 13 11 6 12
REMARK SMILES IDX 7 13 8 14 9 15 12 16 11 17 10 18 4 20 20 22 17 24
REMARK H PARENT 10 19 4 21 20 23 17 25
REMARK Flexibility Score: inf
ROOT
ATOM      1  C   UNL     1       7.158  -0.866  35.701  1.00  0.00     0.180 A 
ATOM      2  C   UNL     1       6.067  -0.220  36.309  1.00  0.00     0.208 A 
ATOM      3  C   UNL     1       4.970  -0.987  36.731  1.00  0.00     0.238 A 
ATOM      4  O   UNL     1       3.974  -0.397  37.225  1.00  0.00    -0.285 OA
ATOM      5  C   UNL     1       4.984  -2.392  36.557  1.00  0.00     0.111 A 
ATOM      6  C   UNL     1       3.944  -3.272  36.984  1.00  0.00     0.134 A 
ATOM      7  C   UNL     1       4.004  -4.629  36.641  1.00  0.00     0.093 A 
ATOM      8  C   UNL     1       5.098  -5.148  35.944  1.00  0.00     0.123 A 
ATOM      9  C   UNL     1       6.144  -4.308  35.576  1.00  0.00     0.094 A 
ATOM     10  C   UNL     1       6.097  -2.943  35.870  1.00  0.00     0.146 A 
ATOM     11  O   UNL     1       7.112  -2.177  35.492  1.00  0.00    -0.452 OA
ENDROOT
BRANCH   1  12
ATOM     12  C   UNL     1       8.360  -0.128  35.252  1.00  0.00     0.021 A 
ATOM     13  C   UNL     1       9.213   0.512  36.169  1.00  0.00     0.016 A 
ATOM     14  C   UNL     1      10.356   1.183  35.724  1.00  0.00     0.047 A 
ATOM     15  C   UNL     1      10.669   1.209  34.359  1.00  0.00     0.115 A 
ATOM     16  C   UNL     1       8.693  -0.114  33.886  1.00  0.00     0.016 A 
ATOM     17  C   UNL     1       9.837   0.557  33.444  1.00  0.00     0.047 A 
BRANCH  15  18
ATOM     18  O   UNL     1      11.805   1.875  33.903  1.00  0.00    -0.508 OA
ATOM     19  H   UNL     1      12.247   2.604  34.451  1.00  0.00     0.293 HD
ENDBRANCH  15  18
ENDBRANCH   1  12
BRANCH   2  20
ATOM     20  O   UNL     1       6.065   1.171  36.452  1.00  0.00    -0.502 OA
ATOM     21  H   UNL     1       6.010   1.625  37.356  1.00  0.00     0.293 HD
ENDBRANCH   2  20
BRANCH   6  22
ATOM     22  O   UNL     1       2.854  -2.873  37.763  1.00  0.00    -0.507 OA
ATOM     23  H   UNL     1       2.214  -2.132  37.520  1.00  0.00     0.293 HD
ENDBRANCH   6  22
BRANCH   8  24
ATOM     24  O   UNL     1       5.156  -6.502  35.623  1.00  0.00    -0.508 OA
ATOM     25  H   UNL     1       6.017  -6.938  35.312  1.00  0.00     0.293 HD
ENDBRANCH   8  24
TORSDOF 5
ENDMDL
MODEL 2
REMARK VINA RESULT:    -6.899      4.403      6.614
REMARK INTER + INTRA:          -8.280
REMARK INTER:                  -8.103
REMARK INTRA:                  -0.177
REMARK UNBOUND:                -0.171
REMARK SMILES O=c1c(O)c(-c2ccc(O)cc2)oc2cc(O)cc(O)c12
REMARK SMILES IDX 5 1 3 2 2 3 1 4 21 5 19 6 18 7 16 8 15 9 14 10 13 11 6 12
REMARK SMILES IDX 7 13 8 14 9 15 12 16 11 17 10 18 4 20 20 22 17 24
REMARK H PARENT 10 19 4 21 20 23 17 25
REMARK Flexibility Score: inf
ROOT
ATOM      1  C   UNL     1       3.375  -4.263  37.384  1.00  0.00     0.180 A 
ATOM      2  C   UNL     1       2.721  -5.363  37.965  1.00  0.00     0.208 A 
ATOM      3  C   UNL     1       2.097  -5.205  39.212  1.00  0.00     0.238 A 
ATOM      4  O   UNL     1       1.561  -6.208  39.751  1.00  0.00    -0.285 OA
ATOM      5  C   UNL     1       2.118  -3.944  39.856  1.00  0.00     0.111 A 
ATOM      6  C   UNL     1       1.484  -3.660  41.103  1.00  0.00     0.134 A 
ATOM      7  C   UNL     1       1.682  -2.412  41.708  1.00  0.00     0.093 A 
ATOM      8  C   UNL     1       2.438  -1.419  41.082  1.00  0.00     0.123 A 
ATOM      9  C   UNL     1       3.011  -1.667  39.839  1.00  0.00     0.094 A 
ATOM     10  C   UNL     1       2.862  -2.913  39.225  1.00  0.00     0.146 A 
ATOM     11  O   UNL     1       3.435  -3.111  38.044  1.00  0.00    -0.452 OA
ENDROOT
BRANCH   1  12
ATOM     12  C   UNL     1       4.035  -4.346  36.061  1.00  0.00     0.021 A 
ATOM     13  C   UNL     1       3.293  -4.549  34.884  1.00  0.00     0.016 A 
ATOM     14  C   UNL     1       3.935  -4.600  33.643  1.00  0.00     0.047 A 
ATOM     15  C   UNL     1       5.324  -4.433  33.562  1.00  0.00     0.115 A 
ATOM     16  C   UNL     1       5.425  -4.159  35.969  1.00  0.00     0.016 A 
ATOM     17  C   UNL     1       6.064  -4.210  34.727  1.00  0.00     0.047 A 
BRANCH  15  18
ATOM     18  O   UNL     1       5.975  -4.483  32.331  1.00  0.00    -0.508 OA
ATOM     19  H   UNL     1       5.523  -4.170  31.480  1.00  0.00     0.293 HD
ENDBRANCH  15  18
ENDBRANCH   1  12
BRANCH   2  20
ATOM     20  O   UNL     1       2.731  -6.605  37.322  1.00  0.00    -0.502 OA
ATOM     21  H   UNL     1       2.763  -7.481  37.831  1.00  0.00     0.293 HD
ENDBRANCH   2  20
BRANCH   6  22
ATOM     22  O   UNL     1       0.634  -4.549  41.767  1.00  0.00    -0.507 OA
ATOM     23  H   UNL     1       0.840  -4.989  42.651  1.00  0.00     0.293 HD
ENDBRANCH   6  22
BRANCH   8  24
ATOM     24  O   UNL     1       2.615  -0.176  41.686  1.00  0.00    -0.508 OA
ATOM     25  H   UNL     1       2.666  -0.077  42.693  1.00  0.00     0.293 HD
ENDBRANCH   8  24
TORSDOF 5
ENDMDL
MODEL 3
REMARK VINA RESULT:    -6.871      4.074      5.911
REMARK INTER + INTRA:          -8.247
REMARK INTER:                  -8.103
REMARK INTRA:                  -0.144
REMARK UNBOUND:                -0.171
REMARK SMILES O=c1c(O)c(-c2ccc(O)cc2)oc2cc(O)cc(O)c12
REMARK SMILES IDX 5 1 3 2 2 3 1 4 21 5 19 6 18 7 16 8 15 9 14 10 13 11 6 12
REMARK SMILES IDX 7 13 8 14 9 15 12 16 11 17 10 18 4 20 20 22 17 24
REMARK H PARENT 10 19 4 21 20 23 17 25
REMARK Flexibility Score: inf
ROOT
ATOM      1  C   UNL     1       3.405  -3.470  37.632  1.00  0.00     0.180 A 
ATOM      2  C   UNL     1       3.395  -2.191  38.214  1.00  0.00     0.208 A 
ATOM      3  C   UNL     1       2.644  -1.979  39.380  1.00  0.00     0.238 A 
ATOM      4  O   UNL     1       2.596  -0.818  39.866  1.00  0.00    -0.285 OA
ATOM      5  C   UNL     1       1.925  -3.052  39.960  1.00  0.00     0.111 A 
ATOM      6  C   UNL     1       1.162  -2.960  41.164  1.00  0.00     0.134 A 
ATOM      7  C   UNL     1       0.386  -4.051  41.573  1.00  0.00     0.093 A 
ATOM      8  C   UNL     1       0.394  -5.251  40.858  1.00  0.00     0.123 A 
ATOM      9  C   UNL     1       1.181  -5.369  39.716  1.00  0.00     0.094 A 
ATOM     10  C   UNL     1       1.939  -4.287  39.261  1.00  0.00     0.146 A 
ATOM     11  O   UNL     1       2.666  -4.440  38.162  1.00  0.00    -0.452 OA
ENDROOT
BRANCH   1  12
ATOM     12  C   UNL     1       4.192  -3.777  36.416  1.00  0.00     0.021 A 
ATOM     13  C   UNL     1       5.596  -3.686  36.409  1.00  0.00     0.016 A 
ATOM     14  C   UNL     1       6.320  -4.004  35.256  1.00  0.00     0.047 A 
ATOM     15  C   UNL     1       5.652  -4.432  34.101  1.00  0.00     0.115 A 
ATOM     16  C   UNL     1       3.532  -4.226  35.259  1.00  0.00     0.016 A 
ATOM     17  C   UNL     1       4.258  -4.544  34.108  1.00  0.00     0.047 A 
BRANCH  15  18
ATOM     18  O   UNL     1       6.363  -4.750  32.946  1.00  0.00    -0.508 OA
ATOM     19  H   UNL     1       7.219  -4.267  32.701  1.00  0.00     0.293 HD
ENDBRANCH  15  18
ENDBRANCH   1  12
BRANCH   2  20
ATOM     20  O   UNL     1       4.095  -1.140  37.613  1.00  0.00    -0.502 OA
ATOM     21  H   UNL     1       3.841  -0.169  37.750  1.00  0.00     0.293 HD
ENDBRANCH   2  20
BRANCH   6  22
ATOM     22  O   UNL     1       1.157  -1.840  42.001  1.00  0.00    -0.507 OA
ATOM     23  H   UNL     1       0.519  -1.700  42.769  1.00  0.00     0.293 HD
ENDBRANCH   6  22
BRANCH   8  24
ATOM     24  O   UNL     1      -0.369  -6.336  41.283  1.00  0.00    -0.508 OA
ATOM     25  H   UNL     1      -1.027  -6.255  42.050  1.00  0.00     0.293 HD
ENDBRANCH   8  24
TORSDOF 5
ENDMDL
MODEL 4
REMARK VINA RESULT:    -6.725      4.334      7.717
REMARK INTER + INTRA:          -8.075
REMARK INTER:                  -8.122
REMARK INTRA:                   0.047
REMARK UNBOUND:                -0.171
REMARK SMILES O=c1c(O)c(-c2ccc(O)cc2)oc2cc(O)cc(O)c12
REMARK SMILES IDX 5 1 3 2 2 3 1 4 21 5 19 6 18 7 16 8 15 9 14 10 13 11 6 12
REMARK SMILES IDX 7 13 8 14 9 15 12 16 11 17 10 18 4 20 20 22 17 24
REMARK H PARENT 10 19 4 21 20 23 17 25
REMARK Flexibility Score: inf
ROOT
ATOM      1  C   UNL     1       3.651  -4.997  38.062  1.00  0.00     0.180 A 
ATOM      2  C   UNL     1       3.835  -6.391  38.071  1.00  0.00     0.208 A 
ATOM      3  C   UNL     1       4.635  -6.979  37.079  1.00  0.00     0.238 A 
ATOM      4  O   UNL     1       4.751  -8.232  37.060  1.00  0.00    -0.285 OA
ATOM      5  C   UNL     1       5.258  -6.165  36.102  1.00  0.00     0.111 A 
ATOM      6  C   UNL     1       6.123  -6.650  35.075  1.00  0.00     0.134 A 
ATOM      7  C   UNL     1       6.577  -5.771  34.084  1.00  0.00     0.093 A 
ATOM      8  C   UNL     1       6.250  -4.413  34.119  1.00  0.00     0.123 A 
ATOM      9  C   UNL     1       5.455  -3.921  35.150  1.00  0.00     0.094 A 
ATOM     10  C   UNL     1       4.957  -4.779  36.134  1.00  0.00     0.146 A 
ATOM     11  O   UNL     1       4.195  -4.269  37.093  1.00  0.00    -0.452 OA
ENDROOT
BRANCH   1  12
ATOM     12  C   UNL     1       2.841  -4.302  39.089  1.00  0.00     0.021 A 
ATOM     13  C   UNL     1       1.541  -4.732  39.410  1.00  0.00     0.016 A 
ATOM     14  C   UNL     1       0.804  -4.074  40.400  1.00  0.00     0.047 A 
ATOM     15  C   UNL     1       1.362  -2.991  41.091  1.00  0.00     0.115 A 
ATOM     16  C   UNL     1       3.401  -3.227  39.800  1.00  0.00     0.016 A 
ATOM     17  C   UNL     1       2.662  -2.573  40.790  1.00  0.00     0.047 A 
BRANCH  15  18
ATOM     18  O   UNL     1       0.637  -2.328  42.078  1.00  0.00    -0.508 OA
ATOM     19  H   UNL     1      -0.299  -2.620  42.334  1.00  0.00     0.293 HD
ENDBRANCH  15  18
ENDBRANCH   1  12
BRANCH   2  20
ATOM     20  O   UNL     1       3.194  -7.178  39.032  1.00  0.00    -0.502 OA
ATOM     21  H   UNL     1       2.596  -6.783  39.749  1.00  0.00     0.293 HD
ENDBRANCH   2  20
BRANCH   6  22
ATOM     22  O   UNL     1       6.585  -7.967  35.001  1.00  0.00    -0.507 OA
ATOM     23  H   UNL     1       7.003  -8.474  35.766  1.00  0.00     0.293 HD
ENDBRANCH   6  22
BRANCH   8  24
ATOM     24  O   UNL     1       6.720  -3.544  33.137  1.00  0.00    -0.508 OA
ATOM     25  H   UNL     1       6.458  -2.566  33.125  1.00  0.00     0.293 HD
ENDBRANCH   8  24
TORSDOF 5
ENDMDL
MODEL 5
REMARK VINA RESULT:    -6.607      2.737      5.052
REMARK INTER + INTRA:          -7.937
REMARK INTER:                  -7.917
REMARK INTRA:                  -0.020
REMARK UNBOUND:                -0.171
REMARK SMILES O=c1c(O)c(-c2ccc(O)cc2)oc2cc(O)cc(O)c12
REMARK SMILES IDX 5 1 3 2 2 3 1 4 21 5 19 6 18 7 16 8 15 9 14 10 13 11 6 12
REMARK SMILES IDX 7 13 8 14 9 15 12 16 11 17 10 18 4 20 20 22 17 24
REMARK H PARENT 10 19 4 21 20 23 17 25
REMARK Flexibility Score: inf
ROOT
ATOM      1  C   UNL     1       3.936  -3.022  37.139  1.00  0.00     0.180 A 
ATOM      2  C   UNL     1       3.493  -4.032  36.267  1.00  0.00     0.208 A 
ATOM      3  C   UNL     1       2.535  -4.951  36.721  1.00  0.00     0.238 A 
ATOM      4  O   UNL     1       2.183  -5.885  35.953  1.00  0.00    -0.285 OA
ATOM      5  C   UNL     1       2.018  -4.841  38.034  1.00  0.00     0.111 A 
ATOM      6  C   UNL     1       1.015  -5.694  38.585  1.00  0.00     0.134 A 
ATOM      7  C   UNL     1       0.674  -5.574  39.938  1.00  0.00     0.093 A 
ATOM      8  C   UNL     1       1.255  -4.591  40.743  1.00  0.00     0.123 A 
ATOM      9  C   UNL     1       2.191  -3.717  40.199  1.00  0.00     0.094 A 
ATOM     10  C   UNL     1       2.578  -3.834  38.862  1.00  0.00     0.146 A 
ATOM     11  O   UNL     1       3.482  -2.985  38.387  1.00  0.00    -0.452 OA
ENDROOT
BRANCH   1  12
ATOM     12  C   UNL     1       4.926  -2.002  36.725  1.00  0.00     0.021 A 
ATOM     13  C   UNL     1       6.183  -2.366  36.211  1.00  0.00     0.016 A 
ATOM     14  C   UNL     1       7.092  -1.385  35.804  1.00  0.00     0.047 A 
ATOM     15  C   UNL     1       6.751  -0.029  35.891  1.00  0.00     0.115 A 
ATOM     16  C   UNL     1       4.584  -0.640  36.790  1.00  0.00     0.016 A 
ATOM     17  C   UNL     1       5.494   0.339  36.383  1.00  0.00     0.047 A 
BRANCH  15  18
ATOM     18  O   UNL     1       7.649   0.957  35.490  1.00  0.00    -0.508 OA
ATOM     19  H   UNL     1       7.363   1.721  34.888  1.00  0.00     0.293 HD
ENDBRANCH  15  18
ENDBRANCH   1  12
BRANCH   2  20
ATOM     20  O   UNL     1       4.032  -4.136  34.981  1.00  0.00    -0.502 OA
ATOM     21  H   UNL     1       3.783  -3.499  34.234  1.00  0.00     0.293 HD
ENDBRANCH   2  20
BRANCH   6  22
ATOM     22  O   UNL     1       0.308  -6.647  37.845  1.00  0.00    -0.507 OA
ATOM     23  H   UNL     1       0.277  -7.632  38.057  1.00  0.00     0.293 HD
ENDBRANCH   6  22
BRANCH   8  24
ATOM     24  O   UNL     1       0.898  -4.470  42.084  1.00  0.00    -0.508 OA
ATOM     25  H   UNL     1       0.022  -4.044  42.364  1.00  0.00     0.293 HD
ENDBRANCH   8  24
TORSDOF 5
ENDMDL
MODEL 6
REMARK VINA RESULT:    -6.512      3.925      7.402
REMARK INTER + INTRA:          -7.824
REMARK INTER:                  -7.687
REMARK INTRA:                  -0.137
REMARK UNBOUND:                -0.171
REMARK SMILES O=c1c(O)c(-c2ccc(O)cc2)oc2cc(O)cc(O)c12
REMARK SMILES IDX 5 1 3 2 2 3 1 4 21 5 19 6 18 7 16 8 15 9 14 10 13 11 6 12
REMARK SMILES IDX 7 13 8 14 9 15 12 16 11 17 10 18 4 20 20 22 17 24
REMARK H PARENT 10 19 4 21 20 23 17 25
REMARK Flexibility Score: inf
ROOT
ATOM      1  C   UNL     1       3.195  -3.544  38.387  1.00  0.00     0.180 A 
ATOM      2  C   UNL     1       3.776  -2.446  37.732  1.00  0.00     0.208 A 
ATOM      3  C   UNL     1       4.762  -2.676  36.759  1.00  0.00     0.238 A 
ATOM      4  O   UNL     1       5.317  -1.686  36.215  1.00  0.00    -0.285 OA
ATOM      5  C   UNL     1       5.142  -4.002  36.441  1.00  0.00     0.111 A 
ATOM      6  C   UNL     1       6.101  -4.354  35.444  1.00  0.00     0.134 A 
ATOM      7  C   UNL     1       6.494  -5.691  35.306  1.00  0.00     0.093 A 
ATOM      8  C   UNL     1       5.917  -6.696  36.085  1.00  0.00     0.123 A 
ATOM      9  C   UNL     1       4.938  -6.370  37.019  1.00  0.00     0.094 A 
ATOM     10  C   UNL     1       4.550  -5.041  37.206  1.00  0.00     0.146 A 
ATOM     11  O   UNL     1       3.620  -4.773  38.114  1.00  0.00    -0.452 OA
ENDROOT
BRANCH   1  12
ATOM     12  C   UNL     1       2.133  -3.383  39.406  1.00  0.00     0.021 A 
ATOM     13  C   UNL     1       0.831  -3.869  39.192  1.00  0.00     0.016 A 
ATOM     14  C   UNL     1      -0.149  -3.725  40.178  1.00  0.00     0.047 A 
ATOM     15  C   UNL     1       0.163  -3.109  41.397  1.00  0.00     0.115 A 
ATOM     16  C   UNL     1       2.443  -2.783  40.639  1.00  0.00     0.016 A 
ATOM     17  C   UNL     1       1.461  -2.642  41.624  1.00  0.00     0.047 A 
BRANCH  15  18
ATOM     18  O   UNL     1      -0.806  -2.960  42.387  1.00  0.00    -0.508 OA
ATOM     19  H   UNL     1      -1.184  -2.050  42.624  1.00  0.00     0.293 HD
ENDBRANCH  15  18
ENDBRANCH   1  12
BRANCH   2  20
ATOM     20  O   UNL     1       3.402  -1.143  38.076  1.00  0.00    -0.502 OA
ATOM     21  H   UNL     1       3.686  -0.708  38.946  1.00  0.00     0.293 HD
ENDBRANCH   2  20
BRANCH   6  22
ATOM     22  O   UNL     1       6.670  -3.440  34.552  1.00  0.00    -0.507 OA
ATOM     23  H   UNL     1       7.629  -3.129  34.582  1.00  0.00     0.293 HD
ENDBRANCH   6  22
BRANCH   8  24
ATOM     24  O   UNL     1       6.303  -8.025  35.929  1.00  0.00    -0.508 OA
ATOM     25  H   UNL     1       5.631  -8.752  35.716  1.00  0.00     0.293 HD
ENDBRANCH   8  24
TORSDOF 5
ENDMDL
MODEL 7
REMARK VINA RESULT:    -6.402      3.639      6.805
REMARK INTER + INTRA:          -7.695
REMARK INTER:                  -8.199
REMARK INTRA:                   0.504
REMARK UNBOUND:                -0.171
REMARK SMILES O=c1c(O)c(-c2ccc(O)cc2)oc2cc(O)cc(O)c12
REMARK SMILES IDX 5 1 3 2 2 3 1 4 21 5 19 6 18 7 16 8 15 9 14 10 13 11 6 12
REMARK SMILES IDX 7 13 8 14 9 15 12 16 11 17 10 18 4 20 20 22 17 24
REMARK H PARENT 10 19 4 21 20 23 17 25
REMARK Flexibility Score: inf
ROOT
ATOM      1  C   UNL     1       4.475  -5.020  37.194  1.00  0.00     0.180 A 
ATOM      2  C   UNL     1       3.478  -5.044  38.184  1.00  0.00     0.208 A 
ATOM      3  C   UNL     1       2.934  -3.831  38.633  1.00  0.00     0.238 A 
ATOM      4  O   UNL     1       2.081  -3.856  39.558  1.00  0.00    -0.285 OA
ATOM      5  C   UNL     1       3.380  -2.609  38.074  1.00  0.00     0.111 A 
ATOM      6  C   UNL     1       2.870  -1.322  38.425  1.00  0.00     0.134 A 
ATOM      7  C   UNL     1       3.478  -0.174  37.903  1.00  0.00     0.093 A 
ATOM      8  C   UNL     1       4.535  -0.267  36.995  1.00  0.00     0.123 A 
ATOM      9  C   UNL     1       5.001  -1.518  36.602  1.00  0.00     0.094 A 
ATOM     10  C   UNL     1       4.439  -2.682  37.132  1.00  0.00     0.146 A 
ATOM     11  O   UNL     1       4.920  -3.855  36.737  1.00  0.00    -0.452 OA
ENDROOT
BRANCH   1  12
ATOM     12  C   UNL     1       5.079  -6.260  36.653  1.00  0.00     0.021 A 
ATOM     13  C   UNL     1       4.664  -7.530  37.093  1.00  0.00     0.016 A 
ATOM     14  C   UNL     1       5.232  -8.686  36.550  1.00  0.00     0.047 A 
ATOM     15  C   UNL     1       6.209  -8.589  35.552  1.00  0.00     0.115 A 
ATOM     16  C   UNL     1       6.046  -6.171  35.637  1.00  0.00     0.016 A 
ATOM     17  C   UNL     1       6.612  -7.329  35.096  1.00  0.00     0.047 A 
BRANCH  15  18
ATOM     18  O   UNL     1       6.783  -9.734  35.005  1.00  0.00    -0.508 OA
ATOM     19  H   UNL     1       6.298 -10.288  34.308  1.00  0.00     0.293 HD
ENDBRANCH  15  18
ENDBRANCH   1  12
BRANCH   2  20
ATOM     20  O   UNL     1       3.066  -6.261  38.738  1.00  0.00    -0.502 OA
ATOM     21  H   UNL     1       3.633  -6.776  39.401  1.00  0.00     0.293 HD
ENDBRANCH   2  20
BRANCH   6  22
ATOM     22  O   UNL     1       1.760  -1.122  39.251  1.00  0.00    -0.507 OA
ATOM     23  H   UNL     1       0.875  -1.593  39.148  1.00  0.00     0.293 HD
ENDBRANCH   6  22
BRANCH   8  24
ATOM     24  O   UNL     1       5.123   0.882  36.470  1.00  0.00    -0.508 OA
ATOM     25  H   UNL     1       6.125   1.028  36.503  1.00  0.00     0.293 HD
ENDBRANCH   8  24
TORSDOF 5
ENDMDL
MODEL 8
REMARK VINA RESULT:    -6.360      2.363      4.014
REMARK INTER + INTRA:          -7.646
REMARK INTER:                  -8.150
REMARK INTRA:                   0.504
REMARK UNBOUND:                -0.171
REMARK SMILES O=c1c(O)c(-c2ccc(O)cc2)oc2cc(O)cc(O)c12
REMARK SMILES IDX 5 1 3 2 2 3 1 4 21 5 19 6 18 7 16 8 15 9 14 10 13 11 6 12
REMARK SMILES IDX 7 13 8 14 9 15 12 16 11 17 10 18 4 20 20 22 17 24
REMARK H PARENT 10 19 4 21 20 23 17 25
REMARK Flexibility Score: inf
ROOT
ATOM      1  C   UNL     1       4.417  -3.122  37.211  1.00  0.00     0.180 A 
ATOM      2  C   UNL     1       3.213  -2.898  37.901  1.00  0.00     0.208 A 
ATOM      3  C   UNL     1       2.495  -3.999  38.393  1.00  0.00     0.238 A 
ATOM      4  O   UNL     1       1.391  -3.794  38.962  1.00  0.00    -0.285 OA
ATOM      5  C   UNL     1       2.997  -5.309  38.206  1.00  0.00     0.111 A 
ATOM      6  C   UNL     1       2.373  -6.495  38.699  1.00  0.00     0.134 A 
ATOM      7  C   UNL     1       2.890  -7.746  38.341  1.00  0.00     0.093 A 
ATOM      8  C   UNL     1       4.045  -7.853  37.563  1.00  0.00     0.123 A 
ATOM      9  C   UNL     1       4.694  -6.702  37.128  1.00  0.00     0.094 A 
ATOM     10  C   UNL     1       4.183  -5.439  37.437  1.00  0.00     0.146 A 
ATOM     11  O   UNL     1       4.828  -4.367  36.994  1.00  0.00    -0.452 OA
ENDROOT
BRANCH   1  12
ATOM     12  C   UNL     1       5.242  -2.012  36.683  1.00  0.00     0.021 A 
ATOM     13  C   UNL     1       4.826  -0.673  36.794  1.00  0.00     0.016 A 
ATOM     14  C   UNL     1       5.633   0.361  36.310  1.00  0.00     0.047 A 
ATOM     15  C   UNL     1       6.872   0.072  35.724  1.00  0.00     0.115 A 
ATOM     16  C   UNL     1       6.495  -2.292  36.112  1.00  0.00     0.016 A 
ATOM     17  C   UNL     1       7.300  -1.256  35.629  1.00  0.00     0.047 A 
BRANCH  15  18
ATOM     18  O   UNL     1       7.684   1.093  35.237  1.00  0.00    -0.508 OA
ATOM     19  H   UNL     1       8.667   1.149  35.479  1.00  0.00     0.293 HD
ENDBRANCH  15  18
ENDBRANCH   1  12
BRANCH   2  20
ATOM     20  O   UNL     1       2.724  -1.597  38.056  1.00  0.00    -0.502 OA
ATOM     21  H   UNL     1       1.736  -1.397  38.160  1.00  0.00     0.293 HD
ENDBRANCH   2  20
BRANCH   6  22
ATOM     22  O   UNL     1       1.270  -6.497  39.557  1.00  0.00    -0.507 OA
ATOM     23  H   UNL     1       1.074  -7.215  40.239  1.00  0.00     0.293 HD
ENDBRANCH   6  22
BRANCH   8  24
ATOM     24  O   UNL     1       4.561  -9.102  37.226  1.00  0.00    -0.508 OA
ATOM     25  H   UNL     1       4.691  -9.828  37.921  1.00  0.00     0.293 HD
ENDBRANCH   8  24
TORSDOF 5
ENDMDL
MODEL 9
REMARK VINA RESULT:    -6.255      5.206      6.914
REMARK INTER + INTRA:          -7.523
REMARK INTER:                  -7.268
REMARK INTRA:                  -0.255
REMARK UNBOUND:                -0.171
REMARK SMILES O=c1c(O)c(-c2ccc(O)cc2)oc2cc(O)cc(O)c12
REMARK SMILES IDX 5 1 3 2 2 3 1 4 21 5 19 6 18 7 16 8 15 9 14 10 13 11 6 12
REMARK SMILES IDX 7 13 8 14 9 15 12 16 11 17 10 18 4 20 20 22 17 24
REMARK H PARENT 10 19 4 21 20 23 17 25
REMARK Flexibility Score: inf
ROOT
ATOM      1  C   UNL     1       3.380  -4.978  37.481  1.00  0.00     0.180 A 
ATOM      2  C   UNL     1       2.069  -5.171  37.015  1.00  0.00     0.208 A 
ATOM      3  C   UNL     1       1.016  -4.482  37.638  1.00  0.00     0.238 A 
ATOM      4  O   UNL     1      -0.162  -4.701  37.251  1.00  0.00    -0.285 OA
ATOM      5  C   UNL     1       1.289  -3.596  38.708  1.00  0.00     0.111 A 
ATOM      6  C   UNL     1       0.304  -2.816  39.386  1.00  0.00     0.134 A 
ATOM      7  C   UNL     1       0.670  -2.073  40.515  1.00  0.00     0.093 A 
ATOM      8  C   UNL     1       1.996  -2.032  40.952  1.00  0.00     0.123 A 
ATOM      9  C   UNL     1       2.974  -2.742  40.262  1.00  0.00     0.094 A 
ATOM     10  C   UNL     1       2.634  -3.521  39.153  1.00  0.00     0.146 A 
ATOM     11  O   UNL     1       3.596  -4.191  38.530  1.00  0.00    -0.452 OA
ENDROOT
BRANCH   1  12
ATOM     12  C   UNL     1       4.545  -5.649  36.860  1.00  0.00     0.021 A 
ATOM     13  C   UNL     1       4.852  -6.993  37.142  1.00  0.00     0.016 A 
ATOM     14  C   UNL     1       5.943  -7.613  36.525  1.00  0.00     0.047 A 
ATOM     15  C   UNL     1       6.730  -6.904  35.608  1.00  0.00     0.115 A 
ATOM     16  C   UNL     1       5.327  -4.952  35.924  1.00  0.00     0.016 A 
ATOM     17  C   UNL     1       6.416  -5.574  35.308  1.00  0.00     0.047 A 
BRANCH  15  18
ATOM     18  O   UNL     1       7.819  -7.511  34.987  1.00  0.00    -0.508 OA
ATOM     19  H   UNL     1       8.770  -7.228  35.191  1.00  0.00     0.293 HD
ENDBRANCH  15  18
ENDBRANCH   1  12
BRANCH   2  20
ATOM     20  O   UNL     1       1.819  -6.067  35.971  1.00  0.00    -0.502 OA
ATOM     21  H   UNL     1       1.090  -5.912  35.284  1.00  0.00     0.293 HD
ENDBRANCH   2  20
BRANCH   6  22
ATOM     22  O   UNL     1      -1.029  -2.715  38.977  1.00  0.00    -0.507 OA
ATOM     23  H   UNL     1      -1.531  -3.429  38.471  1.00  0.00     0.293 HD
ENDBRANCH   6  22
BRANCH   8  24
ATOM     24  O   UNL     1       2.353  -1.277  42.067  1.00  0.00    -0.508 OA
ATOM     25  H   UNL     1       2.475  -0.272  42.012  1.00  0.00     0.293 HD
ENDBRANCH   8  24
TORSDOF 5
ENDMDL
