MODEL 1
REMARK VINA RESULT:    -4.491      0.000      0.000
REMARK INTER + INTRA:          -9.888
REMARK INTER:                  -8.693
REMARK INTRA:                  -1.195
REMARK UNBOUND:                -1.195
REMARK SMILES CCCCCCCCCCCCCCCCCC(=O)[O-]
REMARK SMILES IDX 10 1 11 2 12 3 13 4 14 5 15 6 16 7 17 8 18 9 19 10 20 11
REMARK SMILES IDX 9 12 8 13 7 14 6 15 5 16 4 17 3 18 2 19 1 20
REMARK H PARENT
REMARK Flexibility Score: inf
ROOT
ATOM      1  C   UNL     1     -23.722 -11.927  32.126  1.00  0.00     0.000 C 
ENDROOT
BRANCH   1   2
ATOM      2  C   UNL     1     -25.250 -12.127  32.228  1.00  0.00     0.000 C 
BRANCH   2   3
ATOM      3  C   UNL     1     -25.830 -11.571  33.540  1.00  0.00     0.000 C 
BRANCH   3   4
ATOM      4  C   UNL     1     -27.349 -11.347  33.469  1.00  0.00     0.000 C 
BRANCH   4   5
ATOM      5  C   UNL     1     -27.945 -10.900  34.816  1.00  0.00     0.000 C 
BRANCH   5   6
ATOM      6  C   UNL     1     -28.305  -9.406  34.836  1.00  0.00     0.000 C 
BRANCH   6   7
ATOM      7  C   UNL     1     -29.178  -8.991  33.642  1.00  0.00     0.006 C 
BRANCH   7   8
ATOM      8  C   UNL     1     -30.593  -8.618  34.097  1.00  0.00     0.053 C 
BRANCH   8   9
ATOM      9  C   UNL     1     -31.452  -8.257  32.925  1.00  0.00     0.041 C 
ATOM     10  O   UNL     1     -31.171  -7.253  32.217  1.00  0.00    -0.550 OA
ATOM     11  O   UNL     1     -32.566  -9.028  32.611  1.00  0.00    -0.550 OA
ENDBRANCH   8   9
ENDBRANCH   7   8
ENDBRANCH   6   7
ENDBRANCH   5   6
ENDBRANCH   4   5
ENDBRANCH   3   4
ENDBRANCH   2   3
ENDBRANCH   1   2
BRANCH   1  12
ATOM     12  C   UNL     1     -22.914 -13.227  32.294  1.00  0.00     0.000 C 
BRANCH  12  13
ATOM     13  C   UNL     1     -21.677 -13.113  33.207  1.00  0.00    -0.000 C 
BRANCH  13  14
ATOM     14  C   UNL     1     -21.818 -13.808  34.575  1.00  0.00    -0.000 C 
BRANCH  14  15
ATOM     15  C   UNL     1     -21.718 -12.827  35.756  1.00  0.00    -0.000 C 
BRANCH  15  16
ATOM     16  C   UNL     1     -23.022 -12.049  35.995  1.00  0.00    -0.000 C 
BRANCH  16  17
ATOM     17  C   UNL     1     -23.473 -12.093  37.466  1.00  0.00    -0.000 C 
BRANCH  17  18
ATOM     18  C   UNL     1     -22.290 -12.208  38.441  1.00  0.00    -0.000 C 
BRANCH  18  19
ATOM     19  C   UNL     1     -22.333 -13.497  39.275  1.00  0.00    -0.003 C 
ATOM     20  C   UNL     1     -23.643 -14.249  39.055  1.00  0.00     0.004 C 
ENDBRANCH  18  19
ENDBRANCH  17  18
ENDBRANCH  16  17
ENDBRANCH  15  16
ENDBRANCH  14  15
ENDBRANCH  13  14
ENDBRANCH  12  13
ENDBRANCH   1  12
TORSDOF 16
ENDMDL
MODEL 2
REMARK VINA RESULT:    -3.987      6.781     10.873
REMARK INTER + INTRA:          -8.912
REMARK INTER:                  -6.798
REMARK INTRA:                  -2.114
REMARK UNBOUND:                -1.195
REMARK SMILES CCCCCCCCCCCCCCCCCC(=O)[O-]
REMARK SMILES IDX 10 1 11 2 12 3 13 4 14 5 15 6 16 7 17 8 18 9 19 10 20 11
REMARK SMILES IDX 9 12 8 13 7 14 6 15 5 16 4 17 3 18 2 19 1 20
REMARK H PARENT
REMARK Flexibility Score: inf
ROOT
ATOM      1  C   UNL     1     -23.435 -14.661  43.482  1.00  0.00     0.000 C 
ENDROOT
BRANCH   1   2
ATOM      2  C   UNL     1     -22.554 -15.880  43.831  1.00  0.00     0.000 C 
BRANCH   2   3
ATOM      3  C   UNL     1     -22.052 -15.846  45.286  1.00  0.00     0.000 C 
BRANCH   3   4
ATOM      4  C   UNL     1     -21.364 -14.518  45.643  1.00  0.00     0.000 C 
BRANCH   4   5
ATOM      5  C   UNL     1     -21.875 -13.925  46.968  1.00  0.00     0.000 C 
BRANCH   5   6
ATOM      6  C   UNL     1     -23.355 -14.247  47.228  1.00  0.00     0.000 C 
BRANCH   6   7
ATOM      7  C   UNL     1     -24.262 -13.014  47.099  1.00  0.00     0.006 C 
BRANCH   7   8
ATOM      8  C   UNL     1     -25.675 -13.413  46.660  1.00  0.00     0.053 C 
BRANCH   8   9
ATOM      9  C   UNL     1     -26.097 -12.634  45.453  1.00  0.00     0.041 C 
ATOM     10  O   UNL     1     -25.668 -11.464  45.270  1.00  0.00    -0.550 OA
ATOM     11  O   UNL     1     -26.968 -13.198  44.526  1.00  0.00    -0.550 OA
ENDBRANCH   8   9
ENDBRANCH   7   8
ENDBRANCH   6   7
ENDBRANCH   5   6
ENDBRANCH   4   5
ENDBRANCH   3   4
ENDBRANCH   2   3
ENDBRANCH   1   2
BRANCH   1  12
ATOM     12  C   UNL     1     -23.104 -14.028  42.117  1.00  0.00     0.000 C 
BRANCH  12  13
ATOM     13  C   UNL     1     -21.634 -13.601  41.935  1.00  0.00    -0.000 C 
BRANCH  13  14
ATOM     14  C   UNL     1     -20.918 -14.246  40.735  1.00  0.00    -0.000 C 
BRANCH  14  15
ATOM     15  C   UNL     1     -21.848 -15.139  39.893  1.00  0.00    -0.000 C 
BRANCH  15  16
ATOM     16  C   UNL     1     -22.261 -14.482  38.567  1.00  0.00    -0.000 C 
BRANCH  16  17
ATOM     17  C   UNL     1     -23.664 -13.850  38.633  1.00  0.00    -0.000 C 
BRANCH  17  18
ATOM     18  C   UNL     1     -23.742 -12.513  37.880  1.00  0.00    -0.000 C 
BRANCH  18  19
ATOM     19  C   UNL     1     -22.672 -11.511  38.337  1.00  0.00    -0.003 C 
ATOM     20  C   UNL     1     -23.034 -10.900  39.688  1.00  0.00     0.004 C 
ENDBRANCH  18  19
ENDBRANCH  17  18
ENDBRANCH  16  17
ENDBRANCH  15  16
ENDBRANCH  14  15
ENDBRANCH  13  14
ENDBRANCH  12  13
ENDBRANCH   1  12
TORSDOF 16
ENDMDL
MODEL 3
REMARK VINA RESULT:    -3.946      6.366     10.149
REMARK INTER + INTRA:          -8.832
REMARK INTER:                  -6.682
REMARK INTRA:                  -2.150
REMARK UNBOUND:                -1.195
REMARK SMILES CCCCCCCCCCCCCCCCCC(=O)[O-]
REMARK SMILES IDX 10 1 11 2 12 3 13 4 14 5 15 6 16 7 17 8 18 9 19 10 20 11
REMARK SMILES IDX 9 12 8 13 7 14 6 15 5 16 4 17 3 18 2 19 1 20
REMARK H PARENT
REMARK Flexibility Score: inf
ROOT
ATOM      1  C   UNL     1     -22.985 -13.752  41.972  1.00  0.00     0.000 C 
ENDROOT
BRANCH   1   2
ATOM      2  C   UNL     1     -22.127 -14.661  41.066  1.00  0.00     0.000 C 
BRANCH   2   3
ATOM      3  C   UNL     1     -20.632 -14.299  41.115  1.00  0.00     0.000 C 
BRANCH   3   4
ATOM      4  C   UNL     1     -20.358 -13.024  41.929  1.00  0.00     0.000 C 
BRANCH   4   5
ATOM      5  C   UNL     1     -19.710 -11.912  41.085  1.00  0.00     0.000 C 
BRANCH   5   6
ATOM      6  C   UNL     1     -20.749 -10.989  40.428  1.00  0.00     0.000 C 
BRANCH   6   7
ATOM      7  C   UNL     1     -21.229 -11.512  39.066  1.00  0.00     0.006 C 
BRANCH   7   8
ATOM      8  C   UNL     1     -22.756 -11.445  38.959  1.00  0.00     0.053 C 
BRANCH   8   9
ATOM      9  C   UNL     1     -23.284 -12.595  38.157  1.00  0.00     0.041 C 
ATOM     10  O   UNL     1     -24.526 -12.757  38.021  1.00  0.00    -0.550 OA
ATOM     11  O   UNL     1     -22.405 -13.492  37.560  1.00  0.00    -0.550 OA
ENDBRANCH   8   9
ENDBRANCH   7   8
ENDBRANCH   6   7
ENDBRANCH   5   6
ENDBRANCH   4   5
ENDBRANCH   3   4
ENDBRANCH   2   3
ENDBRANCH   1   2
BRANCH   1  12
ATOM     12  C   UNL     1     -23.699 -14.506  43.109  1.00  0.00     0.000 C 
BRANCH  12  13
ATOM     13  C   UNL     1     -22.789 -15.404  43.970  1.00  0.00    -0.000 C 
BRANCH  13  14
ATOM     14  C   UNL     1     -22.122 -14.694  45.162  1.00  0.00    -0.000 C 
BRANCH  14  15
ATOM     15  C   UNL     1     -22.236 -15.492  46.473  1.00  0.00    -0.000 C 
BRANCH  15  16
ATOM     16  C   UNL     1     -23.310 -14.932  47.418  1.00  0.00    -0.000 C 
BRANCH  16  17
ATOM     17  C   UNL     1     -23.687 -13.477  47.087  1.00  0.00    -0.000 C 
BRANCH  17  18
ATOM     18  C   UNL     1     -25.206 -13.276  46.966  1.00  0.00    -0.000 C 
BRANCH  18  19
ATOM     19  C   UNL     1     -25.600 -12.474  45.717  1.00  0.00    -0.003 C 
ATOM     20  C   UNL     1     -26.673 -13.204  44.912  1.00  0.00     0.004 C 
ENDBRANCH  18  19
ENDBRANCH  17  18
ENDBRANCH  16  17
ENDBRANCH  15  16
ENDBRANCH  14  15
ENDBRANCH  13  14
ENDBRANCH  12  13
ENDBRANCH   1  12
TORSDOF 16
ENDMDL
MODEL 4
REMARK VINA RESULT:    -3.850      7.053      9.984
REMARK INTER + INTRA:          -8.646
REMARK INTER:                  -6.327
REMARK INTRA:                  -2.320
REMARK UNBOUND:                -1.195
REMARK SMILES CCCCCCCCCCCCCCCCCC(=O)[O-]
REMARK SMILES IDX 10 1 11 2 12 3 13 4 14 5 15 6 16 7 17 8 18 9 19 10 20 11
REMARK SMILES IDX 9 12 8 13 7 14 6 15 5 16 4 17 3 18 2 19 1 20
REMARK H PARENT
REMARK Flexibility Score: inf
ROOT
ATOM      1  C   UNL     1     -23.412 -11.514  39.626  1.00  0.00     0.000 C 
ENDROOT
BRANCH   1   2
ATOM      2  C   UNL     1     -23.766 -12.359  38.382  1.00  0.00     0.000 C 
BRANCH   2   3
ATOM      3  C   UNL     1     -23.743 -13.871  38.673  1.00  0.00     0.000 C 
BRANCH   3   4
ATOM      4  C   UNL     1     -23.184 -14.197  40.066  1.00  0.00     0.000 C 
BRANCH   4   5
ATOM      5  C   UNL     1     -21.842 -14.948  40.004  1.00  0.00     0.000 C 
BRANCH   5   6
ATOM      6  C   UNL     1     -21.019 -14.795  41.293  1.00  0.00     0.000 C 
BRANCH   6   7
ATOM      7  C   UNL     1     -20.855 -16.120  42.053  1.00  0.00     0.006 C 
BRANCH   7   8
ATOM      8  C   UNL     1     -20.246 -15.888  43.440  1.00  0.00     0.053 C 
BRANCH   8   9
ATOM      9  C   UNL     1     -21.215 -15.178  44.335  1.00  0.00     0.041 C 
ATOM     10  O   UNL     1     -20.859 -14.147  44.964  1.00  0.00    -0.550 OA
ATOM     11  O   UNL     1     -22.513 -15.656  44.477  1.00  0.00    -0.550 OA
ENDBRANCH   8   9
ENDBRANCH   7   8
ENDBRANCH   6   7
ENDBRANCH   5   6
ENDBRANCH   4   5
ENDBRANCH   3   4
ENDBRANCH   2   3
ENDBRANCH   1   2
BRANCH   1  12
ATOM     12  C   UNL     1     -22.109 -10.708  39.476  1.00  0.00     0.000 C 
BRANCH  12  13
ATOM     13  C   UNL     1     -20.941 -11.183  40.363  1.00  0.00    -0.000 C 
BRANCH  13  14
ATOM     14  C   UNL     1     -19.545 -11.020  39.735  1.00  0.00    -0.000 C 
BRANCH  14  15
ATOM     15  C   UNL     1     -18.952 -12.352  39.242  1.00  0.00    -0.000 C 
BRANCH  15  16
ATOM     16  C   UNL     1     -19.030 -12.508  37.715  1.00  0.00    -0.000 C 
BRANCH  16  17
ATOM     17  C   UNL     1     -20.290 -13.269  37.263  1.00  0.00    -0.000 C 
BRANCH  17  18
ATOM     18  C   UNL     1     -20.407 -13.357  35.733  1.00  0.00    -0.000 C 
BRANCH  18  19
ATOM     19  C   UNL     1     -21.864 -13.400  35.252  1.00  0.00    -0.003 C 
ATOM     20  C   UNL     1     -21.937 -13.572  33.736  1.00  0.00     0.004 C 
ENDBRANCH  18  19
ENDBRANCH  17  18
ENDBRANCH  16  17
ENDBRANCH  15  16
ENDBRANCH  14  15
ENDBRANCH  13  14
ENDBRANCH  12  13
ENDBRANCH   1  12
TORSDOF 16
ENDMDL
MODEL 5
REMARK VINA RESULT:    -3.845      3.738      7.788
REMARK INTER + INTRA:          -8.637
REMARK INTER:                  -7.314
REMARK INTRA:                  -1.323
REMARK UNBOUND:                -1.195
REMARK SMILES CCCCCCCCCCCCCCCCCC(=O)[O-]
REMARK SMILES IDX 10 1 11 2 12 3 13 4 14 5 15 6 16 7 17 8 18 9 19 10 20 11
REMARK SMILES IDX 9 12 8 13 7 14 6 15 5 16 4 17 3 18 2 19 1 20
REMARK H PARENT
REMARK Flexibility Score: inf
ROOT
ATOM      1  C   UNL     1     -21.718 -13.474  36.730  1.00  0.00     0.000 C 
ENDROOT
BRANCH   1   2
ATOM      2  C   UNL     1     -20.290 -13.170  37.234  1.00  0.00     0.000 C 
BRANCH   2   3
ATOM      3  C   UNL     1     -19.928 -13.973  38.495  1.00  0.00     0.000 C 
BRANCH   3   4
ATOM      4  C   UNL     1     -21.013 -14.992  38.880  1.00  0.00     0.000 C 
BRANCH   4   5
ATOM      5  C   UNL     1     -21.383 -14.926  40.373  1.00  0.00     0.000 C 
BRANCH   5   6
ATOM      6  C   UNL     1     -22.702 -14.178  40.621  1.00  0.00     0.000 C 
BRANCH   6   7
ATOM      7  C   UNL     1     -22.491 -12.805  41.277  1.00  0.00     0.006 C 
BRANCH   7   8
ATOM      8  C   UNL     1     -22.127 -11.745  40.231  1.00  0.00     0.053 C 
BRANCH   8   9
ATOM      9  C   UNL     1     -23.360 -11.134  39.641  1.00  0.00     0.041 C 
ATOM     10  O   UNL     1     -23.789 -10.030  40.070  1.00  0.00    -0.550 OA
ATOM     11  O   UNL     1     -24.040 -11.782  38.616  1.00  0.00    -0.550 OA
ENDBRANCH   8   9
ENDBRANCH   7   8
ENDBRANCH   6   7
ENDBRANCH   5   6
ENDBRANCH   4   5
ENDBRANCH   3   4
ENDBRANCH   2   3
ENDBRANCH   1   2
BRANCH   1  12
ATOM     12  C   UNL     1     -22.040 -12.844  35.363  1.00  0.00     0.000 C 
BRANCH  12  13
ATOM     13  C   UNL     1     -21.716 -13.729  34.143  1.00  0.00    -0.000 C 
BRANCH  13  14
ATOM     14  C   UNL     1     -21.890 -13.037  32.778  1.00  0.00    -0.000 C 
BRANCH  14  15
ATOM     15  C   UNL     1     -23.314 -13.184  32.212  1.00  0.00    -0.000 C 
BRANCH  15  16
ATOM     16  C   UNL     1     -24.083 -11.853  32.184  1.00  0.00    -0.000 C 
BRANCH  16  17
ATOM     17  C   UNL     1     -24.817 -11.569  33.507  1.00  0.00    -0.000 C 
BRANCH  17  18
ATOM     18  C   UNL     1     -26.343 -11.516  33.333  1.00  0.00    -0.000 C 
BRANCH  18  19
ATOM     19  C   UNL     1     -27.083 -11.285  34.659  1.00  0.00    -0.003 C 
ATOM     20  C   UNL     1     -28.231 -10.294  34.481  1.00  0.00     0.004 C 
ENDBRANCH  18  19
ENDBRANCH  17  18
ENDBRANCH  16  17
ENDBRANCH  15  16
ENDBRANCH  14  15
ENDBRANCH  13  14
ENDBRANCH  12  13
ENDBRANCH   1  12
TORSDOF 16
ENDMDL
MODEL 6
REMARK VINA RESULT:    -3.831      7.280     11.185
REMARK INTER + INTRA:          -8.610
REMARK INTER:                  -6.764
REMARK INTRA:                  -1.846
REMARK UNBOUND:                -1.195
REMARK SMILES CCCCCCCCCCCCCCCCCC(=O)[O-]
REMARK SMILES IDX 10 1 11 2 12 3 13 4 14 5 15 6 16 7 17 8 18 9 19 10 20 11
REMARK SMILES IDX 9 12 8 13 7 14 6 15 5 16 4 17 3 18 2 19 1 20
REMARK H PARENT
REMARK Flexibility Score: inf
ROOT
ATOM      1  C   UNL     1     -22.981 -13.856  41.708  1.00  0.00     0.000 C 
ENDROOT
BRANCH   1   2
ATOM      2  C   UNL     1     -23.462 -14.610  42.968  1.00  0.00     0.000 C 
BRANCH   2   3
ATOM      3  C   UNL     1     -22.389 -15.560  43.529  1.00  0.00     0.000 C 
BRANCH   3   4
ATOM      4  C   UNL     1     -21.592 -14.936  44.686  1.00  0.00     0.000 C 
BRANCH   4   5
ATOM      5  C   UNL     1     -21.466 -15.882  45.894  1.00  0.00     0.000 C 
BRANCH   5   6
ATOM      6  C   UNL     1     -22.568 -15.653  46.941  1.00  0.00     0.000 C 
BRANCH   6   7
ATOM      7  C   UNL     1     -23.096 -14.210  46.940  1.00  0.00     0.006 C 
BRANCH   7   8
ATOM      8  C   UNL     1     -23.973 -13.944  48.168  1.00  0.00     0.053 C 
BRANCH   8   9
ATOM      9  C   UNL     1     -25.229 -13.227  47.781  1.00  0.00     0.041 C 
ATOM     10  O   UNL     1     -26.029 -12.824  48.666  1.00  0.00    -0.550 OA
ATOM     11  O   UNL     1     -25.521 -13.005  46.439  1.00  0.00    -0.550 OA
ENDBRANCH   8   9
ENDBRANCH   7   8
ENDBRANCH   6   7
ENDBRANCH   5   6
ENDBRANCH   4   5
ENDBRANCH   3   4
ENDBRANCH   2   3
ENDBRANCH   1   2
BRANCH   1  12
ATOM     12  C   UNL     1     -22.173 -14.731  40.732  1.00  0.00     0.000 C 
BRANCH  12  13
ATOM     13  C   UNL     1     -22.595 -14.621  39.254  1.00  0.00    -0.000 C 
BRANCH  13  14
ATOM     14  C   UNL     1     -23.934 -13.898  39.017  1.00  0.00    -0.000 C 
BRANCH  14  15
ATOM     15  C   UNL     1     -23.828 -12.772  37.972  1.00  0.00    -0.000 C 
BRANCH  15  16
ATOM     16  C   UNL     1     -22.544 -11.941  38.122  1.00  0.00    -0.000 C 
BRANCH  16  17
ATOM     17  C   UNL     1     -22.566 -11.041  39.370  1.00  0.00    -0.000 C 
BRANCH  17  18
ATOM     18  C   UNL     1     -21.200 -10.973  40.071  1.00  0.00    -0.000 C 
BRANCH  18  19
ATOM     19  C   UNL     1     -20.074 -11.600  39.237  1.00  0.00    -0.003 C 
ATOM     20  C   UNL     1     -19.308 -12.644  40.046  1.00  0.00     0.004 C 
ENDBRANCH  18  19
ENDBRANCH  17  18
ENDBRANCH  16  17
ENDBRANCH  15  16
ENDBRANCH  14  15
ENDBRANCH  13  14
ENDBRANCH  12  13
ENDBRANCH   1  12
TORSDOF 16
ENDMDL
MODEL 7
REMARK VINA RESULT:    -3.810      7.572     10.616
REMARK INTER + INTRA:          -8.568
REMARK INTER:                  -6.352
REMARK INTRA:                  -2.217
REMARK UNBOUND:                -1.195
REMARK SMILES CCCCCCCCCCCCCCCCCC(=O)[O-]
REMARK SMILES IDX 10 1 11 2 12 3 13 4 14 5 15 6 16 7 17 8 18 9 19 10 20 11
REMARK SMILES IDX 9 12 8 13 7 14 6 15 5 16 4 17 3 18 2 19 1 20
REMARK H PARENT
REMARK Flexibility Score: inf
ROOT
ATOM      1  C   UNL     1     -20.716 -10.880  40.118  1.00  0.00     0.000 C 
ENDROOT
BRANCH   1   2
ATOM      2  C   UNL     1     -19.694 -11.748  40.885  1.00  0.00     0.000 C 
BRANCH   2   3
ATOM      3  C   UNL     1     -19.888 -13.252  40.624  1.00  0.00     0.000 C 
BRANCH   3   4
ATOM      4  C   UNL     1     -19.820 -14.090  41.911  1.00  0.00     0.000 C 
BRANCH   4   5
ATOM      5  C   UNL     1     -21.021 -15.042  42.061  1.00  0.00     0.000 C 
BRANCH   5   6
ATOM      6  C   UNL     1     -22.328 -14.299  42.378  1.00  0.00     0.000 C 
BRANCH   6   7
ATOM      7  C   UNL     1     -23.123 -14.957  43.516  1.00  0.00     0.006 C 
BRANCH   7   8
ATOM      8  C   UNL     1     -22.292 -16.039  44.214  1.00  0.00     0.053 C 
BRANCH   8   9
ATOM      9  C   UNL     1     -21.814 -15.564  45.552  1.00  0.00     0.041 C 
ATOM     10  O   UNL     1     -22.406 -15.929  46.602  1.00  0.00    -0.550 OA
ATOM     11  O   UNL     1     -20.716 -14.716  45.641  1.00  0.00    -0.550 OA
ENDBRANCH   8   9
ENDBRANCH   7   8
ENDBRANCH   6   7
ENDBRANCH   5   6
ENDBRANCH   4   5
ENDBRANCH   3   4
ENDBRANCH   2   3
ENDBRANCH   1   2
BRANCH   1  12
ATOM     12  C   UNL     1     -22.156 -11.425  40.173  1.00  0.00     0.000 C 
BRANCH  12  13
ATOM     13  C   UNL     1     -23.017 -11.118  38.932  1.00  0.00    -0.000 C 
BRANCH  13  14
ATOM     14  C   UNL     1     -23.639 -12.354  38.256  1.00  0.00    -0.000 C 
BRANCH  14  15
ATOM     15  C   UNL     1     -23.309 -13.666  38.990  1.00  0.00    -0.000 C 
BRANCH  15  16
ATOM     16  C   UNL     1     -22.285 -14.529  38.236  1.00  0.00    -0.000 C 
BRANCH  16  17
ATOM     17  C   UNL     1     -21.850 -13.896  36.902  1.00  0.00    -0.000 C 
BRANCH  17  18
ATOM     18  C   UNL     1     -20.460 -13.244  36.985  1.00  0.00    -0.000 C 
BRANCH  18  19
ATOM     19  C   UNL     1     -19.703 -13.292  35.650  1.00  0.00    -0.003 C 
ATOM     20  C   UNL     1     -20.668 -13.227  34.469  1.00  0.00     0.004 C 
ENDBRANCH  18  19
ENDBRANCH  17  18
ENDBRANCH  16  17
ENDBRANCH  15  16
ENDBRANCH  14  15
ENDBRANCH  13  14
ENDBRANCH  12  13
ENDBRANCH   1  12
TORSDOF 16
ENDMDL
MODEL 8
REMARK VINA RESULT:    -3.790      7.254     11.211
REMARK INTER + INTRA:          -8.530
REMARK INTER:                  -6.268
REMARK INTRA:                  -2.262
REMARK UNBOUND:                -1.195
REMARK SMILES CCCCCCCCCCCCCCCCCC(=O)[O-]
REMARK SMILES IDX 10 1 11 2 12 3 13 4 14 5 15 6 16 7 17 8 18 9 19 10 20 11
REMARK SMILES IDX 9 12 8 13 7 14 6 15 5 16 4 17 3 18 2 19 1 20
REMARK H PARENT
REMARK Flexibility Score: inf
ROOT
ATOM      1  C   UNL     1     -22.833 -13.844  42.286  1.00  0.00     0.000 C 
ENDROOT
BRANCH   1   2
ATOM      2  C   UNL     1     -23.442 -14.767  43.364  1.00  0.00     0.000 C 
BRANCH   2   3
ATOM      3  C   UNL     1     -22.411 -15.748  43.949  1.00  0.00     0.000 C 
BRANCH   3   4
ATOM      4  C   UNL     1     -21.252 -15.034  44.662  1.00  0.00     0.000 C 
BRANCH   4   5
ATOM      5  C   UNL     1     -21.680 -14.398  45.997  1.00  0.00     0.000 C 
BRANCH   5   6
ATOM      6  C   UNL     1     -22.461 -15.374  46.891  1.00  0.00     0.000 C 
BRANCH   6   7
ATOM      7  C   UNL     1     -23.550 -14.676  47.719  1.00  0.00     0.006 C 
BRANCH   7   8
ATOM      8  C   UNL     1     -23.849 -13.277  47.170  1.00  0.00     0.053 C 
BRANCH   8   9
ATOM      9  C   UNL     1     -25.320 -13.088  46.964  1.00  0.00     0.041 C 
ATOM     10  O   UNL     1     -26.133 -13.398  47.875  1.00  0.00    -0.550 OA
ATOM     11  O   UNL     1     -25.797 -12.569  45.766  1.00  0.00    -0.550 OA
ENDBRANCH   8   9
ENDBRANCH   7   8
ENDBRANCH   6   7
ENDBRANCH   5   6
ENDBRANCH   4   5
ENDBRANCH   3   4
ENDBRANCH   2   3
ENDBRANCH   1   2
BRANCH   1  12
ATOM     12  C   UNL     1     -22.099 -14.602  41.164  1.00  0.00     0.000 C 
BRANCH  12  13
ATOM     13  C   UNL     1     -20.604 -14.257  41.013  1.00  0.00    -0.000 C 
BRANCH  13  14
ATOM     14  C   UNL     1     -20.148 -13.008  41.791  1.00  0.00    -0.000 C 
BRANCH  14  15
ATOM     15  C   UNL     1     -20.130 -11.738  40.923  1.00  0.00    -0.000 C 
BRANCH  15  16
ATOM     16  C   UNL     1     -19.958 -12.043  39.426  1.00  0.00    -0.000 C 
BRANCH  16  17
ATOM     17  C   UNL     1     -21.248 -11.801  38.623  1.00  0.00    -0.000 C 
BRANCH  17  18
ATOM     18  C   UNL     1     -22.291 -10.993  39.414  1.00  0.00    -0.000 C 
BRANCH  18  19
ATOM     19  C   UNL     1     -23.684 -11.639  39.388  1.00  0.00    -0.003 C 
ATOM     20  C   UNL     1     -23.786 -12.678  38.275  1.00  0.00     0.004 C 
ENDBRANCH  18  19
ENDBRANCH  17  18
ENDBRANCH  16  17
ENDBRANCH  15  16
ENDBRANCH  14  15
ENDBRANCH  13  14
ENDBRANCH  12  13
ENDBRANCH   1  12
TORSDOF 16
ENDMDL
MODEL 9
REMARK VINA RESULT:    -3.713     16.138     19.549
REMARK INTER + INTRA:          -8.382
REMARK INTER:                  -7.015
REMARK INTRA:                  -1.367
REMARK UNBOUND:                -1.195
REMARK SMILES CCCCCCCCCCCCCCCCCC(=O)[O-]
REMARK SMILES IDX 10 1 11 2 12 3 13 4 14 5 15 6 16 7 17 8 18 9 19 10 20 11
REMARK SMILES IDX 9 12 8 13 7 14 6 15 5 16 4 17 3 18 2 19 1 20
REMARK H PARENT
REMARK Flexibility Score: inf
ROOT
ATOM      1  C   UNL     1     -37.209  -6.757  49.097  1.00  0.00     0.000 C 
ENDROOT
BRANCH   1   2
ATOM      2  C   UNL     1     -37.286  -6.987  47.572  1.00  0.00     0.000 C 
BRANCH   2   3
ATOM      3  C   UNL     1     -38.736  -7.069  47.063  1.00  0.00     0.000 C 
BRANCH   3   4
ATOM      4  C   UNL     1     -38.980  -8.290  46.162  1.00  0.00     0.000 C 
BRANCH   4   5
ATOM      5  C   UNL     1     -38.257  -9.552  46.668  1.00  0.00     0.000 C 
BRANCH   5   6
ATOM      6  C   UNL     1     -37.345 -10.177  45.601  1.00  0.00     0.000 C 
BRANCH   6   7
ATOM      7  C   UNL     1     -38.097 -10.526  44.308  1.00  0.00     0.006 C 
BRANCH   7   8
ATOM      8  C   UNL     1     -37.841 -11.980  43.898  1.00  0.00     0.053 C 
BRANCH   8   9
ATOM      9  C   UNL     1     -36.508 -12.118  43.229  1.00  0.00     0.041 C 
ATOM     10  O   UNL     1     -35.783 -13.122  43.460  1.00  0.00    -0.550 OA
ATOM     11  O   UNL     1     -36.062 -11.136  42.351  1.00  0.00    -0.550 OA
ENDBRANCH   8   9
ENDBRANCH   7   8
ENDBRANCH   6   7
ENDBRANCH   5   6
ENDBRANCH   4   5
ENDBRANCH   3   4
ENDBRANCH   2   3
ENDBRANCH   1   2
BRANCH   1  12
ATOM     12  C   UNL     1     -37.328  -5.278  49.508  1.00  0.00     0.000 C 
BRANCH  12  13
ATOM     13  C   UNL     1     -37.960  -5.034  50.892  1.00  0.00    -0.000 C 
BRANCH  13  14
ATOM     14  C   UNL     1     -38.722  -3.703  51.029  1.00  0.00    -0.000 C 
BRANCH  14  15
ATOM     15  C   UNL     1     -38.668  -2.849  49.749  1.00  0.00    -0.000 C 
BRANCH  15  16
ATOM     16  C   UNL     1     -38.809  -1.345  50.032  1.00  0.00    -0.000 C 
BRANCH  16  17
ATOM     17  C   UNL     1     -37.568  -0.758  50.728  1.00  0.00    -0.000 C 
BRANCH  17  18
ATOM     18  C   UNL     1     -36.376  -0.599  49.771  1.00  0.00    -0.000 C 
BRANCH  18  19
ATOM     19  C   UNL     1     -35.048  -1.045  50.399  1.00  0.00    -0.003 C 
ATOM     20  C   UNL     1     -35.075  -2.534  50.739  1.00  0.00     0.004 C 
ENDBRANCH  18  19
ENDBRANCH  17  18
ENDBRANCH  16  17
ENDBRANCH  15  16
ENDBRANCH  14  15
ENDBRANCH  13  14
ENDBRANCH  12  13
ENDBRANCH   1  12
TORSDOF 16
ENDMDL
