MODEL 1
REMARK VINA RESULT:    -5.288      0.000      0.000
REMARK INTER + INTRA:          -6.477
REMARK INTER:                  -6.215
REMARK INTRA:                  -0.262
REMARK UNBOUND:                -0.262
REMARK SMILES O=c1c(O)c(-c2ccc(O)cc2)oc2cc(O)cc(O)c12
REMARK SMILES IDX 5 1 3 2 2 3 1 4 21 5 19 6 18 7 16 8 15 9 14 10 13 11 6 12
REMARK SMILES IDX 7 13 8 14 9 15 12 16 11 17 10 18 4 20 20 22 17 24
REMARK H PARENT 10 19 4 21 20 23 17 25
REMARK Flexibility Score: inf
ROOT
ATOM      1  C   UNL     1      21.025  39.556   4.826  1.00  0.00     0.180 A 
ATOM      2  C   UNL     1      20.798  40.432   5.905  1.00  0.00     0.208 A 
ATOM      3  C   UNL     1      20.740  39.906   7.205  1.00  0.00     0.238 A 
ATOM      4  O   UNL     1      20.525  40.679   8.178  1.00  0.00    -0.285 OA
ATOM      5  C   UNL     1      20.932  38.524   7.407  1.00  0.00     0.111 A 
ATOM      6  C   UNL     1      20.894  37.915   8.685  1.00  0.00     0.134 A 
ATOM      7  C   UNL     1      21.103  36.533   8.803  1.00  0.00     0.093 A 
ATOM      8  C   UNL     1      21.351  35.750   7.670  1.00  0.00     0.123 A 
ATOM      9  C   UNL     1      21.388  36.346   6.409  1.00  0.00     0.094 A 
ATOM     10  C   UNL     1      21.180  37.721   6.269  1.00  0.00     0.146 A 
ATOM     11  O   UNL     1      21.216  38.261   5.056  1.00  0.00    -0.452 OA
ENDROOT
BRANCH   1  12
ATOM     12  C   UNL     1      21.080  40.031   3.425  1.00  0.00     0.021 A 
ATOM     13  C   UNL     1      22.264  40.607   2.936  1.00  0.00     0.016 A 
ATOM     14  C   UNL     1      22.345  41.042   1.609  1.00  0.00     0.047 A 
ATOM     15  C   UNL     1      21.250  40.894   0.752  1.00  0.00     0.115 A 
ATOM     16  C   UNL     1      19.988  39.868   2.552  1.00  0.00     0.016 A 
ATOM     17  C   UNL     1      20.072  40.302   1.226  1.00  0.00     0.047 A 
BRANCH  15  18
ATOM     18  O   UNL     1      21.345  41.333  -0.566  1.00  0.00    -0.508 OA
ATOM     19  H   UNL     1      20.520  41.457  -1.144  1.00  0.00     0.293 HD
ENDBRANCH  15  18
ENDBRANCH   1  12
BRANCH   2  20
ATOM     20  O   UNL     1      20.660  41.805   5.684  1.00  0.00    -0.502 OA
ATOM     21  H   UNL     1      21.177  42.293   4.963  1.00  0.00     0.293 HD
ENDBRANCH   2  20
BRANCH   6  22
ATOM     22  O   UNL     1      20.651  38.670   9.833  1.00  0.00    -0.507 OA
ATOM     23  H   UNL     1      19.711  38.923  10.116  1.00  0.00     0.293 HD
ENDBRANCH   6  22
BRANCH   8  24
ATOM     24  O   UNL     1      21.559  34.378   7.788  1.00  0.00    -0.508 OA
ATOM     25  H   UNL     1      22.481  33.995   7.968  1.00  0.00     0.293 HD
ENDBRANCH   8  24
TORSDOF 5
ENDMDL
MODEL 2
REMARK VINA RESULT:    -5.231      3.703      5.959
REMARK INTER + INTRA:          -6.410
REMARK INTER:                  -6.515
REMARK INTRA:                   0.105
REMARK UNBOUND:                -0.262
REMARK SMILES O=c1c(O)c(-c2ccc(O)cc2)oc2cc(O)cc(O)c12
REMARK SMILES IDX 5 1 3 2 2 3 1 4 21 5 19 6 18 7 16 8 15 9 14 10 13 11 6 12
REMARK SMILES IDX 7 13 8 14 9 15 12 16 11 17 10 18 4 20 20 22 17 24
REMARK H PARENT 10 19 4 21 20 23 17 25
REMARK Flexibility Score: inf
ROOT
ATOM      1  C   UNL     1      18.034  40.533   5.899  1.00  0.00     0.180 A 
ATOM      2  C   UNL     1      18.314  40.954   4.584  1.00  0.00     0.208 A 
ATOM      3  C   UNL     1      19.351  40.325   3.877  1.00  0.00     0.238 A 
ATOM      4  O   UNL     1      19.619  40.701   2.703  1.00  0.00    -0.285 OA
ATOM      5  C   UNL     1      20.074  39.278   4.484  1.00  0.00     0.111 A 
ATOM      6  C   UNL     1      21.131  38.590   3.839  1.00  0.00     0.134 A 
ATOM      7  C   UNL     1      21.795  37.552   4.509  1.00  0.00     0.093 A 
ATOM      8  C   UNL     1      21.424  37.188   5.808  1.00  0.00     0.123 A 
ATOM      9  C   UNL     1      20.384  37.864   6.448  1.00  0.00     0.094 A 
ATOM     10  C   UNL     1      19.709  38.903   5.799  1.00  0.00     0.146 A 
ATOM     11  O   UNL     1      18.727  39.532   6.433  1.00  0.00    -0.452 OA
ENDROOT
BRANCH   1  12
ATOM     12  C   UNL     1      16.970  41.159   6.715  1.00  0.00     0.021 A 
ATOM     13  C   UNL     1      16.159  40.352   7.530  1.00  0.00     0.016 A 
ATOM     14  C   UNL     1      15.162  40.925   8.327  1.00  0.00     0.047 A 
ATOM     15  C   UNL     1      14.973  42.310   8.330  1.00  0.00     0.115 A 
ATOM     16  C   UNL     1      16.788  42.555   6.738  1.00  0.00     0.016 A 
ATOM     17  C   UNL     1      15.792  43.124   7.536  1.00  0.00     0.047 A 
BRANCH  15  18
ATOM     18  O   UNL     1      13.976  42.866   9.127  1.00  0.00    -0.508 OA
ATOM     19  H   UNL     1      13.002  42.606   9.017  1.00  0.00     0.293 HD
ENDBRANCH  15  18
ENDBRANCH   1  12
BRANCH   2  20
ATOM     20  O   UNL     1      17.551  41.960   3.987  1.00  0.00    -0.502 OA
ATOM     21  H   UNL     1      16.571  41.837   3.761  1.00  0.00     0.293 HD
ENDBRANCH   2  20
BRANCH   6  22
ATOM     22  O   UNL     1      21.523  38.929   2.544  1.00  0.00    -0.507 OA
ATOM     23  H   UNL     1      20.944  38.717   1.739  1.00  0.00     0.293 HD
ENDBRANCH   6  22
BRANCH   8  24
ATOM     24  O   UNL     1      22.083  36.158   6.473  1.00  0.00    -0.508 OA
ATOM     25  H   UNL     1      21.740  35.789   7.353  1.00  0.00     0.293 HD
ENDBRANCH   8  24
TORSDOF 5
ENDMDL
MODEL 3
REMARK VINA RESULT:    -5.129      2.312      6.834
REMARK INTER + INTRA:          -6.290
REMARK INTER:                  -6.260
REMARK INTRA:                  -0.030
REMARK UNBOUND:                -0.262
REMARK SMILES O=c1c(O)c(-c2ccc(O)cc2)oc2cc(O)cc(O)c12
REMARK SMILES IDX 5 1 3 2 2 3 1 4 21 5 19 6 18 7 16 8 15 9 14 10 13 11 6 12
REMARK SMILES IDX 7 13 8 14 9 15 12 16 11 17 10 18 4 20 20 22 17 24
REMARK H PARENT 10 19 4 21 20 23 17 25
REMARK Flexibility Score: inf
ROOT
ATOM      1  C   UNL     1      20.726  37.978   6.459  1.00  0.00     0.180 A 
ATOM      2  C   UNL     1      21.171  38.013   5.124  1.00  0.00     0.208 A 
ATOM      3  C   UNL     1      20.615  38.960   4.249  1.00  0.00     0.238 A 
ATOM      4  O   UNL     1      20.997  38.993   3.047  1.00  0.00    -0.285 OA
ATOM      5  C   UNL     1      19.644  39.864   4.725  1.00  0.00     0.111 A 
ATOM      6  C   UNL     1      19.037  40.850   3.910  1.00  0.00     0.134 A 
ATOM      7  C   UNL     1      18.084  41.719   4.463  1.00  0.00     0.093 A 
ATOM      8  C   UNL     1      17.728  41.621   5.812  1.00  0.00     0.123 A 
ATOM      9  C   UNL     1      18.323  40.651   6.619  1.00  0.00     0.094 A 
ATOM     10  C   UNL     1      19.273  39.773   6.088  1.00  0.00     0.146 A 
ATOM     11  O   UNL     1      19.820  38.856   6.877  1.00  0.00    -0.452 OA
ENDROOT
BRANCH   1  12
ATOM     12  C   UNL     1      21.250  36.997   7.437  1.00  0.00     0.021 A 
ATOM     13  C   UNL     1      21.178  35.625   7.146  1.00  0.00     0.016 A 
ATOM     14  C   UNL     1      21.687  34.682   8.046  1.00  0.00     0.047 A 
ATOM     15  C   UNL     1      22.286  35.099   9.238  1.00  0.00     0.115 A 
ATOM     16  C   UNL     1      21.872  37.412   8.630  1.00  0.00     0.016 A 
ATOM     17  C   UNL     1      22.380  36.467   9.527  1.00  0.00     0.047 A 
BRANCH  15  18
ATOM     18  O   UNL     1      22.787  34.150  10.125  1.00  0.00    -0.508 OA
ATOM     19  H   UNL     1      23.329  34.419  10.938  1.00  0.00     0.293 HD
ENDBRANCH  15  18
ENDBRANCH   1  12
BRANCH   2  20
ATOM     20  O   UNL     1      22.171  37.139   4.688  1.00  0.00    -0.502 OA
ATOM     21  H   UNL     1      22.829  37.387   3.960  1.00  0.00     0.293 HD
ENDBRANCH   2  20
BRANCH   6  22
ATOM     22  O   UNL     1      19.373  40.972   2.561  1.00  0.00    -0.507 OA
ATOM     23  H   UNL     1      19.787  40.206   2.043  1.00  0.00     0.293 HD
ENDBRANCH   6  22
BRANCH   8  24
ATOM     24  O   UNL     1      16.783  42.484   6.361  1.00  0.00    -0.508 OA
ATOM     25  H   UNL     1      15.788  42.310   6.266  1.00  0.00     0.293 HD
ENDBRANCH   8  24
TORSDOF 5
ENDMDL
MODEL 4
REMARK VINA RESULT:    -5.095      2.208      3.369
REMARK INTER + INTRA:          -6.250
REMARK INTER:                  -6.093
REMARK INTRA:                  -0.157
REMARK UNBOUND:                -0.262
REMARK SMILES O=c1c(O)c(-c2ccc(O)cc2)oc2cc(O)cc(O)c12
REMARK SMILES IDX 5 1 3 2 2 3 1 4 21 5 19 6 18 7 16 8 15 9 14 10 13 11 6 12
REMARK SMILES IDX 7 13 8 14 9 15 12 16 11 17 10 18 4 20 20 22 17 24
REMARK H PARENT 10 19 4 21 20 23 17 25
REMARK Flexibility Score: inf
ROOT
ATOM      1  C   UNL     1      20.380  40.828   1.869  1.00  0.00     0.180 A 
ATOM      2  C   UNL     1      19.474  41.531   2.686  1.00  0.00     0.208 A 
ATOM      3  C   UNL     1      19.200  41.042   3.973  1.00  0.00     0.238 A 
ATOM      4  O   UNL     1      18.381  41.656   4.709  1.00  0.00    -0.285 OA
ATOM      5  C   UNL     1      19.850  39.876   4.428  1.00  0.00     0.111 A 
ATOM      6  C   UNL     1      19.633  39.320   5.713  1.00  0.00     0.134 A 
ATOM      7  C   UNL     1      20.326  38.161   6.094  1.00  0.00     0.093 A 
ATOM      8  C   UNL     1      21.230  37.550   5.218  1.00  0.00     0.123 A 
ATOM      9  C   UNL     1      21.446  38.094   3.951  1.00  0.00     0.094 A 
ATOM     10  C   UNL     1      20.764  39.247   3.550  1.00  0.00     0.146 A 
ATOM     11  O   UNL     1      20.985  39.741   2.338  1.00  0.00    -0.452 OA
ENDROOT
BRANCH   1  12
ATOM     12  C   UNL     1      20.706  41.269   0.494  1.00  0.00     0.021 A 
ATOM     13  C   UNL     1      22.028  41.623   0.176  1.00  0.00     0.016 A 
ATOM     14  C   UNL     1      22.362  42.021  -1.123  1.00  0.00     0.047 A 
ATOM     15  C   UNL     1      21.384  42.057  -2.121  1.00  0.00     0.115 A 
ATOM     16  C   UNL     1      19.730  41.289  -0.521  1.00  0.00     0.016 A 
ATOM     17  C   UNL     1      20.067  41.686  -1.818  1.00  0.00     0.047 A 
BRANCH  15  18
ATOM     18  O   UNL     1      21.731  42.456  -3.409  1.00  0.00    -0.508 OA
ATOM     19  H   UNL     1      21.326  42.016  -4.228  1.00  0.00     0.293 HD
ENDBRANCH  15  18
ENDBRANCH   1  12
BRANCH   2  20
ATOM     20  O   UNL     1      18.881  42.712   2.230  1.00  0.00    -0.502 OA
ATOM     21  H   UNL     1      19.314  43.619   2.352  1.00  0.00     0.293 HD
ENDBRANCH   2  20
BRANCH   6  22
ATOM     22  O   UNL     1      18.739  39.908   6.608  1.00  0.00    -0.507 OA
ATOM     23  H   UNL     1      18.948  40.784   7.072  1.00  0.00     0.293 HD
ENDBRANCH   6  22
BRANCH   8  24
ATOM     24  O   UNL     1      21.918  36.400   5.597  1.00  0.00    -0.508 OA
ATOM     25  H   UNL     1      21.588  35.810   6.354  1.00  0.00     0.293 HD
ENDBRANCH   8  24
TORSDOF 5
ENDMDL
MODEL 5
REMARK VINA RESULT:    -5.058      1.697      6.616
REMARK INTER + INTRA:          -6.206
REMARK INTER:                  -6.142
REMARK INTRA:                  -0.064
REMARK UNBOUND:                -0.262
REMARK SMILES O=c1c(O)c(-c2ccc(O)cc2)oc2cc(O)cc(O)c12
REMARK SMILES IDX 5 1 3 2 2 3 1 4 21 5 19 6 18 7 16 8 15 9 14 10 13 11 6 12
REMARK SMILES IDX 7 13 8 14 9 15 12 16 11 17 10 18 4 20 20 22 17 24
REMARK H PARENT 10 19 4 21 20 23 17 25
REMARK Flexibility Score: inf
ROOT
ATOM      1  C   UNL     1      20.506  39.151   5.619  1.00  0.00     0.180 A 
ATOM      2  C   UNL     1      19.313  39.900   5.600  1.00  0.00     0.208 A 
ATOM      3  C   UNL     1      19.063  40.749   4.511  1.00  0.00     0.238 A 
ATOM      4  O   UNL     1      18.004  41.434   4.488  1.00  0.00    -0.285 OA
ATOM      5  C   UNL     1      19.994  40.821   3.454  1.00  0.00     0.111 A 
ATOM      6  C   UNL     1      19.815  41.649   2.319  1.00  0.00     0.134 A 
ATOM      7  C   UNL     1      20.785  41.656   1.305  1.00  0.00     0.093 A 
ATOM      8  C   UNL     1      21.926  40.854   1.404  1.00  0.00     0.123 A 
ATOM      9  C   UNL     1      22.107  40.037   2.521  1.00  0.00     0.094 A 
ATOM     10  C   UNL     1      21.154  40.015   3.544  1.00  0.00     0.146 A 
ATOM     11  O   UNL     1      21.354  39.233   4.598  1.00  0.00    -0.452 OA
ENDROOT
BRANCH   1  12
ATOM     12  C   UNL     1      20.851  38.249   6.741  1.00  0.00     0.021 A 
ATOM     13  C   UNL     1      21.180  36.910   6.474  1.00  0.00     0.016 A 
ATOM     14  C   UNL     1      21.530  36.045   7.517  1.00  0.00     0.047 A 
ATOM     15  C   UNL     1      21.570  36.511   8.834  1.00  0.00     0.115 A 
ATOM     16  C   UNL     1      20.913  38.717   8.067  1.00  0.00     0.016 A 
ATOM     17  C   UNL     1      21.264  37.851   9.106  1.00  0.00     0.047 A 
BRANCH  15  18
ATOM     18  O   UNL     1      21.920  35.639   9.862  1.00  0.00    -0.508 OA
ATOM     19  H   UNL     1      22.483  34.814   9.688  1.00  0.00     0.293 HD
ENDBRANCH  15  18
ENDBRANCH   1  12
BRANCH   2  20
ATOM     20  O   UNL     1      18.383  39.774   6.636  1.00  0.00    -0.502 OA
ATOM     21  H   UNL     1      17.608  40.415   6.749  1.00  0.00     0.293 HD
ENDBRANCH   2  20
BRANCH   6  22
ATOM     22  O   UNL     1      18.687  42.459   2.192  1.00  0.00    -0.507 OA
ATOM     23  H   UNL     1      18.001  42.308   1.460  1.00  0.00     0.293 HD
ENDBRANCH   6  22
BRANCH   8  24
ATOM     24  O   UNL     1      22.888  40.861   0.397  1.00  0.00    -0.508 OA
ATOM     25  H   UNL     1      23.461  40.046   0.204  1.00  0.00     0.293 HD
ENDBRANCH   8  24
TORSDOF 5
ENDMDL
MODEL 6
REMARK VINA RESULT:    -4.783      3.116      6.344
REMARK INTER + INTRA:          -5.884
REMARK INTER:                  -5.594
REMARK INTRA:                  -0.290
REMARK UNBOUND:                -0.262
REMARK SMILES O=c1c(O)c(-c2ccc(O)cc2)oc2cc(O)cc(O)c12
REMARK SMILES IDX 5 1 3 2 2 3 1 4 21 5 19 6 18 7 16 8 15 9 14 10 13 11 6 12
REMARK SMILES IDX 7 13 8 14 9 15 12 16 11 17 10 18 4 20 20 22 17 24
REMARK H PARENT 10 19 4 21 20 23 17 25
REMARK Flexibility Score: inf
ROOT
ATOM      1  C   UNL     1      18.796  40.207   6.753  1.00  0.00     0.180 A 
ATOM      2  C   UNL     1      19.599  39.217   7.350  1.00  0.00     0.208 A 
ATOM      3  C   UNL     1      20.499  38.499   6.547  1.00  0.00     0.238 A 
ATOM      4  O   UNL     1      21.215  37.600   7.068  1.00  0.00    -0.285 OA
ATOM      5  C   UNL     1      20.596  38.795   5.172  1.00  0.00     0.111 A 
ATOM      6  C   UNL     1      21.480  38.121   4.295  1.00  0.00     0.134 A 
ATOM      7  C   UNL     1      21.523  38.481   2.940  1.00  0.00     0.093 A 
ATOM      8  C   UNL     1      20.702  39.501   2.447  1.00  0.00     0.123 A 
ATOM      9  C   UNL     1      19.829  40.168   3.307  1.00  0.00     0.094 A 
ATOM     10  C   UNL     1      19.769  39.823   4.661  1.00  0.00     0.146 A 
ATOM     11  O   UNL     1      18.925  40.470   5.456  1.00  0.00    -0.452 OA
ENDROOT
BRANCH   1  12
ATOM     12  C   UNL     1      17.810  40.993   7.529  1.00  0.00     0.021 A 
ATOM     13  C   UNL     1      16.492  40.522   7.652  1.00  0.00     0.016 A 
ATOM     14  C   UNL     1      15.550  41.237   8.398  1.00  0.00     0.047 A 
ATOM     15  C   UNL     1      15.916  42.423   9.042  1.00  0.00     0.115 A 
ATOM     16  C   UNL     1      18.177  42.178   8.196  1.00  0.00     0.016 A 
ATOM     17  C   UNL     1      17.234  42.889   8.942  1.00  0.00     0.047 A 
BRANCH  15  18
ATOM     18  O   UNL     1      14.968  43.125   9.781  1.00  0.00    -0.508 OA
ATOM     19  H   UNL     1      14.791  42.911  10.757  1.00  0.00     0.293 HD
ENDBRANCH  15  18
ENDBRANCH   1  12
BRANCH   2  20
ATOM     20  O   UNL     1      19.520  38.976   8.725  1.00  0.00    -0.502 OA
ATOM     21  H   UNL     1      19.441  38.042   9.108  1.00  0.00     0.293 HD
ENDBRANCH   2  20
BRANCH   6  22
ATOM     22  O   UNL     1      22.312  37.101   4.758  1.00  0.00    -0.507 OA
ATOM     23  H   UNL     1      21.948  36.187   5.004  1.00  0.00     0.293 HD
ENDBRANCH   6  22
BRANCH   8  24
ATOM     24  O   UNL     1      20.746  39.859   1.102  1.00  0.00    -0.508 OA
ATOM     25  H   UNL     1      21.218  40.702   0.792  1.00  0.00     0.293 HD
ENDBRANCH   8  24
TORSDOF 5
ENDMDL
MODEL 7
REMARK VINA RESULT:    -4.624      2.008      3.800
REMARK INTER + INTRA:          -5.697
REMARK INTER:                  -5.508
REMARK INTRA:                  -0.189
REMARK UNBOUND:                -0.262
REMARK SMILES O=c1c(O)c(-c2ccc(O)cc2)oc2cc(O)cc(O)c12
REMARK SMILES IDX 5 1 3 2 2 3 1 4 21 5 19 6 18 7 16 8 15 9 14 10 13 11 6 12
REMARK SMILES IDX 7 13 8 14 9 15 12 16 11 17 10 18 4 20 20 22 17 24
REMARK H PARENT 10 19 4 21 20 23 17 25
REMARK Flexibility Score: inf
ROOT
ATOM      1  C   UNL     1      20.968  40.244   2.927  1.00  0.00     0.180 A 
ATOM      2  C   UNL     1      21.521  39.008   3.314  1.00  0.00     0.208 A 
ATOM      3  C   UNL     1      21.270  38.529   4.610  1.00  0.00     0.238 A 
ATOM      4  O   UNL     1      21.769  37.429   4.972  1.00  0.00    -0.285 OA
ATOM      5  C   UNL     1      20.457  39.279   5.485  1.00  0.00     0.111 A 
ATOM      6  C   UNL     1      20.153  38.865   6.805  1.00  0.00     0.134 A 
ATOM      7  C   UNL     1      19.329  39.665   7.611  1.00  0.00     0.093 A 
ATOM      8  C   UNL     1      18.804  40.866   7.123  1.00  0.00     0.123 A 
ATOM      9  C   UNL     1      19.102  41.278   5.824  1.00  0.00     0.094 A 
ATOM     10  C   UNL     1      19.923  40.498   5.004  1.00  0.00     0.146 A 
ATOM     11  O   UNL     1      20.194  40.916   3.774  1.00  0.00    -0.452 OA
ENDROOT
BRANCH   1  12
ATOM     12  C   UNL     1      21.202  40.825   1.586  1.00  0.00     0.021 A 
ATOM     13  C   UNL     1      20.122  40.983   0.702  1.00  0.00     0.016 A 
ATOM     14  C   UNL     1      20.317  41.550  -0.562  1.00  0.00     0.047 A 
ATOM     15  C   UNL     1      21.589  41.979  -0.952  1.00  0.00     0.115 A 
ATOM     16  C   UNL     1      22.477  41.277   1.194  1.00  0.00     0.016 A 
ATOM     17  C   UNL     1      22.668  41.844  -0.069  1.00  0.00     0.047 A 
BRANCH  15  18
ATOM     18  O   UNL     1      21.768  42.540  -2.213  1.00  0.00    -0.508 OA
ATOM     19  H   UNL     1      21.434  43.473  -2.431  1.00  0.00     0.293 HD
ENDBRANCH  15  18
ENDBRANCH   1  12
BRANCH   2  20
ATOM     20  O   UNL     1      22.282  38.260   2.412  1.00  0.00    -0.502 OA
ATOM     21  H   UNL     1      21.975  38.079   1.464  1.00  0.00     0.293 HD
ENDBRANCH   2  20
BRANCH   6  22
ATOM     22  O   UNL     1      20.660  37.671   7.318  1.00  0.00    -0.507 OA
ATOM     23  H   UNL     1      21.219  37.649   8.164  1.00  0.00     0.293 HD
ENDBRANCH   6  22
BRANCH   8  24
ATOM     24  O   UNL     1      17.985  41.659   7.924  1.00  0.00    -0.508 OA
ATOM     25  H   UNL     1      18.135  42.659   8.009  1.00  0.00     0.293 HD
ENDBRANCH   8  24
TORSDOF 5
ENDMDL
