MODEL 1
REMARK VINA RESULT:   -10.081      0.000      0.000
REMARK INTER + INTRA:         -12.139
REMARK INTER:                 -11.850
REMARK INTRA:                  -0.289
REMARK UNBOUND:                -0.289
REMARK SMILES O=c1cc(-c2ccc(O)c(O)c2)oc2cc(O)cc(O)c12
REMARK SMILES IDX 4 1 3 2 2 3 1 4 21 5 19 6 18 7 16 8 15 9 14 10 13 11 5 12
REMARK SMILES IDX 6 13 7 14 8 15 12 16 10 17 9 18 11 20 20 22 17 24
REMARK H PARENT 9 19 11 21 20 23 17 25
REMARK Flexibility Score: inf
ROOT
ATOM      1  C   UNL     1     119.021 119.028 122.981  1.00  0.00     0.138 A 
ATOM      2  C   UNL     1     119.336 117.880 122.240  1.00  0.00     0.100 A 
ATOM      3  C   UNL     1     119.641 117.997 120.884  1.00  0.00     0.197 A 
ATOM      4  O   UNL     1     119.981 116.958 120.260  1.00  0.00    -0.289 OA
ATOM      5  C   UNL     1     119.598 119.266 120.259  1.00  0.00     0.107 A 
ATOM      6  C   UNL     1     119.849 119.499 118.874  1.00  0.00     0.134 A 
ATOM      7  C   UNL     1     119.891 120.814 118.392  1.00  0.00     0.093 A 
ATOM      8  C   UNL     1     119.633 121.897 119.231  1.00  0.00     0.123 A 
ATOM      9  C   UNL     1     119.333 121.678 120.576  1.00  0.00     0.094 A 
ATOM     10  C   UNL     1     119.316 120.381 121.094  1.00  0.00     0.146 A 
ATOM     11  O   UNL     1     119.041 120.215 122.384  1.00  0.00    -0.456 OA
ENDROOT
BRANCH   1  12
ATOM     12  C   UNL     1     118.689 118.961 124.427  1.00  0.00     0.021 A 
ATOM     13  C   UNL     1     117.883 119.961 124.999  1.00  0.00     0.016 A 
ATOM     14  C   UNL     1     117.550 119.916 126.354  1.00  0.00     0.051 A 
ATOM     15  C   UNL     1     118.004 118.869 127.160  1.00  0.00     0.157 A 
ATOM     16  C   UNL     1     119.134 117.900 125.240  1.00  0.00     0.062 A 
ATOM     17  C   UNL     1     118.798 117.854 126.602  1.00  0.00     0.158 A 
BRANCH  15  18
ATOM     18  O   UNL     1     117.657 118.853 128.511  1.00  0.00    -0.504 OA
ATOM     19  H   UNL     1     117.111 118.102 128.917  1.00  0.00     0.293 HD
ENDBRANCH  15  18
BRANCH  17  20
ATOM     20  O   UNL     1     119.245 116.801 127.399  1.00  0.00    -0.504 OA
ATOM     21  H   UNL     1     120.222 116.700 127.646  1.00  0.00     0.293 HD
ENDBRANCH  17  20
ENDBRANCH   1  12
BRANCH   6  22
ATOM     22  O   UNL     1     120.036 118.483 117.932  1.00  0.00    -0.507 OA
ATOM     23  H   UNL     1     119.955 118.601 116.934  1.00  0.00     0.293 HD
ENDBRANCH   6  22
BRANCH   8  24
ATOM     24  O   UNL     1     119.668 123.191 118.714  1.00  0.00    -0.508 OA
ATOM     25  H   UNL     1     119.072 123.924 119.079  1.00  0.00     0.293 HD
ENDBRANCH   8  24
TORSDOF 5
ENDMDL
MODEL 2
REMARK VINA RESULT:   -10.078      2.155      2.589
REMARK INTER + INTRA:         -12.135
REMARK INTER:                 -11.847
REMARK INTRA:                  -0.287
REMARK UNBOUND:                -0.289
REMARK SMILES O=c1cc(-c2ccc(O)c(O)c2)oc2cc(O)cc(O)c12
REMARK SMILES IDX 4 1 3 2 2 3 1 4 21 5 19 6 18 7 16 8 15 9 14 10 13 11 5 12
REMARK SMILES IDX 6 13 7 14 8 15 12 16 10 17 9 18 11 20 20 22 17 24
REMARK H PARENT 9 19 11 21 20 23 17 25
REMARK Flexibility Score: inf
ROOT
ATOM      1  C   UNL     1     120.019 119.006 122.982  1.00  0.00     0.138 A 
ATOM      2  C   UNL     1     121.159 119.305 122.223  1.00  0.00     0.100 A 
ATOM      3  C   UNL     1     121.027 119.600 120.866  1.00  0.00     0.197 A 
ATOM      4  O   UNL     1     122.061 119.925 120.226  1.00  0.00    -0.289 OA
ATOM      5  C   UNL     1     119.749 119.563 120.259  1.00  0.00     0.107 A 
ATOM      6  C   UNL     1     119.500 119.804 118.875  1.00  0.00     0.134 A 
ATOM      7  C   UNL     1     118.179 119.855 118.410  1.00  0.00     0.093 A 
ATOM      8  C   UNL     1     117.105 119.614 119.266  1.00  0.00     0.123 A 
ATOM      9  C   UNL     1     117.340 119.323 120.610  1.00  0.00     0.094 A 
ATOM     10  C   UNL     1     118.643 119.298 121.111  1.00  0.00     0.146 A 
ATOM     11  O   UNL     1     118.824 119.032 122.401  1.00  0.00    -0.456 OA
ENDROOT
BRANCH   1  12
ATOM     12  C   UNL     1     120.102 118.685 124.430  1.00  0.00     0.021 A 
ATOM     13  C   UNL     1     119.147 117.829 125.004  1.00  0.00     0.016 A 
ATOM     14  C   UNL     1     119.208 117.505 126.362  1.00  0.00     0.051 A 
ATOM     15  C   UNL     1     120.228 118.020 127.166  1.00  0.00     0.157 A 
ATOM     16  C   UNL     1     121.136 119.191 125.242  1.00  0.00     0.062 A 
ATOM     17  C   UNL     1     121.199 118.865 126.605  1.00  0.00     0.158 A 
BRANCH  15  18
ATOM     18  O   UNL     1     120.261 117.681 128.519  1.00  0.00    -0.504 OA
ATOM     19  H   UNL     1     120.662 116.809 128.845  1.00  0.00     0.293 HD
ENDBRANCH  15  18
BRANCH  17  20
ATOM     20  O   UNL     1     122.225 119.372 127.400  1.00  0.00    -0.504 OA
ATOM     21  H   UNL     1     122.390 120.368 127.484  1.00  0.00     0.293 HD
ENDBRANCH  17  20
ENDBRANCH   1  12
BRANCH   6  22
ATOM     22  O   UNL     1     120.505 119.975 117.918  1.00  0.00    -0.507 OA
ATOM     23  H   UNL     1     121.007 120.834 117.756  1.00  0.00     0.293 HD
ENDBRANCH   6  22
BRANCH   8  24
ATOM     24  O   UNL     1     115.805 119.657 118.766  1.00  0.00    -0.508 OA
ATOM     25  H   UNL     1     115.554 120.262 117.992  1.00  0.00     0.293 HD
ENDBRANCH   8  24
TORSDOF 5
ENDMDL
MODEL 3
REMARK VINA RESULT:   -10.076      2.226      3.631
REMARK INTER + INTRA:         -12.133
REMARK INTER:                 -11.846
REMARK INTRA:                  -0.287
REMARK UNBOUND:                -0.289
REMARK SMILES O=c1cc(-c2ccc(O)c(O)c2)oc2cc(O)cc(O)c12
REMARK SMILES IDX 4 1 3 2 2 3 1 4 21 5 19 6 18 7 16 8 15 9 14 10 13 11 5 12
REMARK SMILES IDX 6 13 7 14 8 15 12 16 10 17 9 18 11 20 20 22 17 24
REMARK H PARENT 9 19 11 21 20 23 17 25
REMARK Flexibility Score: inf
ROOT
ATOM      1  C   UNL     1     120.062 120.030 122.990  1.00  0.00     0.138 A 
ATOM      2  C   UNL     1     119.790 121.175 122.228  1.00  0.00     0.100 A 
ATOM      3  C   UNL     1     119.503 121.046 120.868  1.00  0.00     0.197 A 
ATOM      4  O   UNL     1     119.201 122.084 120.224  1.00  0.00    -0.289 OA
ATOM      5  C   UNL     1     119.522 119.766 120.263  1.00  0.00     0.107 A 
ATOM      6  C   UNL     1     119.286 119.519 118.878  1.00  0.00     0.134 A 
ATOM      7  C   UNL     1     119.216 118.199 118.415  1.00  0.00     0.093 A 
ATOM      8  C   UNL     1     119.431 117.122 119.274  1.00  0.00     0.123 A 
ATOM      9  C   UNL     1     119.716 117.353 120.619  1.00  0.00     0.094 A 
ATOM     10  C   UNL     1     119.760 118.657 121.119  1.00  0.00     0.146 A 
ATOM     11  O   UNL     1     120.019 118.835 122.410  1.00  0.00    -0.456 OA
ENDROOT
BRANCH   1  12
ATOM     12  C   UNL     1     120.373 120.110 124.440  1.00  0.00     0.021 A 
ATOM     13  C   UNL     1     121.239 119.164 125.015  1.00  0.00     0.016 A 
ATOM     14  C   UNL     1     121.555 119.222 126.374  1.00  0.00     0.051 A 
ATOM     15  C   UNL     1     121.020 120.230 127.181  1.00  0.00     0.157 A 
ATOM     16  C   UNL     1     119.847 121.132 125.255  1.00  0.00     0.062 A 
ATOM     17  C   UNL     1     120.165 121.192 126.620  1.00  0.00     0.158 A 
BRANCH  15  18
ATOM     18  O   UNL     1     121.351 120.261 128.536  1.00  0.00    -0.504 OA
ATOM     19  H   UNL     1     121.008 119.568 129.190  1.00  0.00     0.293 HD
ENDBRANCH  15  18
BRANCH  17  20
ATOM     20  O   UNL     1     119.638 122.206 127.418  1.00  0.00    -0.504 OA
ATOM     21  H   UNL     1     120.149 122.579 128.210  1.00  0.00     0.293 HD
ENDBRANCH  17  20
ENDBRANCH   1  12
BRANCH   6  22
ATOM     22  O   UNL     1     119.141 120.525 117.918  1.00  0.00    -0.507 OA
ATOM     23  H   UNL     1     119.765 121.310 117.807  1.00  0.00     0.293 HD
ENDBRANCH   6  22
BRANCH   8  24
ATOM     24  O   UNL     1     119.369 115.822 118.775  1.00  0.00    -0.508 OA
ATOM     25  H   UNL     1     118.767 115.122 119.194  1.00  0.00     0.293 HD
ENDBRANCH   8  24
TORSDOF 5
ENDMDL
MODEL 4
REMARK VINA RESULT:   -10.061      2.107      2.567
REMARK INTER + INTRA:         -12.115
REMARK INTER:                 -11.829
REMARK INTRA:                  -0.287
REMARK UNBOUND:                -0.289
REMARK SMILES O=c1cc(-c2ccc(O)c(O)c2)oc2cc(O)cc(O)c12
REMARK SMILES IDX 4 1 3 2 2 3 1 4 21 5 19 6 18 7 16 8 15 9 14 10 13 11 5 12
REMARK SMILES IDX 6 13 7 14 8 15 12 16 10 17 9 18 11 20 20 22 17 24
REMARK H PARENT 9 19 11 21 20 23 17 25
REMARK Flexibility Score: inf
ROOT
ATOM      1  C   UNL     1     119.046 120.040 122.935  1.00  0.00     0.138 A 
ATOM      2  C   UNL     1     117.901 119.760 122.176  1.00  0.00     0.100 A 
ATOM      3  C   UNL     1     118.028 119.463 120.818  1.00  0.00     0.197 A 
ATOM      4  O   UNL     1     116.990 119.155 120.178  1.00  0.00    -0.289 OA
ATOM      5  C   UNL     1     119.307 119.479 120.212  1.00  0.00     0.107 A 
ATOM      6  C   UNL     1     119.553 119.233 118.828  1.00  0.00     0.134 A 
ATOM      7  C   UNL     1     120.873 119.161 118.364  1.00  0.00     0.093 A 
ATOM      8  C   UNL     1     121.950 119.384 119.220  1.00  0.00     0.123 A 
ATOM      9  C   UNL     1     121.720 119.679 120.564  1.00  0.00     0.094 A 
ATOM     10  C   UNL     1     120.417 119.725 121.064  1.00  0.00     0.146 A 
ATOM     11  O   UNL     1     120.240 119.994 122.354  1.00  0.00    -0.456 OA
ENDROOT
BRANCH   1  12
ATOM     12  C   UNL     1     118.967 120.362 124.382  1.00  0.00     0.021 A 
ATOM     13  C   UNL     1     119.922 121.222 124.952  1.00  0.00     0.016 A 
ATOM     14  C   UNL     1     119.865 121.548 126.309  1.00  0.00     0.051 A 
ATOM     15  C   UNL     1     118.850 121.030 127.119  1.00  0.00     0.157 A 
ATOM     16  C   UNL     1     117.938 119.853 125.199  1.00  0.00     0.062 A 
ATOM     17  C   UNL     1     117.880 120.181 126.562  1.00  0.00     0.158 A 
BRANCH  15  18
ATOM     18  O   UNL     1     118.821 121.371 128.471  1.00  0.00    -0.504 OA
ATOM     19  H   UNL     1     118.418 120.760 129.171  1.00  0.00     0.293 HD
ENDBRANCH  15  18
BRANCH  17  20
ATOM     20  O   UNL     1     116.859 119.671 127.362  1.00  0.00    -0.504 OA
ATOM     21  H   UNL     1     116.805 118.685 127.591  1.00  0.00     0.293 HD
ENDBRANCH  17  20
ENDBRANCH   1  12
BRANCH   6  22
ATOM     22  O   UNL     1     118.546 119.080 117.870  1.00  0.00    -0.507 OA
ATOM     23  H   UNL     1     117.562 118.997 118.076  1.00  0.00     0.293 HD
ENDBRANCH   6  22
BRANCH   8  24
ATOM     24  O   UNL     1     123.250 119.319 118.720  1.00  0.00    -0.508 OA
ATOM     25  H   UNL     1     124.047 119.603 119.277  1.00  0.00     0.293 HD
ENDBRANCH   8  24
TORSDOF 5
ENDMDL
MODEL 5
REMARK VINA RESULT:    -9.773      1.423      1.763
REMARK INTER + INTRA:         -11.777
REMARK INTER:                 -11.503
REMARK INTRA:                  -0.274
REMARK UNBOUND:                -0.289
REMARK SMILES O=c1cc(-c2ccc(O)c(O)c2)oc2cc(O)cc(O)c12
REMARK SMILES IDX 4 1 3 2 2 3 1 4 21 5 19 6 18 7 16 8 15 9 14 10 13 11 5 12
REMARK SMILES IDX 6 13 7 14 8 15 12 16 10 17 9 18 11 20 20 22 17 24
REMARK H PARENT 9 19 11 21 20 23 17 25
REMARK Flexibility Score: inf
ROOT
ATOM      1  C   UNL     1     119.155 119.935 123.162  1.00  0.00     0.138 A 
ATOM      2  C   UNL     1     119.480 118.650 122.703  1.00  0.00     0.100 A 
ATOM      3  C   UNL     1     119.747 118.448 121.348  1.00  0.00     0.197 A 
ATOM      4  O   UNL     1     120.097 117.298 120.977  1.00  0.00    -0.289 OA
ATOM      5  C   UNL     1     119.655 119.533 120.444  1.00  0.00     0.107 A 
ATOM      6  C   UNL     1     119.864 119.436 119.036  1.00  0.00     0.134 A 
ATOM      7  C   UNL     1     119.860 120.600 118.256  1.00  0.00     0.093 A 
ATOM      8  C   UNL     1     119.596 121.846 118.823  1.00  0.00     0.123 A 
ATOM      9  C   UNL     1     119.336 121.946 120.190  1.00  0.00     0.094 A 
ATOM     10  C   UNL     1     119.366 120.808 121.001  1.00  0.00     0.146 A 
ATOM     11  O   UNL     1     119.129 120.947 122.301  1.00  0.00    -0.456 OA
ENDROOT
BRANCH   1  12
ATOM     12  C   UNL     1     118.862 120.205 124.592  1.00  0.00     0.021 A 
ATOM     13  C   UNL     1     117.746 119.600 125.196  1.00  0.00     0.016 A 
ATOM     14  C   UNL     1     117.454 119.832 126.542  1.00  0.00     0.051 A 
ATOM     15  C   UNL     1     118.273 120.662 127.311  1.00  0.00     0.157 A 
ATOM     16  C   UNL     1     119.693 121.031 125.375  1.00  0.00     0.062 A 
ATOM     17  C   UNL     1     119.400 121.263 126.727  1.00  0.00     0.158 A 
BRANCH  15  18
ATOM     18  O   UNL     1     117.954 120.877 128.652  1.00  0.00    -0.504 OA
ATOM     19  H   UNL     1     117.035 120.672 129.026  1.00  0.00     0.293 HD
ENDBRANCH  15  18
BRANCH  17  20
ATOM     20  O   UNL     1     120.228 122.083 127.493  1.00  0.00    -0.504 OA
ATOM     21  H   UNL     1     120.182 123.093 127.428  1.00  0.00     0.293 HD
ENDBRANCH  17  20
ENDBRANCH   1  12
BRANCH   6  22
ATOM     22  O   UNL     1     120.052 118.230 118.354  1.00  0.00    -0.507 OA
ATOM     23  H   UNL     1     120.866 117.640 118.442  1.00  0.00     0.293 HD
ENDBRANCH   6  22
BRANCH   8  24
ATOM     24  O   UNL     1     119.585 122.981 118.014  1.00  0.00    -0.508 OA
ATOM     25  H   UNL     1     118.968 123.056 117.214  1.00  0.00     0.293 HD
ENDBRANCH   8  24
TORSDOF 5
ENDMDL
MODEL 6
REMARK VINA RESULT:    -9.740      1.962      2.507
REMARK INTER + INTRA:         -11.738
REMARK INTER:                 -11.455
REMARK INTRA:                  -0.283
REMARK UNBOUND:                -0.289
REMARK SMILES O=c1cc(-c2ccc(O)c(O)c2)oc2cc(O)cc(O)c12
REMARK SMILES IDX 4 1 3 2 2 3 1 4 21 5 19 6 18 7 16 8 15 9 14 10 13 11 5 12
REMARK SMILES IDX 6 13 7 14 8 15 12 16 10 17 9 18 11 20 20 22 17 24
REMARK H PARENT 9 19 11 21 20 23 17 25
REMARK Flexibility Score: inf
ROOT
ATOM      1  C   UNL     1     119.779 118.963 123.059  1.00  0.00     0.138 A 
ATOM      2  C   UNL     1     118.453 119.026 122.610  1.00  0.00     0.100 A 
ATOM      3  C   UNL     1     118.193 119.225 121.253  1.00  0.00     0.197 A 
ATOM      4  O   UNL     1     116.994 119.214 120.870  1.00  0.00    -0.289 OA
ATOM      5  C   UNL     1     119.269 119.393 120.348  1.00  0.00     0.107 A 
ATOM      6  C   UNL     1     119.122 119.642 118.951  1.00  0.00     0.134 A 
ATOM      7  C   UNL     1     120.259 119.675 118.133  1.00  0.00     0.093 A 
ATOM      8  C   UNL     1     121.537 119.528 118.671  1.00  0.00     0.123 A 
ATOM      9  C   UNL     1     121.695 119.338 120.044  1.00  0.00     0.094 A 
ATOM     10  C   UNL     1     120.579 119.266 120.881  1.00  0.00     0.146 A 
ATOM     11  O   UNL     1     120.771 119.069 122.181  1.00  0.00    -0.456 OA
ENDROOT
BRANCH   1  12
ATOM     12  C   UNL     1     120.112 118.754 124.491  1.00  0.00     0.021 A 
ATOM     13  C   UNL     1     121.229 119.404 125.044  1.00  0.00     0.016 A 
ATOM     14  C   UNL     1     121.559 119.231 126.390  1.00  0.00     0.051 A 
ATOM     15  C   UNL     1     120.775 118.415 127.210  1.00  0.00     0.157 A 
ATOM     16  C   UNL     1     119.317 117.943 125.326  1.00  0.00     0.062 A 
ATOM     17  C   UNL     1     119.647 117.770 126.678  1.00  0.00     0.158 A 
BRANCH  15  18
ATOM     18  O   UNL     1     121.131 118.260 128.550  1.00  0.00    -0.504 OA
ATOM     19  H   UNL     1     121.869 117.630 128.841  1.00  0.00     0.293 HD
ENDBRANCH  15  18
BRANCH  17  20
ATOM     20  O   UNL     1     118.855 116.964 127.495  1.00  0.00    -0.504 OA
ATOM     21  H   UNL     1     119.094 116.793 128.465  1.00  0.00     0.293 HD
ENDBRANCH  17  20
ENDBRANCH   1  12
BRANCH   6  22
ATOM     22  O   UNL     1     117.897 119.887 118.324  1.00  0.00    -0.507 OA
ATOM     23  H   UNL     1     117.192 120.523 118.665  1.00  0.00     0.293 HD
ENDBRANCH   6  22
BRANCH   8  24
ATOM     24  O   UNL     1     122.648 119.582 117.830  1.00  0.00    -0.508 OA
ATOM     25  H   UNL     1     122.638 119.154 116.911  1.00  0.00     0.293 HD
ENDBRANCH   8  24
TORSDOF 5
ENDMDL
MODEL 7
REMARK VINA RESULT:    -9.729      1.561      1.902
REMARK INTER + INTRA:         -11.725
REMARK INTER:                 -11.458
REMARK INTRA:                  -0.267
REMARK UNBOUND:                -0.289
REMARK SMILES O=c1cc(-c2ccc(O)c(O)c2)oc2cc(O)cc(O)c12
REMARK SMILES IDX 4 1 3 2 2 3 1 4 21 5 19 6 18 7 16 8 15 9 14 10 13 11 5 12
REMARK SMILES IDX 6 13 7 14 8 15 12 16 10 17 9 18 11 20 20 22 17 24
REMARK H PARENT 9 19 11 21 20 23 17 25
REMARK Flexibility Score: inf
ROOT
ATOM      1  C   UNL     1     119.063 119.171 123.264  1.00  0.00     0.138 A 
ATOM      2  C   UNL     1     120.389 119.313 122.833  1.00  0.00     0.100 A 
ATOM      3  C   UNL     1     120.662 119.449 121.471  1.00  0.00     0.197 A 
ATOM      4  O   UNL     1     121.856 119.637 121.120  1.00  0.00    -0.289 OA
ATOM      5  C   UNL     1     119.601 119.408 120.534  1.00  0.00     0.107 A 
ATOM      6  C   UNL     1     119.765 119.494 119.120  1.00  0.00     0.134 A 
ATOM      7  C   UNL     1     118.632 119.560 118.297  1.00  0.00     0.093 A 
ATOM      8  C   UNL     1     117.348 119.483 118.833  1.00  0.00     0.123 A 
ATOM      9  C   UNL     1     117.177 119.344 120.211  1.00  0.00     0.094 A 
ATOM     10  C   UNL     1     118.285 119.309 121.060  1.00  0.00     0.146 A 
ATOM     11  O   UNL     1     118.081 119.192 122.368  1.00  0.00    -0.456 OA
ENDROOT
BRANCH   1  12
ATOM     12  C   UNL     1     118.717 119.023 124.700  1.00  0.00     0.021 A 
ATOM     13  C   UNL     1     117.886 119.977 125.313  1.00  0.00     0.016 A 
ATOM     14  C   UNL     1     117.539 119.857 126.661  1.00  0.00     0.051 A 
ATOM     15  C   UNL     1     118.007 118.779 127.418  1.00  0.00     0.157 A 
ATOM     16  C   UNL     1     119.175 117.932 125.464  1.00  0.00     0.062 A 
ATOM     17  C   UNL     1     118.826 117.809 126.817  1.00  0.00     0.158 A 
BRANCH  15  18
ATOM     18  O   UNL     1     117.646 118.687 128.762  1.00  0.00    -0.504 OA
ATOM     19  H   UNL     1     117.276 119.478 129.275  1.00  0.00     0.293 HD
ENDBRANCH  15  18
BRANCH  17  20
ATOM     20  O   UNL     1     119.286 116.726 127.564  1.00  0.00    -0.504 OA
ATOM     21  H   UNL     1     119.444 115.818 127.142  1.00  0.00     0.293 HD
ENDBRANCH  17  20
ENDBRANCH   1  12
BRANCH   6  22
ATOM     22  O   UNL     1     121.005 119.492 118.473  1.00  0.00    -0.507 OA
ATOM     23  H   UNL     1     121.293 118.818 117.781  1.00  0.00     0.293 HD
ENDBRANCH   6  22
BRANCH   8  24
ATOM     24  O   UNL     1     116.244 119.536 117.984  1.00  0.00    -0.508 OA
ATOM     25  H   UNL     1     116.306 119.946 117.059  1.00  0.00     0.293 HD
ENDBRANCH   8  24
TORSDOF 5
ENDMDL
MODEL 8
REMARK VINA RESULT:    -9.559      2.141      2.523
REMARK INTER + INTRA:         -11.524
REMARK INTER:                 -11.236
REMARK INTRA:                  -0.289
REMARK UNBOUND:                -0.289
REMARK SMILES O=c1cc(-c2ccc(O)c(O)c2)oc2cc(O)cc(O)c12
REMARK SMILES IDX 4 1 3 2 2 3 1 4 21 5 19 6 18 7 16 8 15 9 14 10 13 11 5 12
REMARK SMILES IDX 6 13 7 14 8 15 12 16 10 17 9 18 11 20 20 22 17 24
REMARK H PARENT 9 19 11 21 20 23 17 25
REMARK Flexibility Score: inf
ROOT
ATOM      1  C   UNL     1     119.355 120.014 122.523  1.00  0.00     0.138 A 
ATOM      2  C   UNL     1     120.690 119.994 122.094  1.00  0.00     0.100 A 
ATOM      3  C   UNL     1     120.975 119.830 120.737  1.00  0.00     0.197 A 
ATOM      4  O   UNL     1     122.179 119.879 120.374  1.00  0.00    -0.289 OA
ATOM      5  C   UNL     1     119.918 119.654 119.812  1.00  0.00     0.107 A 
ATOM      6  C   UNL     1     120.092 119.437 118.413  1.00  0.00     0.134 A 
ATOM      7  C   UNL     1     118.969 119.392 117.577  1.00  0.00     0.093 A 
ATOM      8  C   UNL     1     117.679 119.496 118.097  1.00  0.00     0.123 A 
ATOM      9  C   UNL     1     117.496 119.654 119.471  1.00  0.00     0.094 A 
ATOM     10  C   UNL     1     118.596 119.736 120.327  1.00  0.00     0.146 A 
ATOM     11  O   UNL     1     118.380 119.902 121.628  1.00  0.00    -0.456 OA
ENDROOT
BRANCH   1  12
ATOM     12  C   UNL     1     118.996 120.185 123.954  1.00  0.00     0.021 A 
ATOM     13  C   UNL     1     117.782 119.658 124.430  1.00  0.00     0.016 A 
ATOM     14  C   UNL     1     117.424 119.797 125.773  1.00  0.00     0.051 A 
ATOM     15  C   UNL     1     118.274 120.456 126.666  1.00  0.00     0.157 A 
ATOM     16  C   UNL     1     119.855 120.836 124.861  1.00  0.00     0.062 A 
ATOM     17  C   UNL     1     119.496 120.976 126.210  1.00  0.00     0.158 A 
BRANCH  15  18
ATOM     18  O   UNL     1     117.888 120.582 128.000  1.00  0.00    -0.504 OA
ATOM     19  H   UNL     1     118.107 119.876 128.693  1.00  0.00     0.293 HD
ENDBRANCH  15  18
BRANCH  17  20
ATOM     20  O   UNL     1     120.353 121.624 127.099  1.00  0.00    -0.504 OA
ATOM     21  H   UNL     1     120.397 121.365 128.078  1.00  0.00     0.293 HD
ENDBRANCH  17  20
ENDBRANCH   1  12
BRANCH   6  22
ATOM     22  O   UNL     1     121.333 119.236 117.801  1.00  0.00    -0.507 OA
ATOM     23  H   UNL     1     122.112 119.874 117.855  1.00  0.00     0.293 HD
ENDBRANCH   6  22
BRANCH   8  24
ATOM     24  O   UNL     1     116.584 119.431 117.238  1.00  0.00    -0.508 OA
ATOM     25  H   UNL     1     115.845 120.124 117.268  1.00  0.00     0.293 HD
ENDBRANCH   8  24
TORSDOF 5
ENDMDL
MODEL 9
REMARK VINA RESULT:    -9.470      1.543      3.076
REMARK INTER + INTRA:         -11.421
REMARK INTER:                 -11.157
REMARK INTRA:                  -0.264
REMARK UNBOUND:                -0.289
REMARK SMILES O=c1cc(-c2ccc(O)c(O)c2)oc2cc(O)cc(O)c12
REMARK SMILES IDX 4 1 3 2 2 3 1 4 21 5 19 6 18 7 16 8 15 9 14 10 13 11 5 12
REMARK SMILES IDX 6 13 7 14 8 15 12 16 10 17 9 18 11 20 20 22 17 24
REMARK H PARENT 9 19 11 21 20 23 17 25
REMARK Flexibility Score: inf
ROOT
ATOM      1  C   UNL     1     119.801 119.822 122.560  1.00  0.00     0.138 A 
ATOM      2  C   UNL     1     119.610 121.197 122.366  1.00  0.00     0.100 A 
ATOM      3  C   UNL     1     119.526 121.705 121.068  1.00  0.00     0.197 A 
ATOM      4  O   UNL     1     119.291 122.933 120.926  1.00  0.00    -0.289 OA
ATOM      5  C   UNL     1     119.667 120.834 119.961  1.00  0.00     0.107 A 
ATOM      6  C   UNL     1     119.640 121.246 118.596  1.00  0.00     0.134 A 
ATOM      7  C   UNL     1     119.674 120.279 117.583  1.00  0.00     0.093 A 
ATOM      8  C   UNL     1     119.793 118.923 117.885  1.00  0.00     0.123 A 
ATOM      9  C   UNL     1     119.875 118.513 119.216  1.00  0.00     0.094 A 
ATOM     10  C   UNL     1     119.810 119.450 120.249  1.00  0.00     0.146 A 
ATOM     11  O   UNL     1     119.876 119.018 121.505  1.00  0.00    -0.456 OA
ENDROOT
BRANCH   1  12
ATOM     12  C   UNL     1     119.899 119.229 123.918  1.00  0.00     0.021 A 
ATOM     13  C   UNL     1     118.896 118.349 124.362  1.00  0.00     0.016 A 
ATOM     14  C   UNL     1     118.968 117.772 125.632  1.00  0.00     0.051 A 
ATOM     15  C   UNL     1     120.045 118.053 126.477  1.00  0.00     0.157 A 
ATOM     16  C   UNL     1     120.989 119.499 124.768  1.00  0.00     0.062 A 
ATOM     17  C   UNL     1     121.063 118.918 126.043  1.00  0.00     0.158 A 
BRANCH  15  18
ATOM     18  O   UNL     1     120.088 117.464 127.740  1.00  0.00    -0.504 OA
ATOM     19  H   UNL     1     120.725 116.707 127.959  1.00  0.00     0.293 HD
ENDBRANCH  15  18
BRANCH  17  20
ATOM     20  O   UNL     1     122.145 119.194 126.877  1.00  0.00    -0.504 OA
ATOM     21  H   UNL     1     123.064 118.802 126.703  1.00  0.00     0.293 HD
ENDBRANCH  17  20
ENDBRANCH   1  12
BRANCH   6  22
ATOM     22  O   UNL     1     119.607 122.581 118.182  1.00  0.00    -0.507 OA
ATOM     23  H   UNL     1     118.792 123.175 118.214  1.00  0.00     0.293 HD
ENDBRANCH   6  22
BRANCH   8  24
ATOM     24  O   UNL     1     119.839 117.990 116.850  1.00  0.00    -0.508 OA
ATOM     25  H   UNL     1     119.084 117.332 116.697  1.00  0.00     0.293 HD
ENDBRANCH   8  24
TORSDOF 5
ENDMDL
