MODEL 1
REMARK VINA RESULT:    -4.269      0.000      0.000
REMARK INTER + INTRA:          -5.472
REMARK INTER:                  -5.143
REMARK INTRA:                  -0.329
REMARK UNBOUND:                -0.329
REMARK SMILES O=c1c(O)c(-c2ccc(O)c(O)c2)oc2cc(O)cc(O)c12
REMARK SMILES IDX 5 1 3 2 2 3 1 4 22 5 20 6 19 7 17 8 16 9 15 10 14 11 6 12
REMARK SMILES IDX 7 13 8 14 9 15 13 16 11 17 10 18 12 20 4 22 21 24 18 26
REMARK H PARENT 10 19 12 21 4 23 21 25 18 27
REMARK Flexibility Score: inf
ROOT
ATOM      1  C   UNL     1       5.478  11.728   8.250  1.00  0.00     0.180 A 
ATOM      2  C   UNL     1       6.614  12.289   8.858  1.00  0.00     0.208 A 
ATOM      3  C   UNL     1       7.747  12.553   8.072  1.00  0.00     0.238 A 
ATOM      4  O   UNL     1       8.732  13.124   8.607  1.00  0.00    -0.285 OA
ATOM      5  C   UNL     1       7.750  12.202   6.700  1.00  0.00     0.111 A 
ATOM      6  C   UNL     1       8.859  12.383   5.818  1.00  0.00     0.134 A 
ATOM      7  C   UNL     1       8.712  12.095   4.455  1.00  0.00     0.093 A 
ATOM      8  C   UNL     1       7.520  11.575   3.953  1.00  0.00     0.123 A 
ATOM      9  C   UNL     1       6.448  11.343   4.815  1.00  0.00     0.094 A 
ATOM     10  C   UNL     1       6.551  11.656   6.173  1.00  0.00     0.146 A 
ATOM     11  O   UNL     1       5.500  11.439   6.954  1.00  0.00    -0.452 OA
ENDROOT
BRANCH   1  12
ATOM     12  C   UNL     1       4.241  11.434   9.010  1.00  0.00     0.025 A 
ATOM     13  C   UNL     1       4.077  10.171   9.598  1.00  0.00     0.016 A 
ATOM     14  C   UNL     1       2.910   9.864  10.302  1.00  0.00     0.051 A 
ATOM     15  C   UNL     1       1.884  10.807  10.414  1.00  0.00     0.157 A 
ATOM     16  C   UNL     1       3.200  12.374   9.105  1.00  0.00     0.062 A 
ATOM     17  C   UNL     1       2.025  12.066   9.809  1.00  0.00     0.158 A 
BRANCH  15  18
ATOM     18  O   UNL     1       0.731  10.473  11.125  1.00  0.00    -0.504 OA
ATOM     19  H   UNL     1       0.645   9.600  11.631  1.00  0.00     0.293 HD
ENDBRANCH  15  18
BRANCH  17  20
ATOM     20  O   UNL     1       1.000  13.006   9.905  1.00  0.00    -0.504 OA
ATOM     21  H   UNL     1       1.000  13.851   9.345  1.00  0.00     0.293 HD
ENDBRANCH  17  20
ENDBRANCH   1  12
BRANCH   2  22
ATOM     22  O   UNL     1       6.617  12.558  10.229  1.00  0.00    -0.502 OA
ATOM     23  H   UNL     1       5.782  12.490  10.798  1.00  0.00     0.293 HD
ENDBRANCH   2  22
BRANCH   6  24
ATOM     24  O   UNL     1      10.125  12.814   6.228  1.00  0.00    -0.507 OA
ATOM     25  H   UNL     1      10.562  13.675   5.941  1.00  0.00     0.293 HD
ENDBRANCH   6  24
BRANCH   8  26
ATOM     26  O   UNL     1       7.415  11.285   2.594  1.00  0.00    -0.508 OA
ATOM     27  H   UNL     1       6.537  11.385   2.098  1.00  0.00     0.293 HD
ENDBRANCH   8  26
TORSDOF 6
ENDMDL
MODEL 2
REMARK VINA RESULT:    -3.314      0.605      1.433
REMARK INTER + INTRA:          -4.321
REMARK INTER:                  -4.062
REMARK INTRA:                  -0.259
REMARK UNBOUND:                -0.329
REMARK SMILES O=c1c(O)c(-c2ccc(O)c(O)c2)oc2cc(O)cc(O)c12
REMARK SMILES IDX 5 1 3 2 2 3 1 4 22 5 20 6 19 7 17 8 16 9 15 10 14 11 6 12
REMARK SMILES IDX 7 13 8 14 9 15 13 16 11 17 10 18 12 20 4 22 21 24 18 26
REMARK H PARENT 10 19 12 21 4 23 21 25 18 27
REMARK Flexibility Score: inf
ROOT
ATOM      1  C   UNL     1       5.460  11.752   8.032  1.00  0.00     0.180 A 
ATOM      2  C   UNL     1       6.600  12.318   8.628  1.00  0.00     0.208 A 
ATOM      3  C   UNL     1       7.737  12.550   7.839  1.00  0.00     0.238 A 
ATOM      4  O   UNL     1       8.727  13.125   8.361  1.00  0.00    -0.285 OA
ATOM      5  C   UNL     1       7.741  12.162   6.476  1.00  0.00     0.111 A 
ATOM      6  C   UNL     1       8.854  12.307   5.593  1.00  0.00     0.134 A 
ATOM      7  C   UNL     1       8.707  11.984   4.238  1.00  0.00     0.093 A 
ATOM      8  C   UNL     1       7.511  11.463   3.747  1.00  0.00     0.123 A 
ATOM      9  C   UNL     1       6.436  11.265   4.612  1.00  0.00     0.094 A 
ATOM     10  C   UNL     1       6.538  11.613   5.961  1.00  0.00     0.146 A 
ATOM     11  O   UNL     1       5.483  11.428   6.745  1.00  0.00    -0.452 OA
ENDROOT
BRANCH   1  12
ATOM     12  C   UNL     1       4.218  11.491   8.796  1.00  0.00     0.025 A 
ATOM     13  C   UNL     1       3.387  12.566   9.147  1.00  0.00     0.016 A 
ATOM     14  C   UNL     1       2.220  12.346   9.885  1.00  0.00     0.051 A 
ATOM     15  C   UNL     1       1.877  11.054  10.296  1.00  0.00     0.157 A 
ATOM     16  C   UNL     1       3.883  10.196   9.228  1.00  0.00     0.062 A 
ATOM     17  C   UNL     1       2.713   9.974   9.972  1.00  0.00     0.158 A 
BRANCH  15  18
ATOM     18  O   UNL     1       0.706  10.865  11.030  1.00  0.00    -0.504 OA
ATOM     19  H   UNL     1      -0.141  10.503  10.608  1.00  0.00     0.293 HD
ENDBRANCH  15  18
BRANCH  17  20
ATOM     20  O   UNL     1       2.384   8.686  10.391  1.00  0.00    -0.504 OA
ATOM     21  H   UNL     1       1.428   8.422  10.596  1.00  0.00     0.293 HD
ENDBRANCH  17  20
ENDBRANCH   1  12
BRANCH   2  22
ATOM     22  O   UNL     1       6.602  12.624   9.991  1.00  0.00    -0.502 OA
ATOM     23  H   UNL     1       7.443  12.897  10.486  1.00  0.00     0.293 HD
ENDBRANCH   2  22
BRANCH   6  24
ATOM     24  O   UNL     1      10.123  12.736   5.996  1.00  0.00    -0.507 OA
ATOM     25  H   UNL     1      10.825  12.147   6.416  1.00  0.00     0.293 HD
ENDBRANCH   6  24
BRANCH   8  26
ATOM     26  O   UNL     1       7.407  11.137   2.396  1.00  0.00    -0.508 OA
ATOM     27  H   UNL     1       8.230  10.977   1.826  1.00  0.00     0.293 HD
ENDBRANCH   8  26
TORSDOF 6
ENDMDL
MODEL 3
REMARK VINA RESULT:    -2.851      1.554      6.972
REMARK INTER + INTRA:          -3.763
REMARK INTER:                  -3.477
REMARK INTRA:                  -0.286
REMARK UNBOUND:                -0.329
REMARK SMILES O=c1c(O)c(-c2ccc(O)c(O)c2)oc2cc(O)cc(O)c12
REMARK SMILES IDX 5 1 3 2 2 3 1 4 22 5 20 6 19 7 17 8 16 9 15 10 14 11 6 12
REMARK SMILES IDX 7 13 8 14 9 15 13 16 11 17 10 18 12 20 4 22 21 24 18 26
REMARK H PARENT 10 19 12 21 4 23 21 25 18 27
REMARK Flexibility Score: inf
ROOT
ATOM      1  C   UNL     1       5.588  11.095   8.107  1.00  0.00     0.180 A 
ATOM      2  C   UNL     1       5.565   9.852   8.763  1.00  0.00     0.208 A 
ATOM      3  C   UNL     1       4.415   9.480   9.476  1.00  0.00     0.238 A 
ATOM      4  O   UNL     1       4.373   8.335   9.997  1.00  0.00    -0.285 OA
ATOM      5  C   UNL     1       3.322  10.376   9.570  1.00  0.00     0.111 A 
ATOM      6  C   UNL     1       2.123  10.121  10.304  1.00  0.00     0.134 A 
ATOM      7  C   UNL     1       1.066  11.038  10.239  1.00  0.00     0.093 A 
ATOM      8  C   UNL     1       1.186  12.227   9.522  1.00  0.00     0.123 A 
ATOM      9  C   UNL     1       2.373  12.512   8.848  1.00  0.00     0.094 A 
ATOM     10  C   UNL     1       3.431  11.600   8.861  1.00  0.00     0.146 A 
ATOM     11  O   UNL     1       4.535  11.901   8.188  1.00  0.00    -0.452 OA
ENDROOT
BRANCH   1  12
ATOM     12  C   UNL     1       6.759  11.552   7.325  1.00  0.00     0.025 A 
ATOM     13  C   UNL     1       7.867  12.092   7.995  1.00  0.00     0.016 A 
ATOM     14  C   UNL     1       8.975  12.549   7.276  1.00  0.00     0.051 A 
ATOM     15  C   UNL     1       8.985  12.489   5.879  1.00  0.00     0.157 A 
ATOM     16  C   UNL     1       6.761  11.513   5.919  1.00  0.00     0.062 A 
ATOM     17  C   UNL     1       7.871  11.973   5.195  1.00  0.00     0.158 A 
BRANCH  15  18
ATOM     18  O   UNL     1      10.105  12.950   5.188  1.00  0.00    -0.504 OA
ATOM     19  H   UNL     1      10.434  13.905   5.272  1.00  0.00     0.293 HD
ENDBRANCH  15  18
BRANCH  17  20
ATOM     20  O   UNL     1       7.869  11.924   3.802  1.00  0.00    -0.504 OA
ATOM     21  H   UNL     1       8.612  12.342   3.254  1.00  0.00     0.293 HD
ENDBRANCH  17  20
ENDBRANCH   1  12
BRANCH   2  22
ATOM     22  O   UNL     1       6.682   9.015   8.721  1.00  0.00    -0.502 OA
ATOM     23  H   UNL     1       6.877   8.331   9.443  1.00  0.00     0.293 HD
ENDBRANCH   2  22
BRANCH   6  24
ATOM     24  O   UNL     1       1.928   9.005  11.125  1.00  0.00    -0.507 OA
ATOM     25  H   UNL     1       2.128   8.974  12.112  1.00  0.00     0.293 HD
ENDBRANCH   6  24
BRANCH   8  26
ATOM     26  O   UNL     1       0.120  13.123   9.494  1.00  0.00    -0.508 OA
ATOM     27  H   UNL     1       0.024  13.809   8.754  1.00  0.00     0.293 HD
ENDBRANCH   8  26
TORSDOF 6
ENDMDL
MODEL 4
REMARK VINA RESULT:    -2.580      1.497      7.004
REMARK INTER + INTRA:          -3.437
REMARK INTER:                  -3.232
REMARK INTRA:                  -0.205
REMARK UNBOUND:                -0.329
REMARK SMILES O=c1c(O)c(-c2ccc(O)c(O)c2)oc2cc(O)cc(O)c12
REMARK SMILES IDX 5 1 3 2 2 3 1 4 22 5 20 6 19 7 17 8 16 9 15 10 14 11 6 12
REMARK SMILES IDX 7 13 8 14 9 15 13 16 11 17 10 18 12 20 4 22 21 24 18 26
REMARK H PARENT 10 19 12 21 4 23 21 25 18 27
REMARK Flexibility Score: inf
ROOT
ATOM      1  C   UNL     1       5.364  11.273   7.593  1.00  0.00     0.180 A 
ATOM      2  C   UNL     1       5.484  10.057   8.289  1.00  0.00     0.208 A 
ATOM      3  C   UNL     1       4.452   9.664   9.155  1.00  0.00     0.238 A 
ATOM      4  O   UNL     1       4.531   8.540   9.716  1.00  0.00    -0.285 OA
ATOM      5  C   UNL     1       3.339  10.515   9.359  1.00  0.00     0.111 A 
ATOM      6  C   UNL     1       2.256  10.238  10.249  1.00  0.00     0.134 A 
ATOM      7  C   UNL     1       1.157  11.106  10.290  1.00  0.00     0.093 A 
ATOM      8  C   UNL     1       1.129  12.270   9.523  1.00  0.00     0.123 A 
ATOM      9  C   UNL     1       2.206  12.578   8.692  1.00  0.00     0.094 A 
ATOM     10  C   UNL     1       3.299  11.714   8.600  1.00  0.00     0.146 A 
ATOM     11  O   UNL     1       4.293  12.036   7.781  1.00  0.00    -0.452 OA
ENDROOT
BRANCH   1  12
ATOM     12  C   UNL     1       6.403  11.749   6.652  1.00  0.00     0.025 A 
ATOM     13  C   UNL     1       6.137  11.749   5.274  1.00  0.00     0.016 A 
ATOM     14  C   UNL     1       7.109  12.174   4.365  1.00  0.00     0.051 A 
ATOM     15  C   UNL     1       8.366  12.589   4.817  1.00  0.00     0.157 A 
ATOM     16  C   UNL     1       7.674  12.145   7.103  1.00  0.00     0.062 A 
ATOM     17  C   UNL     1       8.653  12.570   6.191  1.00  0.00     0.158 A 
BRANCH  15  18
ATOM     18  O   UNL     1       9.316  13.010   3.886  1.00  0.00    -0.504 OA
ATOM     19  H   UNL     1       9.472  13.990   3.683  1.00  0.00     0.293 HD
ENDBRANCH  15  18
BRANCH  17  20
ATOM     20  O   UNL     1       9.909  12.969   6.648  1.00  0.00    -0.504 OA
ATOM     21  H   UNL     1      10.754  12.751   6.133  1.00  0.00     0.293 HD
ENDBRANCH  17  20
ENDBRANCH   1  12
BRANCH   2  22
ATOM     22  O   UNL     1       6.625   9.267   8.131  1.00  0.00    -0.502 OA
ATOM     23  H   UNL     1       7.515   9.508   8.551  1.00  0.00     0.293 HD
ENDBRANCH   2  22
BRANCH   6  24
ATOM     24  O   UNL     1       2.221   9.149  11.125  1.00  0.00    -0.507 OA
ATOM     25  H   UNL     1       2.371   8.189  10.858  1.00  0.00     0.293 HD
ENDBRANCH   6  24
BRANCH   8  26
ATOM     26  O   UNL     1       0.026  13.118   9.603  1.00  0.00    -0.508 OA
ATOM     27  H   UNL     1       0.135  14.123   9.670  1.00  0.00     0.293 HD
ENDBRANCH   8  26
TORSDOF 6
ENDMDL
MODEL 5
REMARK VINA RESULT:    -1.690      1.433      3.294
REMARK INTER + INTRA:          -2.365
REMARK INTER:                  -2.054
REMARK INTRA:                  -0.311
REMARK UNBOUND:                -0.329
REMARK SMILES O=c1c(O)c(-c2ccc(O)c(O)c2)oc2cc(O)cc(O)c12
REMARK SMILES IDX 5 1 3 2 2 3 1 4 22 5 20 6 19 7 17 8 16 9 15 10 14 11 6 12
REMARK SMILES IDX 7 13 8 14 9 15 13 16 11 17 10 18 12 20 4 22 21 24 18 26
REMARK H PARENT 10 19 12 21 4 23 21 25 18 27
REMARK Flexibility Score: inf
ROOT
ATOM      1  C   UNL     1       4.418  11.297   7.650  1.00  0.00     0.180 A 
ATOM      2  C   UNL     1       4.365  10.941   6.291  1.00  0.00     0.208 A 
ATOM      3  C   UNL     1       5.516  11.089   5.503  1.00  0.00     0.238 A 
ATOM      4  O   UNL     1       5.482  10.699   4.307  1.00  0.00    -0.285 OA
ATOM      5  C   UNL     1       6.691  11.643   6.067  1.00  0.00     0.111 A 
ATOM      6  C   UNL     1       7.903  11.880   5.350  1.00  0.00     0.134 A 
ATOM      7  C   UNL     1       9.035  12.335   6.038  1.00  0.00     0.093 A 
ATOM      8  C   UNL     1       8.983  12.621   7.402  1.00  0.00     0.123 A 
ATOM      9  C   UNL     1       7.789  12.445   8.101  1.00  0.00     0.094 A 
ATOM     10  C   UNL     1       6.653  11.956   7.451  1.00  0.00     0.146 A 
ATOM     11  O   UNL     1       5.544  11.784   8.159  1.00  0.00    -0.452 OA
ENDROOT
BRANCH   1  12
ATOM     12  C   UNL     1       3.249  11.156   8.549  1.00  0.00     0.025 A 
ATOM     13  C   UNL     1       2.284  12.173   8.589  1.00  0.00     0.016 A 
ATOM     14  C   UNL     1       1.183  12.071   9.444  1.00  0.00     0.051 A 
ATOM     15  C   UNL     1       1.041  10.962  10.283  1.00  0.00     0.157 A 
ATOM     16  C   UNL     1       3.116  10.051   9.408  1.00  0.00     0.062 A 
ATOM     17  C   UNL     1       2.013   9.948  10.270  1.00  0.00     0.158 A 
BRANCH  15  18
ATOM     18  O   UNL     1      -0.069  10.887  11.125  1.00  0.00    -0.504 OA
ATOM     19  H   UNL     1      -0.213  11.541  11.884  1.00  0.00     0.293 HD
ENDBRANCH  15  18
BRANCH  17  20
ATOM     20  O   UNL     1       1.884   8.846  11.114  1.00  0.00    -0.504 OA
ATOM     21  H   UNL     1       1.449   8.924  12.026  1.00  0.00     0.293 HD
ENDBRANCH  17  20
ENDBRANCH   1  12
BRANCH   2  22
ATOM     22  O   UNL     1       3.174  10.467   5.735  1.00  0.00    -0.502 OA
ATOM     23  H   UNL     1       2.561  11.054   5.181  1.00  0.00     0.293 HD
ENDBRANCH   2  22
BRANCH   6  24
ATOM     24  O   UNL     1       8.042  11.712   3.968  1.00  0.00    -0.507 OA
ATOM     25  H   UNL     1       8.783  11.196   3.522  1.00  0.00     0.293 HD
ENDBRANCH   6  24
BRANCH   8  26
ATOM     26  O   UNL     1      10.125  13.087   8.050  1.00  0.00    -0.508 OA
ATOM     27  H   UNL     1      10.246  14.070   8.267  1.00  0.00     0.293 HD
ENDBRANCH   8  26
TORSDOF 6
ENDMDL
