MODEL 1
REMARK VINA RESULT:    -4.937      0.000      0.000
REMARK INTER + INTRA:         -10.364
REMARK INTER:                  -9.266
REMARK INTRA:                  -1.097
REMARK UNBOUND:                -1.097
REMARK SMILES CCCCCCCCC=CCCCCCCCC(=O)[O-]
REMARK SMILES IDX 10 1 9 2 11 3 12 4 13 5 14 6 15 7 16 8 17 9 18 10 19 11
REMARK SMILES IDX 20 12 8 13 7 14 6 15 5 16 4 17 3 18 2 19 1 20
REMARK H PARENT
REMARK Flexibility Score: inf
ROOT
ATOM      1  C   UNL     1    -140.374  58.196   2.394  1.00  0.00    -0.031 C 
ATOM      2  C   UNL     1    -141.228  57.558   1.570  1.00  0.00    -0.031 C 
ENDROOT
BRANCH   1   3
ATOM      3  C   UNL     1    -140.361  58.074   3.899  1.00  0.00     0.027 C 
BRANCH   3   4
ATOM      4  C   UNL     1    -141.362  59.014   4.599  1.00  0.00     0.004 C 
BRANCH   4   5
ATOM      5  C   UNL     1    -140.826  60.435   4.842  1.00  0.00     0.000 C 
BRANCH   5   6
ATOM      6  C   UNL     1    -140.197  60.610   6.234  1.00  0.00     0.000 C 
BRANCH   6   7
ATOM      7  C   UNL     1    -139.734  62.051   6.494  1.00  0.00     0.000 C 
BRANCH   7   8
ATOM      8  C   UNL     1    -140.798  62.896   7.218  1.00  0.00     0.006 C 
BRANCH   8   9
ATOM      9  C   UNL     1    -141.060  64.233   6.510  1.00  0.00     0.053 C 
BRANCH   9  10
ATOM     10  C   UNL     1    -142.333  64.207   5.720  1.00  0.00     0.041 C 
ATOM     11  O   UNL     1    -143.121  63.228   5.819  1.00  0.00    -0.550 OA
ATOM     12  O   UNL     1    -142.666  65.277   4.898  1.00  0.00    -0.550 OA
ENDBRANCH   9  10
ENDBRANCH   8   9
ENDBRANCH   7   8
ENDBRANCH   6   7
ENDBRANCH   5   6
ENDBRANCH   4   5
ENDBRANCH   3   4
ENDBRANCH   1   3
BRANCH   2  13
ATOM     13  C   UNL     1    -142.307  56.596   2.006  1.00  0.00     0.027 C 
BRANCH  13  14
ATOM     14  C   UNL     1    -143.164  56.181   0.803  1.00  0.00     0.004 C 
BRANCH  14  15
ATOM     15  C   UNL     1    -144.356  57.127   0.564  1.00  0.00     0.000 C 
BRANCH  15  16
ATOM     16  C   UNL     1    -145.026  56.988  -0.815  1.00  0.00     0.000 C 
BRANCH  16  17
ATOM     17  C   UNL     1    -144.303  57.714  -1.964  1.00  0.00    -0.000 C 
BRANCH  17  18
ATOM     18  C   UNL     1    -143.678  59.062  -1.549  1.00  0.00    -0.000 C 
BRANCH  18  19
ATOM     19  C   UNL     1    -144.675  60.226  -1.646  1.00  0.00    -0.003 C 
ATOM     20  C   UNL     1    -145.401  60.218  -2.989  1.00  0.00     0.004 C 
ENDBRANCH  18  19
ENDBRANCH  17  18
ENDBRANCH  16  17
ENDBRANCH  15  16
ENDBRANCH  14  15
ENDBRANCH  13  14
ENDBRANCH   2  13
TORSDOF 15
ENDMDL
MODEL 2
REMARK VINA RESULT:    -4.902      3.361      8.266
REMARK INTER + INTRA:         -10.298
REMARK INTER:                  -9.028
REMARK INTRA:                  -1.270
REMARK UNBOUND:                -1.097
REMARK SMILES CCCCCCCCC=CCCCCCCCC(=O)[O-]
REMARK SMILES IDX 10 1 9 2 11 3 12 4 13 5 14 6 15 7 16 8 17 9 18 10 19 11
REMARK SMILES IDX 20 12 8 13 7 14 6 15 5 16 4 17 3 18 2 19 1 20
REMARK H PARENT
REMARK Flexibility Score: inf
ROOT
ATOM      1  C   UNL     1    -142.236  57.919   4.008  1.00  0.00    -0.031 C 
ATOM      2  C   UNL     1    -141.463  58.839   4.618  1.00  0.00    -0.031 C 
ENDROOT
BRANCH   1   3
ATOM      3  C   UNL     1    -141.844  57.124   2.787  1.00  0.00     0.027 C 
BRANCH   3   4
ATOM      4  C   UNL     1    -142.940  57.081   1.704  1.00  0.00     0.004 C 
BRANCH   4   5
ATOM      5  C   UNL     1    -142.946  55.793   0.864  1.00  0.00     0.000 C 
BRANCH   5   6
ATOM      6  C   UNL     1    -143.658  55.961  -0.487  1.00  0.00     0.000 C 
BRANCH   6   7
ATOM      7  C   UNL     1    -144.785  57.004  -0.434  1.00  0.00     0.000 C 
BRANCH   7   8
ATOM      8  C   UNL     1    -144.959  57.761  -1.762  1.00  0.00     0.006 C 
BRANCH   8   9
ATOM      9  C   UNL     1    -144.161  59.072  -1.793  1.00  0.00     0.053 C 
BRANCH   9  10
ATOM     10  C   UNL     1    -144.421  59.855  -3.044  1.00  0.00     0.041 C 
ATOM     11  O   UNL     1    -145.564  60.337  -3.265  1.00  0.00    -0.550 OA
ATOM     12  O   UNL     1    -143.393  60.082  -3.952  1.00  0.00    -0.550 OA
ENDBRANCH   9  10
ENDBRANCH   8   9
ENDBRANCH   7   8
ENDBRANCH   6   7
ENDBRANCH   5   6
ENDBRANCH   4   5
ENDBRANCH   3   4
ENDBRANCH   1   3
BRANCH   2  13
ATOM     13  C   UNL     1    -140.063  59.219   4.197  1.00  0.00     0.027 C 
BRANCH  13  14
ATOM     14  C   UNL     1    -139.168  59.395   5.431  1.00  0.00     0.004 C 
BRANCH  14  15
ATOM     15  C   UNL     1    -138.369  60.711   5.407  1.00  0.00     0.000 C 
BRANCH  15  16
ATOM     16  C   UNL     1    -139.229  61.989   5.416  1.00  0.00     0.000 C 
BRANCH  16  17
ATOM     17  C   UNL     1    -139.932  62.289   6.751  1.00  0.00    -0.000 C 
BRANCH  17  18
ATOM     18  C   UNL     1    -141.471  62.339   6.644  1.00  0.00    -0.000 C 
BRANCH  18  19
ATOM     19  C   UNL     1    -141.952  62.533   5.199  1.00  0.00    -0.003 C 
ATOM     20  C   UNL     1    -142.461  63.955   4.974  1.00  0.00     0.004 C 
ENDBRANCH  18  19
ENDBRANCH  17  18
ENDBRANCH  16  17
ENDBRANCH  15  16
ENDBRANCH  14  15
ENDBRANCH  13  14
ENDBRANCH   2  13
TORSDOF 15
ENDMDL
MODEL 3
REMARK VINA RESULT:    -4.879      1.519      2.758
REMARK INTER + INTRA:         -10.255
REMARK INTER:                  -8.602
REMARK INTRA:                  -1.653
REMARK UNBOUND:                -1.097
REMARK SMILES CCCCCCCCC=CCCCCCCCC(=O)[O-]
REMARK SMILES IDX 10 1 9 2 11 3 12 4 13 5 14 6 15 7 16 8 17 9 18 10 19 11
REMARK SMILES IDX 20 12 8 13 7 14 6 15 5 16 4 17 3 18 2 19 1 20
REMARK H PARENT
REMARK Flexibility Score: inf
ROOT
ATOM      1  C   UNL     1    -141.537  58.575   4.143  1.00  0.00    -0.031 C 
ATOM      2  C   UNL     1    -141.838  57.285   4.387  1.00  0.00    -0.031 C 
ENDROOT
BRANCH   1   3
ATOM      3  C   UNL     1    -140.159  59.102   3.824  1.00  0.00     0.027 C 
BRANCH   3   4
ATOM      4  C   UNL     1    -139.605  60.062   4.896  1.00  0.00     0.004 C 
BRANCH   4   5
ATOM      5  C   UNL     1    -140.566  60.317   6.069  1.00  0.00     0.000 C 
BRANCH   5   6
ATOM      6  C   UNL     1    -141.011  61.784   6.173  1.00  0.00     0.000 C 
BRANCH   6   7
ATOM      7  C   UNL     1    -141.749  62.266   4.914  1.00  0.00     0.000 C 
BRANCH   7   8
ATOM      8  C   UNL     1    -141.753  63.799   4.777  1.00  0.00     0.006 C 
BRANCH   8   9
ATOM      9  C   UNL     1    -142.653  64.474   5.821  1.00  0.00     0.053 C 
BRANCH   9  10
ATOM     10  C   UNL     1    -143.652  65.394   5.187  1.00  0.00     0.041 C 
ATOM     11  O   UNL     1    -144.591  65.880   5.873  1.00  0.00    -0.550 OA
ATOM     12  O   UNL     1    -143.528  65.741   3.847  1.00  0.00    -0.550 OA
ENDBRANCH   9  10
ENDBRANCH   8   9
ENDBRANCH   7   8
ENDBRANCH   6   7
ENDBRANCH   5   6
ENDBRANCH   4   5
ENDBRANCH   3   4
ENDBRANCH   1   3
BRANCH   2  13
ATOM     13  C   UNL     1    -140.854  56.140   4.363  1.00  0.00     0.027 C 
BRANCH  13  14
ATOM     14  C   UNL     1    -141.097  55.258   3.130  1.00  0.00     0.004 C 
BRANCH  14  15
ATOM     15  C   UNL     1    -140.402  55.796   1.865  1.00  0.00     0.000 C 
BRANCH  15  16
ATOM     16  C   UNL     1    -141.351  56.142   0.704  1.00  0.00     0.000 C 
BRANCH  16  17
ATOM     17  C   UNL     1    -142.847  55.928   1.001  1.00  0.00    -0.000 C 
BRANCH  17  18
ATOM     18  C   UNL     1    -143.645  57.241   1.140  1.00  0.00    -0.000 C 
BRANCH  18  19
ATOM     19  C   UNL     1    -144.754  57.367   0.085  1.00  0.00    -0.003 C 
ATOM     20  C   UNL     1    -144.453  58.496  -0.899  1.00  0.00     0.004 C 
ENDBRANCH  18  19
ENDBRANCH  17  18
ENDBRANCH  16  17
ENDBRANCH  15  16
ENDBRANCH  14  15
ENDBRANCH  13  14
ENDBRANCH   2  13
TORSDOF 15
ENDMDL
MODEL 4
REMARK VINA RESULT:    -4.873      3.205      7.913
REMARK INTER + INTRA:         -10.243
REMARK INTER:                  -8.339
REMARK INTRA:                  -1.905
REMARK UNBOUND:                -1.097
REMARK SMILES CCCCCCCCC=CCCCCCCCC(=O)[O-]
REMARK SMILES IDX 10 1 9 2 11 3 12 4 13 5 14 6 15 7 16 8 17 9 18 10 19 11
REMARK SMILES IDX 20 12 8 13 7 14 6 15 5 16 4 17 3 18 2 19 1 20
REMARK H PARENT
REMARK Flexibility Score: inf
ROOT
ATOM      1  C   UNL     1    -139.559  60.708   4.267  1.00  0.00    -0.031 C 
ATOM      2  C   UNL     1    -138.862  61.353   5.223  1.00  0.00    -0.031 C 
ENDROOT
BRANCH   1   3
ATOM      3  C   UNL     1    -140.805  59.889   4.499  1.00  0.00     0.027 C 
BRANCH   3   4
ATOM      4  C   UNL     1    -140.588  58.375   4.318  1.00  0.00     0.004 C 
BRANCH   4   5
ATOM      5  C   UNL     1    -141.888  57.556   4.253  1.00  0.00     0.000 C 
BRANCH   5   6
ATOM      6  C   UNL     1    -142.573  57.627   2.879  1.00  0.00     0.000 C 
BRANCH   6   7
ATOM      7  C   UNL     1    -142.176  56.461   1.961  1.00  0.00     0.000 C 
BRANCH   7   8
ATOM      8  C   UNL     1    -142.921  56.483   0.614  1.00  0.00     0.006 C 
BRANCH   8   9
ATOM      9  C   UNL     1    -144.217  57.303   0.680  1.00  0.00     0.053 C 
BRANCH   9  10
ATOM     10  C   UNL     1    -144.656  57.765  -0.677  1.00  0.00     0.041 C 
ATOM     11  O   UNL     1    -144.974  56.925  -1.560  1.00  0.00    -0.550 OA
ATOM     12  O   UNL     1    -144.746  59.124  -0.955  1.00  0.00    -0.550 OA
ENDBRANCH   9  10
ENDBRANCH   8   9
ENDBRANCH   7   8
ENDBRANCH   6   7
ENDBRANCH   5   6
ENDBRANCH   4   5
ENDBRANCH   3   4
ENDBRANCH   1   3
BRANCH   2  13
ATOM     13  C   UNL     1    -139.219  61.384   6.690  1.00  0.00     0.027 C 
BRANCH  13  14
ATOM     14  C   UNL     1    -139.901  62.714   7.040  1.00  0.00     0.004 C 
BRANCH  14  15
ATOM     15  C   UNL     1    -141.438  62.621   7.016  1.00  0.00     0.000 C 
BRANCH  15  16
ATOM     16  C   UNL     1    -142.135  63.682   6.143  1.00  0.00     0.000 C 
BRANCH  16  17
ATOM     17  C   UNL     1    -141.887  63.543   4.630  1.00  0.00    -0.000 C 
BRANCH  17  18
ATOM     18  C   UNL     1    -141.199  64.772   4.000  1.00  0.00    -0.000 C 
BRANCH  18  19
ATOM     19  C   UNL     1    -139.841  64.426   3.371  1.00  0.00    -0.003 C 
ATOM     20  C   UNL     1    -138.689  64.882   4.262  1.00  0.00     0.004 C 
ENDBRANCH  18  19
ENDBRANCH  17  18
ENDBRANCH  16  17
ENDBRANCH  15  16
ENDBRANCH  14  15
ENDBRANCH  13  14
ENDBRANCH   2  13
TORSDOF 15
ENDMDL
MODEL 5
REMARK VINA RESULT:    -4.802      3.026      7.982
REMARK INTER + INTRA:         -10.110
REMARK INTER:                  -8.998
REMARK INTRA:                  -1.113
REMARK UNBOUND:                -1.097
REMARK SMILES CCCCCCCCC=CCCCCCCCC(=O)[O-]
REMARK SMILES IDX 10 1 9 2 11 3 12 4 13 5 14 6 15 7 16 8 17 9 18 10 19 11
REMARK SMILES IDX 20 12 8 13 7 14 6 15 5 16 4 17 3 18 2 19 1 20
REMARK H PARENT
REMARK Flexibility Score: inf
ROOT
ATOM      1  C   UNL     1    -140.280  58.985   4.270  1.00  0.00    -0.031 C 
ATOM      2  C   UNL     1    -139.414  59.634   5.072  1.00  0.00    -0.031 C 
ENDROOT
BRANCH   1   3
ATOM      3  C   UNL     1    -141.756  58.814   4.539  1.00  0.00     0.027 C 
BRANCH   3   4
ATOM      4  C   UNL     1    -142.381  57.619   3.792  1.00  0.00     0.004 C 
BRANCH   4   5
ATOM      5  C   UNL     1    -141.919  57.477   2.333  1.00  0.00     0.000 C 
BRANCH   5   6
ATOM      6  C   UNL     1    -142.775  56.489   1.525  1.00  0.00     0.000 C 
BRANCH   6   7
ATOM      7  C   UNL     1    -142.918  56.900   0.052  1.00  0.00     0.000 C 
BRANCH   7   8
ATOM      8  C   UNL     1    -144.153  57.782  -0.203  1.00  0.00     0.006 C 
BRANCH   8   9
ATOM      9  C   UNL     1    -144.435  57.968  -1.701  1.00  0.00     0.053 C 
BRANCH   9  10
ATOM     10  C   UNL     1    -144.593  59.413  -2.065  1.00  0.00     0.041 C 
ATOM     11  O   UNL     1    -144.982  60.245  -1.202  1.00  0.00    -0.550 OA
ATOM     12  O   UNL     1    -144.280  59.847  -3.347  1.00  0.00    -0.550 OA
ENDBRANCH   9  10
ENDBRANCH   8   9
ENDBRANCH   7   8
ENDBRANCH   6   7
ENDBRANCH   5   6
ENDBRANCH   4   5
ENDBRANCH   3   4
ENDBRANCH   1   3
BRANCH   2  13
ATOM     13  C   UNL     1    -139.773  60.320   6.369  1.00  0.00     0.027 C 
BRANCH  13  14
ATOM     14  C   UNL     1    -139.377  61.802   6.311  1.00  0.00     0.004 C 
BRANCH  14  15
ATOM     15  C   UNL     1    -140.365  62.713   7.063  1.00  0.00     0.000 C 
BRANCH  15  16
ATOM     16  C   UNL     1    -141.833  62.582   6.617  1.00  0.00     0.000 C 
BRANCH  16  17
ATOM     17  C   UNL     1    -142.083  62.846   5.121  1.00  0.00    -0.000 C 
BRANCH  17  18
ATOM     18  C   UNL     1    -142.338  64.331   4.788  1.00  0.00    -0.000 C 
BRANCH  18  19
ATOM     19  C   UNL     1    -142.924  65.106   5.976  1.00  0.00    -0.003 C 
ATOM     20  C   UNL     1    -144.383  65.480   5.724  1.00  0.00     0.004 C 
ENDBRANCH  18  19
ENDBRANCH  17  18
ENDBRANCH  16  17
ENDBRANCH  15  16
ENDBRANCH  14  15
ENDBRANCH  13  14
ENDBRANCH   2  13
TORSDOF 15
ENDMDL
MODEL 6
REMARK VINA RESULT:    -4.782      1.734      2.812
REMARK INTER + INTRA:         -10.073
REMARK INTER:                  -8.087
REMARK INTRA:                  -1.986
REMARK UNBOUND:                -1.097
REMARK SMILES CCCCCCCCC=CCCCCCCCC(=O)[O-]
REMARK SMILES IDX 10 1 9 2 11 3 12 4 13 5 14 6 15 7 16 8 17 9 18 10 19 11
REMARK SMILES IDX 20 12 8 13 7 14 6 15 5 16 4 17 3 18 2 19 1 20
REMARK H PARENT
REMARK Flexibility Score: inf
ROOT
ATOM      1  C   UNL     1    -139.558  55.258   2.619  1.00  0.00    -0.031 C 
ATOM      2  C   UNL     1    -139.533  55.973   1.478  1.00  0.00    -0.031 C 
ENDROOT
BRANCH   1   3
ATOM      3  C   UNL     1    -140.759  55.094   3.518  1.00  0.00     0.027 C 
BRANCH   3   4
ATOM      4  C   UNL     1    -140.870  56.185   4.600  1.00  0.00     0.004 C 
BRANCH   4   5
ATOM      5  C   UNL     1    -142.083  57.116   4.433  1.00  0.00     0.000 C 
BRANCH   5   6
ATOM      6  C   UNL     1    -141.701  58.509   3.905  1.00  0.00     0.000 C 
BRANCH   6   7
ATOM      7  C   UNL     1    -140.294  58.940   4.347  1.00  0.00     0.000 C 
BRANCH   7   8
ATOM      8  C   UNL     1    -140.311  59.830   5.603  1.00  0.00     0.006 C 
BRANCH   8   9
ATOM      9  C   UNL     1    -140.614  61.298   5.272  1.00  0.00     0.053 C 
BRANCH   9  10
ATOM     10  C   UNL     1    -140.737  62.136   6.508  1.00  0.00     0.041 C 
ATOM     11  O   UNL     1    -141.874  62.472   6.936  1.00  0.00    -0.550 OA
ATOM     12  O   UNL     1    -139.598  62.519   7.207  1.00  0.00    -0.550 OA
ENDBRANCH   9  10
ENDBRANCH   8   9
ENDBRANCH   7   8
ENDBRANCH   6   7
ENDBRANCH   5   6
ENDBRANCH   4   5
ENDBRANCH   3   4
ENDBRANCH   1   3
BRANCH   2  13
ATOM     13  C   UNL     1    -140.707  56.719   0.890  1.00  0.00     0.027 C 
BRANCH  13  14
ATOM     14  C   UNL     1    -141.678  55.735   0.223  1.00  0.00     0.004 C 
BRANCH  14  15
ATOM     15  C   UNL     1    -143.097  55.802   0.816  1.00  0.00     0.000 C 
BRANCH  15  16
ATOM     16  C   UNL     1    -143.716  57.212   0.853  1.00  0.00     0.000 C 
BRANCH  16  17
ATOM     17  C   UNL     1    -145.020  57.371   0.051  1.00  0.00    -0.000 C 
BRANCH  17  18
ATOM     18  C   UNL     1    -144.807  57.406  -1.477  1.00  0.00    -0.000 C 
BRANCH  18  19
ATOM     19  C   UNL     1    -143.714  58.401  -1.894  1.00  0.00    -0.003 C 
ATOM     20  C   UNL     1    -144.189  59.842  -1.731  1.00  0.00     0.004 C 
ENDBRANCH  18  19
ENDBRANCH  17  18
ENDBRANCH  16  17
ENDBRANCH  15  16
ENDBRANCH  14  15
ENDBRANCH  13  14
ENDBRANCH   2  13
TORSDOF 15
ENDMDL
MODEL 7
REMARK VINA RESULT:    -4.776      3.322      8.147
REMARK INTER + INTRA:         -10.060
REMARK INTER:                  -8.761
REMARK INTRA:                  -1.299
REMARK UNBOUND:                -1.097
REMARK SMILES CCCCCCCCC=CCCCCCCCC(=O)[O-]
REMARK SMILES IDX 10 1 9 2 11 3 12 4 13 5 14 6 15 7 16 8 17 9 18 10 19 11
REMARK SMILES IDX 20 12 8 13 7 14 6 15 5 16 4 17 3 18 2 19 1 20
REMARK H PARENT
REMARK Flexibility Score: inf
ROOT
ATOM      1  C   UNL     1    -140.952  59.921   4.704  1.00  0.00    -0.031 C 
ATOM      2  C   UNL     1    -140.762  60.425   5.939  1.00  0.00    -0.031 C 
ENDROOT
BRANCH   1   3
ATOM      3  C   UNL     1    -139.887  59.792   3.642  1.00  0.00     0.027 C 
BRANCH   3   4
ATOM      4  C   UNL     1    -139.879  58.418   2.944  1.00  0.00     0.004 C 
BRANCH   4   5
ATOM      5  C   UNL     1    -140.306  57.250   3.850  1.00  0.00     0.000 C 
BRANCH   5   6
ATOM      6  C   UNL     1    -141.424  56.392   3.236  1.00  0.00     0.000 C 
BRANCH   6   7
ATOM      7  C   UNL     1    -142.467  57.234   2.484  1.00  0.00     0.000 C 
BRANCH   7   8
ATOM      8  C   UNL     1    -142.885  56.605   1.144  1.00  0.00     0.006 C 
BRANCH   8   9
ATOM      9  C   UNL     1    -144.126  57.284   0.545  1.00  0.00     0.053 C 
BRANCH   9  10
ATOM     10  C   UNL     1    -144.023  57.422  -0.944  1.00  0.00     0.041 C 
ATOM     11  O   UNL     1    -142.914  57.683  -1.482  1.00  0.00    -0.550 OA
ATOM     12  O   UNL     1    -145.146  57.231  -1.741  1.00  0.00    -0.550 OA
ENDBRANCH   9  10
ENDBRANCH   8   9
ENDBRANCH   7   8
ENDBRANCH   6   7
ENDBRANCH   5   6
ENDBRANCH   4   5
ENDBRANCH   3   4
ENDBRANCH   1   3
BRANCH   2  13
ATOM     13  C   UNL     1    -139.446  60.929   6.481  1.00  0.00     0.027 C 
BRANCH  13  14
ATOM     14  C   UNL     1    -139.598  62.372   6.984  1.00  0.00     0.004 C 
BRANCH  14  15
ATOM     15  C   UNL     1    -139.673  63.398   5.839  1.00  0.00     0.000 C 
BRANCH  15  16
ATOM     16  C   UNL     1    -140.353  64.730   6.208  1.00  0.00     0.000 C 
BRANCH  16  17
ATOM     17  C   UNL     1    -141.865  64.633   6.481  1.00  0.00    -0.000 C 
BRANCH  17  18
ATOM     18  C   UNL     1    -142.691  64.206   5.249  1.00  0.00    -0.000 C 
BRANCH  18  19
ATOM     19  C   UNL     1    -143.524  65.361   4.672  1.00  0.00    -0.003 C 
ATOM     20  C   UNL     1    -144.579  65.831   5.670  1.00  0.00     0.004 C 
ENDBRANCH  18  19
ENDBRANCH  17  18
ENDBRANCH  16  17
ENDBRANCH  15  16
ENDBRANCH  14  15
ENDBRANCH  13  14
ENDBRANCH   2  13
TORSDOF 15
ENDMDL
MODEL 8
REMARK VINA RESULT:    -4.626      1.085      1.532
REMARK INTER + INTRA:          -9.779
REMARK INTER:                  -8.802
REMARK INTRA:                  -0.977
REMARK UNBOUND:                -1.097
REMARK SMILES CCCCCCCCC=CCCCCCCCC(=O)[O-]
REMARK SMILES IDX 10 1 9 2 11 3 12 4 13 5 14 6 15 7 16 8 17 9 18 10 19 11
REMARK SMILES IDX 20 12 8 13 7 14 6 15 5 16 4 17 3 18 2 19 1 20
REMARK H PARENT
REMARK Flexibility Score: inf
ROOT
ATOM      1  C   UNL     1    -141.335  57.519   1.924  1.00  0.00    -0.031 C 
ATOM      2  C   UNL     1    -142.005  57.150   0.816  1.00  0.00    -0.031 C 
ENDROOT
BRANCH   1   3
ATOM      3  C   UNL     1    -141.754  57.209   3.341  1.00  0.00     0.027 C 
BRANCH   3   4
ATOM      4  C   UNL     1    -140.751  57.704   4.401  1.00  0.00     0.004 C 
BRANCH   4   5
ATOM      5  C   UNL     1    -140.349  59.180   4.246  1.00  0.00     0.000 C 
BRANCH   5   6
ATOM      6  C   UNL     1    -140.728  60.037   5.465  1.00  0.00     0.000 C 
BRANCH   6   7
ATOM      7  C   UNL     1    -139.726  61.173   5.721  1.00  0.00     0.000 C 
BRANCH   7   8
ATOM      8  C   UNL     1    -140.250  62.544   5.260  1.00  0.00     0.006 C 
BRANCH   8   9
ATOM      9  C   UNL     1    -141.774  62.550   5.070  1.00  0.00     0.053 C 
BRANCH   9  10
ATOM     10  C   UNL     1    -142.441  63.575   5.937  1.00  0.00     0.041 C 
ATOM     11  O   UNL     1    -143.692  63.560   6.088  1.00  0.00    -0.550 OA
ATOM     12  O   UNL     1    -141.679  64.528   6.603  1.00  0.00    -0.550 OA
ENDBRANCH   9  10
ENDBRANCH   8   9
ENDBRANCH   7   8
ENDBRANCH   6   7
ENDBRANCH   5   6
ENDBRANCH   4   5
ENDBRANCH   3   4
ENDBRANCH   1   3
BRANCH   2  13
ATOM     13  C   UNL     1    -143.282  56.344   0.798  1.00  0.00     0.027 C 
BRANCH  13  14
ATOM     14  C   UNL     1    -144.489  57.269   0.584  1.00  0.00     0.004 C 
BRANCH  14  15
ATOM     15  C   UNL     1    -145.245  56.970  -0.724  1.00  0.00     0.000 C 
BRANCH  15  16
ATOM     16  C   UNL     1    -144.415  57.156  -2.007  1.00  0.00     0.000 C 
BRANCH  16  17
ATOM     17  C   UNL     1    -143.723  58.524  -2.141  1.00  0.00    -0.000 C 
BRANCH  17  18
ATOM     18  C   UNL     1    -144.672  59.722  -1.924  1.00  0.00    -0.000 C 
BRANCH  18  19
ATOM     19  C   UNL     1    -145.035  60.429  -3.238  1.00  0.00    -0.003 C 
ATOM     20  C   UNL     1    -143.794  60.671  -4.094  1.00  0.00     0.004 C 
ENDBRANCH  18  19
ENDBRANCH  17  18
ENDBRANCH  16  17
ENDBRANCH  15  16
ENDBRANCH  14  15
ENDBRANCH  13  14
ENDBRANCH   2  13
TORSDOF 15
ENDMDL
MODEL 9
REMARK VINA RESULT:    -4.593      1.204      2.097
REMARK INTER + INTRA:          -9.717
REMARK INTER:                  -8.174
REMARK INTRA:                  -1.543
REMARK UNBOUND:                -1.097
REMARK SMILES CCCCCCCCC=CCCCCCCCC(=O)[O-]
REMARK SMILES IDX 10 1 9 2 11 3 12 4 13 5 14 6 15 7 16 8 17 9 18 10 19 11
REMARK SMILES IDX 20 12 8 13 7 14 6 15 5 16 4 17 3 18 2 19 1 20
REMARK H PARENT
REMARK Flexibility Score: inf
ROOT
ATOM      1  C   UNL     1    -139.174  59.359   2.185  1.00  0.00    -0.031 C 
ATOM      2  C   UNL     1    -139.886  58.215   2.207  1.00  0.00    -0.031 C 
ENDROOT
BRANCH   1   3
ATOM      3  C   UNL     1    -138.719  60.125   3.403  1.00  0.00     0.027 C 
BRANCH   3   4
ATOM      4  C   UNL     1    -139.675  61.266   3.804  1.00  0.00     0.004 C 
BRANCH   4   5
ATOM      5  C   UNL     1    -140.731  60.865   4.847  1.00  0.00     0.000 C 
BRANCH   5   6
ATOM      6  C   UNL     1    -140.138  60.653   6.250  1.00  0.00     0.000 C 
BRANCH   6   7
ATOM      7  C   UNL     1    -139.621  61.958   6.874  1.00  0.00     0.000 C 
BRANCH   7   8
ATOM      8  C   UNL     1    -140.752  62.943   7.219  1.00  0.00     0.006 C 
BRANCH   8   9
ATOM      9  C   UNL     1    -140.595  64.287   6.493  1.00  0.00     0.053 C 
BRANCH   9  10
ATOM     10  C   UNL     1    -141.749  64.566   5.579  1.00  0.00     0.041 C 
ATOM     11  O   UNL     1    -142.791  65.119   6.024  1.00  0.00    -0.550 OA
ATOM     12  O   UNL     1    -141.662  64.247   4.229  1.00  0.00    -0.550 OA
ENDBRANCH   9  10
ENDBRANCH   8   9
ENDBRANCH   7   8
ENDBRANCH   6   7
ENDBRANCH   5   6
ENDBRANCH   4   5
ENDBRANCH   3   4
ENDBRANCH   1   3
BRANCH   2  13
ATOM     13  C   UNL     1    -140.334  57.491   3.454  1.00  0.00     0.027 C 
BRANCH  13  14
ATOM     14  C   UNL     1    -141.810  57.086   3.329  1.00  0.00     0.004 C 
BRANCH  14  15
ATOM     15  C   UNL     1    -142.361  57.271   1.903  1.00  0.00     0.000 C 
BRANCH  15  16
ATOM     16  C   UNL     1    -142.875  55.982   1.236  1.00  0.00     0.000 C 
BRANCH  16  17
ATOM     17  C   UNL     1    -143.346  56.147  -0.220  1.00  0.00    -0.000 C 
BRANCH  17  18
ATOM     18  C   UNL     1    -144.652  56.955  -0.361  1.00  0.00    -0.000 C 
BRANCH  18  19
ATOM     19  C   UNL     1    -144.771  57.645  -1.727  1.00  0.00    -0.003 C 
ATOM     20  C   UNL     1    -143.462  58.327  -2.116  1.00  0.00     0.004 C 
ENDBRANCH  18  19
ENDBRANCH  17  18
ENDBRANCH  16  17
ENDBRANCH  15  16
ENDBRANCH  14  15
ENDBRANCH  13  14
ENDBRANCH   2  13
TORSDOF 15
ENDMDL
