MODEL 1
REMARK VINA RESULT:    68.843      0.000      0.000
REMARK INTER + INTRA:          76.647
REMARK INTER:                  74.880
REMARK INTRA:                   1.768
REMARK UNBOUND:                 1.768
REMARK SMILES C[C@H]1[C@H](C)CC[C@]2(C(=O)[O-])CC[C@@]3(C)C(=CC[C@H]4[C@]5(C)CC[C@@H](O)C(C)(C)[C@H]5CC[C@]43C)[C@H]12
REMARK SMILES IDX 7 1 6 2 11 3 33 4 5 5 12 6 15 7 2 8 3 9 13 10 16 11 1 12
REMARK SMILES IDX 4 13 14 14 31 15 17 16 18 17 30 18 32 19 19 20 29 21 28 22
REMARK SMILES IDX 21 23 20 24 25 25 22 26 23 27 26 28 27 29 8 30 9 31 10 32
REMARK SMILES IDX 24 33
REMARK H PARENT 24 34
REMARK Flexibility Score: inf
ROOT
ATOM      1  C   UNL     1     -14.278  44.979  24.856  1.00  0.00     0.017 C 
ATOM      2  C   UNL     1     -13.108  44.828  25.892  1.00  0.00     0.014 C 
ATOM      3  C   UNL     1     -13.872  46.030  23.754  1.00  0.00     0.014 C 
ATOM      4  C   UNL     1     -15.575  45.422  25.599  1.00  0.00     0.030 C 
ATOM      5  C   UNL     1     -13.526  44.401  27.313  1.00  0.00     0.004 C 
ATOM      6  C   UNL     1     -14.895  47.172  23.525  1.00  0.00     0.013 C 
ATOM      7  C   UNL     1     -15.469  46.914  25.971  1.00  0.00    -0.063 C 
ATOM      8  C   UNL     1     -16.030  44.427  26.739  1.00  0.00    -0.003 C 
ATOM      9  C   UNL     1     -14.847  43.618  27.358  1.00  0.00    -0.011 C 
ATOM     10  C   UNL     1     -15.400  47.927  24.821  1.00  0.00    -0.006 C 
ATOM     11  C   UNL     1     -15.510  47.360  27.239  1.00  0.00    -0.027 C 
ATOM     12  C   UNL     1     -17.125  43.462  26.234  1.00  0.00     0.008 C 
ATOM     13  C   UNL     1     -15.151  43.203  28.806  1.00  0.00     0.008 C 
ATOM     14  C   UNL     1     -16.872  48.357  24.521  1.00  0.00     0.017 C 
ATOM     15  C   UNL     1     -14.495  49.223  25.212  1.00  0.00    -0.020 C 
ATOM     16  C   UNL     1     -15.716  48.806  27.542  1.00  0.00     0.032 C 
ATOM     17  C   UNL     1     -14.783  49.740  26.720  1.00  0.00     0.006 C 
ATOM     18  C   UNL     1     -12.970  48.902  25.035  1.00  0.00     0.008 C 
ATOM     19  C   UNL     1     -14.825  50.372  24.193  1.00  0.00     0.012 C 
ATOM     20  C   UNL     1     -13.505  50.181  27.567  1.00  0.00    -0.025 C 
ATOM     21  C   UNL     1     -11.960  49.970  25.524  1.00  0.00     0.005 C 
ATOM     22  C   UNL     1     -12.539  50.927  26.586  1.00  0.00     0.003 C 
ATOM     23  C   UNL     1     -13.911  51.164  28.731  1.00  0.00     0.010 C 
ATOM     24  C   UNL     1     -12.835  48.922  28.224  1.00  0.00     0.012 C 
ATOM     25  C   UNL     1     -11.537  51.958  27.240  1.00  0.00    -0.006 C 
ATOM     26  C   UNL     1     -13.821  52.648  28.359  1.00  0.00     0.033 C 
ATOM     27  C   UNL     1     -12.379  53.076  27.976  1.00  0.00     0.120 C 
ATOM     28  C   UNL     1     -10.524  51.287  28.203  1.00  0.00     0.014 C 
ATOM     29  C   UNL     1     -10.701  52.648  26.131  1.00  0.00     0.014 C 
ENDROOT
BRANCH   1  30
ATOM     30  C   UNL     1     -14.549  43.660  24.134  1.00  0.00     0.048 C 
ATOM     31  O   UNL     1     -15.461  42.875  24.512  1.00  0.00    -0.550 OA
ATOM     32  O   UNL     1     -13.749  43.284  23.060  1.00  0.00    -0.550 OA
ENDBRANCH   1  30
BRANCH  27  33
ATOM     33  O   UNL     1     -11.696  53.622  29.082  1.00  0.00    -0.393 OA
ATOM     34  H   UNL     1     -12.203  53.391  29.903  1.00  0.00     0.210 HD
ENDBRANCH  27  33
TORSDOF 2
ENDMDL
