MODEL 1
REMARK VINA RESULT:    -3.589      0.000      0.000
REMARK INTER + INTRA:         -13.710
REMARK INTER:                  -9.044
REMARK INTRA:                  -4.665
REMARK UNBOUND:                -4.665
REMARK SMILES CCCCCCCCCCCCCCCCCCCCCCCCCCCC(=O)[O-]
REMARK SMILES IDX 15 1 16 2 17 3 18 4 19 5 20 6 21 7 22 8 23 9 24 10 25 11
REMARK SMILES IDX 26 12 27 13 28 14 29 15 30 16 14 17 13 18 12 19 11 20 10 21
REMARK SMILES IDX 9 22 8 23 7 24 6 25 5 26 4 27 3 28 2 29 1 30
REMARK H PARENT
REMARK Flexibility Score: inf
ROOT
ATOM      1  C   UNL     1      51.524  34.654  86.954  1.00  0.00     0.000 C 
ENDROOT
BRANCH   1   2
ATOM      2  C   UNL     1      52.898  35.345  86.993  1.00  0.00     0.000 C 
BRANCH   2   3
ATOM      3  C   UNL     1      54.015  34.424  87.506  1.00  0.00     0.000 C 
BRANCH   3   4
ATOM      4  C   UNL     1      53.864  34.089  89.000  1.00  0.00     0.000 C 
BRANCH   4   5
ATOM      5  C   UNL     1      53.437  32.629  89.235  1.00  0.00     0.000 C 
BRANCH   5   6
ATOM      6  C   UNL     1      51.998  32.516  89.759  1.00  0.00     0.000 C 
BRANCH   6   7
ATOM      7  C   UNL     1      51.238  31.390  89.046  1.00  0.00     0.000 C 
BRANCH   7   8
ATOM      8  C   UNL     1      50.682  30.378  90.055  1.00  0.00     0.000 C 
BRANCH   8   9
ATOM      9  C   UNL     1      49.445  30.937  90.774  1.00  0.00     0.000 C 
BRANCH   9  10
ATOM     10  C   UNL     1      48.132  30.296  90.286  1.00  0.00     0.000 C 
BRANCH  10  11
ATOM     11  C   UNL     1      47.050  31.295  89.828  1.00  0.00     0.000 C 
BRANCH  11  12
ATOM     12  C   UNL     1      45.965  31.611  90.878  1.00  0.00     0.006 C 
BRANCH  12  13
ATOM     13  C   UNL     1      45.261  30.372  91.454  1.00  0.00     0.053 C 
BRANCH  13  14
ATOM     14  C   UNL     1      44.059  30.744  92.267  1.00  0.00     0.041 C 
ATOM     15  O   UNL     1      42.987  30.094  92.145  1.00  0.00    -0.550 OA
ATOM     16  O   UNL     1      44.108  31.837  93.121  1.00  0.00    -0.550 OA
ENDBRANCH  13  14
ENDBRANCH  12  13
ENDBRANCH  11  12
ENDBRANCH  10  11
ENDBRANCH   9  10
ENDBRANCH   8   9
ENDBRANCH   7   8
ENDBRANCH   6   7
ENDBRANCH   5   6
ENDBRANCH   4   5
ENDBRANCH   3   4
ENDBRANCH   2   3
ENDBRANCH   1   2
BRANCH   1  17
ATOM     17  C   UNL     1      50.396  35.567  87.464  1.00  0.00     0.000 C 
BRANCH  17  18
ATOM     18  C   UNL     1      48.998  35.000  87.158  1.00  0.00     0.000 C 
BRANCH  18  19
ATOM     19  C   UNL     1      48.863  33.517  87.536  1.00  0.00     0.000 C 
BRANCH  19  20
ATOM     20  C   UNL     1      48.339  32.658  86.374  1.00  0.00     0.000 C 
BRANCH  20  21
ATOM     21  C   UNL     1      49.471  31.847  85.729  1.00  0.00     0.000 C 
BRANCH  21  22
ATOM     22  C   UNL     1      49.660  32.178  84.240  1.00  0.00    -0.000 C 
BRANCH  22  23
ATOM     23  C   UNL     1      49.149  33.585  83.879  1.00  0.00    -0.000 C 
BRANCH  23  24
ATOM     24  C   UNL     1      50.280  34.516  83.395  1.00  0.00    -0.000 C 
BRANCH  24  25
ATOM     25  C   UNL     1      51.216  33.873  82.350  1.00  0.00    -0.000 C 
BRANCH  25  26
ATOM     26  C   UNL     1      52.697  34.272  82.467  1.00  0.00    -0.000 C 
BRANCH  26  27
ATOM     27  C   UNL     1      53.392  33.820  83.767  1.00  0.00    -0.000 C 
BRANCH  27  28
ATOM     28  C   UNL     1      53.447  32.285  83.946  1.00  0.00    -0.000 C 
BRANCH  28  29
ATOM     29  C   UNL     1      53.169  31.814  85.385  1.00  0.00    -0.003 C 
ATOM     30  C   UNL     1      54.217  30.824  85.895  1.00  0.00     0.004 C 
ENDBRANCH  28  29
ENDBRANCH  27  28
ENDBRANCH  26  27
ENDBRANCH  25  26
ENDBRANCH  24  25
ENDBRANCH  23  24
ENDBRANCH  22  23
ENDBRANCH  21  22
ENDBRANCH  20  21
ENDBRANCH  19  20
ENDBRANCH  18  19
ENDBRANCH  17  18
ENDBRANCH   1  17
TORSDOF 26
ENDMDL
MODEL 2
REMARK VINA RESULT:    -3.530     14.739     17.152
REMARK INTER + INTRA:         -13.560
REMARK INTER:                  -8.661
REMARK INTRA:                  -4.900
REMARK UNBOUND:                -4.665
REMARK SMILES CCCCCCCCCCCCCCCCCCCCCCCCCCCC(=O)[O-]
REMARK SMILES IDX 15 1 16 2 17 3 18 4 19 5 20 6 21 7 22 8 23 9 24 10 25 11
REMARK SMILES IDX 26 12 27 13 28 14 29 15 30 16 14 17 13 18 12 19 11 20 10 21
REMARK SMILES IDX 9 22 8 23 7 24 6 25 5 26 4 27 3 28 2 29 1 30
REMARK H PARENT
REMARK Flexibility Score: inf
ROOT
ATOM      1  C   UNL     1      46.006  19.734  74.052  1.00  0.00     0.000 C 
ENDROOT
BRANCH   1   2
ATOM      2  C   UNL     1      46.669  20.849  73.224  1.00  0.00     0.000 C 
BRANCH   2   3
ATOM      3  C   UNL     1      47.643  21.705  74.048  1.00  0.00     0.000 C 
BRANCH   3   4
ATOM      4  C   UNL     1      47.125  23.135  74.276  1.00  0.00     0.000 C 
BRANCH   4   5
ATOM      5  C   UNL     1      45.899  23.462  73.404  1.00  0.00     0.000 C 
BRANCH   5   6
ATOM      6  C   UNL     1      44.638  23.726  74.240  1.00  0.00     0.000 C 
BRANCH   6   7
ATOM      7  C   UNL     1      43.369  23.387  73.446  1.00  0.00     0.000 C 
BRANCH   7   8
ATOM      8  C   UNL     1      42.992  21.911  73.619  1.00  0.00     0.000 C 
BRANCH   8   9
ATOM      9  C   UNL     1      42.928  21.527  75.104  1.00  0.00     0.000 C 
BRANCH   9  10
ATOM     10  C   UNL     1      41.772  22.218  75.850  1.00  0.00     0.000 C 
BRANCH  10  11
ATOM     11  C   UNL     1      41.043  21.337  76.884  1.00  0.00     0.000 C 
BRANCH  11  12
ATOM     12  C   UNL     1      40.950  21.934  78.303  1.00  0.00     0.006 C 
BRANCH  12  13
ATOM     13  C   UNL     1      39.768  21.412  79.134  1.00  0.00     0.053 C 
BRANCH  13  14
ATOM     14  C   UNL     1      40.047  20.058  79.710  1.00  0.00     0.041 C 
ATOM     15  O   UNL     1      41.229  19.718  79.984  1.00  0.00    -0.550 OA
ATOM     16  O   UNL     1      39.010  19.154  79.897  1.00  0.00    -0.550 OA
ENDBRANCH  13  14
ENDBRANCH  12  13
ENDBRANCH  11  12
ENDBRANCH  10  11
ENDBRANCH   9  10
ENDBRANCH   8   9
ENDBRANCH   7   8
ENDBRANCH   6   7
ENDBRANCH   5   6
ENDBRANCH   4   5
ENDBRANCH   3   4
ENDBRANCH   2   3
ENDBRANCH   1   2
BRANCH   1  17
ATOM     17  C   UNL     1      46.589  19.636  75.472  1.00  0.00     0.000 C 
BRANCH  17  18
ATOM     18  C   UNL     1      45.971  18.481  76.281  1.00  0.00     0.000 C 
BRANCH  18  19
ATOM     19  C   UNL     1      45.758  18.840  77.760  1.00  0.00     0.000 C 
BRANCH  19  20
ATOM     20  C   UNL     1      44.521  19.727  77.978  1.00  0.00     0.000 C 
BRANCH  20  21
ATOM     21  C   UNL     1      44.892  21.023  78.713  1.00  0.00     0.000 C 
BRANCH  21  22
ATOM     22  C   UNL     1      45.340  22.138  77.753  1.00  0.00    -0.000 C 
BRANCH  22  23
ATOM     23  C   UNL     1      46.832  22.483  77.905  1.00  0.00    -0.000 C 
BRANCH  23  24
ATOM     24  C   UNL     1      47.470  21.804  79.135  1.00  0.00    -0.000 C 
BRANCH  24  25
ATOM     25  C   UNL     1      48.757  21.015  78.818  1.00  0.00    -0.000 C 
BRANCH  25  26
ATOM     26  C   UNL     1      49.223  21.087  77.353  1.00  0.00    -0.000 C 
BRANCH  26  27
ATOM     27  C   UNL     1      50.564  21.813  77.132  1.00  0.00    -0.000 C 
BRANCH  27  28
ATOM     28  C   UNL     1      50.818  22.225  75.663  1.00  0.00    -0.000 C 
BRANCH  28  29
ATOM     29  C   UNL     1      52.291  22.115  75.229  1.00  0.00    -0.003 C 
ATOM     30  C   UNL     1      53.222  21.753  76.386  1.00  0.00     0.004 C 
ENDBRANCH  28  29
ENDBRANCH  27  28
ENDBRANCH  26  27
ENDBRANCH  25  26
ENDBRANCH  24  25
ENDBRANCH  23  24
ENDBRANCH  22  23
ENDBRANCH  21  22
ENDBRANCH  20  21
ENDBRANCH  19  20
ENDBRANCH  18  19
ENDBRANCH  17  18
ENDBRANCH   1  17
TORSDOF 26
ENDMDL
MODEL 3
REMARK VINA RESULT:    -3.447      3.269      7.078
REMARK INTER + INTRA:         -13.350
REMARK INTER:                  -7.574
REMARK INTRA:                  -5.776
REMARK UNBOUND:                -4.665
REMARK SMILES CCCCCCCCCCCCCCCCCCCCCCCCCCCC(=O)[O-]
REMARK SMILES IDX 15 1 16 2 17 3 18 4 19 5 20 6 21 7 22 8 23 9 24 10 25 11
REMARK SMILES IDX 26 12 27 13 28 14 29 15 30 16 14 17 13 18 12 19 11 20 10 21
REMARK SMILES IDX 9 22 8 23 7 24 6 25 5 26 4 27 3 28 2 29 1 30
REMARK H PARENT
REMARK Flexibility Score: inf
ROOT
ATOM      1  C   UNL     1      47.939  32.147  86.866  1.00  0.00     0.000 C 
ENDROOT
BRANCH   1   2
ATOM      2  C   UNL     1      48.387  33.516  87.409  1.00  0.00     0.000 C 
BRANCH   2   3
ATOM      3  C   UNL     1      49.903  33.737  87.290  1.00  0.00     0.000 C 
BRANCH   3   4
ATOM      4  C   UNL     1      50.280  35.228  87.247  1.00  0.00     0.000 C 
BRANCH   4   5
ATOM      5  C   UNL     1      51.768  35.466  87.562  1.00  0.00     0.000 C 
BRANCH   5   6
ATOM      6  C   UNL     1      52.497  34.174  87.963  1.00  0.00     0.000 C 
BRANCH   6   7
ATOM      7  C   UNL     1      53.940  34.170  87.440  1.00  0.00     0.000 C 
BRANCH   7   8
ATOM      8  C   UNL     1      54.265  32.848  86.736  1.00  0.00     0.000 C 
BRANCH   8   9
ATOM      9  C   UNL     1      53.008  32.234  86.103  1.00  0.00     0.000 C 
BRANCH   9  10
ATOM     10  C   UNL     1      53.003  32.337  84.567  1.00  0.00     0.000 C 
BRANCH  10  11
ATOM     11  C   UNL     1      52.975  33.774  84.009  1.00  0.00     0.000 C 
BRANCH  11  12
ATOM     12  C   UNL     1      51.575  34.418  83.929  1.00  0.00     0.006 C 
BRANCH  12  13
ATOM     13  C   UNL     1      50.435  33.424  83.661  1.00  0.00     0.053 C 
BRANCH  13  14
ATOM     14  C   UNL     1      49.166  34.124  83.282  1.00  0.00     0.041 C 
ATOM     15  O   UNL     1      48.677  33.968  82.131  1.00  0.00    -0.550 OA
ATOM     16  O   UNL     1      48.550  34.984  84.180  1.00  0.00    -0.550 OA
ENDBRANCH  13  14
ENDBRANCH  12  13
ENDBRANCH  11  12
ENDBRANCH  10  11
ENDBRANCH   9  10
ENDBRANCH   8   9
ENDBRANCH   7   8
ENDBRANCH   6   7
ENDBRANCH   5   6
ENDBRANCH   4   5
ENDBRANCH   3   4
ENDBRANCH   2   3
ENDBRANCH   1   2
BRANCH   1  17
ATOM     17  C   UNL     1      47.084  31.368  87.880  1.00  0.00     0.000 C 
BRANCH  17  18
ATOM     18  C   UNL     1      46.974  32.091  89.233  1.00  0.00     0.000 C 
BRANCH  18  19
ATOM     19  C   UNL     1      46.504  31.164  90.365  1.00  0.00     0.000 C 
BRANCH  19  20
ATOM     20  C   UNL     1      46.507  29.682  89.953  1.00  0.00     0.000 C 
BRANCH  20  21
ATOM     21  C   UNL     1      47.153  28.808  91.037  1.00  0.00     0.000 C 
BRANCH  21  22
ATOM     22  C   UNL     1      48.432  28.110  90.547  1.00  0.00    -0.000 C 
BRANCH  22  23
ATOM     23  C   UNL     1      48.597  28.185  89.018  1.00  0.00    -0.000 C 
BRANCH  23  24
ATOM     24  C   UNL     1      50.073  28.327  88.592  1.00  0.00    -0.000 C 
BRANCH  24  25
ATOM     25  C   UNL     1      50.415  29.695  87.966  1.00  0.00    -0.000 C 
BRANCH  25  26
ATOM     26  C   UNL     1      51.203  30.652  88.877  1.00  0.00    -0.000 C 
BRANCH  26  27
ATOM     27  C   UNL     1      50.392  31.255  90.041  1.00  0.00    -0.000 C 
BRANCH  27  28
ATOM     28  C   UNL     1      50.813  30.733  91.434  1.00  0.00    -0.000 C 
BRANCH  28  29
ATOM     29  C   UNL     1      52.094  29.879  91.420  1.00  0.00    -0.003 C 
ATOM     30  C   UNL     1      51.840  28.426  91.823  1.00  0.00     0.004 C 
ENDBRANCH  28  29
ENDBRANCH  27  28
ENDBRANCH  26  27
ENDBRANCH  25  26
ENDBRANCH  24  25
ENDBRANCH  23  24
ENDBRANCH  22  23
ENDBRANCH  21  22
ENDBRANCH  20  21
ENDBRANCH  19  20
ENDBRANCH  18  19
ENDBRANCH  17  18
ENDBRANCH   1  17
TORSDOF 26
ENDMDL
MODEL 4
REMARK VINA RESULT:    -3.433      4.069      8.331
REMARK INTER + INTRA:         -13.315
REMARK INTER:                  -7.796
REMARK INTRA:                  -5.519
REMARK UNBOUND:                -4.665
REMARK SMILES CCCCCCCCCCCCCCCCCCCCCCCCCCCC(=O)[O-]
REMARK SMILES IDX 15 1 16 2 17 3 18 4 19 5 20 6 21 7 22 8 23 9 24 10 25 11
REMARK SMILES IDX 26 12 27 13 28 14 29 15 30 16 14 17 13 18 12 19 11 20 10 21
REMARK SMILES IDX 9 22 8 23 7 24 6 25 5 26 4 27 3 28 2 29 1 30
REMARK H PARENT
REMARK Flexibility Score: inf
ROOT
ATOM      1  C   UNL     1      53.405  31.161  86.919  1.00  0.00     0.000 C 
ENDROOT
BRANCH   1   2
ATOM      2  C   UNL     1      52.156  31.999  86.597  1.00  0.00     0.000 C 
BRANCH   2   3
ATOM      3  C   UNL     1      51.010  31.770  87.594  1.00  0.00     0.000 C 
BRANCH   3   4
ATOM      4  C   UNL     1      50.545  33.072  88.269  1.00  0.00     0.000 C 
BRANCH   4   5
ATOM      5  C   UNL     1      51.359  34.294  87.809  1.00  0.00     0.000 C 
BRANCH   5   6
ATOM      6  C   UNL     1      50.466  35.445  87.319  1.00  0.00     0.000 C 
BRANCH   6   7
ATOM      7  C   UNL     1      49.010  34.986  87.165  1.00  0.00     0.000 C 
BRANCH   7   8
ATOM      8  C   UNL     1      48.585  34.994  85.692  1.00  0.00     0.000 C 
BRANCH   8   9
ATOM      9  C   UNL     1      49.410  33.993  84.872  1.00  0.00     0.000 C 
BRANCH   9  10
ATOM     10  C   UNL     1      50.096  34.640  83.655  1.00  0.00     0.000 C 
BRANCH  10  11
ATOM     11  C   UNL     1      51.299  33.859  83.092  1.00  0.00     0.000 C 
BRANCH  11  12
ATOM     12  C   UNL     1      52.669  34.250  83.682  1.00  0.00     0.006 C 
BRANCH  12  13
ATOM     13  C   UNL     1      53.838  34.156  82.689  1.00  0.00     0.053 C 
BRANCH  13  14
ATOM     14  C   UNL     1      54.212  32.735  82.403  1.00  0.00     0.041 C 
ATOM     15  O   UNL     1      54.546  32.389  81.239  1.00  0.00    -0.550 OA
ATOM     16  O   UNL     1      54.143  31.782  83.410  1.00  0.00    -0.550 OA
ENDBRANCH  13  14
ENDBRANCH  12  13
ENDBRANCH  11  12
ENDBRANCH  10  11
ENDBRANCH   9  10
ENDBRANCH   8   9
ENDBRANCH   7   8
ENDBRANCH   6   7
ENDBRANCH   5   6
ENDBRANCH   4   5
ENDBRANCH   3   4
ENDBRANCH   2   3
ENDBRANCH   1   2
BRANCH   1  17
ATOM     17  C   UNL     1      54.692  32.003  86.909  1.00  0.00     0.000 C 
BRANCH  17  18
ATOM     18  C   UNL     1      55.257  32.229  88.322  1.00  0.00     0.000 C 
BRANCH  18  19
ATOM     19  C   UNL     1      54.695  33.493  88.990  1.00  0.00     0.000 C 
BRANCH  19  20
ATOM     20  C   UNL     1      53.876  33.179  90.253  1.00  0.00     0.000 C 
BRANCH  20  21
ATOM     21  C   UNL     1      54.010  31.701  90.645  1.00  0.00     0.000 C 
BRANCH  21  22
ATOM     22  C   UNL     1      52.646  31.019  90.850  1.00  0.00    -0.000 C 
BRANCH  22  23
ATOM     23  C   UNL     1      51.624  31.940  91.540  1.00  0.00    -0.000 C 
BRANCH  23  24
ATOM     24  C   UNL     1      50.231  31.287  91.659  1.00  0.00    -0.000 C 
BRANCH  24  25
ATOM     25  C   UNL     1      49.970  30.175  90.622  1.00  0.00    -0.000 C 
BRANCH  25  26
ATOM     26  C   UNL     1      48.506  30.032  90.171  1.00  0.00    -0.000 C 
BRANCH  26  27
ATOM     27  C   UNL     1      47.635  31.285  90.386  1.00  0.00    -0.000 C 
BRANCH  27  28
ATOM     28  C   UNL     1      47.166  31.955  89.074  1.00  0.00    -0.000 C 
BRANCH  28  29
ATOM     29  C   UNL     1      46.836  30.959  87.947  1.00  0.00    -0.003 C 
ATOM     30  C   UNL     1      47.562  31.283  86.641  1.00  0.00     0.004 C 
ENDBRANCH  28  29
ENDBRANCH  27  28
ENDBRANCH  26  27
ENDBRANCH  25  26
ENDBRANCH  24  25
ENDBRANCH  23  24
ENDBRANCH  22  23
ENDBRANCH  21  22
ENDBRANCH  20  21
ENDBRANCH  19  20
ENDBRANCH  18  19
ENDBRANCH  17  18
ENDBRANCH   1  17
TORSDOF 26
ENDMDL
MODEL 5
REMARK VINA RESULT:    -3.420      3.356      7.221
REMARK INTER + INTRA:         -13.283
REMARK INTER:                  -8.033
REMARK INTRA:                  -5.250
REMARK UNBOUND:                -4.665
REMARK SMILES CCCCCCCCCCCCCCCCCCCCCCCCCCCC(=O)[O-]
REMARK SMILES IDX 15 1 16 2 17 3 18 4 19 5 20 6 21 7 22 8 23 9 24 10 25 11
REMARK SMILES IDX 26 12 27 13 28 14 29 15 30 16 14 17 13 18 12 19 11 20 10 21
REMARK SMILES IDX 9 22 8 23 7 24 6 25 5 26 4 27 3 28 2 29 1 30
REMARK H PARENT
REMARK Flexibility Score: inf
ROOT
ATOM      1  C   UNL     1      51.337  30.141  86.340  1.00  0.00     0.000 C 
ENDROOT
BRANCH   1   2
ATOM      2  C   UNL     1      52.331  30.569  85.246  1.00  0.00     0.000 C 
BRANCH   2   3
ATOM      3  C   UNL     1      51.640  31.182  84.018  1.00  0.00     0.000 C 
BRANCH   3   4
ATOM      4  C   UNL     1      52.425  32.366  83.428  1.00  0.00     0.000 C 
BRANCH   4   5
ATOM      5  C   UNL     1      53.344  33.036  84.464  1.00  0.00     0.000 C 
BRANCH   5   6
ATOM      6  C   UNL     1      53.102  34.549  84.573  1.00  0.00     0.000 C 
BRANCH   6   7
ATOM      7  C   UNL     1      52.916  34.975  86.035  1.00  0.00     0.000 C 
BRANCH   7   8
ATOM      8  C   UNL     1      52.540  33.775  86.912  1.00  0.00     0.000 C 
BRANCH   8   9
ATOM      9  C   UNL     1      51.467  34.157  87.941  1.00  0.00     0.000 C 
BRANCH   9  10
ATOM     10  C   UNL     1      50.630  35.375  87.506  1.00  0.00     0.000 C 
BRANCH  10  11
ATOM     11  C   UNL     1      49.140  35.081  87.241  1.00  0.00     0.000 C 
BRANCH  11  12
ATOM     12  C   UNL     1      48.712  35.151  85.761  1.00  0.00     0.006 C 
BRANCH  12  13
ATOM     13  C   UNL     1      49.415  34.134  84.849  1.00  0.00     0.053 C 
BRANCH  13  14
ATOM     14  C   UNL     1      49.121  34.388  83.402  1.00  0.00     0.041 C 
ATOM     15  O   UNL     1      49.938  35.034  82.693  1.00  0.00    -0.550 OA
ATOM     16  O   UNL     1      47.923  33.956  82.850  1.00  0.00    -0.550 OA
ENDBRANCH  13  14
ENDBRANCH  12  13
ENDBRANCH  11  12
ENDBRANCH  10  11
ENDBRANCH   9  10
ENDBRANCH   8   9
ENDBRANCH   7   8
ENDBRANCH   6   7
ENDBRANCH   5   6
ENDBRANCH   4   5
ENDBRANCH   3   4
ENDBRANCH   2   3
ENDBRANCH   1   2
BRANCH   1  17
ATOM     17  C   UNL     1      49.976  30.845  86.201  1.00  0.00     0.000 C 
BRANCH  17  18
ATOM     18  C   UNL     1      49.381  31.245  87.562  1.00  0.00     0.000 C 
BRANCH  18  19
ATOM     19  C   UNL     1      47.866  31.498  87.496  1.00  0.00     0.000 C 
BRANCH  19  20
ATOM     20  C   UNL     1      47.343  32.264  88.722  1.00  0.00     0.000 C 
BRANCH  20  21
ATOM     21  C   UNL     1      46.071  31.611  89.281  1.00  0.00     0.000 C 
BRANCH  21  22
ATOM     22  C   UNL     1      46.135  31.406  90.804  1.00  0.00    -0.000 C 
BRANCH  22  23
ATOM     23  C   UNL     1      46.111  29.919  91.201  1.00  0.00    -0.000 C 
BRANCH  23  24
ATOM     24  C   UNL     1      46.286  28.984  89.986  1.00  0.00    -0.000 C 
BRANCH  24  25
ATOM     25  C   UNL     1      47.727  28.464  89.798  1.00  0.00    -0.000 C 
BRANCH  25  26
ATOM     26  C   UNL     1      48.769  29.067  90.757  1.00  0.00    -0.000 C 
BRANCH  26  27
ATOM     27  C   UNL     1      50.228  28.977  90.270  1.00  0.00    -0.000 C 
BRANCH  27  28
ATOM     28  C   UNL     1      51.170  30.018  90.918  1.00  0.00    -0.000 C 
BRANCH  28  29
ATOM     29  C   UNL     1      50.513  31.389  91.161  1.00  0.00    -0.003 C 
ATOM     30  C   UNL     1      50.988  32.051  92.455  1.00  0.00     0.004 C 
ENDBRANCH  28  29
ENDBRANCH  27  28
ENDBRANCH  26  27
ENDBRANCH  25  26
ENDBRANCH  24  25
ENDBRANCH  23  24
ENDBRANCH  22  23
ENDBRANCH  21  22
ENDBRANCH  20  21
ENDBRANCH  19  20
ENDBRANCH  18  19
ENDBRANCH  17  18
ENDBRANCH   1  17
TORSDOF 26
ENDMDL
MODEL 6
REMARK VINA RESULT:    -3.393     13.899     16.561
REMARK INTER + INTRA:         -13.216
REMARK INTER:                  -8.376
REMARK INTRA:                  -4.840
REMARK UNBOUND:                -4.665
REMARK SMILES CCCCCCCCCCCCCCCCCCCCCCCCCCCC(=O)[O-]
REMARK SMILES IDX 15 1 16 2 17 3 18 4 19 5 20 6 21 7 22 8 23 9 24 10 25 11
REMARK SMILES IDX 26 12 27 13 28 14 29 15 30 16 14 17 13 18 12 19 11 20 10 21
REMARK SMILES IDX 9 22 8 23 7 24 6 25 5 26 4 27 3 28 2 29 1 30
REMARK H PARENT
REMARK Flexibility Score: inf
ROOT
ATOM      1  C   UNL     1      46.047  18.182  75.754  1.00  0.00     0.000 C 
ENDROOT
BRANCH   1   2
ATOM      2  C   UNL     1      45.807  19.598  75.203  1.00  0.00     0.000 C 
BRANCH   2   3
ATOM      3  C   UNL     1      46.684  19.921  73.984  1.00  0.00     0.000 C 
BRANCH   3   4
ATOM      4  C   UNL     1      47.633  21.105  74.237  1.00  0.00     0.000 C 
BRANCH   4   5
ATOM      5  C   UNL     1      48.336  21.013  75.603  1.00  0.00     0.000 C 
BRANCH   5   6
ATOM      6  C   UNL     1      48.977  22.344  76.025  1.00  0.00     0.000 C 
BRANCH   6   7
ATOM      7  C   UNL     1      49.685  22.211  77.380  1.00  0.00     0.000 C 
BRANCH   7   8
ATOM      8  C   UNL     1      49.264  20.921  78.094  1.00  0.00     0.000 C 
BRANCH   8   9
ATOM      9  C   UNL     1      49.589  20.988  79.593  1.00  0.00     0.000 C 
BRANCH   9  10
ATOM     10  C   UNL     1      48.408  20.552  80.480  1.00  0.00     0.000 C 
BRANCH  10  11
ATOM     11  C   UNL     1      47.602  21.707  81.108  1.00  0.00     0.000 C 
BRANCH  11  12
ATOM     12  C   UNL     1      47.456  21.644  82.643  1.00  0.00     0.006 C 
BRANCH  12  13
ATOM     13  C   UNL     1      48.574  20.867  83.355  1.00  0.00     0.053 C 
BRANCH  13  14
ATOM     14  C   UNL     1      48.025  19.846  84.303  1.00  0.00     0.041 C 
ATOM     15  O   UNL     1      46.829  19.922  84.692  1.00  0.00    -0.550 OA
ATOM     16  O   UNL     1      48.846  18.842  84.796  1.00  0.00    -0.550 OA
ENDBRANCH  13  14
ENDBRANCH  12  13
ENDBRANCH  11  12
ENDBRANCH  10  11
ENDBRANCH   9  10
ENDBRANCH   8   9
ENDBRANCH   7   8
ENDBRANCH   6   7
ENDBRANCH   5   6
ENDBRANCH   4   5
ENDBRANCH   3   4
ENDBRANCH   2   3
ENDBRANCH   1   2
BRANCH   1  17
ATOM     17  C   UNL     1      45.698  18.068  77.248  1.00  0.00     0.000 C 
BRANCH  17  18
ATOM     18  C   UNL     1      45.901  19.395  78.000  1.00  0.00     0.000 C 
BRANCH  18  19
ATOM     19  C   UNL     1      44.580  20.005  78.494  1.00  0.00     0.000 C 
BRANCH  19  20
ATOM     20  C   UNL     1      44.715  21.496  78.847  1.00  0.00     0.000 C 
BRANCH  20  21
ATOM     21  C   UNL     1      45.831  22.160  78.028  1.00  0.00     0.000 C 
BRANCH  21  22
ATOM     22  C   UNL     1      45.440  23.558  77.523  1.00  0.00    -0.000 C 
BRANCH  22  23
ATOM     23  C   UNL     1      45.413  23.644  75.987  1.00  0.00    -0.000 C 
BRANCH  23  24
ATOM     24  C   UNL     1      44.330  22.736  75.366  1.00  0.00    -0.000 C 
BRANCH  24  25
ATOM     25  C   UNL     1      42.900  23.039  75.860  1.00  0.00    -0.000 C 
BRANCH  25  26
ATOM     26  C   UNL     1      42.071  21.805  76.256  1.00  0.00    -0.000 C 
BRANCH  26  27
ATOM     27  C   UNL     1      41.170  21.996  77.492  1.00  0.00    -0.000 C 
BRANCH  27  28
ATOM     28  C   UNL     1      40.896  20.692  78.274  1.00  0.00    -0.000 C 
BRANCH  28  29
ATOM     29  C   UNL     1      40.500  20.916  79.745  1.00  0.00    -0.003 C 
ATOM     30  C   UNL     1      39.060  20.494  80.040  1.00  0.00     0.004 C 
ENDBRANCH  28  29
ENDBRANCH  27  28
ENDBRANCH  26  27
ENDBRANCH  25  26
ENDBRANCH  24  25
ENDBRANCH  23  24
ENDBRANCH  22  23
ENDBRANCH  21  22
ENDBRANCH  20  21
ENDBRANCH  19  20
ENDBRANCH  18  19
ENDBRANCH  17  18
ENDBRANCH   1  17
TORSDOF 26
ENDMDL
MODEL 7
REMARK VINA RESULT:    -3.390      1.693      3.664
REMARK INTER + INTRA:         -13.207
REMARK INTER:                  -8.212
REMARK INTRA:                  -4.995
REMARK UNBOUND:                -4.665
REMARK SMILES CCCCCCCCCCCCCCCCCCCCCCCCCCCC(=O)[O-]
REMARK SMILES IDX 15 1 16 2 17 3 18 4 19 5 20 6 21 7 22 8 23 9 24 10 25 11
REMARK SMILES IDX 26 12 27 13 28 14 29 15 30 16 14 17 13 18 12 19 11 20 10 21
REMARK SMILES IDX 9 22 8 23 7 24 6 25 5 26 4 27 3 28 2 29 1 30
REMARK H PARENT
REMARK Flexibility Score: inf
ROOT
ATOM      1  C   UNL     1      48.759  34.109  86.723  1.00  0.00     0.000 C 
ENDROOT
BRANCH   1   2
ATOM      2  C   UNL     1      48.100  33.131  87.711  1.00  0.00     0.000 C 
BRANCH   2   3
ATOM      3  C   UNL     1      48.829  31.780  87.788  1.00  0.00     0.000 C 
BRANCH   3   4
ATOM      4  C   UNL     1      50.197  31.806  87.085  1.00  0.00     0.000 C 
BRANCH   4   5
ATOM      5  C   UNL     1      51.357  31.490  88.046  1.00  0.00     0.000 C 
BRANCH   5   6
ATOM      6  C   UNL     1      51.459  32.503  89.197  1.00  0.00     0.000 C 
BRANCH   6   7
ATOM      7  C   UNL     1      51.124  31.846  90.542  1.00  0.00     0.000 C 
BRANCH   7   8
ATOM      8  C   UNL     1      51.963  30.582  90.760  1.00  0.00     0.000 C 
BRANCH   8   9
ATOM      9  C   UNL     1      51.110  29.444  91.337  1.00  0.00     0.000 C 
BRANCH   9  10
ATOM     10  C   UNL     1      50.584  28.484  90.253  1.00  0.00     0.000 C 
BRANCH  10  11
ATOM     11  C   UNL     1      49.179  28.817  89.713  1.00  0.00     0.000 C 
BRANCH  11  12
ATOM     12  C   UNL     1      48.127  29.156  90.788  1.00  0.00     0.006 C 
BRANCH  12  13
ATOM     13  C   UNL     1      47.540  30.571  90.678  1.00  0.00     0.053 C 
BRANCH  13  14
ATOM     14  C   UNL     1      46.130  30.550  90.174  1.00  0.00     0.041 C 
ATOM     15  O   UNL     1      45.546  29.452  89.970  1.00  0.00    -0.550 OA
ATOM     16  O   UNL     1      45.477  31.740  89.883  1.00  0.00    -0.550 OA
ENDBRANCH  13  14
ENDBRANCH  12  13
ENDBRANCH  11  12
ENDBRANCH  10  11
ENDBRANCH   9  10
ENDBRANCH   8   9
ENDBRANCH   7   8
ENDBRANCH   6   7
ENDBRANCH   5   6
ENDBRANCH   4   5
ENDBRANCH   3   4
ENDBRANCH   2   3
ENDBRANCH   1   2
BRANCH   1  17
ATOM     17  C   UNL     1      49.071  35.470  87.368  1.00  0.00     0.000 C 
BRANCH  17  18
ATOM     18  C   UNL     1      50.583  35.736  87.474  1.00  0.00     0.000 C 
BRANCH  18  19
ATOM     19  C   UNL     1      51.388  35.034  86.369  1.00  0.00     0.000 C 
BRANCH  19  20
ATOM     20  C   UNL     1      52.865  34.840  86.749  1.00  0.00     0.000 C 
BRANCH  20  21
ATOM     21  C   UNL     1      53.550  33.834  85.812  1.00  0.00     0.000 C 
BRANCH  21  22
ATOM     22  C   UNL     1      52.873  33.757  84.434  1.00  0.00    -0.000 C 
BRANCH  22  23
ATOM     23  C   UNL     1      53.616  34.579  83.365  1.00  0.00    -0.000 C 
BRANCH  23  24
ATOM     24  C   UNL     1      53.015  34.392  81.956  1.00  0.00    -0.000 C 
BRANCH  24  25
ATOM     25  C   UNL     1      51.624  33.725  81.953  1.00  0.00    -0.000 C 
BRANCH  25  26
ATOM     26  C   UNL     1      50.433  34.696  81.877  1.00  0.00    -0.000 C 
BRANCH  26  27
ATOM     27  C   UNL     1      49.488  34.662  83.094  1.00  0.00    -0.000 C 
BRANCH  27  28
ATOM     28  C   UNL     1      49.321  33.257  83.718  1.00  0.00    -0.000 C 
BRANCH  28  29
ATOM     29  C   UNL     1      48.040  32.526  83.277  1.00  0.00    -0.003 C 
ATOM     30  C   UNL     1      47.587  31.468  84.283  1.00  0.00     0.004 C 
ENDBRANCH  28  29
ENDBRANCH  27  28
ENDBRANCH  26  27
ENDBRANCH  25  26
ENDBRANCH  24  25
ENDBRANCH  23  24
ENDBRANCH  22  23
ENDBRANCH  21  22
ENDBRANCH  20  21
ENDBRANCH  19  20
ENDBRANCH  18  19
ENDBRANCH  17  18
ENDBRANCH   1  17
TORSDOF 26
ENDMDL
MODEL 8
REMARK VINA RESULT:    -3.353     14.439     16.840
REMARK INTER + INTRA:         -13.115
REMARK INTER:                  -7.769
REMARK INTRA:                  -5.347
REMARK UNBOUND:                -4.665
REMARK SMILES CCCCCCCCCCCCCCCCCCCCCCCCCCCC(=O)[O-]
REMARK SMILES IDX 15 1 16 2 17 3 18 4 19 5 20 6 21 7 22 8 23 9 24 10 25 11
REMARK SMILES IDX 26 12 27 13 28 14 29 15 30 16 14 17 13 18 12 19 11 20 10 21
REMARK SMILES IDX 9 22 8 23 7 24 6 25 5 26 4 27 3 28 2 29 1 30
REMARK H PARENT
REMARK Flexibility Score: inf
ROOT
ATOM      1  C   UNL     1      44.295  22.877  76.088  1.00  0.00     0.000 C 
ENDROOT
BRANCH   1   2
ATOM      2  C   UNL     1      42.966  22.150  76.361  1.00  0.00     0.000 C 
BRANCH   2   3
ATOM      3  C   UNL     1      41.737  23.002  76.013  1.00  0.00     0.000 C 
BRANCH   3   4
ATOM      4  C   UNL     1      40.470  22.543  76.755  1.00  0.00     0.000 C 
BRANCH   4   5
ATOM      5  C   UNL     1      39.953  23.601  77.745  1.00  0.00     0.000 C 
BRANCH   5   6
ATOM      6  C   UNL     1      41.086  24.457  78.334  1.00  0.00     0.000 C 
BRANCH   6   7
ATOM      7  C   UNL     1      41.529  23.920  79.701  1.00  0.00     0.000 C 
BRANCH   7   8
ATOM      8  C   UNL     1      43.039  23.654  79.723  1.00  0.00     0.000 C 
BRANCH   8   9
ATOM      9  C   UNL     1      43.342  22.228  80.202  1.00  0.00     0.000 C 
BRANCH   9  10
ATOM     10  C   UNL     1      42.070  21.389  80.423  1.00  0.00     0.000 C 
BRANCH  10  11
ATOM     11  C   UNL     1      41.841  20.267  79.391  1.00  0.00     0.000 C 
BRANCH  11  12
ATOM     12  C   UNL     1      40.363  19.910  79.129  1.00  0.00     0.006 C 
BRANCH  12  13
ATOM     13  C   UNL     1      39.373  20.545  80.117  1.00  0.00     0.053 C 
BRANCH  13  14
ATOM     14  C   UNL     1      38.356  19.556  80.598  1.00  0.00     0.041 C 
ATOM     15  O   UNL     1      38.327  18.393  80.115  1.00  0.00    -0.550 OA
ATOM     16  O   UNL     1      37.411  19.934  81.542  1.00  0.00    -0.550 OA
ENDBRANCH  13  14
ENDBRANCH  12  13
ENDBRANCH  11  12
ENDBRANCH  10  11
ENDBRANCH   9  10
ENDBRANCH   8   9
ENDBRANCH   7   8
ENDBRANCH   6   7
ENDBRANCH   5   6
ENDBRANCH   4   5
ENDBRANCH   3   4
ENDBRANCH   2   3
ENDBRANCH   1   2
BRANCH   1  17
ATOM     17  C   UNL     1      44.462  23.251  74.605  1.00  0.00     0.000 C 
BRANCH  17  18
ATOM     18  C   UNL     1      45.491  22.360  73.887  1.00  0.00     0.000 C 
BRANCH  18  19
ATOM     19  C   UNL     1      45.028  20.901  73.762  1.00  0.00     0.000 C 
BRANCH  19  20
ATOM     20  C   UNL     1      46.164  19.897  74.019  1.00  0.00     0.000 C 
BRANCH  20  21
ATOM     21  C   UNL     1      46.569  19.887  75.500  1.00  0.00     0.000 C 
BRANCH  21  22
ATOM     22  C   UNL     1      45.921  18.732  76.280  1.00  0.00    -0.000 C 
BRANCH  22  23
ATOM     23  C   UNL     1      45.629  19.101  77.746  1.00  0.00    -0.000 C 
BRANCH  23  24
ATOM     24  C   UNL     1      45.906  20.589  78.044  1.00  0.00    -0.000 C 
BRANCH  24  25
ATOM     25  C   UNL     1      46.850  20.822  79.243  1.00  0.00    -0.000 C 
BRANCH  25  26
ATOM     26  C   UNL     1      48.102  19.929  79.273  1.00  0.00    -0.000 C 
BRANCH  26  27
ATOM     27  C   UNL     1      49.162  20.260  78.205  1.00  0.00    -0.000 C 
BRANCH  27  28
ATOM     28  C   UNL     1      49.410  21.775  78.018  1.00  0.00    -0.000 C 
BRANCH  28  29
ATOM     29  C   UNL     1      49.240  22.262  76.568  1.00  0.00    -0.003 C 
ATOM     30  C   UNL     1      48.096  23.264  76.411  1.00  0.00     0.004 C 
ENDBRANCH  28  29
ENDBRANCH  27  28
ENDBRANCH  26  27
ENDBRANCH  25  26
ENDBRANCH  24  25
ENDBRANCH  23  24
ENDBRANCH  22  23
ENDBRANCH  21  22
ENDBRANCH  20  21
ENDBRANCH  19  20
ENDBRANCH  18  19
ENDBRANCH  17  18
ENDBRANCH   1  17
TORSDOF 26
ENDMDL
MODEL 9
REMARK VINA RESULT:    -3.294      3.125      5.897
REMARK INTER + INTRA:         -12.966
REMARK INTER:                  -7.480
REMARK INTRA:                  -5.486
REMARK UNBOUND:                -4.665
REMARK SMILES CCCCCCCCCCCCCCCCCCCCCCCCCCCC(=O)[O-]
REMARK SMILES IDX 15 1 16 2 17 3 18 4 19 5 20 6 21 7 22 8 23 9 24 10 25 11
REMARK SMILES IDX 26 12 27 13 28 14 29 15 30 16 14 17 13 18 12 19 11 20 10 21
REMARK SMILES IDX 9 22 8 23 7 24 6 25 5 26 4 27 3 28 2 29 1 30
REMARK H PARENT
REMARK Flexibility Score: inf
ROOT
ATOM      1  C   UNL     1      49.576  35.354  87.292  1.00  0.00     0.000 C 
ENDROOT
BRANCH   1   2
ATOM      2  C   UNL     1      48.617  34.159  87.147  1.00  0.00     0.000 C 
BRANCH   2   3
ATOM      3  C   UNL     1      49.183  32.864  87.747  1.00  0.00     0.000 C 
BRANCH   3   4
ATOM      4  C   UNL     1      48.120  31.758  87.874  1.00  0.00     0.000 C 
BRANCH   4   5
ATOM      5  C   UNL     1      47.132  32.022  89.023  1.00  0.00     0.000 C 
BRANCH   5   6
ATOM      6  C   UNL     1      47.449  31.188  90.274  1.00  0.00     0.000 C 
BRANCH   6   7
ATOM      7  C   UNL     1      48.261  29.938  89.912  1.00  0.00     0.000 C 
BRANCH   7   8
ATOM      8  C   UNL     1      49.448  29.759  90.866  1.00  0.00     0.000 C 
BRANCH   8   9
ATOM      9  C   UNL     1      50.742  30.304  90.246  1.00  0.00     0.000 C 
BRANCH   9  10
ATOM     10  C   UNL     1      51.061  31.742  90.696  1.00  0.00     0.000 C 
BRANCH  10  11
ATOM     11  C   UNL     1      52.152  32.456  89.875  1.00  0.00     0.000 C 
BRANCH  11  12
ATOM     12  C   UNL     1      53.473  32.717  90.629  1.00  0.00     0.006 C 
BRANCH  12  13
ATOM     13  C   UNL     1      54.627  31.786  90.226  1.00  0.00     0.053 C 
BRANCH  13  14
ATOM     14  C   UNL     1      54.822  30.681  91.218  1.00  0.00     0.041 C 
ATOM     15  O   UNL     1      55.756  29.850  91.064  1.00  0.00    -0.550 OA
ATOM     16  O   UNL     1      53.943  30.540  92.283  1.00  0.00    -0.550 OA
ENDBRANCH  13  14
ENDBRANCH  12  13
ENDBRANCH  11  12
ENDBRANCH  10  11
ENDBRANCH   9  10
ENDBRANCH   8   9
ENDBRANCH   7   8
ENDBRANCH   6   7
ENDBRANCH   5   6
ENDBRANCH   4   5
ENDBRANCH   3   4
ENDBRANCH   2   3
ENDBRANCH   1   2
BRANCH   1  17
ATOM     17  C   UNL     1      51.008  35.010  86.848  1.00  0.00     0.000 C 
BRANCH  17  18
ATOM     18  C   UNL     1      52.071  35.581  87.803  1.00  0.00     0.000 C 
BRANCH  18  19
ATOM     19  C   UNL     1      53.480  35.040  87.515  1.00  0.00     0.000 C 
BRANCH  19  20
ATOM     20  C   UNL     1      53.484  33.959  86.422  1.00  0.00     0.000 C 
BRANCH  20  21
ATOM     21  C   UNL     1      54.391  32.782  86.810  1.00  0.00     0.000 C 
BRANCH  21  22
ATOM     22  C   UNL     1      54.013  31.481  86.083  1.00  0.00    -0.000 C 
BRANCH  22  23
ATOM     23  C   UNL     1      53.197  30.525  86.972  1.00  0.00    -0.000 C 
BRANCH  23  24
ATOM     24  C   UNL     1      51.707  30.478  86.573  1.00  0.00    -0.000 C 
BRANCH  24  25
ATOM     25  C   UNL     1      51.382  31.251  85.277  1.00  0.00    -0.000 C 
BRANCH  25  26
ATOM     26  C   UNL     1      49.975  31.005  84.706  1.00  0.00    -0.000 C 
BRANCH  26  27
ATOM     27  C   UNL     1      49.623  31.844  83.462  1.00  0.00    -0.000 C 
BRANCH  27  28
ATOM     28  C   UNL     1      50.722  32.853  83.056  1.00  0.00    -0.000 C 
BRANCH  28  29
ATOM     29  C   UNL     1      50.445  34.296  83.514  1.00  0.00    -0.003 C 
ATOM     30  C   UNL     1      48.962  34.662  83.449  1.00  0.00     0.004 C 
ENDBRANCH  28  29
ENDBRANCH  27  28
ENDBRANCH  26  27
ENDBRANCH  25  26
ENDBRANCH  24  25
ENDBRANCH  23  24
ENDBRANCH  22  23
ENDBRANCH  21  22
ENDBRANCH  20  21
ENDBRANCH  19  20
ENDBRANCH  18  19
ENDBRANCH  17  18
ENDBRANCH   1  17
TORSDOF 26
ENDMDL
