MODEL 1
REMARK VINA RESULT:    -5.924      0.000      0.000
REMARK INTER + INTRA:         -15.547
REMARK INTER:                 -13.542
REMARK INTRA:                  -2.005
REMARK UNBOUND:                -2.005
REMARK SMILES CCCCCCCCCCCCCCCCCCCCCCCC(=O)[O-]
REMARK SMILES IDX 13 1 14 2 15 3 16 4 17 5 18 6 19 7 20 8 21 9 22 10 23 11
REMARK SMILES IDX 24 12 25 13 26 14 12 15 11 16 10 17 9 18 8 19 7 20 6 21 5 22
REMARK SMILES IDX 4 23 3 24 2 25 1 26
REMARK H PARENT
REMARK Flexibility Score: inf
ROOT
ATOM      1  C   UNL     1      90.457 324.648 200.029  1.00  0.00     0.000 C 
ENDROOT
BRANCH   1   2
ATOM      2  C   UNL     1      89.502 325.854 200.089  1.00  0.00     0.000 C 
BRANCH   2   3
ATOM      3  C   UNL     1      88.523 325.850 201.280  1.00  0.00     0.000 C 
BRANCH   3   4
ATOM      4  C   UNL     1      88.619 324.614 202.198  1.00  0.00     0.000 C 
BRANCH   4   5
ATOM      5  C   UNL     1      87.271 324.105 202.747  1.00  0.00     0.000 C 
BRANCH   5   6
ATOM      6  C   UNL     1      87.345 323.446 204.135  1.00  0.00     0.000 C 
BRANCH   6   7
ATOM      7  C   UNL     1      86.331 324.036 205.130  1.00  0.00     0.000 C 
BRANCH   7   8
ATOM      8  C   UNL     1      86.939 325.134 206.019  1.00  0.00     0.000 C 
BRANCH   8   9
ATOM      9  C   UNL     1      88.459 325.333 205.858  1.00  0.00     0.000 C 
BRANCH   9  10
ATOM     10  C   UNL     1      88.939 326.797 205.917  1.00  0.00     0.006 C 
BRANCH  10  11
ATOM     11  C   UNL     1      89.290 327.406 204.551  1.00  0.00     0.053 C 
BRANCH  11  12
ATOM     12  C   UNL     1      90.764 327.389 204.288  1.00  0.00     0.041 C 
ATOM     13  O   UNL     1      91.579 327.373 205.248  1.00  0.00    -0.550 OA
ATOM     14  O   UNL     1      91.238 327.352 202.983  1.00  0.00    -0.550 OA
ENDBRANCH  11  12
ENDBRANCH  10  11
ENDBRANCH   9  10
ENDBRANCH   8   9
ENDBRANCH   7   8
ENDBRANCH   6   7
ENDBRANCH   5   6
ENDBRANCH   4   5
ENDBRANCH   3   4
ENDBRANCH   2   3
ENDBRANCH   1   2
BRANCH   1  15
ATOM     15  C   UNL     1      90.314 323.836 198.731  1.00  0.00     0.000 C 
BRANCH  15  16
ATOM     16  C   UNL     1      88.849 323.599 198.333  1.00  0.00     0.000 C 
BRANCH  16  17
ATOM     17  C   UNL     1      88.575 323.943 196.860  1.00  0.00     0.000 C 
BRANCH  17  18
ATOM     18  C   UNL     1      88.813 325.429 196.537  1.00  0.00    -0.000 C 
BRANCH  18  19
ATOM     19  C   UNL     1      87.639 326.149 195.842  1.00  0.00    -0.000 C 
BRANCH  19  20
ATOM     20  C   UNL     1      87.886 326.542 194.375  1.00  0.00    -0.000 C 
BRANCH  20  21
ATOM     21  C   UNL     1      87.146 325.636 193.380  1.00  0.00    -0.000 C 
BRANCH  21  22
ATOM     22  C   UNL     1      88.089 324.575 192.794  1.00  0.00    -0.000 C 
BRANCH  22  23
ATOM     23  C   UNL     1      87.643 324.089 191.405  1.00  0.00    -0.000 C 
BRANCH  23  24
ATOM     24  C   UNL     1      88.619 323.069 190.794  1.00  0.00    -0.000 C 
BRANCH  24  25
ATOM     25  C   UNL     1      88.694 323.171 189.263  1.00  0.00    -0.003 C 
ATOM     26  C   UNL     1      87.836 322.119 188.559  1.00  0.00     0.004 C 
ENDBRANCH  24  25
ENDBRANCH  23  24
ENDBRANCH  22  23
ENDBRANCH  21  22
ENDBRANCH  20  21
ENDBRANCH  19  20
ENDBRANCH  18  19
ENDBRANCH  17  18
ENDBRANCH  16  17
ENDBRANCH  15  16
ENDBRANCH   1  15
TORSDOF 22
ENDMDL
MODEL 2
REMARK VINA RESULT:    -5.871      1.659      2.859
REMARK INTER + INTRA:         -15.427
REMARK INTER:                 -13.114
REMARK INTRA:                  -2.313
REMARK UNBOUND:                -2.005
REMARK SMILES CCCCCCCCCCCCCCCCCCCCCCCC(=O)[O-]
REMARK SMILES IDX 13 1 14 2 15 3 16 4 17 5 18 6 19 7 20 8 21 9 22 10 23 11
REMARK SMILES IDX 24 12 25 13 26 14 12 15 11 16 10 17 9 18 8 19 7 20 6 21 5 22
REMARK SMILES IDX 4 23 3 24 2 25 1 26
REMARK H PARENT
REMARK Flexibility Score: inf
ROOT
ATOM      1  C   UNL     1      89.290 323.608 199.092  1.00  0.00     0.000 C 
ENDROOT
BRANCH   1   2
ATOM      2  C   UNL     1      89.903 324.998 199.345  1.00  0.00     0.000 C 
BRANCH   2   3
ATOM      3  C   UNL     1      88.935 326.034 199.951  1.00  0.00     0.000 C 
BRANCH   3   4
ATOM      4  C   UNL     1      89.202 326.392 201.426  1.00  0.00     0.000 C 
BRANCH   4   5
ATOM      5  C   UNL     1      90.689 326.570 201.794  1.00  0.00     0.000 C 
BRANCH   5   6
ATOM      6  C   UNL     1      90.943 327.247 203.152  1.00  0.00     0.000 C 
BRANCH   6   7
ATOM      7  C   UNL     1      89.647 327.507 203.939  1.00  0.00     0.000 C 
BRANCH   7   8
ATOM      8  C   UNL     1      89.775 327.150 205.430  1.00  0.00     0.000 C 
BRANCH   8   9
ATOM      9  C   UNL     1      88.518 326.513 206.055  1.00  0.00     0.000 C 
BRANCH   9  10
ATOM     10  C   UNL     1      88.631 325.007 206.365  1.00  0.00     0.006 C 
BRANCH  10  11
ATOM     11  C   UNL     1      87.677 324.118 205.553  1.00  0.00     0.053 C 
BRANCH  11  12
ATOM     12  C   UNL     1      88.098 324.001 204.121  1.00  0.00     0.041 C 
ATOM     13  O   UNL     1      89.296 323.742 203.832  1.00  0.00    -0.550 OA
ATOM     14  O   UNL     1      87.161 324.141 203.106  1.00  0.00    -0.550 OA
ENDBRANCH  11  12
ENDBRANCH  10  11
ENDBRANCH   9  10
ENDBRANCH   8   9
ENDBRANCH   7   8
ENDBRANCH   6   7
ENDBRANCH   5   6
ENDBRANCH   4   5
ENDBRANCH   3   4
ENDBRANCH   2   3
ENDBRANCH   1   2
BRANCH   1  15
ATOM     15  C   UNL     1      88.418 323.562 197.825  1.00  0.00     0.000 C 
BRANCH  15  16
ATOM     16  C   UNL     1      88.965 324.441 196.691  1.00  0.00     0.000 C 
BRANCH  16  17
ATOM     17  C   UNL     1      88.007 325.584 196.317  1.00  0.00     0.000 C 
BRANCH  17  18
ATOM     18  C   UNL     1      88.567 326.498 195.211  1.00  0.00    -0.000 C 
BRANCH  18  19
ATOM     19  C   UNL     1      87.612 326.760 194.028  1.00  0.00    -0.000 C 
BRANCH  19  20
ATOM     20  C   UNL     1      86.262 326.026 194.098  1.00  0.00    -0.000 C 
BRANCH  20  21
ATOM     21  C   UNL     1      86.111 324.944 193.018  1.00  0.00    -0.000 C 
BRANCH  21  22
ATOM     22  C   UNL     1      86.824 323.648 193.433  1.00  0.00    -0.000 C 
BRANCH  22  23
ATOM     23  C   UNL     1      88.134 323.421 192.664  1.00  0.00    -0.000 C 
BRANCH  23  24
ATOM     24  C   UNL     1      88.260 324.332 191.429  1.00  0.00    -0.000 C 
BRANCH  24  25
ATOM     25  C   UNL     1      88.583 323.545 190.149  1.00  0.00    -0.003 C 
ATOM     26  C   UNL     1      87.464 322.581 189.752  1.00  0.00     0.004 C 
ENDBRANCH  24  25
ENDBRANCH  23  24
ENDBRANCH  22  23
ENDBRANCH  21  22
ENDBRANCH  20  21
ENDBRANCH  19  20
ENDBRANCH  18  19
ENDBRANCH  17  18
ENDBRANCH  16  17
ENDBRANCH  15  16
ENDBRANCH   1  15
TORSDOF 22
ENDMDL
MODEL 3
REMARK VINA RESULT:    -5.866      4.377     11.680
REMARK INTER + INTRA:         -15.416
REMARK INTER:                 -13.299
REMARK INTRA:                  -2.117
REMARK UNBOUND:                -2.005
REMARK SMILES CCCCCCCCCCCCCCCCCCCCCCCC(=O)[O-]
REMARK SMILES IDX 13 1 14 2 15 3 16 4 17 5 18 6 19 7 20 8 21 9 22 10 23 11
REMARK SMILES IDX 24 12 25 13 26 14 12 15 11 16 10 17 9 18 8 19 7 20 6 21 5 22
REMARK SMILES IDX 4 23 3 24 2 25 1 26
REMARK H PARENT
REMARK Flexibility Score: inf
ROOT
ATOM      1  C   UNL     1      89.213 325.529 198.832  1.00  0.00     0.000 C 
ENDROOT
BRANCH   1   2
ATOM      2  C   UNL     1      88.523 326.395 197.763  1.00  0.00     0.000 C 
BRANCH   2   3
ATOM      3  C   UNL     1      88.282 325.691 196.413  1.00  0.00     0.000 C 
BRANCH   3   4
ATOM      4  C   UNL     1      88.674 326.514 195.169  1.00  0.00     0.000 C 
BRANCH   4   5
ATOM      5  C   UNL     1      87.499 326.904 194.250  1.00  0.00     0.000 C 
BRANCH   5   6
ATOM      6  C   UNL     1      86.228 326.055 194.430  1.00  0.00     0.000 C 
BRANCH   6   7
ATOM      7  C   UNL     1      86.027 325.035 193.295  1.00  0.00     0.000 C 
BRANCH   7   8
ATOM      8  C   UNL     1      86.822 323.737 193.514  1.00  0.00     0.000 C 
BRANCH   8   9
ATOM      9  C   UNL     1      88.163 323.661 192.758  1.00  0.00     0.000 C 
BRANCH   9  10
ATOM     10  C   UNL     1      88.166 324.313 191.360  1.00  0.00     0.006 C 
BRANCH  10  11
ATOM     11  C   UNL     1      88.009 323.321 190.197  1.00  0.00     0.053 C 
BRANCH  11  12
ATOM     12  C   UNL     1      89.332 322.886 189.646  1.00  0.00     0.041 C 
ATOM     13  O   UNL     1      89.916 321.877 190.121  1.00  0.00    -0.550 OA
ATOM     14  O   UNL     1      89.903 323.573 188.582  1.00  0.00    -0.550 OA
ENDBRANCH  11  12
ENDBRANCH  10  11
ENDBRANCH   9  10
ENDBRANCH   8   9
ENDBRANCH   7   8
ENDBRANCH   6   7
ENDBRANCH   5   6
ENDBRANCH   4   5
ENDBRANCH   3   4
ENDBRANCH   2   3
ENDBRANCH   1   2
BRANCH   1  15
ATOM     15  C   UNL     1      89.634 326.334 200.074  1.00  0.00     0.000 C 
BRANCH  15  16
ATOM     16  C   UNL     1      88.771 326.024 201.307  1.00  0.00     0.000 C 
BRANCH  16  17
ATOM     17  C   UNL     1      89.167 326.868 202.530  1.00  0.00     0.000 C 
BRANCH  17  18
ATOM     18  C   UNL     1      90.685 326.879 202.784  1.00  0.00    -0.000 C 
BRANCH  18  19
ATOM     19  C   UNL     1      91.106 327.147 204.244  1.00  0.00    -0.000 C 
BRANCH  19  20
ATOM     20  C   UNL     1      89.950 327.430 205.220  1.00  0.00    -0.000 C 
BRANCH  20  21
ATOM     21  C   UNL     1      90.032 326.592 206.504  1.00  0.00    -0.000 C 
BRANCH  21  22
ATOM     22  C   UNL     1      88.647 326.064 206.906  1.00  0.00    -0.000 C 
BRANCH  22  23
ATOM     23  C   UNL     1      87.782 325.687 205.693  1.00  0.00    -0.000 C 
BRANCH  23  24
ATOM     24  C   UNL     1      87.025 324.363 205.894  1.00  0.00    -0.000 C 
BRANCH  24  25
ATOM     25  C   UNL     1      87.622 323.213 205.068  1.00  0.00    -0.003 C 
ATOM     26  C   UNL     1      88.859 323.636 204.276  1.00  0.00     0.004 C 
ENDBRANCH  24  25
ENDBRANCH  23  24
ENDBRANCH  22  23
ENDBRANCH  21  22
ENDBRANCH  20  21
ENDBRANCH  19  20
ENDBRANCH  18  19
ENDBRANCH  17  18
ENDBRANCH  16  17
ENDBRANCH  15  16
ENDBRANCH   1  15
TORSDOF 22
ENDMDL
MODEL 4
REMARK VINA RESULT:    -5.837      2.200      3.324
REMARK INTER + INTRA:         -15.349
REMARK INTER:                 -13.516
REMARK INTRA:                  -1.832
REMARK UNBOUND:                -2.005
REMARK SMILES CCCCCCCCCCCCCCCCCCCCCCCC(=O)[O-]
REMARK SMILES IDX 13 1 14 2 15 3 16 4 17 5 18 6 19 7 20 8 21 9 22 10 23 11
REMARK SMILES IDX 24 12 25 13 26 14 12 15 11 16 10 17 9 18 8 19 7 20 6 21 5 22
REMARK SMILES IDX 4 23 3 24 2 25 1 26
REMARK H PARENT
REMARK Flexibility Score: inf
ROOT
ATOM      1  C   UNL     1      89.203 325.563 200.028  1.00  0.00     0.000 C 
ENDROOT
BRANCH   1   2
ATOM      2  C   UNL     1      89.908 325.644 201.394  1.00  0.00     0.000 C 
BRANCH   2   3
ATOM      3  C   UNL     1      89.189 326.513 202.446  1.00  0.00     0.000 C 
BRANCH   3   4
ATOM      4  C   UNL     1      90.115 327.181 203.482  1.00  0.00     0.000 C 
BRANCH   4   5
ATOM      5  C   UNL     1      89.504 327.350 204.888  1.00  0.00     0.000 C 
BRANCH   5   6
ATOM      6  C   UNL     1      90.050 326.381 205.950  1.00  0.00     0.000 C 
BRANCH   6   7
ATOM      7  C   UNL     1      88.937 325.690 206.756  1.00  0.00     0.000 C 
BRANCH   7   8
ATOM      8  C   UNL     1      87.586 325.684 206.021  1.00  0.00     0.000 C 
BRANCH   8   9
ATOM      9  C   UNL     1      86.855 324.327 206.016  1.00  0.00     0.000 C 
BRANCH   9  10
ATOM     10  C   UNL     1      86.433 323.815 204.624  1.00  0.00     0.006 C 
BRANCH  10  11
ATOM     11  C   UNL     1      87.592 323.650 203.629  1.00  0.00     0.053 C 
BRANCH  11  12
ATOM     12  C   UNL     1      87.278 322.650 202.559  1.00  0.00     0.041 C 
ATOM     13  O   UNL     1      87.134 323.024 201.365  1.00  0.00    -0.550 OA
ATOM     14  O   UNL     1      87.179 321.301 202.875  1.00  0.00    -0.550 OA
ENDBRANCH  11  12
ENDBRANCH  10  11
ENDBRANCH   9  10
ENDBRANCH   8   9
ENDBRANCH   7   8
ENDBRANCH   6   7
ENDBRANCH   5   6
ENDBRANCH   4   5
ENDBRANCH   3   4
ENDBRANCH   2   3
ENDBRANCH   1   2
BRANCH   1  15
ATOM     15  C   UNL     1      89.230 326.898 199.262  1.00  0.00     0.000 C 
BRANCH  15  16
ATOM     16  C   UNL     1      88.681 326.776 197.833  1.00  0.00     0.000 C 
BRANCH  16  17
ATOM     17  C   UNL     1      88.798 325.347 197.276  1.00  0.00     0.000 C 
BRANCH  17  18
ATOM     18  C   UNL     1      88.296 325.226 195.826  1.00  0.00    -0.000 C 
BRANCH  18  19
ATOM     19  C   UNL     1      88.437 326.503 194.971  1.00  0.00    -0.000 C 
BRANCH  19  20
ATOM     20  C   UNL     1      87.637 326.502 193.655  1.00  0.00    -0.000 C 
BRANCH  20  21
ATOM     21  C   UNL     1      86.467 325.509 193.666  1.00  0.00    -0.000 C 
BRANCH  21  22
ATOM     22  C   UNL     1      86.663 324.414 192.606  1.00  0.00    -0.000 C 
BRANCH  22  23
ATOM     23  C   UNL     1      87.975 324.579 191.822  1.00  0.00    -0.000 C 
BRANCH  23  24
ATOM     24  C   UNL     1      88.461 323.259 191.198  1.00  0.00    -0.000 C 
BRANCH  24  25
ATOM     25  C   UNL     1      88.280 323.228 189.673  1.00  0.00    -0.003 C 
ATOM     26  C   UNL     1      89.558 323.595 188.920  1.00  0.00     0.004 C 
ENDBRANCH  24  25
ENDBRANCH  23  24
ENDBRANCH  22  23
ENDBRANCH  21  22
ENDBRANCH  20  21
ENDBRANCH  19  20
ENDBRANCH  18  19
ENDBRANCH  17  18
ENDBRANCH  16  17
ENDBRANCH  15  16
ENDBRANCH   1  15
TORSDOF 22
ENDMDL
MODEL 5
REMARK VINA RESULT:    -5.817      3.661     10.291
REMARK INTER + INTRA:         -15.304
REMARK INTER:                 -12.549
REMARK INTRA:                  -2.755
REMARK UNBOUND:                -2.005
REMARK SMILES CCCCCCCCCCCCCCCCCCCCCCCC(=O)[O-]
REMARK SMILES IDX 13 1 14 2 15 3 16 4 17 5 18 6 19 7 20 8 21 9 22 10 23 11
REMARK SMILES IDX 24 12 25 13 26 14 12 15 11 16 10 17 9 18 8 19 7 20 6 21 5 22
REMARK SMILES IDX 4 23 3 24 2 25 1 26
REMARK H PARENT
REMARK Flexibility Score: inf
ROOT
ATOM      1  C   UNL     1      90.593 325.990 201.026  1.00  0.00     0.000 C 
ENDROOT
BRANCH   1   2
ATOM      2  C   UNL     1      89.369 326.489 200.238  1.00  0.00     0.000 C 
BRANCH   2   3
ATOM      3  C   UNL     1      89.194 325.858 198.842  1.00  0.00     0.000 C 
BRANCH   3   4
ATOM      4  C   UNL     1      89.665 324.395 198.724  1.00  0.00     0.000 C 
BRANCH   4   5
ATOM      5  C   UNL     1      88.800 323.504 197.810  1.00  0.00     0.000 C 
BRANCH   5   6
ATOM      6  C   UNL     1      88.780 323.922 196.330  1.00  0.00     0.000 C 
BRANCH   6   7
ATOM      7  C   UNL     1      87.561 324.788 195.972  1.00  0.00     0.000 C 
BRANCH   7   8
ATOM      8  C   UNL     1      87.944 326.074 195.219  1.00  0.00     0.000 C 
BRANCH   8   9
ATOM      9  C   UNL     1      87.510 326.115 193.741  1.00  0.00     0.000 C 
BRANCH   9  10
ATOM     10  C   UNL     1      86.251 325.291 193.404  1.00  0.00     0.006 C 
BRANCH  10  11
ATOM     11  C   UNL     1      86.445 324.269 192.272  1.00  0.00     0.053 C 
BRANCH  11  12
ATOM     12  C   UNL     1      87.891 323.958 192.037  1.00  0.00     0.041 C 
ATOM     13  O   UNL     1      88.481 324.414 191.023  1.00  0.00    -0.550 OA
ATOM     14  O   UNL     1      88.597 323.193 192.958  1.00  0.00    -0.550 OA
ENDBRANCH  11  12
ENDBRANCH  10  11
ENDBRANCH   9  10
ENDBRANCH   8   9
ENDBRANCH   7   8
ENDBRANCH   6   7
ENDBRANCH   5   6
ENDBRANCH   4   5
ENDBRANCH   3   4
ENDBRANCH   2   3
ENDBRANCH   1   2
BRANCH   1  15
ATOM     15  C   UNL     1      90.573 326.428 202.501  1.00  0.00     0.000 C 
BRANCH  15  16
ATOM     16  C   UNL     1      89.173 326.837 202.983  1.00  0.00     0.000 C 
BRANCH  16  17
ATOM     17  C   UNL     1      89.191 327.447 204.395  1.00  0.00     0.000 C 
BRANCH  17  18
ATOM     18  C   UNL     1      90.027 326.625 205.392  1.00  0.00    -0.000 C 
BRANCH  18  19
ATOM     19  C   UNL     1      89.244 326.045 206.588  1.00  0.00    -0.000 C 
BRANCH  19  20
ATOM     20  C   UNL     1      88.414 324.786 206.280  1.00  0.00    -0.000 C 
BRANCH  20  21
ATOM     21  C   UNL     1      86.919 325.084 206.098  1.00  0.00    -0.000 C 
BRANCH  21  22
ATOM     22  C   UNL     1      86.239 323.996 205.253  1.00  0.00    -0.000 C 
BRANCH  22  23
ATOM     23  C   UNL     1      87.140 323.476 204.123  1.00  0.00    -0.000 C 
BRANCH  23  24
ATOM     24  C   UNL     1      86.680 323.951 202.733  1.00  0.00    -0.000 C 
BRANCH  24  25
ATOM     25  C   UNL     1      87.601 323.456 201.607  1.00  0.00    -0.003 C 
ATOM     26  C   UNL     1      88.932 322.914 202.130  1.00  0.00     0.004 C 
ENDBRANCH  24  25
ENDBRANCH  23  24
ENDBRANCH  22  23
ENDBRANCH  21  22
ENDBRANCH  20  21
ENDBRANCH  19  20
ENDBRANCH  18  19
ENDBRANCH  17  18
ENDBRANCH  16  17
ENDBRANCH  15  16
ENDBRANCH   1  15
TORSDOF 22
ENDMDL
MODEL 6
REMARK VINA RESULT:    -5.806      4.791     11.636
REMARK INTER + INTRA:         -15.278
REMARK INTER:                 -13.036
REMARK INTRA:                  -2.242
REMARK UNBOUND:                -2.005
REMARK SMILES CCCCCCCCCCCCCCCCCCCCCCCC(=O)[O-]
REMARK SMILES IDX 13 1 14 2 15 3 16 4 17 5 18 6 19 7 20 8 21 9 22 10 23 11
REMARK SMILES IDX 24 12 25 13 26 14 12 15 11 16 10 17 9 18 8 19 7 20 6 21 5 22
REMARK SMILES IDX 4 23 3 24 2 25 1 26
REMARK H PARENT
REMARK Flexibility Score: inf
ROOT
ATOM      1  C   UNL     1      89.625 325.611 200.021  1.00  0.00     0.000 C 
ENDROOT
BRANCH   1   2
ATOM      2  C   UNL     1      89.228 325.257 198.577  1.00  0.00     0.000 C 
BRANCH   2   3
ATOM      3  C   UNL     1      88.650 326.427 197.757  1.00  0.00     0.000 C 
BRANCH   3   4
ATOM      4  C   UNL     1      87.957 326.022 196.440  1.00  0.00     0.000 C 
BRANCH   4   5
ATOM      5  C   UNL     1      88.643 326.537 195.158  1.00  0.00     0.000 C 
BRANCH   5   6
ATOM      6  C   UNL     1      87.690 326.824 193.986  1.00  0.00     0.000 C 
BRANCH   6   7
ATOM      7  C   UNL     1      86.491 325.862 193.943  1.00  0.00     0.000 C 
BRANCH   7   8
ATOM      8  C   UNL     1      86.807 324.548 193.208  1.00  0.00     0.000 C 
BRANCH   8   9
ATOM      9  C   UNL     1      87.865 324.666 192.094  1.00  0.00     0.000 C 
BRANCH   9  10
ATOM     10  C   UNL     1      87.763 323.607 190.977  1.00  0.00     0.006 C 
BRANCH  10  11
ATOM     11  C   UNL     1      88.962 323.579 190.017  1.00  0.00     0.053 C 
BRANCH  11  12
ATOM     12  C   UNL     1      88.725 322.672 188.848  1.00  0.00     0.041 C 
ATOM     13  O   UNL     1      87.553 322.454 188.443  1.00  0.00    -0.550 OA
ATOM     14  O   UNL     1      89.802 322.098 188.184  1.00  0.00    -0.550 OA
ENDBRANCH  11  12
ENDBRANCH  10  11
ENDBRANCH   9  10
ENDBRANCH   8   9
ENDBRANCH   7   8
ENDBRANCH   6   7
ENDBRANCH   5   6
ENDBRANCH   4   5
ENDBRANCH   3   4
ENDBRANCH   2   3
ENDBRANCH   1   2
BRANCH   1  15
ATOM     15  C   UNL     1      90.092 324.388 200.830  1.00  0.00     0.000 C 
BRANCH  15  16
ATOM     16  C   UNL     1      89.095 323.981 201.926  1.00  0.00     0.000 C 
BRANCH  16  17
ATOM     17  C   UNL     1      87.829 324.854 201.924  1.00  0.00     0.000 C 
BRANCH  17  18
ATOM     18  C   UNL     1      86.622 324.160 202.581  1.00  0.00    -0.000 C 
BRANCH  18  19
ATOM     19  C   UNL     1      86.952 323.284 203.808  1.00  0.00    -0.000 C 
BRANCH  19  20
ATOM     20  C   UNL     1      86.904 324.010 205.164  1.00  0.00    -0.000 C 
BRANCH  20  21
ATOM     21  C   UNL     1      88.263 324.588 205.582  1.00  0.00    -0.000 C 
BRANCH  21  22
ATOM     22  C   UNL     1      88.126 326.052 206.027  1.00  0.00    -0.000 C 
BRANCH  22  23
ATOM     23  C   UNL     1      89.330 326.912 205.610  1.00  0.00    -0.000 C 
BRANCH  23  24
ATOM     24  C   UNL     1      89.219 327.422 204.162  1.00  0.00    -0.000 C 
BRANCH  24  25
ATOM     25  C   UNL     1      90.501 327.175 203.352  1.00  0.00    -0.003 C 
ATOM     26  C   UNL     1      91.404 326.117 203.986  1.00  0.00     0.004 C 
ENDBRANCH  24  25
ENDBRANCH  23  24
ENDBRANCH  22  23
ENDBRANCH  21  22
ENDBRANCH  20  21
ENDBRANCH  19  20
ENDBRANCH  18  19
ENDBRANCH  17  18
ENDBRANCH  16  17
ENDBRANCH  15  16
ENDBRANCH   1  15
TORSDOF 22
ENDMDL
MODEL 7
REMARK VINA RESULT:    -5.778      6.159      9.423
REMARK INTER + INTRA:         -15.215
REMARK INTER:                 -12.931
REMARK INTRA:                  -2.284
REMARK UNBOUND:                -2.005
REMARK SMILES CCCCCCCCCCCCCCCCCCCCCCCC(=O)[O-]
REMARK SMILES IDX 13 1 14 2 15 3 16 4 17 5 18 6 19 7 20 8 21 9 22 10 23 11
REMARK SMILES IDX 24 12 25 13 26 14 12 15 11 16 10 17 9 18 8 19 7 20 6 21 5 22
REMARK SMILES IDX 4 23 3 24 2 25 1 26
REMARK H PARENT
REMARK Flexibility Score: inf
ROOT
ATOM      1  C   UNL     1      88.169 324.250 191.409  1.00  0.00     0.000 C 
ENDROOT
BRANCH   1   2
ATOM      2  C   UNL     1      87.283 324.740 192.569  1.00  0.00     0.000 C 
BRANCH   2   3
ATOM      3  C   UNL     1      87.853 325.932 193.363  1.00  0.00     0.000 C 
BRANCH   3   4
ATOM      4  C   UNL     1      86.855 326.616 194.319  1.00  0.00     0.000 C 
BRANCH   4   5
ATOM      5  C   UNL     1      86.967 326.183 195.795  1.00  0.00     0.000 C 
BRANCH   5   6
ATOM      6  C   UNL     1      88.380 326.284 196.394  1.00  0.00     0.000 C 
BRANCH   6   7
ATOM      7  C   UNL     1      88.966 324.913 196.773  1.00  0.00     0.000 C 
BRANCH   7   8
ATOM      8  C   UNL     1      87.982 323.757 196.529  1.00  0.00     0.000 C 
BRANCH   8   9
ATOM      9  C   UNL     1      88.633 322.433 196.082  1.00  0.00     0.000 C 
BRANCH   9  10
ATOM     10  C   UNL     1      88.953 322.336 194.577  1.00  0.00     0.006 C 
BRANCH  10  11
ATOM     11  C   UNL     1      88.460 321.045 193.904  1.00  0.00     0.053 C 
BRANCH  11  12
ATOM     12  C   UNL     1      87.003 320.802 194.153  1.00  0.00     0.041 C 
ATOM     13  O   UNL     1      86.134 321.451 193.513  1.00  0.00    -0.550 OA
ATOM     14  O   UNL     1      86.605 319.834 195.066  1.00  0.00    -0.550 OA
ENDBRANCH  11  12
ENDBRANCH  10  11
ENDBRANCH   9  10
ENDBRANCH   8   9
ENDBRANCH   7   8
ENDBRANCH   6   7
ENDBRANCH   5   6
ENDBRANCH   4   5
ENDBRANCH   3   4
ENDBRANCH   2   3
ENDBRANCH   1   2
BRANCH   1  15
ATOM     15  C   UNL     1      87.537 323.086 190.625  1.00  0.00     0.000 C 
BRANCH  15  16
ATOM     16  C   UNL     1      88.237 322.823 189.283  1.00  0.00     0.000 C 
BRANCH  16  17
ATOM     17  C   UNL     1      89.434 323.758 189.049  1.00  0.00     0.000 C 
BRANCH  17  18
ATOM     18  C   UNL     1      90.647 323.037 188.433  1.00  0.00    -0.000 C 
BRANCH  18  19
ATOM     19  C   UNL     1      91.241 321.899 189.289  1.00  0.00    -0.000 C 
BRANCH  19  20
ATOM     20  C   UNL     1      92.751 321.664 189.111  1.00  0.00    -0.000 C 
BRANCH  20  21
ATOM     21  C   UNL     1      93.565 322.966 189.120  1.00  0.00    -0.000 C 
BRANCH  21  22
ATOM     22  C   UNL     1      95.011 322.710 189.571  1.00  0.00    -0.000 C 
BRANCH  22  23
ATOM     23  C   UNL     1      95.369 323.463 190.862  1.00  0.00    -0.000 C 
BRANCH  23  24
ATOM     24  C   UNL     1      95.137 324.980 190.745  1.00  0.00    -0.000 C 
BRANCH  24  25
ATOM     25  C   UNL     1      95.864 325.772 191.842  1.00  0.00    -0.003 C 
ATOM     26  C   UNL     1      95.268 325.540 193.231  1.00  0.00     0.004 C 
ENDBRANCH  24  25
ENDBRANCH  23  24
ENDBRANCH  22  23
ENDBRANCH  21  22
ENDBRANCH  20  21
ENDBRANCH  19  20
ENDBRANCH  18  19
ENDBRANCH  17  18
ENDBRANCH  16  17
ENDBRANCH  15  16
ENDBRANCH   1  15
TORSDOF 22
ENDMDL
MODEL 8
REMARK VINA RESULT:    -5.737      1.034      2.103
REMARK INTER + INTRA:         -15.119
REMARK INTER:                 -13.631
REMARK INTRA:                  -1.487
REMARK UNBOUND:                -2.005
REMARK SMILES CCCCCCCCCCCCCCCCCCCCCCCC(=O)[O-]
REMARK SMILES IDX 13 1 14 2 15 3 16 4 17 5 18 6 19 7 20 8 21 9 22 10 23 11
REMARK SMILES IDX 24 12 25 13 26 14 12 15 11 16 10 17 9 18 8 19 7 20 6 21 5 22
REMARK SMILES IDX 4 23 3 24 2 25 1 26
REMARK H PARENT
REMARK Flexibility Score: inf
ROOT
ATOM      1  C   UNL     1      89.251 325.630 199.074  1.00  0.00     0.000 C 
ENDROOT
BRANCH   1   2
ATOM      2  C   UNL     1      89.459 326.463 200.352  1.00  0.00     0.000 C 
BRANCH   2   3
ATOM      3  C   UNL     1      88.481 326.144 201.501  1.00  0.00     0.000 C 
BRANCH   3   4
ATOM      4  C   UNL     1      88.459 324.668 201.948  1.00  0.00     0.000 C 
BRANCH   4   5
ATOM      5  C   UNL     1      87.057 324.029 202.014  1.00  0.00     0.000 C 
BRANCH   5   6
ATOM      6  C   UNL     1      86.959 322.778 202.904  1.00  0.00     0.000 C 
BRANCH   6   7
ATOM      7  C   UNL     1      87.300 323.065 204.376  1.00  0.00     0.000 C 
BRANCH   7   8
ATOM      8  C   UNL     1      86.245 323.940 205.073  1.00  0.00     0.000 C 
BRANCH   8   9
ATOM      9  C   UNL     1      86.814 325.035 205.996  1.00  0.00     0.000 C 
BRANCH   9  10
ATOM     10  C   UNL     1      88.349 325.182 205.969  1.00  0.00     0.006 C 
BRANCH  10  11
ATOM     11  C   UNL     1      88.846 326.626 205.790  1.00  0.00     0.053 C 
BRANCH  11  12
ATOM     12  C   UNL     1      90.030 326.704 204.877  1.00  0.00     0.041 C 
ATOM     13  O   UNL     1      90.132 327.648 204.050  1.00  0.00    -0.550 OA
ATOM     14  O   UNL     1      91.041 325.755 204.966  1.00  0.00    -0.550 OA
ENDBRANCH  11  12
ENDBRANCH  10  11
ENDBRANCH   9  10
ENDBRANCH   8   9
ENDBRANCH   7   8
ENDBRANCH   6   7
ENDBRANCH   5   6
ENDBRANCH   4   5
ENDBRANCH   3   4
ENDBRANCH   2   3
ENDBRANCH   1   2
BRANCH   1  15
ATOM     15  C   UNL     1      88.678 326.456 197.909  1.00  0.00     0.000 C 
BRANCH  15  16
ATOM     16  C   UNL     1      88.579 325.655 196.602  1.00  0.00     0.000 C 
BRANCH  16  17
ATOM     17  C   UNL     1      87.273 325.931 195.840  1.00  0.00     0.000 C 
BRANCH  17  18
ATOM     18  C   UNL     1      87.510 326.515 194.435  1.00  0.00    -0.000 C 
BRANCH  18  19
ATOM     19  C   UNL     1      87.035 325.630 193.264  1.00  0.00    -0.000 C 
BRANCH  19  20
ATOM     20  C   UNL     1      88.095 324.671 192.694  1.00  0.00    -0.000 C 
BRANCH  20  21
ATOM     21  C   UNL     1      87.604 323.900 191.461  1.00  0.00    -0.000 C 
BRANCH  21  22
ATOM     22  C   UNL     1      88.726 323.747 190.423  1.00  0.00    -0.000 C 
BRANCH  22  23
ATOM     23  C   UNL     1      88.296 322.912 189.206  1.00  0.00    -0.000 C 
BRANCH  23  24
ATOM     24  C   UNL     1      86.848 322.403 189.320  1.00  0.00    -0.000 C 
BRANCH  24  25
ATOM     25  C   UNL     1      86.385 321.660 188.057  1.00  0.00    -0.003 C 
ATOM     26  C   UNL     1      87.458 320.727 187.495  1.00  0.00     0.004 C 
ENDBRANCH  24  25
ENDBRANCH  23  24
ENDBRANCH  22  23
ENDBRANCH  21  22
ENDBRANCH  20  21
ENDBRANCH  19  20
ENDBRANCH  18  19
ENDBRANCH  17  18
ENDBRANCH  16  17
ENDBRANCH  15  16
ENDBRANCH   1  15
TORSDOF 22
ENDMDL
MODEL 9
REMARK VINA RESULT:    -5.682     18.451     22.820
REMARK INTER + INTRA:         -14.993
REMARK INTER:                 -13.368
REMARK INTRA:                  -1.625
REMARK UNBOUND:                -2.005
REMARK SMILES CCCCCCCCCCCCCCCCCCCCCCCC(=O)[O-]
REMARK SMILES IDX 13 1 14 2 15 3 16 4 17 5 18 6 19 7 20 8 21 9 22 10 23 11
REMARK SMILES IDX 24 12 25 13 26 14 12 15 11 16 10 17 9 18 8 19 7 20 6 21 5 22
REMARK SMILES IDX 4 23 3 24 2 25 1 26
REMARK H PARENT
REMARK Flexibility Score: inf
ROOT
ATOM      1  C   UNL     1     103.670 312.947 196.580  1.00  0.00     0.000 C 
ENDROOT
BRANCH   1   2
ATOM      2  C   UNL     1     104.317 313.283 195.224  1.00  0.00     0.000 C 
BRANCH   2   3
ATOM      3  C   UNL     1     105.223 312.178 194.645  1.00  0.00     0.000 C 
BRANCH   3   4
ATOM      4  C   UNL     1     104.700 311.513 193.356  1.00  0.00     0.000 C 
BRANCH   4   5
ATOM      5  C   UNL     1     104.467 312.477 192.176  1.00  0.00     0.000 C 
BRANCH   5   6
ATOM      6  C   UNL     1     105.701 313.293 191.753  1.00  0.00     0.000 C 
BRANCH   6   7
ATOM      7  C   UNL     1     105.345 314.492 190.857  1.00  0.00     0.000 C 
BRANCH   7   8
ATOM      8  C   UNL     1     103.832 314.753 190.786  1.00  0.00     0.000 C 
BRANCH   8   9
ATOM      9  C   UNL     1     103.126 314.150 189.555  1.00  0.00     0.000 C 
BRANCH   9  10
ATOM     10  C   UNL     1     102.531 315.178 188.571  1.00  0.00     0.006 C 
BRANCH  10  11
ATOM     11  C   UNL     1     101.163 314.785 187.992  1.00  0.00     0.053 C 
BRANCH  11  12
ATOM     12  C   UNL     1     100.173 315.906 188.078  1.00  0.00     0.041 C 
ATOM     13  O   UNL     1      99.257 316.010 187.220  1.00  0.00    -0.550 OA
ATOM     14  O   UNL     1     100.240 316.814 189.128  1.00  0.00    -0.550 OA
ENDBRANCH  11  12
ENDBRANCH  10  11
ENDBRANCH   9  10
ENDBRANCH   8   9
ENDBRANCH   7   8
ENDBRANCH   6   7
ENDBRANCH   5   6
ENDBRANCH   4   5
ENDBRANCH   3   4
ENDBRANCH   2   3
ENDBRANCH   1   2
BRANCH   1  15
ATOM     15  C   UNL     1     103.838 311.469 196.973  1.00  0.00     0.000 C 
BRANCH  15  16
ATOM     16  C   UNL     1     103.550 311.211 198.459  1.00  0.00     0.000 C 
BRANCH  16  17
ATOM     17  C   UNL     1     103.245 312.503 199.234  1.00  0.00     0.000 C 
BRANCH  17  18
ATOM     18  C   UNL     1     104.258 312.782 200.359  1.00  0.00    -0.000 C 
BRANCH  18  19
ATOM     19  C   UNL     1     104.303 311.725 201.482  1.00  0.00    -0.000 C 
BRANCH  19  20
ATOM     20  C   UNL     1     103.141 311.789 202.490  1.00  0.00    -0.000 C 
BRANCH  20  21
ATOM     21  C   UNL     1     103.128 310.602 203.464  1.00  0.00    -0.000 C 
BRANCH  21  22
ATOM     22  C   UNL     1     104.288 310.699 204.467  1.00  0.00    -0.000 C 
BRANCH  22  23
ATOM     23  C   UNL     1     103.938 311.556 205.694  1.00  0.00    -0.000 C 
BRANCH  23  24
ATOM     24  C   UNL     1     104.883 312.759 205.864  1.00  0.00    -0.000 C 
BRANCH  24  25
ATOM     25  C   UNL     1     106.046 312.739 204.861  1.00  0.00    -0.003 C 
ATOM     26  C   UNL     1     106.117 314.011 204.015  1.00  0.00     0.004 C 
ENDBRANCH  24  25
ENDBRANCH  23  24
ENDBRANCH  22  23
ENDBRANCH  21  22
ENDBRANCH  20  21
ENDBRANCH  19  20
ENDBRANCH  18  19
ENDBRANCH  17  18
ENDBRANCH  16  17
ENDBRANCH  15  16
ENDBRANCH   1  15
TORSDOF 22
ENDMDL
