MODEL 1
REMARK VINA RESULT:     7.788      0.000      0.000
REMARK INTER + INTRA:          10.669
REMARK INTER:                  10.747
REMARK INTRA:                  -0.078
REMARK UNBOUND:                -0.078
REMARK SMILES CC[C@@H](CC[C@H](C)[C@H]1CC[C@@H]2[C@@H]3CC=C4C[C@H](O)CC[C@]4(C)[C@H]3CC[C@]21C)C(C)C
REMARK SMILES IDX 5 1 4 2 3 3 2 4 1 5 28 6 29 7 30 8 6 9 7 10 8 11 9 12 26 13
REMARK SMILES IDX 10 14 11 15 25 16 27 17 12 18 24 19 23 20 13 21 21 22 14 23
REMARK SMILES IDX 15 24 20 25 22 26 16 27 19 28 17 29 18 30
REMARK H PARENT 18 31
REMARK Flexibility Score: inf
ROOT
ATOM      1  C   UNL     1      81.826  16.087   9.670  1.00  0.00     0.004 C 
ENDROOT
BRANCH   1   2
ATOM      2  C   UNL     1      82.438  15.854  11.071  1.00  0.00     0.004 C 
BRANCH   2   3
ATOM      3  C   UNL     1      82.602  14.350  11.441  1.00  0.00    -0.009 C 
BRANCH   3   4
ATOM      4  C   UNL     1      81.874  14.050  12.789  1.00  0.00     0.000 C 
ATOM      5  C   UNL     1      81.215  15.291  13.395  1.00  0.00     0.004 C 
ENDBRANCH   3   4
BRANCH   3   6
ATOM      6  C   UNL     1      84.097  13.877  11.440  1.00  0.00    -0.014 C 
ATOM      7  C   UNL     1      84.951  14.672  12.445  1.00  0.00     0.007 C 
ATOM      8  C   UNL     1      84.740  14.000  10.048  1.00  0.00     0.007 C 
ENDBRANCH   3   6
ENDBRANCH   2   3
ENDBRANCH   1   2
BRANCH   1   9
ATOM      9  C   UNL     1      81.185  14.809   9.060  1.00  0.00    -0.011 C 
ATOM     10  C   UNL     1      82.139  14.168   8.029  1.00  0.00     0.008 C 
BRANCH   9  11
ATOM     11  C   UNL     1      79.745  15.128   8.506  1.00  0.00    -0.002 C 
ATOM     12  C   UNL     1      79.292  16.597   8.779  1.00  0.00     0.005 C 
ATOM     13  C   UNL     1      79.436  14.893   6.981  1.00  0.00    -0.026 C 
ATOM     14  C   UNL     1      78.991  17.255   7.423  1.00  0.00     0.005 C 
ATOM     15  C   UNL     1      79.617  16.310   6.412  1.00  0.00    -0.001 C 
ATOM     16  C   UNL     1      80.330  13.875   6.176  1.00  0.00     0.007 C 
ATOM     17  C   UNL     1      77.946  14.417   6.905  1.00  0.00     0.012 C 
ATOM     18  C   UNL     1      79.324  16.493   4.895  1.00  0.00     0.000 C 
ATOM     19  C   UNL     1      80.717  14.358   4.746  1.00  0.00     0.005 C 
ATOM     20  C   UNL     1      79.584  15.189   4.092  1.00  0.00     0.003 C 
ATOM     21  C   UNL     1      77.949  17.037   4.509  1.00  0.00     0.031 C 
ATOM     22  C   UNL     1      79.727  15.503   2.559  1.00  0.00    -0.008 C 
ATOM     23  C   UNL     1      77.840  17.169   3.007  1.00  0.00    -0.027 C 
ATOM     24  C   UNL     1      78.591  16.456   2.123  1.00  0.00    -0.065 C 
ATOM     25  C   UNL     1      79.595  14.174   1.748  1.00  0.00     0.014 C 
ATOM     26  C   UNL     1      81.100  16.156   2.243  1.00  0.00     0.016 C 
ATOM     27  C   UNL     1      78.357  16.662   0.640  1.00  0.00     0.063 C 
ATOM     28  C   UNL     1      79.413  14.381   0.233  1.00  0.00     0.033 C 
ATOM     29  C   UNL     1      78.241  15.319  -0.098  1.00  0.00     0.118 C 
BRANCH  29  30
ATOM     30  O   UNL     1      77.004  14.692   0.148  1.00  0.00    -0.393 OA
ATOM     31  H   UNL     1      76.292  15.383   0.114  1.00  0.00     0.210 HD
ENDBRANCH  29  30
ENDBRANCH   9  11
ENDBRANCH   1   9
TORSDOF 7
ENDMDL
