MODEL 1
REMARK VINA RESULT:    -7.741      0.000      0.000
REMARK INTER + INTRA:         -13.213
REMARK INTER:                 -11.362
REMARK INTRA:                  -1.851
REMARK UNBOUND:                -1.851
REMARK SMILES O=c1c(O[C@H]2O[C@H](CO)[C@@H](O)[C@@H](O)[C@H]2O)c(-c2ccc(O)c(O)c2)oc2cc(O)cc(O)c12
REMARK SMILES IDX 4 1 3 2 16 3 25 4 2 5 26 6 1 7 33 8 27 9 31 10 28 11 30 12
REMARK SMILES IDX 17 13 18 14 19 15 20 16 24 17 22 18 21 19 23 21 32 23 29 25
REMARK SMILES IDX 5 27 14 28 6 29 12 30 7 31 10 32 15 33 13 35 8 37 9 38 11 40
REMARK H PARENT 21 20 23 22 32 24 29 26 15 34 13 36 9 39 11 41
REMARK Flexibility Score: inf
ROOT
ATOM      1  O   UNL     1      14.607  35.624 122.772  1.00  0.00    -0.454 OA
ENDROOT
BRANCH   1   2
ATOM      2  C   UNL     1      15.323  36.020 123.908  1.00  0.00     0.214 A 
ATOM      3  C   UNL     1      15.025  35.517 125.193  1.00  0.00     0.180 A 
ATOM      4  O   UNL     1      15.789  35.855 126.228  1.00  0.00    -0.452 OA
ATOM      5  C   UNL     1      16.371  36.938 123.770  1.00  0.00     0.239 A 
ATOM      6  C   UNL     1      16.816  36.693 126.133  1.00  0.00     0.146 A 
ATOM      7  O   UNL     1      16.613  37.425 122.631  1.00  0.00    -0.285 OA
ATOM      8  C   UNL     1      17.147  37.288 124.892  1.00  0.00     0.111 A 
ATOM      9  C   UNL     1      17.561  36.989 127.277  1.00  0.00     0.094 A 
ATOM     10  C   UNL     1      18.236  38.190 124.829  1.00  0.00     0.134 A 
ATOM     11  C   UNL     1      18.636  37.876 127.210  1.00  0.00     0.123 A 
ATOM     12  C   UNL     1      18.971  38.475 125.990  1.00  0.00     0.093 A 
BRANCH   3  13
ATOM     13  C   UNL     1      13.868  34.629 125.445  1.00  0.00     0.025 A 
ATOM     14  C   UNL     1      12.631  35.151 125.858  1.00  0.00     0.016 A 
ATOM     15  C   UNL     1      11.552  34.297 126.103  1.00  0.00     0.051 A 
ATOM     16  C   UNL     1      11.700  32.912 125.953  1.00  0.00     0.157 A 
ATOM     17  C   UNL     1      14.019  33.240 125.319  1.00  0.00     0.062 A 
ATOM     18  C   UNL     1      12.941  32.382 125.563  1.00  0.00     0.158 A 
BRANCH  16  19
ATOM     19  O   UNL     1      10.620  32.064 126.195  1.00  0.00    -0.504 OA
ATOM     20  H   UNL     1      10.063  31.685 125.439  1.00  0.00     0.293 HD
ENDBRANCH  16  19
BRANCH  18  21
ATOM     21  O   UNL     1      13.122  31.007 125.413  1.00  0.00    -0.504 OA
ATOM     22  H   UNL     1      12.342  30.372 125.291  1.00  0.00     0.293 HD
ENDBRANCH  18  21
ENDBRANCH   3  13
BRANCH  10  23
ATOM     23  O   UNL     1      18.595  38.799 123.626  1.00  0.00    -0.507 OA
ATOM     24  H   UNL     1      17.910  39.014 122.912  1.00  0.00     0.293 HD
ENDBRANCH  10  23
BRANCH  11  25
ATOM     25  O   UNL     1      19.366  38.159 128.363  1.00  0.00    -0.508 OA
ATOM     26  H   UNL     1      20.352  37.934 128.433  1.00  0.00     0.293 HD
ENDBRANCH  11  25
ENDBRANCH   1   2
BRANCH   1  27
ATOM     27  C   UNL     1      15.149  34.758 121.767  1.00  0.00     0.339 C 
ATOM     28  C   UNL     1      14.923  35.321 120.351  1.00  0.00     0.214 C 
ATOM     29  O   UNL     1      14.618  33.449 121.889  1.00  0.00    -0.332 OA
ATOM     30  C   UNL     1      13.439  35.244 119.931  1.00  0.00     0.180 C 
ATOM     31  C   UNL     1      13.211  33.435 121.715  1.00  0.00     0.179 C 
ATOM     32  C   UNL     1      12.834  33.864 120.277  1.00  0.00     0.177 C 
BRANCH  28  33
ATOM     33  O   UNL     1      15.394  36.642 120.279  1.00  0.00    -0.384 OA
ATOM     34  H   UNL     1      15.820  36.746 119.389  1.00  0.00     0.211 HD
ENDBRANCH  28  33
BRANCH  30  35
ATOM     35  O   UNL     1      12.689  36.308 120.467  1.00  0.00    -0.387 OA
ATOM     36  H   UNL     1      13.058  36.539 121.356  1.00  0.00     0.211 HD
ENDBRANCH  30  35
BRANCH  31  37
ATOM     37  C   UNL     1      12.705  32.013 122.003  1.00  0.00     0.191 C 
BRANCH  37  38
ATOM     38  O   UNL     1      13.766  31.186 122.399  1.00  0.00    -0.394 OA
ATOM     39  H   UNL     1      14.100  30.738 121.579  1.00  0.00     0.210 HD
ENDBRANCH  37  38
ENDBRANCH  31  37
BRANCH  32  40
ATOM     40  O   UNL     1      11.437  33.901 120.138  1.00  0.00    -0.387 OA
ATOM     41  H   UNL     1      11.062  34.010 121.051  1.00  0.00     0.211 HD
ENDBRANCH  32  40
ENDBRANCH   1  27
TORSDOF 12
ENDMDL
MODEL 2
REMARK VINA RESULT:    -6.973      1.945      6.377
REMARK INTER + INTRA:         -12.086
REMARK INTER:                 -10.120
REMARK INTRA:                  -1.967
REMARK UNBOUND:                -1.851
REMARK SMILES O=c1c(O[C@H]2O[C@H](CO)[C@@H](O)[C@@H](O)[C@H]2O)c(-c2ccc(O)c(O)c2)oc2cc(O)cc(O)c12
REMARK SMILES IDX 4 1 3 2 16 3 25 4 2 5 26 6 1 7 33 8 27 9 31 10 28 11 30 12
REMARK SMILES IDX 17 13 18 14 19 15 20 16 24 17 22 18 21 19 23 21 32 23 29 25
REMARK SMILES IDX 5 27 14 28 6 29 12 30 7 31 10 32 15 33 13 35 8 37 9 38 11 40
REMARK H PARENT 21 20 23 22 32 24 29 26 15 34 13 36 9 39 11 41
REMARK Flexibility Score: inf
ROOT
ATOM      1  O   UNL     1      14.884  34.639 122.809  1.00  0.00    -0.454 OA
ENDROOT
BRANCH   1   2
ATOM      2  C   UNL     1      13.975  34.523 123.869  1.00  0.00     0.214 A 
ATOM      3  C   UNL     1      14.277  34.986 125.168  1.00  0.00     0.180 A 
ATOM      4  O   UNL     1      13.350  34.933 126.119  1.00  0.00    -0.452 OA
ATOM      5  C   UNL     1      12.726  33.936 123.636  1.00  0.00     0.239 A 
ATOM      6  C   UNL     1      12.140  34.419 125.930  1.00  0.00     0.146 A 
ATOM      7  O   UNL     1      12.467  33.480 122.488  1.00  0.00    -0.285 OA
ATOM      8  C   UNL     1      11.776  33.880 124.674  1.00  0.00     0.111 A 
ATOM      9  C   UNL     1      11.232  34.407 126.992  1.00  0.00     0.094 A 
ATOM     10  C   UNL     1      10.484  33.324 124.511  1.00  0.00     0.134 A 
ATOM     11  C   UNL     1       9.958  33.861 126.826  1.00  0.00     0.123 A 
ATOM     12  C   UNL     1       9.587  33.320 125.590  1.00  0.00     0.093 A 
BRANCH   3  13
ATOM     13  C   UNL     1      15.611  35.519 125.525  1.00  0.00     0.025 A 
ATOM     14  C   UNL     1      16.644  34.665 125.946  1.00  0.00     0.016 A 
ATOM     15  C   UNL     1      17.893  35.186 126.292  1.00  0.00     0.051 A 
ATOM     16  C   UNL     1      18.122  36.567 126.237  1.00  0.00     0.157 A 
ATOM     17  C   UNL     1      15.836  36.904 125.494  1.00  0.00     0.062 A 
ATOM     18  C   UNL     1      17.086  37.429 125.839  1.00  0.00     0.158 A 
BRANCH  16  19
ATOM     19  O   UNL     1      19.371  37.083 126.579  1.00  0.00    -0.504 OA
ATOM     20  H   UNL     1      19.993  37.474 125.882  1.00  0.00     0.293 HD
ENDBRANCH  16  19
BRANCH  18  21
ATOM     21  O   UNL     1      17.280  38.809 125.782  1.00  0.00    -0.504 OA
ATOM     22  H   UNL     1      16.614  39.428 125.333  1.00  0.00     0.293 HD
ENDBRANCH  18  21
ENDBRANCH   3  13
BRANCH  10  23
ATOM     23  O   UNL     1      10.085  32.781 123.289  1.00  0.00    -0.507 OA
ATOM     24  H   UNL     1       9.609  33.336 122.588  1.00  0.00     0.293 HD
ENDBRANCH  10  23
BRANCH  11  25
ATOM     25  O   UNL     1       9.068  33.858 127.898  1.00  0.00    -0.508 OA
ATOM     26  H   UNL     1       8.083  33.659 127.767  1.00  0.00     0.293 HD
ENDBRANCH  11  25
ENDBRANCH   1   2
BRANCH   1  27
ATOM     27  C   UNL     1      14.836  35.703 121.849  1.00  0.00     0.339 C 
ATOM     28  C   UNL     1      14.929  35.170 120.407  1.00  0.00     0.214 C 
ATOM     29  O   UNL     1      15.847  36.662 122.107  1.00  0.00    -0.332 OA
ATOM     30  C   UNL     1      16.341  34.640 120.079  1.00  0.00     0.180 C 
ATOM     31  C   UNL     1      17.144  36.095 122.014  1.00  0.00     0.179 C 
ATOM     32  C   UNL     1      17.431  35.622 120.569  1.00  0.00     0.177 C 
BRANCH  28  33
ATOM     33  O   UNL     1      13.962  34.172 120.202  1.00  0.00    -0.384 OA
ATOM     34  H   UNL     1      13.088  34.562 120.467  1.00  0.00     0.211 HD
ENDBRANCH  28  33
BRANCH  30  35
ATOM     35  O   UNL     1      16.537  33.334 120.568  1.00  0.00    -0.387 OA
ATOM     36  H   UNL     1      15.659  32.964 120.840  1.00  0.00     0.211 HD
ENDBRANCH  30  35
BRANCH  31  37
ATOM     37  C   UNL     1      18.165  37.159 122.445  1.00  0.00     0.191 C 
BRANCH  37  38
ATOM     38  O   UNL     1      18.630  37.873 121.332  1.00  0.00    -0.394 OA
ATOM     39  H   UNL     1      19.608  37.712 121.278  1.00  0.00     0.210 HD
ENDBRANCH  37  38
ENDBRANCH  31  37
BRANCH  32  40
ATOM     40  O   UNL     1      18.694  35.012 120.507  1.00  0.00    -0.387 OA
ATOM     41  H   UNL     1      19.000  35.084 119.564  1.00  0.00     0.211 HD
ENDBRANCH  32  40
ENDBRANCH   1  27
TORSDOF 12
ENDMDL
MODEL 3
REMARK VINA RESULT:    -6.624      2.829      5.887
REMARK INTER + INTRA:         -11.574
REMARK INTER:                 -10.444
REMARK INTRA:                  -1.130
REMARK UNBOUND:                -1.851
REMARK SMILES O=c1c(O[C@H]2O[C@H](CO)[C@@H](O)[C@@H](O)[C@H]2O)c(-c2ccc(O)c(O)c2)oc2cc(O)cc(O)c12
REMARK SMILES IDX 4 1 3 2 16 3 25 4 2 5 26 6 1 7 33 8 27 9 31 10 28 11 30 12
REMARK SMILES IDX 17 13 18 14 19 15 20 16 24 17 22 18 21 19 23 21 32 23 29 25
REMARK SMILES IDX 5 27 14 28 6 29 12 30 7 31 10 32 15 33 13 35 8 37 9 38 11 40
REMARK H PARENT 21 20 23 22 32 24 29 26 15 34 13 36 9 39 11 41
REMARK Flexibility Score: inf
ROOT
ATOM      1  O   UNL     1      14.094  35.878 124.578  1.00  0.00    -0.454 OA
ENDROOT
BRANCH   1   2
ATOM      2  C   UNL     1      13.626  36.613 125.674  1.00  0.00     0.214 A 
ATOM      3  C   UNL     1      14.478  37.438 126.440  1.00  0.00     0.180 A 
ATOM      4  O   UNL     1      13.971  38.184 127.416  1.00  0.00    -0.452 OA
ATOM      5  C   UNL     1      12.273  36.535 126.020  1.00  0.00     0.239 A 
ATOM      6  C   UNL     1      12.686  38.170 127.753  1.00  0.00     0.146 A 
ATOM      7  O   UNL     1      11.515  35.766 125.367  1.00  0.00    -0.285 OA
ATOM      8  C   UNL     1      11.774  37.327 127.074  1.00  0.00     0.111 A 
ATOM      9  C   UNL     1      12.245  38.990 128.794  1.00  0.00     0.094 A 
ATOM     10  C   UNL     1      10.415  37.322 127.469  1.00  0.00     0.134 A 
ATOM     11  C   UNL     1      10.903  38.984 129.178  1.00  0.00     0.123 A 
ATOM     12  C   UNL     1       9.993  38.152 128.518  1.00  0.00     0.093 A 
BRANCH   3  13
ATOM     13  C   UNL     1      15.939  37.494 126.210  1.00  0.00     0.025 A 
ATOM     14  C   UNL     1      16.841  36.957 127.145  1.00  0.00     0.016 A 
ATOM     15  C   UNL     1      18.217  37.030 126.918  1.00  0.00     0.051 A 
ATOM     16  C   UNL     1      18.712  37.651 125.764  1.00  0.00     0.157 A 
ATOM     17  C   UNL     1      16.439  38.136 125.067  1.00  0.00     0.062 A 
ATOM     18  C   UNL     1      17.817  38.210 124.836  1.00  0.00     0.158 A 
BRANCH  16  19
ATOM     19  O   UNL     1      20.086  37.717 125.539  1.00  0.00    -0.504 OA
ATOM     20  H   UNL     1      20.725  38.047 126.252  1.00  0.00     0.293 HD
ENDBRANCH  16  19
BRANCH  18  21
ATOM     21  O   UNL     1      18.277  38.842 123.682  1.00  0.00    -0.504 OA
ATOM     22  H   UNL     1      17.663  39.380 123.082  1.00  0.00     0.293 HD
ENDBRANCH  18  21
ENDBRANCH   3  13
BRANCH  10  23
ATOM     23  O   UNL     1       9.483  36.505 126.827  1.00  0.00    -0.507 OA
ATOM     24  H   UNL     1       8.785  35.984 127.343  1.00  0.00     0.293 HD
ENDBRANCH  10  23
BRANCH  11  25
ATOM     25  O   UNL     1      10.484  39.810 130.221  1.00  0.00    -0.508 OA
ATOM     26  H   UNL     1      11.080  39.997 131.019  1.00  0.00     0.293 HD
ENDBRANCH  11  25
ENDBRANCH   1   2
BRANCH   1  27
ATOM     27  C   UNL     1      15.009  34.781 124.703  1.00  0.00     0.339 C 
ATOM     28  C   UNL     1      15.598  34.375 123.339  1.00  0.00     0.214 C 
ATOM     29  O   UNL     1      14.390  33.678 125.343  1.00  0.00    -0.332 OA
ATOM     30  C   UNL     1      14.548  33.684 122.441  1.00  0.00     0.180 C 
ATOM     31  C   UNL     1      13.283  33.194 124.601  1.00  0.00     0.179 C 
ATOM     32  C   UNL     1      13.744  32.629 123.237  1.00  0.00     0.177 C 
BRANCH  28  33
ATOM     33  O   UNL     1      16.140  35.500 122.697  1.00  0.00    -0.384 OA
ATOM     34  H   UNL     1      15.384  35.972 122.260  1.00  0.00     0.211 HD
ENDBRANCH  28  33
BRANCH  30  35
ATOM     35  O   UNL     1      13.715  34.619 121.797  1.00  0.00    -0.387 OA
ATOM     36  H   UNL     1      14.169  34.931 120.974  1.00  0.00     0.211 HD
ENDBRANCH  30  35
BRANCH  31  37
ATOM     37  C   UNL     1      12.590  32.101 125.430  1.00  0.00     0.191 C 
BRANCH  37  38
ATOM     38  O   UNL     1      13.296  30.894 125.338  1.00  0.00    -0.394 OA
ATOM     39  H   UNL     1      14.261  31.127 125.323  1.00  0.00     0.210 HD
ENDBRANCH  37  38
ENDBRANCH  31  37
BRANCH  32  40
ATOM     40  O   UNL     1      12.631  32.208 122.491  1.00  0.00    -0.387 OA
ATOM     41  H   UNL     1      12.609  31.216 122.547  1.00  0.00     0.211 HD
ENDBRANCH  32  40
ENDBRANCH   1  27
TORSDOF 12
ENDMDL
MODEL 4
REMARK VINA RESULT:    -6.520      2.602      6.033
REMARK INTER + INTRA:         -11.420
REMARK INTER:                 -10.223
REMARK INTRA:                  -1.197
REMARK UNBOUND:                -1.851
REMARK SMILES O=c1c(O[C@H]2O[C@H](CO)[C@@H](O)[C@@H](O)[C@H]2O)c(-c2ccc(O)c(O)c2)oc2cc(O)cc(O)c12
REMARK SMILES IDX 4 1 3 2 16 3 25 4 2 5 26 6 1 7 33 8 27 9 31 10 28 11 30 12
REMARK SMILES IDX 17 13 18 14 19 15 20 16 24 17 22 18 21 19 23 21 32 23 29 25
REMARK SMILES IDX 5 27 14 28 6 29 12 30 7 31 10 32 15 33 13 35 8 37 9 38 11 40
REMARK H PARENT 21 20 23 22 32 24 29 26 15 34 13 36 9 39 11 41
REMARK Flexibility Score: inf
ROOT
ATOM      1  O   UNL     1      14.284  35.706 124.116  1.00  0.00    -0.454 OA
ENDROOT
BRANCH   1   2
ATOM      2  C   UNL     1      13.745  36.299 125.264  1.00  0.00     0.214 A 
ATOM      3  C   UNL     1      14.526  37.090 126.135  1.00  0.00     0.180 A 
ATOM      4  O   UNL     1      13.950  37.703 127.165  1.00  0.00    -0.452 OA
ATOM      5  C   UNL     1      12.390  36.109 125.559  1.00  0.00     0.239 A 
ATOM      6  C   UNL     1      12.660  37.580 127.457  1.00  0.00     0.146 A 
ATOM      7  O   UNL     1      11.697  35.368 124.809  1.00  0.00    -0.285 OA
ATOM      8  C   UNL     1      11.818  36.760 126.670  1.00  0.00     0.111 A 
ATOM      9  C   UNL     1      12.145  38.264 128.561  1.00  0.00     0.094 A 
ATOM     10  C   UNL     1      10.452  36.638 127.020  1.00  0.00     0.134 A 
ATOM     11  C   UNL     1      10.796  38.143 128.901  1.00  0.00     0.123 A 
ATOM     12  C   UNL     1       9.954  37.331 128.133  1.00  0.00     0.093 A 
BRANCH   3  13
ATOM     13  C   UNL     1      15.986  37.251 125.958  1.00  0.00     0.025 A 
ATOM     14  C   UNL     1      16.894  36.694 126.874  1.00  0.00     0.016 A 
ATOM     15  C   UNL     1      18.269  36.867 126.698  1.00  0.00     0.051 A 
ATOM     16  C   UNL     1      18.755  37.611 125.615  1.00  0.00     0.157 A 
ATOM     17  C   UNL     1      16.476  38.016 124.888  1.00  0.00     0.062 A 
ATOM     18  C   UNL     1      17.852  38.191 124.708  1.00  0.00     0.158 A 
BRANCH  16  19
ATOM     19  O   UNL     1      20.128  37.779 125.441  1.00  0.00    -0.504 OA
ATOM     20  H   UNL     1      20.652  38.457 125.980  1.00  0.00     0.293 HD
ENDBRANCH  16  19
BRANCH  18  21
ATOM     21  O   UNL     1      18.303  38.944 123.625  1.00  0.00    -0.504 OA
ATOM     22  H   UNL     1      19.168  39.472 123.659  1.00  0.00     0.293 HD
ENDBRANCH  18  21
ENDBRANCH   3  13
BRANCH  10  23
ATOM     23  O   UNL     1       9.588  35.838 126.271  1.00  0.00    -0.507 OA
ATOM     24  H   UNL     1       9.919  35.032 125.755  1.00  0.00     0.293 HD
ENDBRANCH  10  23
BRANCH  11  25
ATOM     25  O   UNL     1      10.302  38.833 130.007  1.00  0.00    -0.508 OA
ATOM     26  H   UNL     1       9.749  38.367 130.717  1.00  0.00     0.293 HD
ENDBRANCH  11  25
ENDBRANCH   1   2
BRANCH   1  27
ATOM     27  C   UNL     1      14.242  36.323 122.823  1.00  0.00     0.339 C 
ATOM     28  C   UNL     1      13.469  35.461 121.807  1.00  0.00     0.214 C 
ATOM     29  O   UNL     1      15.550  36.612 122.359  1.00  0.00    -0.332 OA
ATOM     30  C   UNL     1      14.252  34.189 121.418  1.00  0.00     0.180 C 
ATOM     31  C   UNL     1      16.329  35.436 122.217  1.00  0.00     0.179 C 
ATOM     32  C   UNL     1      15.735  34.516 121.124  1.00  0.00     0.177 C 
BRANCH  28  33
ATOM     33  O   UNL     1      12.205  35.131 122.322  1.00  0.00    -0.384 OA
ATOM     34  H   UNL     1      11.699  35.982 122.403  1.00  0.00     0.211 HD
ENDBRANCH  28  33
BRANCH  30  35
ATOM     35  O   UNL     1      14.108  33.172 122.382  1.00  0.00    -0.387 OA
ATOM     36  H   UNL     1      14.962  32.674 122.445  1.00  0.00     0.211 HD
ENDBRANCH  30  35
BRANCH  31  37
ATOM     37  C   UNL     1      17.763  35.850 121.852  1.00  0.00     0.191 C 
BRANCH  37  38
ATOM     38  O   UNL     1      18.656  34.800 122.105  1.00  0.00    -0.394 OA
ATOM     39  H   UNL     1      19.471  35.207 122.499  1.00  0.00     0.210 HD
ENDBRANCH  37  38
ENDBRANCH  31  37
BRANCH  32  40
ATOM     40  O   UNL     1      16.483  33.331 121.037  1.00  0.00    -0.387 OA
ATOM     41  H   UNL     1      15.861  32.585 121.246  1.00  0.00     0.211 HD
ENDBRANCH  32  40
ENDBRANCH   1  27
TORSDOF 12
ENDMDL
MODEL 5
REMARK VINA RESULT:    -6.456      3.284      5.889
REMARK INTER + INTRA:         -11.327
REMARK INTER:                  -9.353
REMARK INTRA:                  -1.973
REMARK UNBOUND:                -1.851
REMARK SMILES O=c1c(O[C@H]2O[C@H](CO)[C@@H](O)[C@@H](O)[C@H]2O)c(-c2ccc(O)c(O)c2)oc2cc(O)cc(O)c12
REMARK SMILES IDX 4 1 3 2 16 3 25 4 2 5 26 6 1 7 33 8 27 9 31 10 28 11 30 12
REMARK SMILES IDX 17 13 18 14 19 15 20 16 24 17 22 18 21 19 23 21 32 23 29 25
REMARK SMILES IDX 5 27 14 28 6 29 12 30 7 31 10 32 15 33 13 35 8 37 9 38 11 40
REMARK H PARENT 21 20 23 22 32 24 29 26 15 34 13 36 9 39 11 41
REMARK Flexibility Score: inf
ROOT
ATOM      1  O   UNL     1      12.238  34.944 125.678  1.00  0.00    -0.454 OA
ENDROOT
BRANCH   1   2
ATOM      2  C   UNL     1      12.341  36.151 126.380  1.00  0.00     0.214 A 
ATOM      3  C   UNL     1      13.473  36.988 126.267  1.00  0.00     0.180 A 
ATOM      4  O   UNL     1      13.487  38.165 126.885  1.00  0.00    -0.452 OA
ATOM      5  C   UNL     1      11.291  36.547 127.216  1.00  0.00     0.239 A 
ATOM      6  C   UNL     1      12.495  38.596 127.657  1.00  0.00     0.146 A 
ATOM      7  O   UNL     1      10.297  35.783 127.356  1.00  0.00    -0.285 OA
ATOM      8  C   UNL     1      11.350  37.793 127.870  1.00  0.00     0.111 A 
ATOM      9  C   UNL     1      12.601  39.849 128.265  1.00  0.00     0.094 A 
ATOM     10  C   UNL     1      10.319  38.274 128.713  1.00  0.00     0.134 A 
ATOM     11  C   UNL     1      11.581  40.320 129.093  1.00  0.00     0.123 A 
ATOM     12  C   UNL     1      10.445  39.534 129.316  1.00  0.00     0.093 A 
BRANCH   3  13
ATOM     13  C   UNL     1      14.671  36.595 125.492  1.00  0.00     0.025 A 
ATOM     14  C   UNL     1      14.920  37.136 124.219  1.00  0.00     0.016 A 
ATOM     15  C   UNL     1      16.050  36.744 123.496  1.00  0.00     0.051 A 
ATOM     16  C   UNL     1      16.935  35.797 124.027  1.00  0.00     0.157 A 
ATOM     17  C   UNL     1      15.547  35.629 126.010  1.00  0.00     0.062 A 
ATOM     18  C   UNL     1      16.679  35.235 125.289  1.00  0.00     0.158 A 
BRANCH  16  19
ATOM     19  O   UNL     1      18.063  35.412 123.304  1.00  0.00    -0.504 OA
ATOM     20  H   UNL     1      18.027  34.662 122.624  1.00  0.00     0.293 HD
ENDBRANCH  16  19
BRANCH  18  21
ATOM     21  O   UNL     1      17.537  34.284 125.841  1.00  0.00    -0.504 OA
ATOM     22  H   UNL     1      18.526  34.259 125.621  1.00  0.00     0.293 HD
ENDBRANCH  18  21
ENDBRANCH   3  13
BRANCH  10  23
ATOM     23  O   UNL     1       9.173  37.514 128.951  1.00  0.00    -0.507 OA
ATOM     24  H   UNL     1       8.317  37.661 128.430  1.00  0.00     0.293 HD
ENDBRANCH  10  23
BRANCH  11  25
ATOM     25  O   UNL     1      11.706  41.573 129.691  1.00  0.00    -0.508 OA
ATOM     26  H   UNL     1      10.897  42.081 130.030  1.00  0.00     0.293 HD
ENDBRANCH  11  25
ENDBRANCH   1   2
BRANCH   1  27
ATOM     27  C   UNL     1      11.660  34.846 124.370  1.00  0.00     0.339 C 
ATOM     28  C   UNL     1      10.645  33.690 124.283  1.00  0.00     0.214 C 
ATOM     29  O   UNL     1      12.667  34.718 123.381  1.00  0.00    -0.332 OA
ATOM     30  C   UNL     1      11.339  32.311 124.321  1.00  0.00     0.180 C 
ATOM     31  C   UNL     1      13.440  33.544 123.567  1.00  0.00     0.179 C 
ATOM     32  C   UNL     1      12.567  32.280 123.382  1.00  0.00     0.177 C 
BRANCH  28  33
ATOM     33  O   UNL     1       9.701  33.802 125.317  1.00  0.00    -0.384 OA
ATOM     34  H   UNL     1      10.001  33.197 126.045  1.00  0.00     0.211 HD
ENDBRANCH  28  33
BRANCH  30  35
ATOM     35  O   UNL     1      11.659  31.923 125.636  1.00  0.00    -0.387 OA
ATOM     36  H   UNL     1      11.719  30.935 125.669  1.00  0.00     0.211 HD
ENDBRANCH  30  35
BRANCH  31  37
ATOM     37  C   UNL     1      14.589  33.559 122.547  1.00  0.00     0.191 C 
BRANCH  37  38
ATOM     38  O   UNL     1      14.406  32.554 121.587  1.00  0.00    -0.394 OA
ATOM     39  H   UNL     1      13.443  32.318 121.601  1.00  0.00     0.210 HD
ENDBRANCH  37  38
ENDBRANCH  31  37
BRANCH  32  40
ATOM     40  O   UNL     1      13.333  31.129 123.627  1.00  0.00    -0.387 OA
ATOM     41  H   UNL     1      13.475  30.688 122.748  1.00  0.00     0.211 HD
ENDBRANCH  32  40
ENDBRANCH   1  27
TORSDOF 12
ENDMDL
MODEL 6
REMARK VINA RESULT:    -6.354      2.949      4.961
REMARK INTER + INTRA:         -11.177
REMARK INTER:                  -9.682
REMARK INTRA:                  -1.495
REMARK UNBOUND:                -1.851
REMARK SMILES O=c1c(O[C@H]2O[C@H](CO)[C@@H](O)[C@@H](O)[C@H]2O)c(-c2ccc(O)c(O)c2)oc2cc(O)cc(O)c12
REMARK SMILES IDX 4 1 3 2 16 3 25 4 2 5 26 6 1 7 33 8 27 9 31 10 28 11 30 12
REMARK SMILES IDX 17 13 18 14 19 15 20 16 24 17 22 18 21 19 23 21 32 23 29 25
REMARK SMILES IDX 5 27 14 28 6 29 12 30 7 31 10 32 15 33 13 35 8 37 9 38 11 40
REMARK H PARENT 21 20 23 22 32 24 29 26 15 34 13 36 9 39 11 41
REMARK Flexibility Score: inf
ROOT
ATOM      1  O   UNL     1      12.637  35.682 125.670  1.00  0.00    -0.454 OA
ENDROOT
BRANCH   1   2
ATOM      2  C   UNL     1      13.843  36.390 125.735  1.00  0.00     0.214 A 
ATOM      3  C   UNL     1      13.899  37.790 125.558  1.00  0.00     0.180 A 
ATOM      4  O   UNL     1      15.054  38.429 125.715  1.00  0.00    -0.452 OA
ATOM      5  C   UNL     1      15.031  35.695 125.987  1.00  0.00     0.239 A 
ATOM      6  C   UNL     1      16.197  37.812 125.993  1.00  0.00     0.146 A 
ATOM      7  O   UNL     1      14.994  34.439 126.101  1.00  0.00    -0.285 OA
ATOM      8  C   UNL     1      16.240  36.404 126.128  1.00  0.00     0.111 A 
ATOM      9  C   UNL     1      17.362  38.569 126.139  1.00  0.00     0.094 A 
ATOM     10  C   UNL     1      17.477  35.776 126.406  1.00  0.00     0.134 A 
ATOM     11  C   UNL     1      18.579  37.946 126.417  1.00  0.00     0.123 A 
ATOM     12  C   UNL     1      18.636  36.554 126.548  1.00  0.00     0.093 A 
BRANCH   3  13
ATOM     13  C   UNL     1      12.709  38.586 125.182  1.00  0.00     0.025 A 
ATOM     14  C   UNL     1      11.816  39.061 126.157  1.00  0.00     0.016 A 
ATOM     15  C   UNL     1      10.691  39.800 125.783  1.00  0.00     0.051 A 
ATOM     16  C   UNL     1      10.436  40.062 124.430  1.00  0.00     0.157 A 
ATOM     17  C   UNL     1      12.437  38.830 123.827  1.00  0.00     0.062 A 
ATOM     18  C   UNL     1      11.312  39.570 123.448  1.00  0.00     0.158 A 
BRANCH  16  19
ATOM     19  O   UNL     1       9.315  40.804 124.061  1.00  0.00    -0.504 OA
ATOM     20  H   UNL     1       9.372  41.798 123.882  1.00  0.00     0.293 HD
ENDBRANCH  16  19
BRANCH  18  21
ATOM     21  O   UNL     1      11.082  39.807 122.093  1.00  0.00    -0.504 OA
ATOM     22  H   UNL     1      11.293  39.116 121.383  1.00  0.00     0.293 HD
ENDBRANCH  18  21
ENDBRANCH   3  13
BRANCH  10  23
ATOM     23  O   UNL     1      17.564  34.390 126.546  1.00  0.00    -0.507 OA
ATOM     24  H   UNL     1      17.864  33.795 125.783  1.00  0.00     0.293 HD
ENDBRANCH  10  23
BRANCH  11  25
ATOM     25  O   UNL     1      19.730  38.720 126.558  1.00  0.00    -0.508 OA
ATOM     26  H   UNL     1      19.695  39.652 126.955  1.00  0.00     0.293 HD
ENDBRANCH  11  25
ENDBRANCH   1   2
BRANCH   1  27
ATOM     27  C   UNL     1      12.021  35.293 124.436  1.00  0.00     0.339 C 
ATOM     28  C   UNL     1      10.487  35.234 124.560  1.00  0.00     0.214 C 
ATOM     29  O   UNL     1      12.545  34.059 123.976  1.00  0.00    -0.332 OA
ATOM     30  C   UNL     1      10.025  34.039 125.422  1.00  0.00     0.180 C 
ATOM     31  C   UNL     1      12.298  33.009 124.896  1.00  0.00     0.179 C 
ATOM     32  C   UNL     1      10.779  32.747 125.031  1.00  0.00     0.177 C 
BRANCH  28  33
ATOM     33  O   UNL     1      10.001  36.444 125.084  1.00  0.00    -0.384 OA
ATOM     34  H   UNL     1       9.336  36.790 124.434  1.00  0.00     0.211 HD
ENDBRANCH  28  33
BRANCH  30  35
ATOM     35  O   UNL     1      10.120  34.320 126.799  1.00  0.00    -0.387 OA
ATOM     36  H   UNL     1      11.008  34.719 126.979  1.00  0.00     0.211 HD
ENDBRANCH  30  35
BRANCH  31  37
ATOM     37  C   UNL     1      13.019  31.749 124.392  1.00  0.00     0.191 C 
BRANCH  37  38
ATOM     38  O   UNL     1      13.396  30.935 125.469  1.00  0.00    -0.394 OA
ATOM     39  H   UNL     1      14.306  30.596 125.266  1.00  0.00     0.210 HD
ENDBRANCH  37  38
ENDBRANCH  31  37
BRANCH  32  40
ATOM     40  O   UNL     1      10.548  31.745 125.987  1.00  0.00    -0.387 OA
ATOM     41  H   UNL     1       9.607  31.849 126.288  1.00  0.00     0.211 HD
ENDBRANCH  32  40
ENDBRANCH   1  27
TORSDOF 12
ENDMDL
MODEL 7
REMARK VINA RESULT:    -6.222      2.698      5.038
REMARK INTER + INTRA:         -10.983
REMARK INTER:                  -8.890
REMARK INTRA:                  -2.093
REMARK UNBOUND:                -1.851
REMARK SMILES O=c1c(O[C@H]2O[C@H](CO)[C@@H](O)[C@@H](O)[C@H]2O)c(-c2ccc(O)c(O)c2)oc2cc(O)cc(O)c12
REMARK SMILES IDX 4 1 3 2 16 3 25 4 2 5 26 6 1 7 33 8 27 9 31 10 28 11 30 12
REMARK SMILES IDX 17 13 18 14 19 15 20 16 24 17 22 18 21 19 23 21 32 23 29 25
REMARK SMILES IDX 5 27 14 28 6 29 12 30 7 31 10 32 15 33 13 35 8 37 9 38 11 40
REMARK H PARENT 21 20 23 22 32 24 29 26 15 34 13 36 9 39 11 41
REMARK Flexibility Score: inf
ROOT
ATOM      1  O   UNL     1      14.108  36.963 125.140  1.00  0.00    -0.454 OA
ENDROOT
BRANCH   1   2
ATOM      2  C   UNL     1      14.923  36.257 124.248  1.00  0.00     0.214 A 
ATOM      3  C   UNL     1      14.643  34.925 123.873  1.00  0.00     0.180 A 
ATOM      4  O   UNL     1      15.396  34.325 122.956  1.00  0.00    -0.452 OA
ATOM      5  C   UNL     1      16.047  36.888 123.703  1.00  0.00     0.239 A 
ATOM      6  C   UNL     1      16.449  34.902 122.386  1.00  0.00     0.146 A 
ATOM      7  O   UNL     1      16.327  38.063 124.068  1.00  0.00    -0.285 OA
ATOM      8  C   UNL     1      16.833  36.215 122.748  1.00  0.00     0.111 A 
ATOM      9  C   UNL     1      17.180  34.192 121.431  1.00  0.00     0.094 A 
ATOM     10  C   UNL     1      17.970  36.794 122.134  1.00  0.00     0.134 A 
ATOM     11  C   UNL     1      18.299  34.768 120.826  1.00  0.00     0.123 A 
ATOM     12  C   UNL     1      18.692  36.063 121.179  1.00  0.00     0.093 A 
BRANCH   3  13
ATOM     13  C   UNL     1      13.541  34.148 124.482  1.00  0.00     0.025 A 
ATOM     14  C   UNL     1      13.617  33.703 125.812  1.00  0.00     0.016 A 
ATOM     15  C   UNL     1      12.572  32.960 126.368  1.00  0.00     0.051 A 
ATOM     16  C   UNL     1      11.446  32.640 125.599  1.00  0.00     0.157 A 
ATOM     17  C   UNL     1      12.422  33.805 123.708  1.00  0.00     0.062 A 
ATOM     18  C   UNL     1      11.373  33.063 124.261  1.00  0.00     0.158 A 
BRANCH  16  19
ATOM     19  O   UNL     1      10.404  31.902 126.158  1.00  0.00    -0.504 OA
ATOM     20  H   UNL     1       9.932  32.205 127.002  1.00  0.00     0.293 HD
ENDBRANCH  16  19
BRANCH  18  21
ATOM     21  O   UNL     1      10.269  32.754 123.467  1.00  0.00    -0.504 OA
ATOM     22  H   UNL     1       9.379  32.480 123.866  1.00  0.00     0.293 HD
ENDBRANCH  18  21
ENDBRANCH   3  13
BRANCH  10  23
ATOM     23  O   UNL     1      18.384  38.085 122.463  1.00  0.00    -0.507 OA
ATOM     24  H   UNL     1      19.352  38.298 122.672  1.00  0.00     0.293 HD
ENDBRANCH  10  23
BRANCH  11  25
ATOM     25  O   UNL     1      19.016  34.042 119.876  1.00  0.00    -0.508 OA
ATOM     26  H   UNL     1      18.601  33.774 118.992  1.00  0.00     0.293 HD
ENDBRANCH  11  25
ENDBRANCH   1   2
BRANCH   1  27
ATOM     27  C   UNL     1      13.082  37.870 124.715  1.00  0.00     0.339 C 
ATOM     28  C   UNL     1      13.103  39.174 125.535  1.00  0.00     0.214 C 
ATOM     29  O   UNL     1      11.808  37.251 124.769  1.00  0.00    -0.332 OA
ATOM     30  C   UNL     1      12.614  38.953 126.982  1.00  0.00     0.180 C 
ATOM     31  C   UNL     1      11.471  36.855 126.088  1.00  0.00     0.179 C 
ATOM     32  C   UNL     1      11.332  38.089 127.010  1.00  0.00     0.177 C 
BRANCH  28  33
ATOM     33  O   UNL     1      14.394  39.727 125.523  1.00  0.00    -0.384 OA
ATOM     34  H   UNL     1      14.732  39.643 124.593  1.00  0.00     0.211 HD
ENDBRANCH  28  33
BRANCH  30  35
ATOM     35  O   UNL     1      13.632  38.428 127.803  1.00  0.00    -0.387 OA
ATOM     36  H   UNL     1      14.191  39.177 128.129  1.00  0.00     0.211 HD
ENDBRANCH  30  35
BRANCH  31  37
ATOM     37  C   UNL     1      10.151  36.072 126.032  1.00  0.00     0.191 C 
BRANCH  37  38
ATOM     38  O   UNL     1       9.990  35.297 127.189  1.00  0.00    -0.394 OA
ATOM     39  H   UNL     1       9.939  35.930 127.952  1.00  0.00     0.210 HD
ENDBRANCH  37  38
ENDBRANCH  31  37
BRANCH  32  40
ATOM     40  O   UNL     1      11.056  37.677 128.324  1.00  0.00    -0.387 OA
ATOM     41  H   UNL     1      11.924  37.663 128.807  1.00  0.00     0.211 HD
ENDBRANCH  32  40
ENDBRANCH   1  27
TORSDOF 12
ENDMDL
MODEL 8
REMARK VINA RESULT:    -6.123      3.101      5.538
REMARK INTER + INTRA:         -10.838
REMARK INTER:                  -8.714
REMARK INTRA:                  -2.123
REMARK UNBOUND:                -1.851
REMARK SMILES O=c1c(O[C@H]2O[C@H](CO)[C@@H](O)[C@@H](O)[C@H]2O)c(-c2ccc(O)c(O)c2)oc2cc(O)cc(O)c12
REMARK SMILES IDX 4 1 3 2 16 3 25 4 2 5 26 6 1 7 33 8 27 9 31 10 28 11 30 12
REMARK SMILES IDX 17 13 18 14 19 15 20 16 24 17 22 18 21 19 23 21 32 23 29 25
REMARK SMILES IDX 5 27 14 28 6 29 12 30 7 31 10 32 15 33 13 35 8 37 9 38 11 40
REMARK H PARENT 21 20 23 22 32 24 29 26 15 34 13 36 9 39 11 41
REMARK Flexibility Score: inf
ROOT
ATOM      1  O   UNL     1      13.092  35.128 125.059  1.00  0.00    -0.454 OA
ENDROOT
BRANCH   1   2
ATOM      2  C   UNL     1      13.270  36.469 125.421  1.00  0.00     0.214 A 
ATOM      3  C   UNL     1      14.056  37.353 124.650  1.00  0.00     0.180 A 
ATOM      4  O   UNL     1      14.124  38.638 124.986  1.00  0.00    -0.452 OA
ATOM      5  C   UNL     1      12.647  36.953 126.577  1.00  0.00     0.239 A 
ATOM      6  C   UNL     1      13.517  39.146 126.053  1.00  0.00     0.146 A 
ATOM      7  O   UNL     1      11.979  36.157 127.293  1.00  0.00    -0.285 OA
ATOM      8  C   UNL     1      12.757  38.317 126.911  1.00  0.00     0.111 A 
ATOM      9  C   UNL     1      13.647  40.510 126.324  1.00  0.00     0.094 A 
ATOM     10  C   UNL     1      12.137  38.887 128.049  1.00  0.00     0.134 A 
ATOM     11  C   UNL     1      13.032  41.068 127.446  1.00  0.00     0.123 A 
ATOM     12  C   UNL     1      12.281  40.258 128.305  1.00  0.00     0.093 A 
BRANCH   3  13
ATOM     13  C   UNL     1      14.835  36.899 123.477  1.00  0.00     0.025 A 
ATOM     14  C   UNL     1      14.409  37.184 122.169  1.00  0.00     0.016 A 
ATOM     15  C   UNL     1      15.150  36.736 121.073  1.00  0.00     0.051 A 
ATOM     16  C   UNL     1      16.317  35.986 121.268  1.00  0.00     0.157 A 
ATOM     17  C   UNL     1      15.992  36.127 123.668  1.00  0.00     0.062 A 
ATOM     18  C   UNL     1      16.737  35.678 122.573  1.00  0.00     0.158 A 
BRANCH  16  19
ATOM     19  O   UNL     1      17.056  35.545 120.171  1.00  0.00    -0.504 OA
ATOM     20  H   UNL     1      17.075  34.569 119.903  1.00  0.00     0.293 HD
ENDBRANCH  16  19
BRANCH  18  21
ATOM     21  O   UNL     1      17.890  34.927 122.800  1.00  0.00    -0.504 OA
ATOM     22  H   UNL     1      18.564  35.180 123.513  1.00  0.00     0.293 HD
ENDBRANCH  18  21
ENDBRANCH   3  13
BRANCH  10  23
ATOM     23  O   UNL     1      11.380  38.104 128.922  1.00  0.00    -0.507 OA
ATOM     24  H   UNL     1      11.631  37.999 129.898  1.00  0.00     0.293 HD
ENDBRANCH  10  23
BRANCH  11  25
ATOM     25  O   UNL     1      13.174  42.432 127.700  1.00  0.00    -0.508 OA
ATOM     26  H   UNL     1      12.485  43.103 127.383  1.00  0.00     0.293 HD
ENDBRANCH  11  25
ENDBRANCH   1   2
BRANCH   1  27
ATOM     27  C   UNL     1      11.956  34.659 124.322  1.00  0.00     0.339 C 
ATOM     28  C   UNL     1      11.337  33.405 124.968  1.00  0.00     0.214 C 
ATOM     29  O   UNL     1      12.296  34.422 122.966  1.00  0.00    -0.332 OA
ATOM     30  C   UNL     1      12.239  32.164 124.795  1.00  0.00     0.180 C 
ATOM     31  C   UNL     1      13.294  33.422 122.843  1.00  0.00     0.179 C 
ATOM     32  C   UNL     1      12.766  32.057 123.344  1.00  0.00     0.177 C 
BRANCH  28  33
ATOM     33  O   UNL     1      11.076  33.645 126.327  1.00  0.00    -0.384 OA
ATOM     34  H   UNL     1      11.195  32.779 126.798  1.00  0.00     0.211 HD
ENDBRANCH  28  33
BRANCH  30  35
ATOM     35  O   UNL     1      13.277  32.135 125.745  1.00  0.00    -0.387 OA
ATOM     36  H   UNL     1      13.406  31.199 126.045  1.00  0.00     0.211 HD
ENDBRANCH  30  35
BRANCH  31  37
ATOM     37  C   UNL     1      13.703  33.332 121.364  1.00  0.00     0.191 C 
BRANCH  37  38
ATOM     38  O   UNL     1      14.966  32.737 121.240  1.00  0.00    -0.394 OA
ATOM     39  H   UNL     1      15.175  32.324 122.118  1.00  0.00     0.210 HD
ENDBRANCH  37  38
ENDBRANCH  31  37
BRANCH  32  40
ATOM     40  O   UNL     1      13.783  31.093 123.270  1.00  0.00    -0.387 OA
ATOM     41  H   UNL     1      14.534  31.507 122.768  1.00  0.00     0.211 HD
ENDBRANCH  32  40
ENDBRANCH   1  27
TORSDOF 12
ENDMDL
MODEL 9
REMARK VINA RESULT:    -6.118     10.452     12.731
REMARK INTER + INTRA:         -10.831
REMARK INTER:                  -9.668
REMARK INTRA:                  -1.163
REMARK UNBOUND:                -1.851
REMARK SMILES O=c1c(O[C@H]2O[C@H](CO)[C@@H](O)[C@@H](O)[C@H]2O)c(-c2ccc(O)c(O)c2)oc2cc(O)cc(O)c12
REMARK SMILES IDX 4 1 3 2 16 3 25 4 2 5 26 6 1 7 33 8 27 9 31 10 28 11 30 12
REMARK SMILES IDX 17 13 18 14 19 15 20 16 24 17 22 18 21 19 23 21 32 23 29 25
REMARK SMILES IDX 5 27 14 28 6 29 12 30 7 31 10 32 15 33 13 35 8 37 9 38 11 40
REMARK H PARENT 21 20 23 22 32 24 29 26 15 34 13 36 9 39 11 41
REMARK Flexibility Score: inf
ROOT
ATOM      1  O   UNL     1      24.844  32.367 121.980  1.00  0.00    -0.454 OA
ENDROOT
BRANCH   1   2
ATOM      2  C   UNL     1      25.768  31.486 122.556  1.00  0.00     0.214 A 
ATOM      3  C   UNL     1      26.985  31.938 123.112  1.00  0.00     0.180 A 
ATOM      4  O   UNL     1      27.790  31.075 123.725  1.00  0.00    -0.452 OA
ATOM      5  C   UNL     1      25.479  30.117 122.588  1.00  0.00     0.239 A 
ATOM      6  C   UNL     1      27.535  29.774 123.812  1.00  0.00     0.146 A 
ATOM      7  O   UNL     1      24.414  29.703 122.053  1.00  0.00    -0.285 OA
ATOM      8  C   UNL     1      26.365  29.230 123.229  1.00  0.00     0.111 A 
ATOM      9  C   UNL     1      28.442  28.946 124.476  1.00  0.00     0.094 A 
ATOM     10  C   UNL     1      26.133  27.837 123.325  1.00  0.00     0.134 A 
ATOM     11  C   UNL     1      28.207  27.573 124.570  1.00  0.00     0.123 A 
ATOM     12  C   UNL     1      27.057  27.022 123.995  1.00  0.00     0.093 A 
BRANCH   3  13
ATOM     13  C   UNL     1      27.417  33.350 123.024  1.00  0.00     0.025 A 
ATOM     14  C   UNL     1      28.380  33.756 122.084  1.00  0.00     0.016 A 
ATOM     15  C   UNL     1      28.786  35.091 122.023  1.00  0.00     0.051 A 
ATOM     16  C   UNL     1      28.248  36.035 122.907  1.00  0.00     0.157 A 
ATOM     17  C   UNL     1      26.898  34.293 123.924  1.00  0.00     0.062 A 
ATOM     18  C   UNL     1      27.302  35.631 123.865  1.00  0.00     0.158 A 
BRANCH  16  19
ATOM     19  O   UNL     1      28.653  37.367 122.840  1.00  0.00    -0.504 OA
ATOM     20  H   UNL     1      28.047  38.088 122.468  1.00  0.00     0.293 HD
ENDBRANCH  16  19
BRANCH  18  21
ATOM     21  O   UNL     1      26.754  36.545 124.765  1.00  0.00    -0.504 OA
ATOM     22  H   UNL     1      26.465  37.474 124.480  1.00  0.00     0.293 HD
ENDBRANCH  18  21
ENDBRANCH   3  13
BRANCH  10  23
ATOM     23  O   UNL     1      24.993  27.260 122.763  1.00  0.00    -0.507 OA
ATOM     24  H   UNL     1      25.043  26.670 121.942  1.00  0.00     0.293 HD
ENDBRANCH  10  23
BRANCH  11  25
ATOM     25  O   UNL     1      29.125  26.763 125.237  1.00  0.00    -0.508 OA
ATOM     26  H   UNL     1      30.103  26.746 124.974  1.00  0.00     0.293 HD
ENDBRANCH  11  25
ENDBRANCH   1   2
BRANCH   1  27
ATOM     27  C   UNL     1      24.746  32.587 120.567  1.00  0.00     0.339 C 
ATOM     28  C   UNL     1      24.359  34.043 120.246  1.00  0.00     0.214 C 
ATOM     29  O   UNL     1      23.840  31.673 119.975  1.00  0.00    -0.332 OA
ATOM     30  C   UNL     1      22.891  34.344 120.617  1.00  0.00     0.180 C 
ATOM     31  C   UNL     1      22.529  31.822 120.496  1.00  0.00     0.179 C 
ATOM     32  C   UNL     1      21.953  33.212 120.136  1.00  0.00     0.177 C 
BRANCH  28  33
ATOM     33  O   UNL     1      25.231  34.927 120.902  1.00  0.00    -0.384 OA
ATOM     34  H   UNL     1      25.024  35.837 120.563  1.00  0.00     0.211 HD
ENDBRANCH  28  33
BRANCH  30  35
ATOM     35  O   UNL     1      22.744  34.615 121.991  1.00  0.00    -0.387 OA
ATOM     36  H   UNL     1      21.778  34.694 122.196  1.00  0.00     0.211 HD
ENDBRANCH  30  35
BRANCH  31  37
ATOM     37  C   UNL     1      21.650  30.706 119.909  1.00  0.00     0.191 C 
BRANCH  37  38
ATOM     38  O   UNL     1      21.294  29.786 120.905  1.00  0.00    -0.394 OA
ATOM     39  H   UNL     1      20.317  29.881 121.045  1.00  0.00     0.210 HD
ENDBRANCH  37  38
ENDBRANCH  31  37
BRANCH  32  40
ATOM     40  O   UNL     1      20.679  33.365 120.708  1.00  0.00    -0.387 OA
ATOM     41  H   UNL     1      20.480  32.521 121.192  1.00  0.00     0.211 HD
ENDBRANCH  32  40
ENDBRANCH   1  27
TORSDOF 12
ENDMDL
