MODEL 1
REMARK VINA RESULT:    -5.019      0.000      0.000
REMARK INTER + INTRA:         -14.886
REMARK INTER:                 -11.474
REMARK INTRA:                  -3.412
REMARK UNBOUND:                -3.412
REMARK SMILES CCCCCCCCCCCCCCCCCCCCCCCC(=O)[O-]
REMARK SMILES IDX 13 1 14 2 15 3 16 4 17 5 18 6 19 7 20 8 21 9 22 10 23 11
REMARK SMILES IDX 24 12 25 13 26 14 12 15 11 16 10 17 9 18 8 19 7 20 6 21 5 22
REMARK SMILES IDX 4 23 3 24 2 25 1 26
REMARK H PARENT
REMARK Flexibility Score: inf
ROOT
ATOM      1  C   UNL     1      -3.485   1.234   9.692  1.00  0.00     0.000 C 
ENDROOT
BRANCH   1   2
ATOM      2  C   UNL     1      -3.743  -0.240   9.338  1.00  0.00     0.000 C 
BRANCH   2   3
ATOM      3  C   UNL     1      -2.528  -0.917   8.684  1.00  0.00     0.000 C 
BRANCH   3   4
ATOM      4  C   UNL     1      -1.254  -0.060   8.779  1.00  0.00     0.000 C 
BRANCH   4   5
ATOM      5  C   UNL     1      -0.242  -0.620   9.793  1.00  0.00     0.000 C 
BRANCH   5   6
ATOM      6  C   UNL     1      -0.375   0.023  11.181  1.00  0.00     0.000 C 
BRANCH   6   7
ATOM      7  C   UNL     1      -0.982  -0.937  12.221  1.00  0.00     0.000 C 
BRANCH   7   8
ATOM      8  C   UNL     1      -0.318  -2.324  12.199  1.00  0.00     0.000 C 
BRANCH   8   9
ATOM      9  C   UNL     1      -1.343  -3.468  12.292  1.00  0.00     0.000 C 
BRANCH   9  10
ATOM     10  C   UNL     1      -2.338  -3.470  11.117  1.00  0.00     0.006 C 
BRANCH  10  11
ATOM     11  C   UNL     1      -3.748  -3.965  11.481  1.00  0.00     0.053 C 
BRANCH  11  12
ATOM     12  C   UNL     1      -4.496  -4.464  10.283  1.00  0.00     0.041 C 
ATOM     13  O   UNL     1      -4.086  -4.195   9.123  1.00  0.00    -0.550 OA
ATOM     14  O   UNL     1      -5.628  -5.253  10.449  1.00  0.00    -0.550 OA
ENDBRANCH  11  12
ENDBRANCH  10  11
ENDBRANCH   9  10
ENDBRANCH   8   9
ENDBRANCH   7   8
ENDBRANCH   6   7
ENDBRANCH   5   6
ENDBRANCH   4   5
ENDBRANCH   3   4
ENDBRANCH   2   3
ENDBRANCH   1   2
BRANCH   1  15
ATOM     15  C   UNL     1      -3.877   1.598  11.140  1.00  0.00     0.000 C 
BRANCH  15  16
ATOM     16  C   UNL     1      -4.258   0.362  11.969  1.00  0.00     0.000 C 
BRANCH  16  17
ATOM     17  C   UNL     1      -5.295   0.721  13.044  1.00  0.00     0.000 C 
BRANCH  17  18
ATOM     18  C   UNL     1      -5.120   2.148  13.591  1.00  0.00    -0.000 C 
BRANCH  18  19
ATOM     19  C   UNL     1      -4.891   2.175  15.113  1.00  0.00    -0.000 C 
BRANCH  19  20
ATOM     20  C   UNL     1      -3.603   2.918  15.512  1.00  0.00    -0.000 C 
BRANCH  20  21
ATOM     21  C   UNL     1      -2.348   2.528  14.708  1.00  0.00    -0.000 C 
BRANCH  21  22
ATOM     22  C   UNL     1      -1.845   1.109  15.027  1.00  0.00    -0.000 C 
BRANCH  22  23
ATOM     23  C   UNL     1      -0.532   1.124  15.841  1.00  0.00    -0.000 C 
BRANCH  23  24
ATOM     24  C   UNL     1      -0.749   1.123  17.367  1.00  0.00    -0.000 C 
BRANCH  24  25
ATOM     25  C   UNL     1      -0.027  -0.009  18.118  1.00  0.00    -0.003 C 
ATOM     26  C   UNL     1      -0.428  -0.094  19.590  1.00  0.00     0.004 C 
ENDBRANCH  24  25
ENDBRANCH  23  24
ENDBRANCH  22  23
ENDBRANCH  21  22
ENDBRANCH  20  21
ENDBRANCH  19  20
ENDBRANCH  18  19
ENDBRANCH  17  18
ENDBRANCH  16  17
ENDBRANCH  15  16
ENDBRANCH   1  15
TORSDOF 22
ENDMDL
MODEL 2
REMARK VINA RESULT:    -4.669      3.750      5.732
REMARK INTER + INTRA:         -14.086
REMARK INTER:                 -10.440
REMARK INTRA:                  -3.646
REMARK UNBOUND:                -3.412
REMARK SMILES CCCCCCCCCCCCCCCCCCCCCCCC(=O)[O-]
REMARK SMILES IDX 13 1 14 2 15 3 16 4 17 5 18 6 19 7 20 8 21 9 22 10 23 11
REMARK SMILES IDX 24 12 25 13 26 14 12 15 11 16 10 17 9 18 8 19 7 20 6 21 5 22
REMARK SMILES IDX 4 23 3 24 2 25 1 26
REMARK H PARENT
REMARK Flexibility Score: inf
ROOT
ATOM      1  C   UNL     1      -2.115   3.848   9.793  1.00  0.00     0.000 C 
ENDROOT
BRANCH   1   2
ATOM      2  C   UNL     1      -1.852   2.375   9.439  1.00  0.00     0.000 C 
BRANCH   2   3
ATOM      3  C   UNL     1      -2.992   1.444   9.880  1.00  0.00     0.000 C 
BRANCH   3   4
ATOM      4  C   UNL     1      -2.496   0.270  10.740  1.00  0.00     0.000 C 
BRANCH   4   5
ATOM      5  C   UNL     1      -3.483  -0.099  11.861  1.00  0.00     0.000 C 
BRANCH   5   6
ATOM      6  C   UNL     1      -4.684   0.857  11.933  1.00  0.00     0.000 C 
BRANCH   6   7
ATOM      7  C   UNL     1      -5.296   0.930  13.343  1.00  0.00     0.000 C 
BRANCH   7   8
ATOM      8  C   UNL     1      -5.048   2.288  14.023  1.00  0.00     0.000 C 
BRANCH   8   9
ATOM      9  C   UNL     1      -5.484   2.295  15.498  1.00  0.00     0.000 C 
BRANCH   9  10
ATOM     10  C   UNL     1      -5.379   3.690  16.141  1.00  0.00     0.006 C 
BRANCH  10  11
ATOM     11  C   UNL     1      -6.725   4.283  16.591  1.00  0.00     0.053 C 
BRANCH  11  12
ATOM     12  C   UNL     1      -7.740   4.273  15.490  1.00  0.00     0.041 C 
ATOM     13  O   UNL     1      -8.822   3.645  15.632  1.00  0.00    -0.550 OA
ATOM     14  O   UNL     1      -7.504   4.984  14.319  1.00  0.00    -0.550 OA
ENDBRANCH  11  12
ENDBRANCH  10  11
ENDBRANCH   9  10
ENDBRANCH   8   9
ENDBRANCH   7   8
ENDBRANCH   6   7
ENDBRANCH   5   6
ENDBRANCH   4   5
ENDBRANCH   3   4
ENDBRANCH   2   3
ENDBRANCH   1   2
BRANCH   1  15
ATOM     15  C   UNL     1      -3.531   4.103  10.355  1.00  0.00     0.000 C 
BRANCH  15  16
ATOM     16  C   UNL     1      -3.498   4.665  11.784  1.00  0.00     0.000 C 
BRANCH  16  17
ATOM     17  C   UNL     1      -2.100   4.515  12.402  1.00  0.00     0.000 C 
BRANCH  17  18
ATOM     18  C   UNL     1      -2.076   3.550  13.599  1.00  0.00    -0.000 C 
BRANCH  18  19
ATOM     19  C   UNL     1      -0.953   2.503  13.494  1.00  0.00    -0.000 C 
BRANCH  19  20
ATOM     20  C   UNL     1      -1.262   1.211  14.273  1.00  0.00    -0.000 C 
BRANCH  20  21
ATOM     21  C   UNL     1      -1.806   1.423  15.699  1.00  0.00    -0.000 C 
BRANCH  21  22
ATOM     22  C   UNL     1      -0.720   1.844  16.702  1.00  0.00    -0.000 C 
BRANCH  22  23
ATOM     23  C   UNL     1       0.518   0.920  16.646  1.00  0.00    -0.000 C 
BRANCH  23  24
ATOM     24  C   UNL     1       0.864   0.266  17.997  1.00  0.00    -0.000 C 
BRANCH  24  25
ATOM     25  C   UNL     1      -0.334  -0.354  18.737  1.00  0.00    -0.003 C 
ATOM     26  C   UNL     1      -0.613   0.316  20.081  1.00  0.00     0.004 C 
ENDBRANCH  24  25
ENDBRANCH  23  24
ENDBRANCH  22  23
ENDBRANCH  21  22
ENDBRANCH  20  21
ENDBRANCH  19  20
ENDBRANCH  18  19
ENDBRANCH  17  18
ENDBRANCH  16  17
ENDBRANCH  15  16
ENDBRANCH   1  15
TORSDOF 22
ENDMDL
MODEL 3
REMARK VINA RESULT:    -4.642      2.922      6.750
REMARK INTER + INTRA:         -14.025
REMARK INTER:                  -9.509
REMARK INTRA:                  -4.515
REMARK UNBOUND:                -3.412
REMARK SMILES CCCCCCCCCCCCCCCCCCCCCCCC(=O)[O-]
REMARK SMILES IDX 13 1 14 2 15 3 16 4 17 5 18 6 19 7 20 8 21 9 22 10 23 11
REMARK SMILES IDX 24 12 25 13 26 14 12 15 11 16 10 17 9 18 8 19 7 20 6 21 5 22
REMARK SMILES IDX 4 23 3 24 2 25 1 26
REMARK H PARENT
REMARK Flexibility Score: inf
ROOT
ATOM      1  C   UNL     1      -3.960  -0.075  11.116  1.00  0.00     0.000 C 
ENDROOT
BRANCH   1   2
ATOM      2  C   UNL     1      -4.723   1.170  11.599  1.00  0.00     0.000 C 
BRANCH   2   3
ATOM      3  C   UNL     1      -5.276   1.014  13.024  1.00  0.00     0.000 C 
BRANCH   3   4
ATOM      4  C   UNL     1      -5.248   2.332  13.816  1.00  0.00     0.000 C 
BRANCH   4   5
ATOM      5  C   UNL     1      -4.659   2.160  15.226  1.00  0.00     0.000 C 
BRANCH   5   6
ATOM      6  C   UNL     1      -3.613   3.233  15.567  1.00  0.00     0.000 C 
BRANCH   6   7
ATOM      7  C   UNL     1      -2.172   2.694  15.499  1.00  0.00     0.000 C 
BRANCH   7   8
ATOM      8  C   UNL     1      -2.119   1.199  15.139  1.00  0.00     0.000 C 
BRANCH   8   9
ATOM      9  C   UNL     1      -1.531   0.952  13.739  1.00  0.00     0.000 C 
BRANCH   9  10
ATOM     10  C   UNL     1      -0.912   2.220  13.123  1.00  0.00     0.006 C 
BRANCH  10  11
ATOM     11  C   UNL     1      -1.176   2.387  11.617  1.00  0.00     0.053 C 
BRANCH  11  12
ATOM     12  C   UNL     1      -2.163   3.477  11.337  1.00  0.00     0.041 C 
ATOM     13  O   UNL     1      -2.595   4.198  12.275  1.00  0.00    -0.550 OA
ATOM     14  O   UNL     1      -2.581   3.719  10.033  1.00  0.00    -0.550 OA
ENDBRANCH  11  12
ENDBRANCH  10  11
ENDBRANCH   9  10
ENDBRANCH   8   9
ENDBRANCH   7   8
ENDBRANCH   6   7
ENDBRANCH   5   6
ENDBRANCH   4   5
ENDBRANCH   3   4
ENDBRANCH   2   3
ENDBRANCH   1   2
BRANCH   1  15
ATOM     15  C   UNL     1      -3.634  -0.051   9.607  1.00  0.00     0.000 C 
BRANCH  15  16
ATOM     16  C   UNL     1      -4.138  -1.308   8.882  1.00  0.00     0.000 C 
BRANCH  16  17
ATOM     17  C   UNL     1      -2.963  -2.174   8.403  1.00  0.00     0.000 C 
BRANCH  17  18
ATOM     18  C   UNL     1      -3.209  -3.679   8.604  1.00  0.00    -0.000 C 
BRANCH  18  19
ATOM     19  C   UNL     1      -4.429  -3.966   9.497  1.00  0.00    -0.000 C 
BRANCH  19  20
ATOM     20  C   UNL     1      -4.048  -4.596  10.850  1.00  0.00    -0.000 C 
BRANCH  20  21
ATOM     21  C   UNL     1      -3.480  -3.612  11.891  1.00  0.00    -0.000 C 
BRANCH  21  22
ATOM     22  C   UNL     1      -1.955  -3.725  12.057  1.00  0.00    -0.000 C 
BRANCH  22  23
ATOM     23  C   UNL     1      -1.258  -2.346  12.008  1.00  0.00    -0.000 C 
BRANCH  23  24
ATOM     24  C   UNL     1      -0.246  -2.205  10.855  1.00  0.00    -0.000 C 
BRANCH  24  25
ATOM     25  C   UNL     1      -0.050  -0.767  10.345  1.00  0.00    -0.003 C 
ATOM     26  C   UNL     1       0.403  -0.711   8.887  1.00  0.00     0.004 C 
ENDBRANCH  24  25
ENDBRANCH  23  24
ENDBRANCH  22  23
ENDBRANCH  21  22
ENDBRANCH  20  21
ENDBRANCH  19  20
ENDBRANCH  18  19
ENDBRANCH  17  18
ENDBRANCH  16  17
ENDBRANCH  15  16
ENDBRANCH   1  15
TORSDOF 22
ENDMDL
MODEL 4
REMARK VINA RESULT:    -4.602      3.509      7.149
REMARK INTER + INTRA:         -13.934
REMARK INTER:                  -9.903
REMARK INTRA:                  -4.031
REMARK UNBOUND:                -3.412
REMARK SMILES CCCCCCCCCCCCCCCCCCCCCCCC(=O)[O-]
REMARK SMILES IDX 13 1 14 2 15 3 16 4 17 5 18 6 19 7 20 8 21 9 22 10 23 11
REMARK SMILES IDX 24 12 25 13 26 14 12 15 11 16 10 17 9 18 8 19 7 20 6 21 5 22
REMARK SMILES IDX 4 23 3 24 2 25 1 26
REMARK H PARENT
REMARK Flexibility Score: inf
ROOT
ATOM      1  C   UNL     1      -3.676   3.511   9.971  1.00  0.00     0.000 C 
ENDROOT
BRANCH   1   2
ATOM      2  C   UNL     1      -3.841   2.880  11.364  1.00  0.00     0.000 C 
BRANCH   2   3
ATOM      3  C   UNL     1      -4.410   1.453  11.306  1.00  0.00     0.000 C 
BRANCH   3   4
ATOM      4  C   UNL     1      -4.050   0.624  12.550  1.00  0.00     0.000 C 
BRANCH   4   5
ATOM      5  C   UNL     1      -2.576   0.787  12.960  1.00  0.00     0.000 C 
BRANCH   5   6
ATOM      6  C   UNL     1      -2.413   1.270  14.410  1.00  0.00     0.000 C 
BRANCH   6   7
ATOM      7  C   UNL     1      -3.701   1.901  14.970  1.00  0.00     0.000 C 
BRANCH   7   8
ATOM      8  C   UNL     1      -3.530   3.394  15.298  1.00  0.00     0.000 C 
BRANCH   8   9
ATOM      9  C   UNL     1      -4.724   4.241  14.824  1.00  0.00     0.000 C 
BRANCH   9  10
ATOM     10  C   UNL     1      -5.854   3.387  14.219  1.00  0.00     0.006 C 
BRANCH  10  11
ATOM     11  C   UNL     1      -7.257   3.724  14.751  1.00  0.00     0.053 C 
BRANCH  11  12
ATOM     12  C   UNL     1      -7.335   3.615  16.242  1.00  0.00     0.041 C 
ATOM     13  O   UNL     1      -7.023   2.537  16.815  1.00  0.00    -0.550 OA
ATOM     14  O   UNL     1      -7.719   4.713  17.001  1.00  0.00    -0.550 OA
ENDBRANCH  11  12
ENDBRANCH  10  11
ENDBRANCH   9  10
ENDBRANCH   8   9
ENDBRANCH   7   8
ENDBRANCH   6   7
ENDBRANCH   5   6
ENDBRANCH   4   5
ENDBRANCH   3   4
ENDBRANCH   2   3
ENDBRANCH   1   2
BRANCH   1  15
ATOM     15  C   UNL     1      -2.235   3.981   9.675  1.00  0.00     0.000 C 
BRANCH  15  16
ATOM     16  C   UNL     1      -1.198   2.876   9.924  1.00  0.00     0.000 C 
BRANCH  16  17
ATOM     17  C   UNL     1      -1.305   1.773   8.861  1.00  0.00     0.000 C 
BRANCH  17  18
ATOM     18  C   UNL     1      -1.527   0.377   9.468  1.00  0.00    -0.000 C 
BRANCH  18  19
ATOM     19  C   UNL     1      -1.995  -0.654   8.425  1.00  0.00    -0.000 C 
BRANCH  19  20
ATOM     20  C   UNL     1      -3.365  -1.271   8.766  1.00  0.00    -0.000 C 
BRANCH  20  21
ATOM     21  C   UNL     1      -3.411  -2.811   8.737  1.00  0.00    -0.000 C 
BRANCH  21  22
ATOM     22  C   UNL     1      -3.986  -3.421  10.027  1.00  0.00    -0.000 C 
BRANCH  22  23
ATOM     23  C   UNL     1      -3.409  -2.756  11.296  1.00  0.00    -0.000 C 
BRANCH  23  24
ATOM     24  C   UNL     1      -2.090  -3.388  11.781  1.00  0.00    -0.000 C 
BRANCH  24  25
ATOM     25  C   UNL     1      -0.902  -2.413  11.864  1.00  0.00    -0.003 C 
ATOM     26  C   UNL     1       0.151  -2.667  10.786  1.00  0.00     0.004 C 
ENDBRANCH  24  25
ENDBRANCH  23  24
ENDBRANCH  22  23
ENDBRANCH  21  22
ENDBRANCH  20  21
ENDBRANCH  19  20
ENDBRANCH  18  19
ENDBRANCH  17  18
ENDBRANCH  16  17
ENDBRANCH  15  16
ENDBRANCH   1  15
TORSDOF 22
ENDMDL
MODEL 5
REMARK VINA RESULT:    -4.599      3.556      7.212
REMARK INTER + INTRA:         -13.925
REMARK INTER:                  -9.445
REMARK INTRA:                  -4.481
REMARK UNBOUND:                -3.412
REMARK SMILES CCCCCCCCCCCCCCCCCCCCCCCC(=O)[O-]
REMARK SMILES IDX 13 1 14 2 15 3 16 4 17 5 18 6 19 7 20 8 21 9 22 10 23 11
REMARK SMILES IDX 24 12 25 13 26 14 12 15 11 16 10 17 9 18 8 19 7 20 6 21 5 22
REMARK SMILES IDX 4 23 3 24 2 25 1 26
REMARK H PARENT
REMARK Flexibility Score: inf
ROOT
ATOM      1  C   UNL     1      -1.267   2.928  11.940  1.00  0.00     0.000 C 
ENDROOT
BRANCH   1   2
ATOM      2  C   UNL     1      -2.587   3.613  11.549  1.00  0.00     0.000 C 
BRANCH   2   3
ATOM      3  C   UNL     1      -3.188   3.051  10.251  1.00  0.00     0.000 C 
BRANCH   3   4
ATOM      4  C   UNL     1      -4.402   2.142  10.508  1.00  0.00     0.000 C 
BRANCH   4   5
ATOM      5  C   UNL     1      -3.997   0.694  10.831  1.00  0.00     0.000 C 
BRANCH   5   6
ATOM      6  C   UNL     1      -4.444   0.251  12.232  1.00  0.00     0.000 C 
BRANCH   6   7
ATOM      7  C   UNL     1      -5.191   1.362  12.992  1.00  0.00     0.000 C 
BRANCH   7   8
ATOM      8  C   UNL     1      -4.717   1.501  14.449  1.00  0.00     0.000 C 
BRANCH   8   9
ATOM      9  C   UNL     1      -4.565   2.971  14.879  1.00  0.00     0.000 C 
BRANCH   9  10
ATOM     10  C   UNL     1      -5.383   3.934  14.000  1.00  0.00     0.006 C 
BRANCH  10  11
ATOM     11  C   UNL     1      -6.435   4.753  14.767  1.00  0.00     0.053 C 
BRANCH  11  12
ATOM     12  C   UNL     1      -7.668   3.954  15.057  1.00  0.00     0.041 C 
ATOM     13  O   UNL     1      -7.696   3.165  16.038  1.00  0.00    -0.550 OA
ATOM     14  O   UNL     1      -8.798   4.105  14.262  1.00  0.00    -0.550 OA
ENDBRANCH  11  12
ENDBRANCH  10  11
ENDBRANCH   9  10
ENDBRANCH   8   9
ENDBRANCH   7   8
ENDBRANCH   6   7
ENDBRANCH   5   6
ENDBRANCH   4   5
ENDBRANCH   3   4
ENDBRANCH   2   3
ENDBRANCH   1   2
BRANCH   1  15
ATOM     15  C   UNL     1      -1.184   2.556  13.436  1.00  0.00     0.000 C 
BRANCH  15  16
ATOM     16  C   UNL     1      -1.148   1.037  13.658  1.00  0.00     0.000 C 
BRANCH  16  17
ATOM     17  C   UNL     1      -0.449   0.328  12.488  1.00  0.00     0.000 C 
BRANCH  17  18
ATOM     18  C   UNL     1      -1.033  -1.066  12.201  1.00  0.00    -0.000 C 
BRANCH  18  19
ATOM     19  C   UNL     1      -0.363  -1.751  10.996  1.00  0.00    -0.000 C 
BRANCH  19  20
ATOM     20  C   UNL     1      -0.128  -0.791   9.815  1.00  0.00    -0.000 C 
BRANCH  20  21
ATOM     21  C   UNL     1      -1.328  -0.621   8.864  1.00  0.00    -0.000 C 
BRANCH  21  22
ATOM     22  C   UNL     1      -2.000  -1.955   8.496  1.00  0.00    -0.000 C 
BRANCH  22  23
ATOM     23  C   UNL     1      -3.542  -1.867   8.551  1.00  0.00    -0.000 C 
BRANCH  23  24
ATOM     24  C   UNL     1      -4.201  -3.028   9.319  1.00  0.00    -0.000 C 
BRANCH  24  25
ATOM     25  C   UNL     1      -3.224  -3.907  10.119  1.00  0.00    -0.003 C 
ATOM     26  C   UNL     1      -3.465  -3.842  11.626  1.00  0.00     0.004 C 
ENDBRANCH  24  25
ENDBRANCH  23  24
ENDBRANCH  22  23
ENDBRANCH  21  22
ENDBRANCH  20  21
ENDBRANCH  19  20
ENDBRANCH  18  19
ENDBRANCH  17  18
ENDBRANCH  16  17
ENDBRANCH  15  16
ENDBRANCH   1  15
TORSDOF 22
ENDMDL
MODEL 6
REMARK VINA RESULT:    -4.571      3.897      7.889
REMARK INTER + INTRA:         -13.862
REMARK INTER:                 -10.035
REMARK INTRA:                  -3.827
REMARK UNBOUND:                -3.412
REMARK SMILES CCCCCCCCCCCCCCCCCCCCCCCC(=O)[O-]
REMARK SMILES IDX 13 1 14 2 15 3 16 4 17 5 18 6 19 7 20 8 21 9 22 10 23 11
REMARK SMILES IDX 24 12 25 13 26 14 12 15 11 16 10 17 9 18 8 19 7 20 6 21 5 22
REMARK SMILES IDX 4 23 3 24 2 25 1 26
REMARK H PARENT
REMARK Flexibility Score: inf
ROOT
ATOM      1  C   UNL     1      -1.850  -0.219  12.650  1.00  0.00     0.000 C 
ENDROOT
BRANCH   1   2
ATOM      2  C   UNL     1      -1.374   0.997  13.461  1.00  0.00     0.000 C 
BRANCH   2   3
ATOM      3  C   UNL     1      -1.786   0.925  14.940  1.00  0.00     0.000 C 
BRANCH   3   4
ATOM      4  C   UNL     1      -1.908   2.315  15.587  1.00  0.00     0.000 C 
BRANCH   4   5
ATOM      5  C   UNL     1      -2.229   3.416  14.562  1.00  0.00     0.000 C 
BRANCH   5   6
ATOM      6  C   UNL     1      -3.663   3.951  14.694  1.00  0.00     0.000 C 
BRANCH   6   7
ATOM      7  C   UNL     1      -4.631   3.300  13.691  1.00  0.00     0.000 C 
BRANCH   7   8
ATOM      8  C   UNL     1      -5.766   2.526  14.384  1.00  0.00     0.000 C 
BRANCH   8   9
ATOM      9  C   UNL     1      -5.664   2.583  15.918  1.00  0.00     0.000 C 
BRANCH   9  10
ATOM     10  C   UNL     1      -7.009   2.916  16.591  1.00  0.00     0.006 C 
BRANCH  10  11
ATOM     11  C   UNL     1      -7.706   4.166  16.028  1.00  0.00     0.053 C 
BRANCH  11  12
ATOM     12  C   UNL     1      -6.872   5.398  16.196  1.00  0.00     0.041 C 
ATOM     13  O   UNL     1      -6.569   6.100  15.195  1.00  0.00    -0.550 OA
ATOM     14  O   UNL     1      -6.457   5.790  17.463  1.00  0.00    -0.550 OA
ENDBRANCH  11  12
ENDBRANCH  10  11
ENDBRANCH   9  10
ENDBRANCH   8   9
ENDBRANCH   7   8
ENDBRANCH   6   7
ENDBRANCH   5   6
ENDBRANCH   4   5
ENDBRANCH   3   4
ENDBRANCH   2   3
ENDBRANCH   1   2
BRANCH   1  15
ATOM     15  C   UNL     1      -0.696  -1.042  12.037  1.00  0.00     0.000 C 
BRANCH  15  16
ATOM     16  C   UNL     1      -1.075  -2.517  11.836  1.00  0.00     0.000 C 
BRANCH  16  17
ATOM     17  C   UNL     1      -2.537  -2.652  11.386  1.00  0.00     0.000 C 
BRANCH  17  18
ATOM     18  C   UNL     1      -2.676  -3.248   9.974  1.00  0.00    -0.000 C 
BRANCH  18  19
ATOM     19  C   UNL     1      -3.270  -2.248   8.966  1.00  0.00    -0.000 C 
BRANCH  19  20
ATOM     20  C   UNL     1      -2.251  -1.195   8.493  1.00  0.00    -0.000 C 
BRANCH  20  21
ATOM     21  C   UNL     1      -2.542   0.246   8.952  1.00  0.00    -0.000 C 
BRANCH  21  22
ATOM     22  C   UNL     1      -3.925   0.402   9.607  1.00  0.00    -0.000 C 
BRANCH  22  23
ATOM     23  C   UNL     1      -3.965   1.571  10.617  1.00  0.00    -0.000 C 
BRANCH  23  24
ATOM     24  C   UNL     1      -3.991   2.962   9.954  1.00  0.00    -0.000 C 
BRANCH  24  25
ATOM     25  C   UNL     1      -2.981   3.968  10.531  1.00  0.00    -0.003 C 
ATOM     26  C   UNL     1      -1.577   3.383  10.677  1.00  0.00     0.004 C 
ENDBRANCH  24  25
ENDBRANCH  23  24
ENDBRANCH  22  23
ENDBRANCH  21  22
ENDBRANCH  20  21
ENDBRANCH  19  20
ENDBRANCH  18  19
ENDBRANCH  17  18
ENDBRANCH  16  17
ENDBRANCH  15  16
ENDBRANCH   1  15
TORSDOF 22
ENDMDL
MODEL 7
REMARK VINA RESULT:    -4.557      2.543      4.178
REMARK INTER + INTRA:         -13.830
REMARK INTER:                 -10.736
REMARK INTRA:                  -3.094
REMARK UNBOUND:                -3.412
REMARK SMILES CCCCCCCCCCCCCCCCCCCCCCCC(=O)[O-]
REMARK SMILES IDX 13 1 14 2 15 3 16 4 17 5 18 6 19 7 20 8 21 9 22 10 23 11
REMARK SMILES IDX 24 12 25 13 26 14 12 15 11 16 10 17 9 18 8 19 7 20 6 21 5 22
REMARK SMILES IDX 4 23 3 24 2 25 1 26
REMARK H PARENT
REMARK Flexibility Score: inf
ROOT
ATOM      1  C   UNL     1      -4.866   0.644  12.653  1.00  0.00     0.000 C 
ENDROOT
BRANCH   1   2
ATOM      2  C   UNL     1      -3.637   0.226  11.828  1.00  0.00     0.000 C 
BRANCH   2   3
ATOM      3  C   UNL     1      -3.983  -0.091  10.365  1.00  0.00     0.000 C 
BRANCH   3   4
ATOM      4  C   UNL     1      -3.080   0.657   9.369  1.00  0.00     0.000 C 
BRANCH   4   5
ATOM      5  C   UNL     1      -2.081  -0.276   8.663  1.00  0.00     0.000 C 
BRANCH   5   6
ATOM      6  C   UNL     1      -0.701  -0.288   9.338  1.00  0.00     0.000 C 
BRANCH   6   7
ATOM      7  C   UNL     1      -0.290  -1.692   9.817  1.00  0.00     0.000 C 
BRANCH   7   8
ATOM      8  C   UNL     1      -0.165  -1.778  11.348  1.00  0.00     0.000 C 
BRANCH   8   9
ATOM      9  C   UNL     1      -1.307  -2.587  11.987  1.00  0.00     0.000 C 
BRANCH   9  10
ATOM     10  C   UNL     1      -2.189  -3.295  10.942  1.00  0.00     0.006 C 
BRANCH  10  11
ATOM     11  C   UNL     1      -3.525  -3.821  11.493  1.00  0.00     0.053 C 
BRANCH  11  12
ATOM     12  C   UNL     1      -4.321  -4.538  10.447  1.00  0.00     0.041 C 
ATOM     13  O   UNL     1      -5.186  -5.391  10.783  1.00  0.00    -0.550 OA
ATOM     14  O   UNL     1      -4.131  -4.242   9.103  1.00  0.00    -0.550 OA
ENDBRANCH  11  12
ENDBRANCH  10  11
ENDBRANCH   9  10
ENDBRANCH   8   9
ENDBRANCH   7   8
ENDBRANCH   6   7
ENDBRANCH   5   6
ENDBRANCH   4   5
ENDBRANCH   3   4
ENDBRANCH   2   3
ENDBRANCH   1   2
BRANCH   1  15
ATOM     15  C   UNL     1      -4.509   1.400  13.951  1.00  0.00     0.000 C 
BRANCH  15  16
ATOM     16  C   UNL     1      -5.637   2.338  14.408  1.00  0.00     0.000 C 
BRANCH  16  17
ATOM     17  C   UNL     1      -5.650   2.476  15.938  1.00  0.00     0.000 C 
BRANCH  17  18
ATOM     18  C   UNL     1      -7.026   2.886  16.489  1.00  0.00    -0.000 C 
BRANCH  18  19
ATOM     19  C   UNL     1      -7.559   4.180  15.849  1.00  0.00    -0.000 C 
BRANCH  19  20
ATOM     20  C   UNL     1      -7.506   5.387  16.804  1.00  0.00    -0.000 C 
BRANCH  20  21
ATOM     21  C   UNL     1      -6.521   6.499  16.397  1.00  0.00    -0.000 C 
BRANCH  21  22
ATOM     22  C   UNL     1      -5.792   6.204  15.075  1.00  0.00    -0.000 C 
BRANCH  22  23
ATOM     23  C   UNL     1      -4.300   5.865  15.294  1.00  0.00    -0.000 C 
BRANCH  23  24
ATOM     24  C   UNL     1      -3.545   5.527  13.995  1.00  0.00    -0.000 C 
BRANCH  24  25
ATOM     25  C   UNL     1      -4.447   5.163  12.803  1.00  0.00    -0.003 C 
ATOM     26  C   UNL     1      -3.722   4.337  11.740  1.00  0.00     0.004 C 
ENDBRANCH  24  25
ENDBRANCH  23  24
ENDBRANCH  22  23
ENDBRANCH  21  22
ENDBRANCH  20  21
ENDBRANCH  19  20
ENDBRANCH  18  19
ENDBRANCH  17  18
ENDBRANCH  16  17
ENDBRANCH  15  16
ENDBRANCH   1  15
TORSDOF 22
ENDMDL
MODEL 8
REMARK VINA RESULT:    -4.541      2.255      4.434
REMARK INTER + INTRA:         -13.794
REMARK INTER:                  -9.823
REMARK INTRA:                  -3.971
REMARK UNBOUND:                -3.412
REMARK SMILES CCCCCCCCCCCCCCCCCCCCCCCC(=O)[O-]
REMARK SMILES IDX 13 1 14 2 15 3 16 4 17 5 18 6 19 7 20 8 21 9 22 10 23 11
REMARK SMILES IDX 24 12 25 13 26 14 12 15 11 16 10 17 9 18 8 19 7 20 6 21 5 22
REMARK SMILES IDX 4 23 3 24 2 25 1 26
REMARK H PARENT
REMARK Flexibility Score: inf
ROOT
ATOM      1  C   UNL     1      -3.235   3.435  10.462  1.00  0.00     0.000 C 
ENDROOT
BRANCH   1   2
ATOM      2  C   UNL     1      -3.380   4.298  11.726  1.00  0.00     0.000 C 
BRANCH   2   3
ATOM      3  C   UNL     1      -2.168   4.185  12.666  1.00  0.00     0.000 C 
BRANCH   3   4
ATOM      4  C   UNL     1      -1.251   3.005  12.306  1.00  0.00     0.000 C 
BRANCH   4   5
ATOM      5  C   UNL     1      -0.963   2.093  13.512  1.00  0.00     0.000 C 
BRANCH   5   6
ATOM      6  C   UNL     1      -0.954   0.602  13.141  1.00  0.00     0.000 C 
BRANCH   6   7
ATOM      7  C   UNL     1      -0.221   0.329  11.815  1.00  0.00     0.000 C 
BRANCH   7   8
ATOM      8  C   UNL     1      -0.645  -1.003  11.172  1.00  0.00     0.000 C 
BRANCH   8   9
ATOM      9  C   UNL     1      -1.402  -1.915  12.153  1.00  0.00     0.000 C 
BRANCH   9  10
ATOM     10  C   UNL     1      -1.718  -3.298  11.555  1.00  0.00     0.006 C 
BRANCH  10  11
ATOM     11  C   UNL     1      -3.219  -3.596  11.408  1.00  0.00     0.053 C 
BRANCH  11  12
ATOM     12  C   UNL     1      -3.675  -3.495   9.985  1.00  0.00     0.041 C 
ATOM     13  O   UNL     1      -4.734  -4.069   9.617  1.00  0.00    -0.550 OA
ATOM     14  O   UNL     1      -2.948  -2.739   9.073  1.00  0.00    -0.550 OA
ENDBRANCH  11  12
ENDBRANCH  10  11
ENDBRANCH   9  10
ENDBRANCH   8   9
ENDBRANCH   7   8
ENDBRANCH   6   7
ENDBRANCH   5   6
ENDBRANCH   4   5
ENDBRANCH   3   4
ENDBRANCH   2   3
ENDBRANCH   1   2
BRANCH   1  15
ATOM     15  C   UNL     1      -4.312   2.334  10.340  1.00  0.00     0.000 C 
BRANCH  15  16
ATOM     16  C   UNL     1      -3.708   0.922  10.381  1.00  0.00     0.000 C 
BRANCH  16  17
ATOM     17  C   UNL     1      -4.197   0.152  11.617  1.00  0.00     0.000 C 
BRANCH  17  18
ATOM     18  C   UNL     1      -5.143   0.981  12.502  1.00  0.00    -0.000 C 
BRANCH  18  19
ATOM     19  C   UNL     1      -4.549   1.272  13.892  1.00  0.00    -0.000 C 
BRANCH  19  20
ATOM     20  C   UNL     1      -5.323   2.361  14.659  1.00  0.00    -0.000 C 
BRANCH  20  21
ATOM     21  C   UNL     1      -4.446   3.448  15.311  1.00  0.00    -0.000 C 
BRANCH  21  22
ATOM     22  C   UNL     1      -5.175   4.224  16.421  1.00  0.00    -0.000 C 
BRANCH  22  23
ATOM     23  C   UNL     1      -6.252   5.178  15.857  1.00  0.00    -0.000 C 
BRANCH  23  24
ATOM     24  C   UNL     1      -7.648   4.969  16.475  1.00  0.00    -0.000 C 
BRANCH  24  25
ATOM     25  C   UNL     1      -8.489   3.868  15.806  1.00  0.00    -0.003 C 
ATOM     26  C   UNL     1      -8.646   4.073  14.300  1.00  0.00     0.004 C 
ENDBRANCH  24  25
ENDBRANCH  23  24
ENDBRANCH  22  23
ENDBRANCH  21  22
ENDBRANCH  20  21
ENDBRANCH  19  20
ENDBRANCH  18  19
ENDBRANCH  17  18
ENDBRANCH  16  17
ENDBRANCH  15  16
ENDBRANCH   1  15
TORSDOF 22
ENDMDL
MODEL 9
REMARK VINA RESULT:    -4.539      2.506      4.921
REMARK INTER + INTRA:         -13.790
REMARK INTER:                 -10.457
REMARK INTRA:                  -3.332
REMARK UNBOUND:                -3.412
REMARK SMILES CCCCCCCCCCCCCCCCCCCCCCCC(=O)[O-]
REMARK SMILES IDX 13 1 14 2 15 3 16 4 17 5 18 6 19 7 20 8 21 9 22 10 23 11
REMARK SMILES IDX 24 12 25 13 26 14 12 15 11 16 10 17 9 18 8 19 7 20 6 21 5 22
REMARK SMILES IDX 4 23 3 24 2 25 1 26
REMARK H PARENT
REMARK Flexibility Score: inf
ROOT
ATOM      1  C   UNL     1      -1.674   3.280  12.910  1.00  0.00     0.000 C 
ENDROOT
BRANCH   1   2
ATOM      2  C   UNL     1      -2.361   4.569  12.432  1.00  0.00     0.000 C 
BRANCH   2   3
ATOM      3  C   UNL     1      -3.721   4.306  11.763  1.00  0.00     0.000 C 
BRANCH   3   4
ATOM      4  C   UNL     1      -3.580   3.844  10.303  1.00  0.00     0.000 C 
BRANCH   4   5
ATOM      5  C   UNL     1      -4.098   2.412  10.086  1.00  0.00     0.000 C 
BRANCH   5   6
ATOM      6  C   UNL     1      -2.967   1.373  10.033  1.00  0.00     0.000 C 
BRANCH   6   7
ATOM      7  C   UNL     1      -3.381   0.088   9.293  1.00  0.00     0.000 C 
BRANCH   7   8
ATOM      8  C   UNL     1      -3.963  -0.975  10.241  1.00  0.00     0.000 C 
BRANCH   8   9
ATOM      9  C   UNL     1      -2.894  -1.590  11.161  1.00  0.00     0.000 C 
BRANCH   9  10
ATOM     10  C   UNL     1      -2.858  -3.127  11.086  1.00  0.00     0.006 C 
BRANCH  10  11
ATOM     11  C   UNL     1      -3.544  -3.716   9.842  1.00  0.00     0.053 C 
BRANCH  11  12
ATOM     12  C   UNL     1      -4.626  -4.686  10.203  1.00  0.00     0.041 C 
ATOM     13  O   UNL     1      -4.578  -5.312  11.294  1.00  0.00    -0.550 OA
ATOM     14  O   UNL     1      -5.705  -4.874   9.347  1.00  0.00    -0.550 OA
ENDBRANCH  11  12
ENDBRANCH  10  11
ENDBRANCH   9  10
ENDBRANCH   8   9
ENDBRANCH   7   8
ENDBRANCH   6   7
ENDBRANCH   5   6
ENDBRANCH   4   5
ENDBRANCH   3   4
ENDBRANCH   2   3
ENDBRANCH   1   2
BRANCH   1  15
ATOM     15  C   UNL     1      -2.372   2.621  14.119  1.00  0.00     0.000 C 
BRANCH  15  16
ATOM     16  C   UNL     1      -3.055   1.296  13.747  1.00  0.00     0.000 C 
BRANCH  16  17
ATOM     17  C   UNL     1      -4.540   1.316  14.137  1.00  0.00     0.000 C 
BRANCH  17  18
ATOM     18  C   UNL     1      -4.899   2.490  15.064  1.00  0.00    -0.000 C 
BRANCH  18  19
ATOM     19  C   UNL     1      -6.163   3.240  14.608  1.00  0.00    -0.000 C 
BRANCH  19  20
ATOM     20  C   UNL     1      -7.274   3.247  15.674  1.00  0.00    -0.000 C 
BRANCH  20  21
ATOM     21  C   UNL     1      -7.771   4.645  16.090  1.00  0.00    -0.000 C 
BRANCH  21  22
ATOM     22  C   UNL     1      -6.827   5.351  17.078  1.00  0.00    -0.000 C 
BRANCH  22  23
ATOM     23  C   UNL     1      -6.191   6.622  16.472  1.00  0.00    -0.000 C 
BRANCH  23  24
ATOM     24  C   UNL     1      -4.835   6.368  15.785  1.00  0.00    -0.000 C 
BRANCH  24  25
ATOM     25  C   UNL     1      -4.770   6.804  14.311  1.00  0.00    -0.003 C 
ATOM     26  C   UNL     1      -6.134   6.776  13.622  1.00  0.00     0.004 C 
ENDBRANCH  24  25
ENDBRANCH  23  24
ENDBRANCH  22  23
ENDBRANCH  21  22
ENDBRANCH  20  21
ENDBRANCH  19  20
ENDBRANCH  18  19
ENDBRANCH  17  18
ENDBRANCH  16  17
ENDBRANCH  15  16
ENDBRANCH   1  15
TORSDOF 22
ENDMDL
