MODEL 1
REMARK VINA RESULT:    -5.645      0.000      0.000
REMARK INTER + INTRA:         -13.935
REMARK INTER:                 -12.905
REMARK INTRA:                  -1.030
REMARK UNBOUND:                -1.030
REMARK SMILES CCCCCCCCCCCCCCCCCCCCCCCC(=O)[O-]
REMARK SMILES IDX 13 1 14 2 15 3 16 4 17 5 18 6 19 7 20 8 21 9 22 10 23 11
REMARK SMILES IDX 24 12 25 13 26 14 12 15 11 16 10 17 9 18 8 19 7 20 6 21 5 22
REMARK SMILES IDX 4 23 3 24 2 25 1 26
REMARK H PARENT
REMARK Flexibility Score: inf
ROOT
ATOM      1  C   UNL     1      17.615  21.634  34.672  1.00  0.00     0.000 C 
ENDROOT
BRANCH   1   2
ATOM      2  C   UNL     1      17.488  21.870  33.161  1.00  0.00     0.000 C 
BRANCH   2   3
ATOM      3  C   UNL     1      18.854  21.906  32.454  1.00  0.00     0.000 C 
BRANCH   3   4
ATOM      4  C   UNL     1      19.925  21.082  33.190  1.00  0.00     0.000 C 
BRANCH   4   5
ATOM      5  C   UNL     1      21.008  21.962  33.836  1.00  0.00     0.000 C 
BRANCH   5   6
ATOM      6  C   UNL     1      21.369  21.510  35.264  1.00  0.00     0.000 C 
BRANCH   6   7
ATOM      7  C   UNL     1      22.635  22.199  35.806  1.00  0.00     0.000 C 
BRANCH   7   8
ATOM      8  C   UNL     1      22.403  23.101  37.031  1.00  0.00     0.000 C 
BRANCH   8   9
ATOM      9  C   UNL     1      23.713  23.583  37.674  1.00  0.00     0.000 C 
BRANCH   9  10
ATOM     10  C   UNL     1      24.796  22.496  37.593  1.00  0.00     0.006 C 
BRANCH  10  11
ATOM     11  C   UNL     1      24.693  21.486  38.742  1.00  0.00     0.053 C 
BRANCH  11  12
ATOM     12  C   UNL     1      24.279  22.143  40.024  1.00  0.00     0.041 C 
ATOM     13  O   UNL     1      25.038  22.980  40.581  1.00  0.00    -0.550 OA
ATOM     14  O   UNL     1      23.044  21.851  40.590  1.00  0.00    -0.550 OA
ENDBRANCH  11  12
ENDBRANCH  10  11
ENDBRANCH   9  10
ENDBRANCH   8   9
ENDBRANCH   7   8
ENDBRANCH   6   7
ENDBRANCH   5   6
ENDBRANCH   4   5
ENDBRANCH   3   4
ENDBRANCH   2   3
ENDBRANCH   1   2
BRANCH   1  15
ATOM     15  C   UNL     1      16.327  22.027  35.413  1.00  0.00     0.000 C 
BRANCH  15  16
ATOM     16  C   UNL     1      15.086  22.022  34.492  1.00  0.00     0.000 C 
BRANCH  16  17
ATOM     17  C   UNL     1      14.221  20.752  34.599  1.00  0.00     0.000 C 
BRANCH  17  18
ATOM     18  C   UNL     1      12.701  20.964  34.456  1.00  0.00    -0.000 C 
BRANCH  18  19
ATOM     19  C   UNL     1      12.132  22.158  35.244  1.00  0.00    -0.000 C 
BRANCH  19  20
ATOM     20  C   UNL     1      12.485  22.126  36.738  1.00  0.00    -0.000 C 
BRANCH  20  21
ATOM     21  C   UNL     1      11.243  22.259  37.638  1.00  0.00    -0.000 C 
BRANCH  21  22
ATOM     22  C   UNL     1      11.486  21.779  39.086  1.00  0.00    -0.000 C 
BRANCH  22  23
ATOM     23  C   UNL     1      10.180  21.387  39.804  1.00  0.00    -0.000 C 
BRANCH  23  24
ATOM     24  C   UNL     1      10.238  21.630  41.324  1.00  0.00    -0.000 C 
BRANCH  24  25
ATOM     25  C   UNL     1       9.532  22.914  41.792  1.00  0.00    -0.003 C 
ATOM     26  C   UNL     1       8.799  23.635  40.661  1.00  0.00     0.004 C 
ENDBRANCH  24  25
ENDBRANCH  23  24
ENDBRANCH  22  23
ENDBRANCH  21  22
ENDBRANCH  20  21
ENDBRANCH  19  20
ENDBRANCH  18  19
ENDBRANCH  17  18
ENDBRANCH  16  17
ENDBRANCH  15  16
ENDBRANCH   1  15
TORSDOF 22
ENDMDL
MODEL 2
REMARK VINA RESULT:    -5.626      3.897      7.776
REMARK INTER + INTRA:         -13.892
REMARK INTER:                 -12.367
REMARK INTRA:                  -1.524
REMARK UNBOUND:                -1.030
REMARK SMILES CCCCCCCCCCCCCCCCCCCCCCCC(=O)[O-]
REMARK SMILES IDX 13 1 14 2 15 3 16 4 17 5 18 6 19 7 20 8 21 9 22 10 23 11
REMARK SMILES IDX 24 12 25 13 26 14 12 15 11 16 10 17 9 18 8 19 7 20 6 21 5 22
REMARK SMILES IDX 4 23 3 24 2 25 1 26
REMARK H PARENT
REMARK Flexibility Score: inf
ROOT
ATOM      1  C   UNL     1      10.932  22.494  38.742  1.00  0.00     0.000 C 
ENDROOT
BRANCH   1   2
ATOM      2  C   UNL     1      11.842  22.226  37.536  1.00  0.00     0.000 C 
BRANCH   2   3
ATOM      3  C   UNL     1      11.057  22.131  36.216  1.00  0.00     0.000 C 
BRANCH   3   4
ATOM      4  C   UNL     1      11.974  21.972  34.990  1.00  0.00     0.000 C 
BRANCH   4   5
ATOM      5  C   UNL     1      12.803  20.678  35.034  1.00  0.00     0.000 C 
BRANCH   5   6
ATOM      6  C   UNL     1      14.221  20.859  34.460  1.00  0.00     0.000 C 
BRANCH   6   7
ATOM      7  C   UNL     1      15.187  21.526  35.455  1.00  0.00     0.000 C 
BRANCH   7   8
ATOM      8  C   UNL     1      16.252  22.432  34.812  1.00  0.00     0.000 C 
BRANCH   8   9
ATOM      9  C   UNL     1      17.498  21.659  34.355  1.00  0.00     0.000 C 
BRANCH   9  10
ATOM     10  C   UNL     1      18.465  22.578  33.592  1.00  0.00     0.006 C 
BRANCH  10  11
ATOM     11  C   UNL     1      19.304  21.811  32.561  1.00  0.00     0.053 C 
BRANCH  11  12
ATOM     12  C   UNL     1      20.234  20.836  33.217  1.00  0.00     0.041 C 
ATOM     13  O   UNL     1      20.113  19.602  33.003  1.00  0.00    -0.550 OA
ATOM     14  O   UNL     1      21.252  21.294  34.046  1.00  0.00    -0.550 OA
ENDBRANCH  11  12
ENDBRANCH  10  11
ENDBRANCH   9  10
ENDBRANCH   8   9
ENDBRANCH   7   8
ENDBRANCH   6   7
ENDBRANCH   5   6
ENDBRANCH   4   5
ENDBRANCH   3   4
ENDBRANCH   2   3
ENDBRANCH   1   2
BRANCH   1  15
ATOM     15  C   UNL     1      10.560  21.191  39.466  1.00  0.00     0.000 C 
BRANCH  15  16
ATOM     16  C   UNL     1       9.620  21.425  40.670  1.00  0.00     0.000 C 
BRANCH  16  17
ATOM     17  C   UNL     1       9.710  22.837  41.280  1.00  0.00     0.000 C 
BRANCH  17  18
ATOM     18  C   UNL     1      10.581  22.963  42.545  1.00  0.00    -0.000 C 
BRANCH  18  19
ATOM     19  C   UNL     1      12.096  22.824  42.311  1.00  0.00    -0.000 C 
BRANCH  19  20
ATOM     20  C   UNL     1      12.868  22.375  43.560  1.00  0.00    -0.000 C 
BRANCH  20  21
ATOM     21  C   UNL     1      12.077  22.618  44.858  1.00  0.00    -0.000 C 
BRANCH  21  22
ATOM     22  C   UNL     1      12.645  21.846  46.070  1.00  0.00    -0.000 C 
BRANCH  22  23
ATOM     23  C   UNL     1      12.730  22.720  47.337  1.00  0.00    -0.000 C 
BRANCH  23  24
ATOM     24  C   UNL     1      14.111  23.375  47.520  1.00  0.00    -0.000 C 
BRANCH  24  25
ATOM     25  C   UNL     1      15.248  22.695  46.737  1.00  0.00    -0.003 C 
ATOM     26  C   UNL     1      15.798  23.569  45.610  1.00  0.00     0.004 C 
ENDBRANCH  24  25
ENDBRANCH  23  24
ENDBRANCH  22  23
ENDBRANCH  21  22
ENDBRANCH  20  21
ENDBRANCH  19  20
ENDBRANCH  18  19
ENDBRANCH  17  18
ENDBRANCH  16  17
ENDBRANCH  15  16
ENDBRANCH   1  15
TORSDOF 22
ENDMDL
MODEL 3
REMARK VINA RESULT:    -5.608      5.655      9.915
REMARK INTER + INTRA:         -13.850
REMARK INTER:                 -12.460
REMARK INTRA:                  -1.390
REMARK UNBOUND:                -1.030
REMARK SMILES CCCCCCCCCCCCCCCCCCCCCCCC(=O)[O-]
REMARK SMILES IDX 13 1 14 2 15 3 16 4 17 5 18 6 19 7 20 8 21 9 22 10 23 11
REMARK SMILES IDX 24 12 25 13 26 14 12 15 11 16 10 17 9 18 8 19 7 20 6 21 5 22
REMARK SMILES IDX 4 23 3 24 2 25 1 26
REMARK H PARENT
REMARK Flexibility Score: inf
ROOT
ATOM      1  C   UNL     1      12.487  22.913  44.529  1.00  0.00     0.000 C 
ENDROOT
BRANCH   1   2
ATOM      2  C   UNL     1      12.775  24.275  45.176  1.00  0.00     0.000 C 
BRANCH   2   3
ATOM      3  C   UNL     1      12.797  24.204  46.712  1.00  0.00     0.000 C 
BRANCH   3   4
ATOM      4  C   UNL     1      13.530  22.958  47.239  1.00  0.00     0.000 C 
BRANCH   4   5
ATOM      5  C   UNL     1      14.868  23.299  47.914  1.00  0.00     0.000 C 
BRANCH   5   6
ATOM      6  C   UNL     1      16.081  23.023  47.006  1.00  0.00     0.000 C 
BRANCH   6   7
ATOM      7  C   UNL     1      17.422  23.349  47.685  1.00  0.00     0.000 C 
BRANCH   7   8
ATOM      8  C   UNL     1      18.164  22.131  48.267  1.00  0.00     0.000 C 
BRANCH   8   9
ATOM      9  C   UNL     1      19.573  22.475  48.774  1.00  0.00     0.000 C 
BRANCH   9  10
ATOM     10  C   UNL     1      20.050  23.817  48.197  1.00  0.00     0.006 C 
BRANCH  10  11
ATOM     11  C   UNL     1      21.235  23.648  47.237  1.00  0.00     0.053 C 
BRANCH  11  12
ATOM     12  C   UNL     1      20.781  23.319  45.847  1.00  0.00     0.041 C 
ATOM     13  O   UNL     1      20.329  24.225  45.097  1.00  0.00    -0.550 OA
ATOM     14  O   UNL     1      20.882  22.018  45.371  1.00  0.00    -0.550 OA
ENDBRANCH  11  12
ENDBRANCH  10  11
ENDBRANCH   9  10
ENDBRANCH   8   9
ENDBRANCH   7   8
ENDBRANCH   6   7
ENDBRANCH   5   6
ENDBRANCH   4   5
ENDBRANCH   3   4
ENDBRANCH   2   3
ENDBRANCH   1   2
BRANCH   1  15
ATOM     15  C   UNL     1      11.904  23.073  43.117  1.00  0.00     0.000 C 
BRANCH  15  16
ATOM     16  C   UNL     1      10.406  22.698  43.044  1.00  0.00     0.000 C 
BRANCH  16  17
ATOM     17  C   UNL     1       9.718  23.087  41.722  1.00  0.00     0.000 C 
BRANCH  17  18
ATOM     18  C   UNL     1       9.582  21.957  40.682  1.00  0.00    -0.000 C 
BRANCH  18  19
ATOM     19  C   UNL     1      10.316  22.202  39.352  1.00  0.00    -0.000 C 
BRANCH  19  20
ATOM     20  C   UNL     1      11.817  21.885  39.415  1.00  0.00    -0.000 C 
BRANCH  20  21
ATOM     21  C   UNL     1      12.513  22.068  38.055  1.00  0.00    -0.000 C 
BRANCH  21  22
ATOM     22  C   UNL     1      11.547  21.945  36.855  1.00  0.00    -0.000 C 
BRANCH  22  23
ATOM     23  C   UNL     1      12.104  22.608  35.580  1.00  0.00    -0.000 C 
BRANCH  23  24
ATOM     24  C   UNL     1      12.455  21.588  34.481  1.00  0.00    -0.000 C 
BRANCH  24  25
ATOM     25  C   UNL     1      13.653  20.680  34.813  1.00  0.00    -0.003 C 
ATOM     26  C   UNL     1      14.992  21.291  34.401  1.00  0.00     0.004 C 
ENDBRANCH  24  25
ENDBRANCH  23  24
ENDBRANCH  22  23
ENDBRANCH  21  22
ENDBRANCH  20  21
ENDBRANCH  19  20
ENDBRANCH  18  19
ENDBRANCH  17  18
ENDBRANCH  16  17
ENDBRANCH  15  16
ENDBRANCH   1  15
TORSDOF 22
ENDMDL
MODEL 4
REMARK VINA RESULT:    -5.533      6.735     12.947
REMARK INTER + INTRA:         -13.680
REMARK INTER:                 -11.462
REMARK INTRA:                  -2.218
REMARK UNBOUND:                -1.030
REMARK SMILES CCCCCCCCCCCCCCCCCCCCCCCC(=O)[O-]
REMARK SMILES IDX 13 1 14 2 15 3 16 4 17 5 18 6 19 7 20 8 21 9 22 10 23 11
REMARK SMILES IDX 24 12 25 13 26 14 12 15 11 16 10 17 9 18 8 19 7 20 6 21 5 22
REMARK SMILES IDX 4 23 3 24 2 25 1 26
REMARK H PARENT
REMARK Flexibility Score: inf
ROOT
ATOM      1  C   UNL     1      13.873  23.113  47.192  1.00  0.00     0.000 C 
ENDROOT
BRANCH   1   2
ATOM      2  C   UNL     1      12.588  23.352  46.387  1.00  0.00     0.000 C 
BRANCH   2   3
ATOM      3  C   UNL     1      12.525  22.494  45.112  1.00  0.00     0.000 C 
BRANCH   3   4
ATOM      4  C   UNL     1      11.955  23.262  43.906  1.00  0.00     0.000 C 
BRANCH   4   5
ATOM      5  C   UNL     1      11.251  22.341  42.896  1.00  0.00     0.000 C 
BRANCH   5   6
ATOM      6  C   UNL     1      10.176  23.073  42.071  1.00  0.00     0.000 C 
BRANCH   6   7
ATOM      7  C   UNL     1       9.490  22.160  41.040  1.00  0.00     0.000 C 
BRANCH   7   8
ATOM      8  C   UNL     1      10.448  21.457  40.062  1.00  0.00     0.000 C 
BRANCH   8   9
ATOM      9  C   UNL     1      11.181  22.438  39.134  1.00  0.00     0.000 C 
BRANCH   9  10
ATOM     10  C   UNL     1      11.934  21.687  38.026  1.00  0.00     0.006 C 
BRANCH  10  11
ATOM     11  C   UNL     1      11.610  22.233  36.630  1.00  0.00     0.053 C 
BRANCH  11  12
ATOM     12  C   UNL     1      12.807  22.871  35.991  1.00  0.00     0.041 C 
ATOM     13  O   UNL     1      13.008  22.744  34.754  1.00  0.00    -0.550 OA
ATOM     14  O   UNL     1      13.686  23.627  36.757  1.00  0.00    -0.550 OA
ENDBRANCH  11  12
ENDBRANCH  10  11
ENDBRANCH   9  10
ENDBRANCH   8   9
ENDBRANCH   7   8
ENDBRANCH   6   7
ENDBRANCH   5   6
ENDBRANCH   4   5
ENDBRANCH   3   4
ENDBRANCH   2   3
ENDBRANCH   1   2
BRANCH   1  15
ATOM     15  C   UNL     1      15.099  23.713  46.488  1.00  0.00     0.000 C 
BRANCH  15  16
ATOM     16  C   UNL     1      16.340  22.795  46.565  1.00  0.00     0.000 C 
BRANCH  16  17
ATOM     17  C   UNL     1      17.346  23.181  47.666  1.00  0.00     0.000 C 
BRANCH  17  18
ATOM     18  C   UNL     1      18.080  22.006  48.341  1.00  0.00    -0.000 C 
BRANCH  18  19
ATOM     19  C   UNL     1      19.518  22.310  48.799  1.00  0.00    -0.000 C 
BRANCH  19  20
ATOM     20  C   UNL     1      20.045  23.661  48.296  1.00  0.00    -0.000 C 
BRANCH  20  21
ATOM     21  C   UNL     1      21.456  23.553  47.692  1.00  0.00    -0.000 C 
BRANCH  21  22
ATOM     22  C   UNL     1      21.451  23.128  46.206  1.00  0.00    -0.000 C 
BRANCH  22  23
ATOM     23  C   UNL     1      20.262  23.723  45.427  1.00  0.00    -0.000 C 
BRANCH  23  24
ATOM     24  C   UNL     1      19.546  22.682  44.545  1.00  0.00    -0.000 C 
BRANCH  24  25
ATOM     25  C   UNL     1      19.893  21.220  44.875  1.00  0.00    -0.003 C 
ATOM     26  C   UNL     1      18.655  20.354  45.106  1.00  0.00     0.004 C 
ENDBRANCH  24  25
ENDBRANCH  23  24
ENDBRANCH  22  23
ENDBRANCH  21  22
ENDBRANCH  20  21
ENDBRANCH  19  20
ENDBRANCH  18  19
ENDBRANCH  17  18
ENDBRANCH  16  17
ENDBRANCH  15  16
ENDBRANCH   1  15
TORSDOF 22
ENDMDL
MODEL 5
REMARK VINA RESULT:    -5.522      3.025      6.508
REMARK INTER + INTRA:         -13.653
REMARK INTER:                 -12.216
REMARK INTRA:                  -1.437
REMARK UNBOUND:                -1.030
REMARK SMILES CCCCCCCCCCCCCCCCCCCCCCCC(=O)[O-]
REMARK SMILES IDX 13 1 14 2 15 3 16 4 17 5 18 6 19 7 20 8 21 9 22 10 23 11
REMARK SMILES IDX 24 12 25 13 26 14 12 15 11 16 10 17 9 18 8 19 7 20 6 21 5 22
REMARK SMILES IDX 4 23 3 24 2 25 1 26
REMARK H PARENT
REMARK Flexibility Score: inf
ROOT
ATOM      1  C   UNL     1      12.488  22.616  38.155  1.00  0.00     0.000 C 
ENDROOT
BRANCH   1   2
ATOM      2  C   UNL     1      12.712  21.710  36.937  1.00  0.00     0.000 C 
BRANCH   2   3
ATOM      3  C   UNL     1      12.013  22.239  35.673  1.00  0.00     0.000 C 
BRANCH   3   4
ATOM      4  C   UNL     1      12.832  21.992  34.393  1.00  0.00     0.000 C 
BRANCH   4   5
ATOM      5  C   UNL     1      14.263  22.545  34.491  1.00  0.00     0.000 C 
BRANCH   5   6
ATOM      6  C   UNL     1      15.331  21.435  34.497  1.00  0.00     0.000 C 
BRANCH   6   7
ATOM      7  C   UNL     1      16.765  21.986  34.403  1.00  0.00     0.000 C 
BRANCH   7   8
ATOM      8  C   UNL     1      17.314  22.115  32.970  1.00  0.00     0.000 C 
BRANCH   8   9
ATOM      9  C   UNL     1      18.785  21.687  32.853  1.00  0.00     0.000 C 
BRANCH   9  10
ATOM     10  C   UNL     1      19.699  22.650  33.628  1.00  0.00     0.006 C 
BRANCH  10  11
ATOM     11  C   UNL     1      20.524  21.931  34.703  1.00  0.00     0.053 C 
BRANCH  11  12
ATOM     12  C   UNL     1      20.266  22.491  36.068  1.00  0.00     0.041 C 
ATOM     13  O   UNL     1      19.639  23.576  36.200  1.00  0.00    -0.550 OA
ATOM     14  O   UNL     1      20.695  21.803  37.197  1.00  0.00    -0.550 OA
ENDBRANCH  11  12
ENDBRANCH  10  11
ENDBRANCH   9  10
ENDBRANCH   8   9
ENDBRANCH   7   8
ENDBRANCH   6   7
ENDBRANCH   5   6
ENDBRANCH   4   5
ENDBRANCH   3   4
ENDBRANCH   2   3
ENDBRANCH   1   2
BRANCH   1  15
ATOM     15  C   UNL     1      11.078  22.439  38.737  1.00  0.00     0.000 C 
BRANCH  15  16
ATOM     16  C   UNL     1      10.922  21.122  39.531  1.00  0.00     0.000 C 
BRANCH  16  17
ATOM     17  C   UNL     1       9.781  21.137  40.567  1.00  0.00     0.000 C 
BRANCH  17  18
ATOM     18  C   UNL     1       9.291  22.532  41.000  1.00  0.00    -0.000 C 
BRANCH  18  19
ATOM     19  C   UNL     1       9.781  22.996  42.384  1.00  0.00    -0.000 C 
BRANCH  19  20
ATOM     20  C   UNL     1      11.311  23.032  42.509  1.00  0.00    -0.000 C 
BRANCH  20  21
ATOM     21  C   UNL     1      11.795  22.629  43.913  1.00  0.00    -0.000 C 
BRANCH  21  22
ATOM     22  C   UNL     1      13.200  21.987  43.912  1.00  0.00    -0.000 C 
BRANCH  22  23
ATOM     23  C   UNL     1      13.777  21.831  45.332  1.00  0.00    -0.000 C 
BRANCH  23  24
ATOM     24  C   UNL     1      12.689  21.828  46.422  1.00  0.00    -0.000 C 
BRANCH  24  25
ATOM     25  C   UNL     1      12.869  22.905  47.506  1.00  0.00    -0.003 C 
ATOM     26  C   UNL     1      12.470  24.301  47.029  1.00  0.00     0.004 C 
ENDBRANCH  24  25
ENDBRANCH  23  24
ENDBRANCH  22  23
ENDBRANCH  21  22
ENDBRANCH  20  21
ENDBRANCH  19  20
ENDBRANCH  18  19
ENDBRANCH  17  18
ENDBRANCH  16  17
ENDBRANCH  15  16
ENDBRANCH   1  15
TORSDOF 22
ENDMDL
MODEL 6
REMARK VINA RESULT:    -5.512      6.516     12.610
REMARK INTER + INTRA:         -13.632
REMARK INTER:                 -12.135
REMARK INTRA:                  -1.496
REMARK UNBOUND:                -1.030
REMARK SMILES CCCCCCCCCCCCCCCCCCCCCCCC(=O)[O-]
REMARK SMILES IDX 13 1 14 2 15 3 16 4 17 5 18 6 19 7 20 8 21 9 22 10 23 11
REMARK SMILES IDX 24 12 25 13 26 14 12 15 11 16 10 17 9 18 8 19 7 20 6 21 5 22
REMARK SMILES IDX 4 23 3 24 2 25 1 26
REMARK H PARENT
REMARK Flexibility Score: inf
ROOT
ATOM      1  C   UNL     1      12.477  22.234  45.708  1.00  0.00     0.000 C 
ENDROOT
BRANCH   1   2
ATOM      2  C   UNL     1      12.082  22.951  44.410  1.00  0.00     0.000 C 
BRANCH   2   3
ATOM      3  C   UNL     1      12.869  22.439  43.191  1.00  0.00     0.000 C 
BRANCH   3   4
ATOM      4  C   UNL     1      11.968  22.165  41.974  1.00  0.00     0.000 C 
BRANCH   4   5
ATOM      5  C   UNL     1      10.593  22.842  42.091  1.00  0.00     0.000 C 
BRANCH   5   6
ATOM      6  C   UNL     1       9.541  22.221  41.154  1.00  0.00     0.000 C 
BRANCH   6   7
ATOM      7  C   UNL     1      10.168  21.472  39.965  1.00  0.00     0.000 C 
BRANCH   7   8
ATOM      8  C   UNL     1      10.617  22.372  38.800  1.00  0.00     0.000 C 
BRANCH   8   9
ATOM      9  C   UNL     1      11.809  21.792  38.022  1.00  0.00     0.000 C 
BRANCH   9  10
ATOM     10  C   UNL     1      11.741  22.189  36.539  1.00  0.00     0.006 C 
BRANCH  10  11
ATOM     11  C   UNL     1      12.885  21.577  35.721  1.00  0.00     0.053 C 
BRANCH  11  12
ATOM     12  C   UNL     1      13.718  22.632  35.057  1.00  0.00     0.041 C 
ATOM     13  O   UNL     1      14.698  22.305  34.337  1.00  0.00    -0.550 OA
ATOM     14  O   UNL     1      13.396  23.975  35.212  1.00  0.00    -0.550 OA
ENDBRANCH  11  12
ENDBRANCH  10  11
ENDBRANCH   9  10
ENDBRANCH   8   9
ENDBRANCH   7   8
ENDBRANCH   6   7
ENDBRANCH   5   6
ENDBRANCH   4   5
ENDBRANCH   3   4
ENDBRANCH   2   3
ENDBRANCH   1   2
BRANCH   1  15
ATOM     15  C   UNL     1      12.471  23.196  46.906  1.00  0.00     0.000 C 
BRANCH  15  16
ATOM     16  C   UNL     1      13.837  23.261  47.625  1.00  0.00     0.000 C 
BRANCH  16  17
ATOM     17  C   UNL     1      15.028  23.568  46.697  1.00  0.00     0.000 C 
BRANCH  17  18
ATOM     18  C   UNL     1      16.262  22.662  46.874  1.00  0.00    -0.000 C 
BRANCH  18  19
ATOM     19  C   UNL     1      17.230  23.088  47.993  1.00  0.00    -0.000 C 
BRANCH  19  20
ATOM     20  C   UNL     1      18.294  22.029  48.315  1.00  0.00    -0.000 C 
BRANCH  20  21
ATOM     21  C   UNL     1      19.601  22.651  48.839  1.00  0.00    -0.000 C 
BRANCH  21  22
ATOM     22  C   UNL     1      19.786  24.126  48.417  1.00  0.00    -0.000 C 
BRANCH  22  23
ATOM     23  C   UNL     1      20.338  24.264  46.985  1.00  0.00    -0.000 C 
BRANCH  23  24
ATOM     24  C   UNL     1      21.540  23.339  46.717  1.00  0.00    -0.000 C 
BRANCH  24  25
ATOM     25  C   UNL     1      21.477  22.581  45.380  1.00  0.00    -0.003 C 
ATOM     26  C   UNL     1      20.137  21.879  45.159  1.00  0.00     0.004 C 
ENDBRANCH  24  25
ENDBRANCH  23  24
ENDBRANCH  22  23
ENDBRANCH  21  22
ENDBRANCH  20  21
ENDBRANCH  19  20
ENDBRANCH  18  19
ENDBRANCH  17  18
ENDBRANCH  16  17
ENDBRANCH  15  16
ENDBRANCH   1  15
TORSDOF 22
ENDMDL
MODEL 7
REMARK VINA RESULT:    -5.449      7.145     13.052
REMARK INTER + INTRA:         -13.488
REMARK INTER:                 -10.737
REMARK INTRA:                  -2.752
REMARK UNBOUND:                -1.030
REMARK SMILES CCCCCCCCCCCCCCCCCCCCCCCC(=O)[O-]
REMARK SMILES IDX 13 1 14 2 15 3 16 4 17 5 18 6 19 7 20 8 21 9 22 10 23 11
REMARK SMILES IDX 24 12 25 13 26 14 12 15 11 16 10 17 9 18 8 19 7 20 6 21 5 22
REMARK SMILES IDX 4 23 3 24 2 25 1 26
REMARK H PARENT
REMARK Flexibility Score: inf
ROOT
ATOM      1  C   UNL     1      16.080  22.898  46.166  1.00  0.00     0.000 C 
ENDROOT
BRANCH   1   2
ATOM      2  C   UNL     1      15.230  23.164  47.416  1.00  0.00     0.000 C 
BRANCH   2   3
ATOM      3  C   UNL     1      13.821  23.675  47.073  1.00  0.00     0.000 C 
BRANCH   3   4
ATOM      4  C   UNL     1      12.740  22.591  47.235  1.00  0.00     0.000 C 
BRANCH   4   5
ATOM      5  C   UNL     1      12.525  21.774  45.951  1.00  0.00     0.000 C 
BRANCH   5   6
ATOM      6  C   UNL     1      12.618  22.632  44.675  1.00  0.00     0.000 C 
BRANCH   6   7
ATOM      7  C   UNL     1      11.242  22.932  44.056  1.00  0.00     0.000 C 
BRANCH   7   8
ATOM      8  C   UNL     1      11.197  22.862  42.519  1.00  0.00     0.000 C 
BRANCH   8   9
ATOM      9  C   UNL     1       9.766  22.906  41.960  1.00  0.00     0.000 C 
BRANCH   9  10
ATOM     10  C   UNL     1       9.779  23.016  40.427  1.00  0.00     0.006 C 
BRANCH  10  11
ATOM     11  C   UNL     1      10.171  21.695  39.753  1.00  0.00     0.053 C 
BRANCH  11  12
ATOM     12  C   UNL     1      11.369  21.858  38.867  1.00  0.00     0.041 C 
ATOM     13  O   UNL     1      11.222  22.089  37.638  1.00  0.00    -0.550 OA
ATOM     14  O   UNL     1      12.648  21.780  39.404  1.00  0.00    -0.550 OA
ENDBRANCH  11  12
ENDBRANCH  10  11
ENDBRANCH   9  10
ENDBRANCH   8   9
ENDBRANCH   7   8
ENDBRANCH   6   7
ENDBRANCH   5   6
ENDBRANCH   4   5
ENDBRANCH   3   4
ENDBRANCH   2   3
ENDBRANCH   1   2
BRANCH   1  15
ATOM     15  C   UNL     1      16.021  24.079  45.185  1.00  0.00     0.000 C 
BRANCH  15  16
ATOM     16  C   UNL     1      17.285  24.184  44.302  1.00  0.00     0.000 C 
BRANCH  16  17
ATOM     17  C   UNL     1      18.223  25.348  44.673  1.00  0.00     0.000 C 
BRANCH  17  18
ATOM     18  C   UNL     1      19.576  24.944  45.290  1.00  0.00    -0.000 C 
BRANCH  18  19
ATOM     19  C   UNL     1      20.409  23.959  44.450  1.00  0.00    -0.000 C 
BRANCH  19  20
ATOM     20  C   UNL     1      20.915  22.750  45.251  1.00  0.00    -0.000 C 
BRANCH  20  21
ATOM     21  C   UNL     1      20.033  21.505  45.053  1.00  0.00    -0.000 C 
BRANCH  21  22
ATOM     22  C   UNL     1      19.069  21.248  46.234  1.00  0.00    -0.000 C 
BRANCH  22  23
ATOM     23  C   UNL     1      19.653  21.710  47.582  1.00  0.00    -0.000 C 
BRANCH  23  24
ATOM     24  C   UNL     1      18.827  22.834  48.236  1.00  0.00    -0.000 C 
BRANCH  24  25
ATOM     25  C   UNL     1      19.667  23.930  48.915  1.00  0.00    -0.003 C 
ATOM     26  C   UNL     1      21.171  23.691  48.787  1.00  0.00     0.004 C 
ENDBRANCH  24  25
ENDBRANCH  23  24
ENDBRANCH  22  23
ENDBRANCH  21  22
ENDBRANCH  20  21
ENDBRANCH  19  20
ENDBRANCH  18  19
ENDBRANCH  17  18
ENDBRANCH  16  17
ENDBRANCH  15  16
ENDBRANCH   1  15
TORSDOF 22
ENDMDL
MODEL 8
REMARK VINA RESULT:    -5.430      7.803     13.114
REMARK INTER + INTRA:         -13.445
REMARK INTER:                 -10.628
REMARK INTRA:                  -2.816
REMARK UNBOUND:                -1.030
REMARK SMILES CCCCCCCCCCCCCCCCCCCCCCCC(=O)[O-]
REMARK SMILES IDX 13 1 14 2 15 3 16 4 17 5 18 6 19 7 20 8 21 9 22 10 23 11
REMARK SMILES IDX 24 12 25 13 26 14 12 15 11 16 10 17 9 18 8 19 7 20 6 21 5 22
REMARK SMILES IDX 4 23 3 24 2 25 1 26
REMARK H PARENT
REMARK Flexibility Score: inf
ROOT
ATOM      1  C   UNL     1      18.108  22.257  47.543  1.00  0.00     0.000 C 
ENDROOT
BRANCH   1   2
ATOM      2  C   UNL     1      17.022  23.304  47.828  1.00  0.00     0.000 C 
BRANCH   2   3
ATOM      3  C   UNL     1      15.686  22.968  47.144  1.00  0.00     0.000 C 
BRANCH   3   4
ATOM      4  C   UNL     1      14.468  23.298  48.026  1.00  0.00     0.000 C 
BRANCH   4   5
ATOM      5  C   UNL     1      13.137  22.893  47.372  1.00  0.00     0.000 C 
BRANCH   5   6
ATOM      6  C   UNL     1      12.819  23.714  46.109  1.00  0.00     0.000 C 
BRANCH   6   7
ATOM      7  C   UNL     1      12.156  22.874  45.002  1.00  0.00     0.000 C 
BRANCH   7   8
ATOM      8  C   UNL     1      12.424  23.368  43.569  1.00  0.00     0.000 C 
BRANCH   8   9
ATOM      9  C   UNL     1      11.639  22.581  42.509  1.00  0.00     0.000 C 
BRANCH   9  10
ATOM     10  C   UNL     1      10.132  22.859  42.624  1.00  0.00     0.006 C 
BRANCH  10  11
ATOM     11  C   UNL     1       9.461  23.002  41.252  1.00  0.00     0.053 C 
BRANCH  11  12
ATOM     12  C   UNL     1       9.903  21.930  40.303  1.00  0.00     0.041 C 
ATOM     13  O   UNL     1       9.624  20.724  40.535  1.00  0.00    -0.550 OA
ATOM     14  O   UNL     1      10.600  22.266  39.149  1.00  0.00    -0.550 OA
ENDBRANCH  11  12
ENDBRANCH  10  11
ENDBRANCH   9  10
ENDBRANCH   8   9
ENDBRANCH   7   8
ENDBRANCH   6   7
ENDBRANCH   5   6
ENDBRANCH   4   5
ENDBRANCH   3   4
ENDBRANCH   2   3
ENDBRANCH   1   2
BRANCH   1  15
ATOM     15  C   UNL     1      19.066  22.102  48.734  1.00  0.00     0.000 C 
BRANCH  15  16
ATOM     16  C   UNL     1      20.255  23.088  48.673  1.00  0.00     0.000 C 
BRANCH  16  17
ATOM     17  C   UNL     1      20.512  23.687  47.278  1.00  0.00     0.000 C 
BRANCH  17  18
ATOM     18  C   UNL     1      21.677  23.061  46.486  1.00  0.00    -0.000 C 
BRANCH  18  19
ATOM     19  C   UNL     1      21.361  22.721  45.019  1.00  0.00    -0.000 C 
BRANCH  19  20
ATOM     20  C   UNL     1      20.290  21.632  44.862  1.00  0.00    -0.000 C 
BRANCH  20  21
ATOM     21  C   UNL     1      19.224  22.003  43.815  1.00  0.00    -0.000 C 
BRANCH  21  22
ATOM     22  C   UNL     1      18.417  23.266  44.190  1.00  0.00    -0.000 C 
BRANCH  22  23
ATOM     23  C   UNL     1      17.031  23.300  43.516  1.00  0.00    -0.000 C 
BRANCH  23  24
ATOM     24  C   UNL     1      16.509  21.898  43.154  1.00  0.00    -0.000 C 
BRANCH  24  25
ATOM     25  C   UNL     1      15.503  21.312  44.160  1.00  0.00    -0.003 C 
ATOM     26  C   UNL     1      15.850  19.885  44.583  1.00  0.00     0.004 C 
ENDBRANCH  24  25
ENDBRANCH  23  24
ENDBRANCH  22  23
ENDBRANCH  21  22
ENDBRANCH  20  21
ENDBRANCH  19  20
ENDBRANCH  18  19
ENDBRANCH  17  18
ENDBRANCH  16  17
ENDBRANCH  15  16
ENDBRANCH   1  15
TORSDOF 22
ENDMDL
MODEL 9
REMARK VINA RESULT:    -5.429      5.956      9.718
REMARK INTER + INTRA:         -13.441
REMARK INTER:                 -11.738
REMARK INTRA:                  -1.702
REMARK UNBOUND:                -1.030
REMARK SMILES CCCCCCCCCCCCCCCCCCCCCCCC(=O)[O-]
REMARK SMILES IDX 13 1 14 2 15 3 16 4 17 5 18 6 19 7 20 8 21 9 22 10 23 11
REMARK SMILES IDX 24 12 25 13 26 14 12 15 11 16 10 17 9 18 8 19 7 20 6 21 5 22
REMARK SMILES IDX 4 23 3 24 2 25 1 26
REMARK H PARENT
REMARK Flexibility Score: inf
ROOT
ATOM      1  C   UNL     1      13.167  23.098  47.205  1.00  0.00     0.000 C 
ENDROOT
BRANCH   1   2
ATOM      2  C   UNL     1      14.656  23.003  47.566  1.00  0.00     0.000 C 
BRANCH   2   3
ATOM      3  C   UNL     1      15.572  23.363  46.384  1.00  0.00     0.000 C 
BRANCH   3   4
ATOM      4  C   UNL     1      16.943  22.667  46.461  1.00  0.00     0.000 C 
BRANCH   4   5
ATOM      5  C   UNL     1      17.636  22.874  47.817  1.00  0.00     0.000 C 
BRANCH   5   6
ATOM      6  C   UNL     1      18.143  24.315  48.013  1.00  0.00     0.000 C 
BRANCH   6   7
ATOM      7  C   UNL     1      19.468  24.381  48.794  1.00  0.00     0.000 C 
BRANCH   7   8
ATOM      8  C   UNL     1      20.416  23.191  48.558  1.00  0.00     0.000 C 
BRANCH   8   9
ATOM      9  C   UNL     1      21.681  23.580  47.779  1.00  0.00     0.000 C 
BRANCH   9  10
ATOM     10  C   UNL     1      21.689  22.929  46.386  1.00  0.00     0.006 C 
BRANCH  10  11
ATOM     11  C   UNL     1      20.757  23.649  45.404  1.00  0.00     0.053 C 
BRANCH  11  12
ATOM     12  C   UNL     1      20.937  23.150  44.002  1.00  0.00     0.041 C 
ATOM     13  O   UNL     1      21.347  21.978  43.794  1.00  0.00    -0.550 OA
ATOM     14  O   UNL     1      20.626  23.972  42.925  1.00  0.00    -0.550 OA
ENDBRANCH  11  12
ENDBRANCH  10  11
ENDBRANCH   9  10
ENDBRANCH   8   9
ENDBRANCH   7   8
ENDBRANCH   6   7
ENDBRANCH   5   6
ENDBRANCH   4   5
ENDBRANCH   3   4
ENDBRANCH   2   3
ENDBRANCH   1   2
BRANCH   1  15
ATOM     15  C   UNL     1      12.908  24.206  46.173  1.00  0.00     0.000 C 
BRANCH  15  16
ATOM     16  C   UNL     1      12.019  23.734  45.001  1.00  0.00     0.000 C 
BRANCH  16  17
ATOM     17  C   UNL     1      12.720  22.777  44.018  1.00  0.00     0.000 C 
BRANCH  17  18
ATOM     18  C   UNL     1      11.905  22.387  42.769  1.00  0.00    -0.000 C 
BRANCH  18  19
ATOM     19  C   UNL     1      10.503  23.017  42.683  1.00  0.00    -0.000 C 
BRANCH  19  20
ATOM     20  C   UNL     1       9.745  22.644  41.401  1.00  0.00    -0.000 C 
BRANCH  20  21
ATOM     21  C   UNL     1      10.093  21.230  40.903  1.00  0.00    -0.000 C 
BRANCH  21  22
ATOM     22  C   UNL     1      10.233  21.143  39.366  1.00  0.00    -0.000 C 
BRANCH  22  23
ATOM     23  C   UNL     1      11.297  22.112  38.815  1.00  0.00    -0.000 C 
BRANCH  23  24
ATOM     24  C   UNL     1      11.266  22.222  37.280  1.00  0.00    -0.000 C 
BRANCH  24  25
ATOM     25  C   UNL     1      12.652  22.332  36.620  1.00  0.00    -0.003 C 
ATOM     26  C   UNL     1      13.130  21.010  36.020  1.00  0.00     0.004 C 
ENDBRANCH  24  25
ENDBRANCH  23  24
ENDBRANCH  22  23
ENDBRANCH  21  22
ENDBRANCH  20  21
ENDBRANCH  19  20
ENDBRANCH  18  19
ENDBRANCH  17  18
ENDBRANCH  16  17
ENDBRANCH  15  16
ENDBRANCH   1  15
TORSDOF 22
ENDMDL
