MODEL 1
REMARK VINA RESULT:    -4.166      0.000      0.000
REMARK INTER + INTRA:          -8.673
REMARK INTER:                  -7.089
REMARK INTRA:                  -1.584
REMARK UNBOUND:                -1.584
REMARK SMILES CCCCCCCCCCCCCC(=O)[O-]
REMARK SMILES IDX 8 1 9 2 10 3 11 4 12 5 13 6 14 7 15 8 16 9 7 10 6 11 5 12
REMARK SMILES IDX 4 13 3 14 2 15 1 16
REMARK H PARENT
REMARK Flexibility Score: inf
ROOT
ATOM      1  C   UNL     1     161.843 163.023 183.042  1.00  0.00     0.000 C 
ENDROOT
BRANCH   1   2
ATOM      2  C   UNL     1     160.948 162.171 183.961  1.00  0.00     0.000 C 
BRANCH   2   3
ATOM      3  C   UNL     1     160.274 161.005 183.224  1.00  0.00     0.000 C 
BRANCH   3   4
ATOM      4  C   UNL     1     159.934 161.393 181.777  1.00  0.00     0.000 C 
BRANCH   4   5
ATOM      5  C   UNL     1     160.258 160.275 180.772  1.00  0.00     0.006 C 
BRANCH   5   6
ATOM      6  C   UNL     1     161.448 160.621 179.868  1.00  0.00     0.053 C 
BRANCH   6   7
ATOM      7  C   UNL     1     161.165 161.866 179.087  1.00  0.00     0.041 C 
ATOM      8  O   UNL     1     160.262 161.872 178.210  1.00  0.00    -0.550 OA
ATOM      9  O   UNL     1     161.934 163.004 179.291  1.00  0.00    -0.550 OA
ENDBRANCH   6   7
ENDBRANCH   5   6
ENDBRANCH   4   5
ENDBRANCH   3   4
ENDBRANCH   2   3
ENDBRANCH   1   2
BRANCH   1  10
ATOM     10  C   UNL     1     163.359 162.863 183.274  1.00  0.00     0.000 C 
BRANCH  10  11
ATOM     11  C   UNL     1     164.081 161.939 182.277  1.00  0.00    -0.000 C 
BRANCH  11  12
ATOM     12  C   UNL     1     163.971 160.453 182.652  1.00  0.00    -0.000 C 
BRANCH  12  13
ATOM     13  C   UNL     1     165.265 159.958 183.312  1.00  0.00    -0.000 C 
BRANCH  13  14
ATOM     14  C   UNL     1     166.522 160.341 182.515  1.00  0.00    -0.000 C 
BRANCH  14  15
ATOM     15  C   UNL     1     167.704 160.720 183.419  1.00  0.00    -0.003 C 
ATOM     16  C   UNL     1     167.241 161.556 184.608  1.00  0.00     0.004 C 
ENDBRANCH  14  15
ENDBRANCH  13  14
ENDBRANCH  12  13
ENDBRANCH  11  12
ENDBRANCH  10  11
ENDBRANCH   1  10
TORSDOF 12
ENDMDL
MODEL 2
REMARK VINA RESULT:    -4.157      2.842      6.271
REMARK INTER + INTRA:          -8.657
REMARK INTER:                  -7.178
REMARK INTRA:                  -1.479
REMARK UNBOUND:                -1.584
REMARK SMILES CCCCCCCCCCCCCC(=O)[O-]
REMARK SMILES IDX 8 1 9 2 10 3 11 4 12 5 13 6 14 7 15 8 16 9 7 10 6 11 5 12
REMARK SMILES IDX 4 13 3 14 2 15 1 16
REMARK H PARENT
REMARK Flexibility Score: inf
ROOT
ATOM      1  C   UNL     1     163.716 161.987 182.532  1.00  0.00     0.000 C 
ENDROOT
BRANCH   1   2
ATOM      2  C   UNL     1     163.650 160.506 182.945  1.00  0.00     0.000 C 
BRANCH   2   3
ATOM      3  C   UNL     1     165.038 159.877 183.140  1.00  0.00     0.000 C 
BRANCH   3   4
ATOM      4  C   UNL     1     166.141 160.810 182.617  1.00  0.00     0.000 C 
BRANCH   4   5
ATOM      5  C   UNL     1     167.384 160.821 183.520  1.00  0.00     0.006 C 
BRANCH   5   6
ATOM      6  C   UNL     1     167.248 161.791 184.701  1.00  0.00     0.053 C 
BRANCH   6   7
ATOM      7  C   UNL     1     167.410 163.205 184.236  1.00  0.00     0.041 C 
ATOM      8  O   UNL     1     168.544 163.633 183.893  1.00  0.00    -0.550 OA
ATOM      9  O   UNL     1     166.319 164.064 184.230  1.00  0.00    -0.550 OA
ENDBRANCH   6   7
ENDBRANCH   5   6
ENDBRANCH   4   5
ENDBRANCH   3   4
ENDBRANCH   2   3
ENDBRANCH   1   2
BRANCH   1  10
ATOM     10  C   UNL     1     162.634 162.890 183.159  1.00  0.00     0.000 C 
BRANCH  10  11
ATOM     11  C   UNL     1     161.389 162.152 183.683  1.00  0.00    -0.000 C 
BRANCH  11  12
ATOM     12  C   UNL     1     160.277 162.034 182.630  1.00  0.00    -0.000 C 
BRANCH  12  13
ATOM     13  C   UNL     1     159.893 160.565 182.402  1.00  0.00    -0.000 C 
BRANCH  13  14
ATOM     14  C   UNL     1     159.881 160.181 180.914  1.00  0.00    -0.000 C 
BRANCH  14  15
ATOM     15  C   UNL     1     160.667 161.169 180.040  1.00  0.00    -0.003 C 
ATOM     16  C   UNL     1     162.022 160.590 179.641  1.00  0.00     0.004 C 
ENDBRANCH  14  15
ENDBRANCH  13  14
ENDBRANCH  12  13
ENDBRANCH  11  12
ENDBRANCH  10  11
ENDBRANCH   1  10
TORSDOF 12
ENDMDL
MODEL 3
REMARK VINA RESULT:    -3.957      3.216      5.771
REMARK INTER + INTRA:          -8.316
REMARK INTER:                  -6.241
REMARK INTRA:                  -2.075
REMARK UNBOUND:                -1.584
REMARK SMILES CCCCCCCCCCCCCC(=O)[O-]
REMARK SMILES IDX 8 1 9 2 10 3 11 4 12 5 13 6 14 7 15 8 16 9 7 10 6 11 5 12
REMARK SMILES IDX 4 13 3 14 2 15 1 16
REMARK H PARENT
REMARK Flexibility Score: inf
ROOT
ATOM      1  C   UNL     1     162.282 160.620 179.843  1.00  0.00     0.000 C 
ENDROOT
BRANCH   1   2
ATOM      2  C   UNL     1     163.404 161.670 179.937  1.00  0.00     0.000 C 
BRANCH   2   3
ATOM      3  C   UNL     1     164.531 161.255 180.894  1.00  0.00     0.000 C 
BRANCH   3   4
ATOM      4  C   UNL     1     164.023 160.247 181.935  1.00  0.00     0.000 C 
BRANCH   4   5
ATOM      5  C   UNL     1     164.864 160.250 183.222  1.00  0.00     0.006 C 
BRANCH   5   6
ATOM      6  C   UNL     1     166.009 161.270 183.176  1.00  0.00     0.053 C 
BRANCH   6   7
ATOM      7  C   UNL     1     167.243 160.697 183.802  1.00  0.00     0.041 C 
ATOM      8  O   UNL     1     167.346 160.634 185.055  1.00  0.00    -0.550 OA
ATOM      9  O   UNL     1     168.299 160.281 183.003  1.00  0.00    -0.550 OA
ENDBRANCH   6   7
ENDBRANCH   5   6
ENDBRANCH   4   5
ENDBRANCH   3   4
ENDBRANCH   2   3
ENDBRANCH   1   2
BRANCH   1  10
ATOM     10  C   UNL     1     160.860 161.196 179.678  1.00  0.00     0.000 C 
BRANCH  10  11
ATOM     11  C   UNL     1     160.229 161.759 180.963  1.00  0.00    -0.000 C 
BRANCH  11  12
ATOM     12  C   UNL     1     160.238 160.754 182.124  1.00  0.00    -0.000 C 
BRANCH  12  13
ATOM     13  C   UNL     1     160.817 161.391 183.396  1.00  0.00    -0.000 C 
BRANCH  13  14
ATOM     14  C   UNL     1     161.128 162.886 183.220  1.00  0.00    -0.000 C 
BRANCH  14  15
ATOM     15  C   UNL     1     162.614 163.210 183.431  1.00  0.00    -0.003 C 
ATOM     16  C   UNL     1     163.081 164.297 182.467  1.00  0.00     0.004 C 
ENDBRANCH  14  15
ENDBRANCH  13  14
ENDBRANCH  12  13
ENDBRANCH  11  12
ENDBRANCH  10  11
ENDBRANCH   1  10
TORSDOF 12
ENDMDL
MODEL 4
REMARK VINA RESULT:    -3.916      2.978      5.477
REMARK INTER + INTRA:          -8.247
REMARK INTER:                  -6.431
REMARK INTRA:                  -1.816
REMARK UNBOUND:                -1.584
REMARK SMILES CCCCCCCCCCCCCC(=O)[O-]
REMARK SMILES IDX 8 1 9 2 10 3 11 4 12 5 13 6 14 7 15 8 16 9 7 10 6 11 5 12
REMARK SMILES IDX 4 13 3 14 2 15 1 16
REMARK H PARENT
REMARK Flexibility Score: inf
ROOT
ATOM      1  C   UNL     1     161.359 162.603 183.648  1.00  0.00     0.000 C 
ENDROOT
BRANCH   1   2
ATOM      2  C   UNL     1     162.563 162.866 182.725  1.00  0.00     0.000 C 
BRANCH   2   3
ATOM      3  C   UNL     1     163.833 162.130 183.176  1.00  0.00     0.000 C 
BRANCH   3   4
ATOM      4  C   UNL     1     163.775 160.646 182.783  1.00  0.00     0.000 C 
BRANCH   4   5
ATOM      5  C   UNL     1     165.105 159.915 183.033  1.00  0.00     0.006 C 
BRANCH   5   6
ATOM      6  C   UNL     1     166.211 160.353 182.064  1.00  0.00     0.053 C 
BRANCH   6   7
ATOM      7  C   UNL     1     167.465 160.675 182.815  1.00  0.00     0.041 C 
ATOM      8  O   UNL     1     167.486 161.634 183.631  1.00  0.00    -0.550 OA
ATOM      9  O   UNL     1     168.624 159.948 182.577  1.00  0.00    -0.550 OA
ENDBRANCH   6   7
ENDBRANCH   5   6
ENDBRANCH   4   5
ENDBRANCH   3   4
ENDBRANCH   2   3
ENDBRANCH   1   2
BRANCH   1  10
ATOM     10  C   UNL     1     160.332 161.586 183.109  1.00  0.00     0.000 C 
BRANCH  10  11
ATOM     11  C   UNL     1     160.095 161.637 181.589  1.00  0.00    -0.000 C 
BRANCH  11  12
ATOM     12  C   UNL     1     160.287 160.274 180.908  1.00  0.00    -0.000 C 
BRANCH  12  13
ATOM     13  C   UNL     1     161.458 160.317 179.916  1.00  0.00    -0.000 C 
BRANCH  13  14
ATOM     14  C   UNL     1     161.733 161.733 179.386  1.00  0.00    -0.000 C 
BRANCH  14  15
ATOM     15  C   UNL     1     163.233 162.033 179.250  1.00  0.00    -0.003 C 
ATOM     16  C   UNL     1     164.026 160.758 178.975  1.00  0.00     0.004 C 
ENDBRANCH  14  15
ENDBRANCH  13  14
ENDBRANCH  12  13
ENDBRANCH  11  12
ENDBRANCH  10  11
ENDBRANCH   1  10
TORSDOF 12
ENDMDL
MODEL 5
REMARK VINA RESULT:    -3.878      1.203      1.995
REMARK INTER + INTRA:          -8.181
REMARK INTER:                  -6.583
REMARK INTRA:                  -1.598
REMARK UNBOUND:                -1.584
REMARK SMILES CCCCCCCCCCCCCC(=O)[O-]
REMARK SMILES IDX 8 1 9 2 10 3 11 4 12 5 13 6 14 7 15 8 16 9 7 10 6 11 5 12
REMARK SMILES IDX 4 13 3 14 2 15 1 16
REMARK H PARENT
REMARK Flexibility Score: inf
ROOT
ATOM      1  C   UNL     1     160.218 161.913 182.529  1.00  0.00     0.000 C 
ENDROOT
BRANCH   1   2
ATOM      2  C   UNL     1     159.901 160.454 182.152  1.00  0.00     0.000 C 
BRANCH   2   3
ATOM      3  C   UNL     1     159.987 160.195 180.641  1.00  0.00     0.000 C 
BRANCH   3   4
ATOM      4  C   UNL     1     161.440 160.286 180.151  1.00  0.00     0.000 C 
BRANCH   4   5
ATOM      5  C   UNL     1     161.625 161.326 179.035  1.00  0.00     0.006 C 
BRANCH   5   6
ATOM      6  C   UNL     1     162.362 162.583 179.515  1.00  0.00     0.053 C 
BRANCH   6   7
ATOM      7  C   UNL     1     161.415 163.739 179.610  1.00  0.00     0.041 C 
ATOM      8  O   UNL     1     160.193 163.578 179.355  1.00  0.00    -0.550 OA
ATOM      9  O   UNL     1     161.892 165.003 179.929  1.00  0.00    -0.550 OA
ENDBRANCH   6   7
ENDBRANCH   5   6
ENDBRANCH   4   5
ENDBRANCH   3   4
ENDBRANCH   2   3
ENDBRANCH   1   2
BRANCH   1  10
ATOM     10  C   UNL     1     161.272 162.087 183.642  1.00  0.00     0.000 C 
BRANCH  10  11
ATOM     11  C   UNL     1     162.732 162.139 183.158  1.00  0.00    -0.000 C 
BRANCH  11  12
ATOM     12  C   UNL     1     163.408 160.759 183.149  1.00  0.00    -0.000 C 
BRANCH  12  13
ATOM     13  C   UNL     1     164.571 160.726 182.148  1.00  0.00    -0.000 C 
BRANCH  13  14
ATOM     14  C   UNL     1     165.769 161.574 182.603  1.00  0.00    -0.000 C 
BRANCH  14  15
ATOM     15  C   UNL     1     167.014 160.726 182.905  1.00  0.00    -0.003 C 
ATOM     16  C   UNL     1     167.033 160.281 184.365  1.00  0.00     0.004 C 
ENDBRANCH  14  15
ENDBRANCH  13  14
ENDBRANCH  12  13
ENDBRANCH  11  12
ENDBRANCH  10  11
ENDBRANCH   1  10
TORSDOF 12
ENDMDL
MODEL 6
REMARK VINA RESULT:    -3.877      1.894      3.287
REMARK INTER + INTRA:          -8.181
REMARK INTER:                  -6.378
REMARK INTRA:                  -1.803
REMARK UNBOUND:                -1.584
REMARK SMILES CCCCCCCCCCCCCC(=O)[O-]
REMARK SMILES IDX 8 1 9 2 10 3 11 4 12 5 13 6 14 7 15 8 16 9 7 10 6 11 5 12
REMARK SMILES IDX 4 13 3 14 2 15 1 16
REMARK H PARENT
REMARK Flexibility Score: inf
ROOT
ATOM      1  C   UNL     1     160.659 160.524 180.300  1.00  0.00     0.000 C 
ENDROOT
BRANCH   1   2
ATOM      2  C   UNL     1     159.993 160.959 181.617  1.00  0.00     0.000 C 
BRANCH   2   3
ATOM      3  C   UNL     1     160.920 160.813 182.832  1.00  0.00     0.000 C 
BRANCH   3   4
ATOM      4  C   UNL     1     161.295 162.188 183.405  1.00  0.00     0.000 C 
BRANCH   4   5
ATOM      5  C   UNL     1     160.530 163.339 182.732  1.00  0.00     0.006 C 
BRANCH   5   6
ATOM      6  C   UNL     1     161.462 164.431 182.192  1.00  0.00     0.053 C 
BRANCH   6   7
ATOM      7  C   UNL     1     160.689 165.420 181.376  1.00  0.00     0.041 C 
ATOM      8  O   UNL     1     160.791 165.423 180.121  1.00  0.00    -0.550 OA
ATOM      9  O   UNL     1     159.897 166.371 182.004  1.00  0.00    -0.550 OA
ENDBRANCH   6   7
ENDBRANCH   5   6
ENDBRANCH   4   5
ENDBRANCH   3   4
ENDBRANCH   2   3
ENDBRANCH   1   2
BRANCH   1  10
ATOM     10  C   UNL     1     161.668 161.533 179.713  1.00  0.00     0.000 C 
BRANCH  10  11
ATOM     11  C   UNL     1     163.149 161.152 179.883  1.00  0.00    -0.000 C 
BRANCH  11  12
ATOM     12  C   UNL     1     163.991 162.285 180.489  1.00  0.00    -0.000 C 
BRANCH  12  13
ATOM     13  C   UNL     1     164.620 161.849 181.820  1.00  0.00    -0.000 C 
BRANCH  13  14
ATOM     14  C   UNL     1     164.685 160.321 181.972  1.00  0.00    -0.000 C 
BRANCH  14  15
ATOM     15  C   UNL     1     165.026 159.883 183.404  1.00  0.00    -0.003 C 
ATOM     16  C   UNL     1     166.470 160.230 183.755  1.00  0.00     0.004 C 
ENDBRANCH  14  15
ENDBRANCH  13  14
ENDBRANCH  12  13
ENDBRANCH  11  12
ENDBRANCH  10  11
ENDBRANCH   1  10
TORSDOF 12
ENDMDL
MODEL 7
REMARK VINA RESULT:    -3.829      2.692      5.612
REMARK INTER + INTRA:          -8.098
REMARK INTER:                  -5.919
REMARK INTRA:                  -2.179
REMARK UNBOUND:                -1.584
REMARK SMILES CCCCCCCCCCCCCC(=O)[O-]
REMARK SMILES IDX 8 1 9 2 10 3 11 4 12 5 13 6 14 7 15 8 16 9 7 10 6 11 5 12
REMARK SMILES IDX 4 13 3 14 2 15 1 16
REMARK H PARENT
REMARK Flexibility Score: inf
ROOT
ATOM      1  C   UNL     1     160.658 160.770 180.133  1.00  0.00     0.000 C 
ENDROOT
BRANCH   1   2
ATOM      2  C   UNL     1     162.179 160.566 180.247  1.00  0.00     0.000 C 
BRANCH   2   3
ATOM      3  C   UNL     1     162.981 161.810 179.838  1.00  0.00     0.000 C 
BRANCH   3   4
ATOM      4  C   UNL     1     164.301 161.893 180.619  1.00  0.00     0.000 C 
BRANCH   4   5
ATOM      5  C   UNL     1     164.610 160.605 181.398  1.00  0.00     0.006 C 
BRANCH   5   6
ATOM      6  C   UNL     1     164.670 160.831 182.914  1.00  0.00     0.053 C 
BRANCH   6   7
ATOM      7  C   UNL     1     165.701 161.865 183.247  1.00  0.00     0.041 C 
ATOM      8  O   UNL     1     166.921 161.630 183.045  1.00  0.00    -0.550 OA
ATOM      9  O   UNL     1     165.318 163.067 183.826  1.00  0.00    -0.550 OA
ENDBRANCH   6   7
ENDBRANCH   5   6
ENDBRANCH   4   5
ENDBRANCH   3   4
ENDBRANCH   2   3
ENDBRANCH   1   2
BRANCH   1  10
ATOM     10  C   UNL     1     159.875 160.604 181.452  1.00  0.00     0.000 C 
BRANCH  10  11
ATOM     11  C   UNL     1     160.717 160.734 182.734  1.00  0.00    -0.000 C 
BRANCH  11  12
ATOM     12  C   UNL     1     160.554 162.099 183.420  1.00  0.00    -0.000 C 
BRANCH  12  13
ATOM     13  C   UNL     1     161.779 162.990 183.165  1.00  0.00    -0.000 C 
BRANCH  13  14
ATOM     14  C   UNL     1     161.409 164.334 182.518  1.00  0.00    -0.000 C 
BRANCH  14  15
ATOM     15  C   UNL     1     160.333 164.191 181.430  1.00  0.00    -0.003 C 
ATOM     16  C   UNL     1     160.820 164.758 180.100  1.00  0.00     0.004 C 
ENDBRANCH  14  15
ENDBRANCH  13  14
ENDBRANCH  12  13
ENDBRANCH  11  12
ENDBRANCH  10  11
ENDBRANCH   1  10
TORSDOF 12
ENDMDL
MODEL 8
REMARK VINA RESULT:    -3.816      2.433      5.675
REMARK INTER + INTRA:          -8.076
REMARK INTER:                  -6.333
REMARK INTRA:                  -1.743
REMARK UNBOUND:                -1.584
REMARK SMILES CCCCCCCCCCCCCC(=O)[O-]
REMARK SMILES IDX 8 1 9 2 10 3 11 4 12 5 13 6 14 7 15 8 16 9 7 10 6 11 5 12
REMARK SMILES IDX 4 13 3 14 2 15 1 16
REMARK H PARENT
REMARK Flexibility Score: inf
ROOT
ATOM      1  C   UNL     1     163.285 161.606 180.106  1.00  0.00     0.000 C 
ENDROOT
BRANCH   1   2
ATOM      2  C   UNL     1     164.361 160.940 180.982  1.00  0.00     0.000 C 
BRANCH   2   3
ATOM      3  C   UNL     1     163.803 160.401 182.307  1.00  0.00     0.000 C 
BRANCH   3   4
ATOM      4  C   UNL     1     164.937 160.101 183.299  1.00  0.00     0.000 C 
BRANCH   4   5
ATOM      5  C   UNL     1     166.289 160.673 182.844  1.00  0.00     0.006 C 
BRANCH   5   6
ATOM      6  C   UNL     1     166.847 161.717 183.820  1.00  0.00     0.053 C 
BRANCH   6   7
ATOM      7  C   UNL     1     166.165 163.035 183.619  1.00  0.00     0.041 C 
ATOM      8  O   UNL     1     165.562 163.588 184.576  1.00  0.00    -0.550 OA
ATOM      9  O   UNL     1     166.153 163.628 182.364  1.00  0.00    -0.550 OA
ENDBRANCH   6   7
ENDBRANCH   5   6
ENDBRANCH   4   5
ENDBRANCH   3   4
ENDBRANCH   2   3
ENDBRANCH   1   2
BRANCH   1  10
ATOM     10  C   UNL     1     162.186 160.657 179.586  1.00  0.00     0.000 C 
BRANCH  10  11
ATOM     11  C   UNL     1     160.749 161.039 179.984  1.00  0.00    -0.000 C 
BRANCH  11  12
ATOM     12  C   UNL     1     160.097 160.013 180.924  1.00  0.00    -0.000 C 
BRANCH  12  13
ATOM     13  C   UNL     1     159.892 160.607 182.325  1.00  0.00    -0.000 C 
BRANCH  13  14
ATOM     14  C   UNL     1     160.243 162.101 182.393  1.00  0.00    -0.000 C 
BRANCH  14  15
ATOM     15  C   UNL     1     161.059 162.462 183.643  1.00  0.00    -0.003 C 
ATOM     16  C   UNL     1     162.264 163.325 183.281  1.00  0.00     0.004 C 
ENDBRANCH  14  15
ENDBRANCH  13  14
ENDBRANCH  12  13
ENDBRANCH  11  12
ENDBRANCH  10  11
ENDBRANCH   1  10
TORSDOF 12
ENDMDL
MODEL 9
REMARK VINA RESULT:    -3.750      2.277      4.376
REMARK INTER + INTRA:          -7.965
REMARK INTER:                  -6.122
REMARK INTRA:                  -1.843
REMARK UNBOUND:                -1.584
REMARK SMILES CCCCCCCCCCCCCC(=O)[O-]
REMARK SMILES IDX 8 1 9 2 10 3 11 4 12 5 13 6 14 7 15 8 16 9 7 10 6 11 5 12
REMARK SMILES IDX 4 13 3 14 2 15 1 16
REMARK H PARENT
REMARK Flexibility Score: inf
ROOT
ATOM      1  C   UNL     1     160.217 160.431 180.272  1.00  0.00     0.000 C 
ENDROOT
BRANCH   1   2
ATOM      2  C   UNL     1     161.586 160.677 179.612  1.00  0.00     0.000 C 
BRANCH   2   3
ATOM      3  C   UNL     1     161.552 161.800 178.566  1.00  0.00     0.000 C 
BRANCH   3   4
ATOM      4  C   UNL     1     162.203 163.079 179.114  1.00  0.00     0.000 C 
BRANCH   4   5
ATOM      5  C   UNL     1     161.172 164.163 179.471  1.00  0.00     0.006 C 
BRANCH   5   6
ATOM      6  C   UNL     1     161.786 165.322 180.268  1.00  0.00     0.053 C 
BRANCH   6   7
ATOM      7  C   UNL     1     160.712 166.240 180.763  1.00  0.00     0.041 C 
ATOM      8  O   UNL     1     160.582 167.389 180.264  1.00  0.00    -0.550 OA
ATOM      9  O   UNL     1     159.889 165.846 181.810  1.00  0.00    -0.550 OA
ENDBRANCH   6   7
ENDBRANCH   5   6
ENDBRANCH   4   5
ENDBRANCH   3   4
ENDBRANCH   2   3
ENDBRANCH   1   2
BRANCH   1  10
ATOM     10  C   UNL     1     159.875 161.378 181.441  1.00  0.00     0.000 C 
BRANCH  10  11
ATOM     11  C   UNL     1     160.196 160.829 182.842  1.00  0.00    -0.000 C 
BRANCH  11  12
ATOM     12  C   UNL     1     160.938 161.844 183.725  1.00  0.00    -0.000 C 
BRANCH  12  13
ATOM     13  C   UNL     1     161.780 162.802 182.870  1.00  0.00    -0.000 C 
BRANCH  13  14
ATOM     14  C   UNL     1     163.287 162.674 183.147  1.00  0.00    -0.000 C 
BRANCH  14  15
ATOM     15  C   UNL     1     163.970 161.642 182.238  1.00  0.00    -0.003 C 
ATOM     16  C   UNL     1     164.166 160.314 182.965  1.00  0.00     0.004 C 
ENDBRANCH  14  15
ENDBRANCH  13  14
ENDBRANCH  12  13
ENDBRANCH  11  12
ENDBRANCH  10  11
ENDBRANCH   1  10
TORSDOF 12
ENDMDL
