MODEL 1
REMARK VINA RESULT:    -5.638      0.000      0.000
REMARK INTER + INTRA:          -7.134
REMARK INTER:                  -6.792
REMARK INTRA:                  -0.343
REMARK UNBOUND:                -0.343
REMARK SMILES O=c1c(O)c(-c2ccc(O)cc2O)oc2cc(O)cc(O)c12
REMARK SMILES IDX 5 1 3 2 2 3 1 4 22 5 20 6 19 7 17 8 16 9 15 10 14 11 6 12
REMARK SMILES IDX 8 13 7 14 9 15 11 16 12 17 10 18 13 20 4 22 21 24 18 26
REMARK H PARENT 10 19 13 21 4 23 21 25 18 27
REMARK Flexibility Score: inf
ROOT
ATOM      1  C   UNL     1     -33.920  10.132 -36.347  1.00  0.00     0.184 A 
ATOM      2  C   UNL     1     -32.644   9.546 -36.302  1.00  0.00     0.208 A 
ATOM      3  C   UNL     1     -31.907   9.611 -35.108  1.00  0.00     0.238 A 
ATOM      4  O   UNL     1     -30.737   9.148 -35.095  1.00  0.00    -0.285 OA
ATOM      5  C   UNL     1     -32.476  10.214 -33.960  1.00  0.00     0.111 A 
ATOM      6  C   UNL     1     -31.839  10.295 -32.684  1.00  0.00     0.134 A 
ATOM      7  C   UNL     1     -32.454  11.011 -31.650  1.00  0.00     0.093 A 
ATOM      8  C   UNL     1     -33.711  11.593 -31.824  1.00  0.00     0.123 A 
ATOM      9  C   UNL     1     -34.366  11.472 -33.048  1.00  0.00     0.094 A 
ATOM     10  C   UNL     1     -33.762  10.796 -34.110  1.00  0.00     0.146 A 
ATOM     11  O   UNL     1     -34.412  10.723 -35.266  1.00  0.00    -0.451 OA
ENDROOT
BRANCH   1  12
ATOM     12  C   UNL     1     -34.745  10.113 -37.577  1.00  0.00     0.063 A 
ATOM     13  C   UNL     1     -35.873   8.875 -39.343  1.00  0.00     0.047 A 
ATOM     14  C   UNL     1     -35.118   8.893 -38.167  1.00  0.00     0.020 A 
ATOM     15  C   UNL     1     -36.255  10.076 -39.951  1.00  0.00     0.119 A 
ATOM     16  C   UNL     1     -35.878  11.294 -39.380  1.00  0.00     0.093 A 
ATOM     17  C   UNL     1     -35.122  11.321 -38.199  1.00  0.00     0.130 A 
BRANCH  15  18
ATOM     18  O   UNL     1     -37.007  10.070 -41.124  1.00  0.00    -0.508 OA
ATOM     19  H   UNL     1     -37.878  10.583 -41.198  1.00  0.00     0.293 HD
ENDBRANCH  15  18
BRANCH  17  20
ATOM     20  O   UNL     1     -34.757  12.545 -37.636  1.00  0.00    -0.507 OA
ATOM     21  H   UNL     1     -34.630  13.374 -38.203  1.00  0.00     0.293 HD
ENDBRANCH  17  20
ENDBRANCH   1  12
BRANCH   2  22
ATOM     22  O   UNL     1     -32.129   8.896 -37.427  1.00  0.00    -0.502 OA
ATOM     23  H   UNL     1     -32.480   9.066 -38.361  1.00  0.00     0.293 HD
ENDBRANCH   2  22
BRANCH   6  24
ATOM     24  O   UNL     1     -30.624   9.676 -32.375  1.00  0.00    -0.507 OA
ATOM     25  H   UNL     1     -29.928  10.050 -31.749  1.00  0.00     0.293 HD
ENDBRANCH   6  24
BRANCH   8  26
ATOM     26  O   UNL     1     -34.323  12.289 -30.784  1.00  0.00    -0.508 OA
ATOM     27  H   UNL     1     -33.797  12.611 -29.980  1.00  0.00     0.293 HD
ENDBRANCH   8  26
TORSDOF 6
ENDMDL
MODEL 2
REMARK VINA RESULT:    -3.731      1.475      6.402
REMARK INTER + INTRA:          -4.837
REMARK INTER:                  -4.451
REMARK INTRA:                  -0.386
REMARK UNBOUND:                -0.343
REMARK SMILES O=c1c(O)c(-c2ccc(O)cc2O)oc2cc(O)cc(O)c12
REMARK SMILES IDX 5 1 3 2 2 3 1 4 22 5 20 6 19 7 17 8 16 9 15 10 14 11 6 12
REMARK SMILES IDX 8 13 7 14 9 15 11 16 12 17 10 18 13 20 4 22 21 24 18 26
REMARK H PARENT 10 19 13 21 4 23 21 25 18 27
REMARK Flexibility Score: inf
ROOT
ATOM      1  C   UNL     1     -33.676  10.045 -36.015  1.00  0.00     0.184 A 
ATOM      2  C   UNL     1     -32.678   9.576 -36.885  1.00  0.00     0.208 A 
ATOM      3  C   UNL     1     -32.998   9.364 -38.236  1.00  0.00     0.238 A 
ATOM      4  O   UNL     1     -32.120   8.875 -38.995  1.00  0.00    -0.285 OA
ATOM      5  C   UNL     1     -34.297   9.672 -38.711  1.00  0.00     0.111 A 
ATOM      6  C   UNL     1     -34.718   9.539 -40.069  1.00  0.00     0.134 A 
ATOM      7  C   UNL     1     -36.059   9.771 -40.401  1.00  0.00     0.093 A 
ATOM      8  C   UNL     1     -36.978  10.193 -39.437  1.00  0.00     0.123 A 
ATOM      9  C   UNL     1     -36.564  10.379 -38.121  1.00  0.00     0.094 A 
ATOM     10  C   UNL     1     -35.242  10.120 -37.750  1.00  0.00     0.146 A 
ATOM     11  O   UNL     1     -34.894  10.290 -36.480  1.00  0.00    -0.451 OA
ENDROOT
BRANCH   1  12
ATOM     12  C   UNL     1     -33.412  10.277 -34.576  1.00  0.00     0.063 A 
ATOM     13  C   UNL     1     -32.794   9.429 -32.380  1.00  0.00     0.047 A 
ATOM     14  C   UNL     1     -33.016   9.216 -33.743  1.00  0.00     0.020 A 
ATOM     15  C   UNL     1     -32.974  10.703 -31.829  1.00  0.00     0.119 A 
ATOM     16  C   UNL     1     -33.381  11.761 -32.646  1.00  0.00     0.093 A 
ATOM     17  C   UNL     1     -33.604  11.557 -34.016  1.00  0.00     0.130 A 
BRANCH  15  18
ATOM     18  O   UNL     1     -32.756  10.927 -30.471  1.00  0.00    -0.508 OA
ATOM     19  H   UNL     1     -33.466  10.718 -29.779  1.00  0.00     0.293 HD
ENDBRANCH  15  18
BRANCH  17  20
ATOM     20  O   UNL     1     -34.004  12.623 -34.821  1.00  0.00    -0.507 OA
ATOM     21  H   UNL     1     -34.658  12.496 -35.585  1.00  0.00     0.293 HD
ENDBRANCH  17  20
ENDBRANCH   1  12
BRANCH   2  22
ATOM     22  O   UNL     1     -31.385   9.342 -36.411  1.00  0.00    -0.502 OA
ATOM     23  H   UNL     1     -31.168   9.300 -35.422  1.00  0.00     0.293 HD
ENDBRANCH   2  22
BRANCH   6  24
ATOM     24  O   UNL     1     -33.864   9.209 -41.125  1.00  0.00    -0.507 OA
ATOM     25  H   UNL     1     -33.975   9.522 -42.077  1.00  0.00     0.293 HD
ENDBRANCH   6  24
BRANCH   8  26
ATOM     26  O   UNL     1     -38.305  10.438 -39.780  1.00  0.00    -0.508 OA
ATOM     27  H   UNL     1     -38.957  10.848 -39.119  1.00  0.00     0.293 HD
ENDBRANCH   8  26
TORSDOF 6
ENDMDL
MODEL 3
REMARK VINA RESULT:    -3.376      1.512      6.669
REMARK INTER + INTRA:          -4.409
REMARK INTER:                  -4.297
REMARK INTRA:                  -0.113
REMARK UNBOUND:                -0.343
REMARK SMILES O=c1c(O)c(-c2ccc(O)cc2O)oc2cc(O)cc(O)c12
REMARK SMILES IDX 5 1 3 2 2 3 1 4 22 5 20 6 19 7 17 8 16 9 15 10 14 11 6 12
REMARK SMILES IDX 8 13 7 14 9 15 11 16 12 17 10 18 13 20 4 22 21 24 18 26
REMARK H PARENT 10 19 13 21 4 23 21 25 18 27
REMARK Flexibility Score: inf
ROOT
ATOM      1  C   UNL     1     -32.736  11.110 -33.483  1.00  0.00     0.184 A 
ATOM      2  C   UNL     1     -31.706  10.243 -33.884  1.00  0.00     0.208 A 
ATOM      3  C   UNL     1     -31.734   9.707 -35.182  1.00  0.00     0.238 A 
ATOM      4  O   UNL     1     -30.849   8.875 -35.510  1.00  0.00    -0.285 OA
ATOM      5  C   UNL     1     -32.763  10.085 -36.079  1.00  0.00     0.111 A 
ATOM      6  C   UNL     1     -32.865   9.640 -37.432  1.00  0.00     0.134 A 
ATOM      7  C   UNL     1     -33.986   9.995 -38.193  1.00  0.00     0.093 A 
ATOM      8  C   UNL     1     -34.976  10.832 -37.670  1.00  0.00     0.123 A 
ATOM      9  C   UNL     1     -34.858  11.316 -36.370  1.00  0.00     0.094 A 
ATOM     10  C   UNL     1     -33.770  10.949 -35.574  1.00  0.00     0.146 A 
ATOM     11  O   UNL     1     -33.707  11.417 -34.332  1.00  0.00    -0.451 OA
ENDROOT
BRANCH   1  12
ATOM     12  C   UNL     1     -32.776  11.699 -32.124  1.00  0.00     0.063 A 
ATOM     13  C   UNL     1     -31.640  12.744 -30.242  1.00  0.00     0.047 A 
ATOM     14  C   UNL     1     -31.608  12.213 -31.535  1.00  0.00     0.020 A 
ATOM     15  C   UNL     1     -32.837  12.758 -29.518  1.00  0.00     0.119 A 
ATOM     16  C   UNL     1     -34.001  12.237 -30.089  1.00  0.00     0.093 A 
ATOM     17  C   UNL     1     -33.979  11.704 -31.387  1.00  0.00     0.130 A 
BRANCH  15  18
ATOM     18  O   UNL     1     -32.880  13.284 -28.228  1.00  0.00    -0.508 OA
ATOM     19  H   UNL     1     -33.552  12.957 -27.544  1.00  0.00     0.293 HD
ENDBRANCH  15  18
BRANCH  17  20
ATOM     20  O   UNL     1     -35.149  11.192 -31.948  1.00  0.00    -0.507 OA
ATOM     21  H   UNL     1     -35.997  11.089 -31.404  1.00  0.00     0.293 HD
ENDBRANCH  17  20
ENDBRANCH   1  12
BRANCH   2  22
ATOM     22  O   UNL     1     -30.664   9.936 -33.005  1.00  0.00    -0.502 OA
ATOM     23  H   UNL     1     -30.043   9.149 -33.151  1.00  0.00     0.293 HD
ENDBRANCH   2  22
BRANCH   6  24
ATOM     24  O   UNL     1     -31.891   8.875 -38.080  1.00  0.00    -0.507 OA
ATOM     25  H   UNL     1     -32.009   8.428 -38.977  1.00  0.00     0.293 HD
ENDBRANCH   6  24
BRANCH   8  26
ATOM     26  O   UNL     1     -36.079  11.193 -38.440  1.00  0.00    -0.508 OA
ATOM     27  H   UNL     1     -36.397  10.620 -39.213  1.00  0.00     0.293 HD
ENDBRANCH   8  26
TORSDOF 6
ENDMDL
