MODEL 1
REMARK VINA RESULT:     1.580      0.000      0.000
REMARK INTER + INTRA:           2.434
REMARK INTER:                   3.058
REMARK INTRA:                  -0.624
REMARK UNBOUND:                -0.624
REMARK SMILES CCCCCCCCCCCCCCCC(=O)OCC
REMARK SMILES IDX 10 1 9 2 8 3 7 4 6 5 5 6 4 7 3 8 2 9 1 10 11 11 12 12 13 13
REMARK SMILES IDX 14 14 15 15 16 16 17 17 18 18 19 19 20 20
REMARK H PARENT
REMARK Flexibility Score: inf
ROOT
ATOM      1  C   UNL     1     180.358 179.201 171.204  1.00  0.00     0.000 C 
ENDROOT
BRANCH   1   2
ATOM      2  C   UNL     1     178.957 178.980 170.616  1.00  0.00     0.000 C 
BRANCH   2   3
ATOM      3  C   UNL     1     177.914 178.584 171.677  1.00  0.00     0.000 C 
BRANCH   3   4
ATOM      4  C   UNL     1     176.556 179.300 171.562  1.00  0.00    -0.000 C 
BRANCH   4   5
ATOM      5  C   UNL     1     176.432 180.507 172.507  1.00  0.00    -0.000 C 
BRANCH   5   6
ATOM      6  C   UNL     1     177.317 181.693 172.081  1.00  0.00    -0.000 C 
BRANCH   6   7
ATOM      7  C   UNL     1     178.569 181.923 172.950  1.00  0.00    -0.000 C 
BRANCH   7   8
ATOM      8  C   UNL     1     178.488 183.122 173.917  1.00  0.00    -0.000 C 
BRANCH   8   9
ATOM      9  C   UNL     1     179.792 183.428 174.675  1.00  0.00    -0.003 C 
ATOM     10  C   UNL     1     179.561 184.219 175.961  1.00  0.00     0.004 C 
ENDBRANCH   8   9
ENDBRANCH   7   8
ENDBRANCH   6   7
ENDBRANCH   5   6
ENDBRANCH   4   5
ENDBRANCH   3   4
ENDBRANCH   2   3
ENDBRANCH   1   2
BRANCH   1  11
ATOM     11  C   UNL     1     180.351 179.017 172.727  1.00  0.00     0.000 C 
BRANCH  11  12
ATOM     12  C   UNL     1     181.538 178.155 173.182  1.00  0.00     0.000 C 
BRANCH  12  13
ATOM     13  C   UNL     1     182.012 177.168 172.101  1.00  0.00     0.001 C 
BRANCH  13  14
ATOM     14  C   UNL     1     181.036 176.011 171.802  1.00  0.00     0.012 C 
BRANCH  14  15
ATOM     15  C   UNL     1     179.770 176.000 172.674  1.00  0.00     0.123 C 
BRANCH  15  16
ATOM     16  C   UNL     1     179.395 174.613 173.096  1.00  0.00     0.305 C 
ATOM     17  O   UNL     1     179.875 173.621 172.482  1.00  0.00    -0.252 OA
BRANCH  16  18
ATOM     18  O   UNL     1     178.486 174.437 174.144  1.00  0.00    -0.466 OA
BRANCH  18  19
ATOM     19  C   UNL     1     178.815 173.780 175.365  1.00  0.00     0.229 C 
ATOM     20  C   UNL     1     177.564 173.557 176.206  1.00  0.00     0.049 C 
ENDBRANCH  18  19
ENDBRANCH  16  18
ENDBRANCH  15  16
ENDBRANCH  14  15
ENDBRANCH  13  14
ENDBRANCH  12  13
ENDBRANCH  11  12
ENDBRANCH   1  11
TORSDOF 16
ENDMDL
MODEL 2
REMARK VINA RESULT:     1.714      3.635      6.552
REMARK INTER + INTRA:           2.694
REMARK INTER:                   3.505
REMARK INTRA:                  -0.811
REMARK UNBOUND:                -0.624
REMARK SMILES CCCCCCCCCCCCCCCC(=O)OCC
REMARK SMILES IDX 10 1 9 2 8 3 7 4 6 5 5 6 4 7 3 8 2 9 1 10 11 11 12 12 13 13
REMARK SMILES IDX 14 14 15 15 16 16 17 17 18 18 19 19 20 20
REMARK H PARENT
REMARK Flexibility Score: inf
ROOT
ATOM      1  C   UNL     1     178.224 178.689 170.753  1.00  0.00     0.000 C 
ENDROOT
BRANCH   1   2
ATOM      2  C   UNL     1     179.670 178.970 170.319  1.00  0.00     0.000 C 
BRANCH   2   3
ATOM      3  C   UNL     1     180.682 178.830 171.470  1.00  0.00     0.000 C 
BRANCH   3   4
ATOM      4  C   UNL     1     181.337 177.442 171.604  1.00  0.00    -0.000 C 
BRANCH   4   5
ATOM      5  C   UNL     1     181.960 177.203 172.989  1.00  0.00    -0.000 C 
BRANCH   5   6
ATOM      6  C   UNL     1     181.752 178.388 173.950  1.00  0.00    -0.000 C 
BRANCH   6   7
ATOM      7  C   UNL     1     182.160 178.125 175.414  1.00  0.00    -0.000 C 
BRANCH   7   8
ATOM      8  C   UNL     1     182.886 179.292 176.113  1.00  0.00    -0.000 C 
BRANCH   8   9
ATOM      9  C   UNL     1     182.306 179.683 177.485  1.00  0.00    -0.003 C 
ATOM     10  C   UNL     1     182.664 181.109 177.897  1.00  0.00     0.004 C 
ENDBRANCH   8   9
ENDBRANCH   7   8
ENDBRANCH   6   7
ENDBRANCH   5   6
ENDBRANCH   4   5
ENDBRANCH   3   4
ENDBRANCH   2   3
ENDBRANCH   1   2
BRANCH   1  11
ATOM     11  C   UNL     1     178.183 178.043 172.144  1.00  0.00     0.000 C 
BRANCH  11  12
ATOM     12  C   UNL     1     177.212 178.791 173.069  1.00  0.00     0.000 C 
BRANCH  12  13
ATOM     13  C   UNL     1     176.306 179.779 172.315  1.00  0.00     0.001 C 
BRANCH  13  14
ATOM     14  C   UNL     1     176.799 181.242 172.309  1.00  0.00     0.012 C 
BRANCH  14  15
ATOM     15  C   UNL     1     178.262 181.425 172.741  1.00  0.00     0.123 C 
BRANCH  15  16
ATOM     16  C   UNL     1     178.561 182.844 173.112  1.00  0.00     0.305 C 
ATOM     17  O   UNL     1     178.117 183.785 172.398  1.00  0.00    -0.252 OA
BRANCH  16  18
ATOM     18  O   UNL     1     179.363 183.109 174.227  1.00  0.00    -0.466 OA
BRANCH  18  19
ATOM     19  C   UNL     1     178.948 183.932 175.314  1.00  0.00     0.229 C 
ATOM     20  C   UNL     1     180.151 184.377 176.137  1.00  0.00     0.049 C 
ENDBRANCH  18  19
ENDBRANCH  16  18
ENDBRANCH  15  16
ENDBRANCH  14  15
ENDBRANCH  13  14
ENDBRANCH  12  13
ENDBRANCH  11  12
ENDBRANCH   1  11
TORSDOF 16
ENDMDL
MODEL 3
REMARK VINA RESULT:     1.798      2.850      3.962
REMARK INTER + INTRA:           2.855
REMARK INTER:                   3.937
REMARK INTRA:                  -1.082
REMARK UNBOUND:                -0.624
REMARK SMILES CCCCCCCCCCCCCCCC(=O)OCC
REMARK SMILES IDX 10 1 9 2 8 3 7 4 6 5 5 6 4 7 3 8 2 9 1 10 11 11 12 12 13 13
REMARK SMILES IDX 14 14 15 15 16 16 17 17 18 18 19 19 20 20
REMARK H PARENT
REMARK Flexibility Score: inf
ROOT
ATOM      1  C   UNL     1     178.814 178.368 172.352  1.00  0.00     0.000 C 
ENDROOT
BRANCH   1   2
ATOM      2  C   UNL     1     177.838 178.198 171.179  1.00  0.00     0.000 C 
BRANCH   2   3
ATOM      3  C   UNL     1     176.868 179.385 171.027  1.00  0.00     0.000 C 
BRANCH   3   4
ATOM      4  C   UNL     1     175.959 179.648 172.242  1.00  0.00    -0.000 C 
BRANCH   4   5
ATOM      5  C   UNL     1     176.377 180.891 173.045  1.00  0.00    -0.000 C 
BRANCH   5   6
ATOM      6  C   UNL     1     177.431 181.746 172.319  1.00  0.00    -0.000 C 
BRANCH   6   7
ATOM      7  C   UNL     1     178.709 182.041 173.129  1.00  0.00    -0.000 C 
BRANCH   7   8
ATOM      8  C   UNL     1     178.681 183.346 173.949  1.00  0.00    -0.000 C 
BRANCH   8   9
ATOM      9  C   UNL     1     179.900 183.559 174.865  1.00  0.00    -0.003 C 
ATOM     10  C   UNL     1     179.549 184.280 176.164  1.00  0.00     0.004 C 
ENDBRANCH   8   9
ENDBRANCH   7   8
ENDBRANCH   6   7
ENDBRANCH   5   6
ENDBRANCH   4   5
ENDBRANCH   3   4
ENDBRANCH   2   3
ENDBRANCH   1   2
BRANCH   1  11
ATOM     11  C   UNL     1     180.048 179.175 171.928  1.00  0.00     0.000 C 
BRANCH  11  12
ATOM     12  C   UNL     1     181.222 178.247 171.585  1.00  0.00     0.000 C 
BRANCH  12  13
ATOM     13  C   UNL     1     181.291 177.006 172.493  1.00  0.00     0.001 C 
BRANCH  13  14
ATOM     14  C   UNL     1     182.161 177.169 173.757  1.00  0.00     0.012 C 
BRANCH  14  15
ATOM     15  C   UNL     1     181.851 178.424 174.589  1.00  0.00     0.123 C 
BRANCH  15  16
ATOM     16  C   UNL     1     182.701 178.501 175.819  1.00  0.00     0.305 C 
ATOM     17  O   UNL     1     183.181 177.446 176.316  1.00  0.00    -0.252 OA
BRANCH  16  18
ATOM     18  O   UNL     1     182.920 179.743 176.424  1.00  0.00    -0.466 OA
BRANCH  18  19
ATOM     19  C   UNL     1     182.424 180.085 177.716  1.00  0.00     0.229 C 
ATOM     20  C   UNL     1     182.772 181.528 178.057  1.00  0.00     0.049 C 
ENDBRANCH  18  19
ENDBRANCH  16  18
ENDBRANCH  15  16
ENDBRANCH  14  15
ENDBRANCH  13  14
ENDBRANCH  12  13
ENDBRANCH  11  12
ENDBRANCH   1  11
TORSDOF 16
ENDMDL
MODEL 4
REMARK VINA RESULT:     1.805      2.858      7.217
REMARK INTER + INTRA:           2.869
REMARK INTER:                   3.924
REMARK INTRA:                  -1.055
REMARK UNBOUND:                -0.624
REMARK SMILES CCCCCCCCCCCCCCCC(=O)OCC
REMARK SMILES IDX 10 1 9 2 8 3 7 4 6 5 5 6 4 7 3 8 2 9 1 10 11 11 12 12 13 13
REMARK SMILES IDX 14 14 15 15 16 16 17 17 18 18 19 19 20 20
REMARK H PARENT
REMARK Flexibility Score: inf
ROOT
ATOM      1  C   UNL     1     180.090 179.367 171.048  1.00  0.00     0.000 C 
ENDROOT
BRANCH   1   2
ATOM      2  C   UNL     1     180.147 179.327 172.582  1.00  0.00     0.000 C 
BRANCH   2   3
ATOM      3  C   UNL     1     181.094 178.240 173.122  1.00  0.00     0.000 C 
BRANCH   3   4
ATOM      4  C   UNL     1     181.747 177.348 172.049  1.00  0.00    -0.000 C 
BRANCH   4   5
ATOM      5  C   UNL     1     180.928 176.083 171.741  1.00  0.00    -0.000 C 
BRANCH   5   6
ATOM      6  C   UNL     1     179.754 175.879 172.716  1.00  0.00    -0.000 C 
BRANCH   6   7
ATOM      7  C   UNL     1     179.652 174.471 173.335  1.00  0.00    -0.000 C 
BRANCH   7   8
ATOM      8  C   UNL     1     178.375 174.205 174.156  1.00  0.00    -0.000 C 
BRANCH   8   9
ATOM      9  C   UNL     1     178.623 173.745 175.605  1.00  0.00    -0.003 C 
ATOM     10  C   UNL     1     177.380 173.854 176.484  1.00  0.00     0.004 C 
ENDBRANCH   8   9
ENDBRANCH   7   8
ENDBRANCH   6   7
ENDBRANCH   5   6
ENDBRANCH   4   5
ENDBRANCH   3   4
ENDBRANCH   2   3
ENDBRANCH   1   2
BRANCH   1  11
ATOM     11  C   UNL     1     178.705 178.948 170.538  1.00  0.00     0.000 C 
BRANCH  11  12
ATOM     12  C   UNL     1     177.826 178.438 171.689  1.00  0.00     0.000 C 
BRANCH  12  13
ATOM     13  C   UNL     1     176.424 179.071 171.698  1.00  0.00     0.001 C 
BRANCH  13  14
ATOM     14  C   UNL     1     176.389 180.572 172.054  1.00  0.00     0.012 C 
BRANCH  14  15
ATOM     15  C   UNL     1     177.411 181.001 173.118  1.00  0.00     0.123 C 
BRANCH  15  16
ATOM     16  C   UNL     1     178.049 182.313 172.783  1.00  0.00     0.305 C 
ATOM     17  O   UNL     1     177.697 182.932 171.742  1.00  0.00    -0.252 OA
BRANCH  16  18
ATOM     18  O   UNL     1     179.056 182.819 173.611  1.00  0.00    -0.466 OA
BRANCH  18  19
ATOM     19  C   UNL     1     178.798 183.619 174.763  1.00  0.00     0.229 C 
ATOM     20  C   UNL     1     180.094 183.928 175.501  1.00  0.00     0.049 C 
ENDBRANCH  18  19
ENDBRANCH  16  18
ENDBRANCH  15  16
ENDBRANCH  14  15
ENDBRANCH  13  14
ENDBRANCH  12  13
ENDBRANCH  11  12
ENDBRANCH   1  11
TORSDOF 16
ENDMDL
MODEL 5
REMARK VINA RESULT:     2.040      3.212      6.041
REMARK INTER + INTRA:           3.323
REMARK INTER:                   4.350
REMARK INTRA:                  -1.027
REMARK UNBOUND:                -0.624
REMARK SMILES CCCCCCCCCCCCCCCC(=O)OCC
REMARK SMILES IDX 10 1 9 2 8 3 7 4 6 5 5 6 4 7 3 8 2 9 1 10 11 11 12 12 13 13
REMARK SMILES IDX 14 14 15 15 16 16 17 17 18 18 19 19 20 20
REMARK H PARENT
REMARK Flexibility Score: inf
ROOT
ATOM      1  C   UNL     1     180.072 179.409 171.294  1.00  0.00     0.000 C 
ENDROOT
BRANCH   1   2
ATOM      2  C   UNL     1     181.373 178.622 171.076  1.00  0.00     0.000 C 
BRANCH   2   3
ATOM      3  C   UNL     1     181.210 177.110 171.320  1.00  0.00     0.000 C 
BRANCH   3   4
ATOM      4  C   UNL     1     180.929 176.708 172.780  1.00  0.00    -0.000 C 
BRANCH   4   5
ATOM      5  C   UNL     1     182.096 177.034 173.727  1.00  0.00    -0.000 C 
BRANCH   5   6
ATOM      6  C   UNL     1     181.808 178.239 174.639  1.00  0.00    -0.000 C 
BRANCH   6   7
ATOM      7  C   UNL     1     182.843 178.481 175.756  1.00  0.00    -0.000 C 
BRANCH   7   8
ATOM      8  C   UNL     1     182.370 179.394 176.904  1.00  0.00    -0.000 C 
BRANCH   8   9
ATOM      9  C   UNL     1     183.121 180.734 177.013  1.00  0.00    -0.003 C 
ATOM     10  C   UNL     1     182.680 181.567 178.215  1.00  0.00     0.004 C 
ENDBRANCH   8   9
ENDBRANCH   7   8
ENDBRANCH   6   7
ENDBRANCH   5   6
ENDBRANCH   4   5
ENDBRANCH   3   4
ENDBRANCH   2   3
ENDBRANCH   1   2
BRANCH   1  11
ATOM     11  C   UNL     1     179.020 179.035 170.241  1.00  0.00     0.000 C 
BRANCH  11  12
ATOM     12  C   UNL     1     177.740 178.508 170.906  1.00  0.00     0.000 C 
BRANCH  12  13
ATOM     13  C   UNL     1     177.922 178.206 172.403  1.00  0.00     0.001 C 
BRANCH  13  14
ATOM     14  C   UNL     1     177.046 179.051 173.351  1.00  0.00     0.012 C 
BRANCH  14  15
ATOM     15  C   UNL     1     176.165 180.096 172.647  1.00  0.00     0.123 C 
BRANCH  15  16
ATOM     16  C   UNL     1     176.967 181.259 172.153  1.00  0.00     0.305 C 
ATOM     17  O   UNL     1     176.635 181.838 171.082  1.00  0.00    -0.252 OA
BRANCH  16  18
ATOM     18  O   UNL     1     178.098 181.667 172.867  1.00  0.00    -0.466 OA
BRANCH  18  19
ATOM     19  C   UNL     1     178.405 183.033 173.137  1.00  0.00     0.229 C 
ATOM     20  C   UNL     1     179.352 183.143 174.326  1.00  0.00     0.049 C 
ENDBRANCH  18  19
ENDBRANCH  16  18
ENDBRANCH  15  16
ENDBRANCH  14  15
ENDBRANCH  13  14
ENDBRANCH  12  13
ENDBRANCH  11  12
ENDBRANCH   1  11
TORSDOF 16
ENDMDL
MODEL 6
REMARK VINA RESULT:     2.099      2.085      3.250
REMARK INTER + INTRA:           3.439
REMARK INTER:                   4.183
REMARK INTRA:                  -0.744
REMARK UNBOUND:                -0.624
REMARK SMILES CCCCCCCCCCCCCCCC(=O)OCC
REMARK SMILES IDX 10 1 9 2 8 3 7 4 6 5 5 6 4 7 3 8 2 9 1 10 11 11 12 12 13 13
REMARK SMILES IDX 14 14 15 15 16 16 17 17 18 18 19 19 20 20
REMARK H PARENT
REMARK Flexibility Score: inf
ROOT
ATOM      1  C   UNL     1     177.728 178.220 172.455  1.00  0.00     0.000 C 
ENDROOT
BRANCH   1   2
ATOM      2  C   UNL     1     176.745 179.195 173.118  1.00  0.00     0.000 C 
BRANCH   2   3
ATOM      3  C   UNL     1     176.002 180.083 172.104  1.00  0.00     0.000 C 
BRANCH   3   4
ATOM      4  C   UNL     1     176.654 181.451 171.828  1.00  0.00    -0.000 C 
BRANCH   4   5
ATOM      5  C   UNL     1     178.021 181.613 172.513  1.00  0.00    -0.000 C 
BRANCH   5   6
ATOM      6  C   UNL     1     178.255 183.036 173.053  1.00  0.00    -0.000 C 
BRANCH   6   7
ATOM      7  C   UNL     1     179.272 183.141 174.207  1.00  0.00    -0.000 C 
BRANCH   7   8
ATOM      8  C   UNL     1     178.857 184.071 175.365  1.00  0.00    -0.000 C 
BRANCH   8   9
ATOM      9  C   UNL     1     180.015 184.529 176.270  1.00  0.00    -0.003 C 
ATOM     10  C   UNL     1     181.172 183.534 176.305  1.00  0.00     0.004 C 
ENDBRANCH   8   9
ENDBRANCH   7   8
ENDBRANCH   6   7
ENDBRANCH   5   6
ENDBRANCH   4   5
ENDBRANCH   3   4
ENDBRANCH   2   3
ENDBRANCH   1   2
BRANCH   1  11
ATOM     11  C   UNL     1     177.587 178.250 170.928  1.00  0.00     0.000 C 
BRANCH  11  12
ATOM     12  C   UNL     1     178.850 178.825 170.270  1.00  0.00     0.000 C 
BRANCH  12  13
ATOM     13  C   UNL     1     179.877 179.342 171.292  1.00  0.00     0.001 C 
BRANCH  13  14
ATOM     14  C   UNL     1     181.276 178.698 171.194  1.00  0.00     0.012 C 
BRANCH  14  15
ATOM     15  C   UNL     1     181.277 177.161 171.235  1.00  0.00     0.123 C 
BRANCH  15  16
ATOM     16  C   UNL     1     181.017 176.640 172.613  1.00  0.00     0.305 C 
ATOM     17  O   UNL     1     180.065 175.834 172.809  1.00  0.00    -0.252 OA
BRANCH  16  18
ATOM     18  O   UNL     1     181.810 177.082 173.676  1.00  0.00    -0.466 OA
BRANCH  18  19
ATOM     19  C   UNL     1     181.645 178.352 174.304  1.00  0.00     0.229 C 
ATOM     20  C   UNL     1     182.426 178.408 175.610  1.00  0.00     0.049 C 
ENDBRANCH  18  19
ENDBRANCH  16  18
ENDBRANCH  15  16
ENDBRANCH  14  15
ENDBRANCH  13  14
ENDBRANCH  12  13
ENDBRANCH  11  12
ENDBRANCH   1  11
TORSDOF 16
ENDMDL
MODEL 7
REMARK VINA RESULT:     2.184      1.167      2.107
REMARK INTER + INTRA:           3.603
REMARK INTER:                   4.946
REMARK INTRA:                  -1.343
REMARK UNBOUND:                -0.624
REMARK SMILES CCCCCCCCCCCCCCCC(=O)OCC
REMARK SMILES IDX 10 1 9 2 8 3 7 4 6 5 5 6 4 7 3 8 2 9 1 10 11 11 12 12 13 13
REMARK SMILES IDX 14 14 15 15 16 16 17 17 18 18 19 19 20 20
REMARK H PARENT
REMARK Flexibility Score: inf
ROOT
ATOM      1  C   UNL     1     178.327 178.219 171.302  1.00  0.00     0.000 C 
ENDROOT
BRANCH   1   2
ATOM      2  C   UNL     1     176.954 178.520 170.685  1.00  0.00     0.000 C 
BRANCH   2   3
ATOM      3  C   UNL     1     176.330 179.825 171.213  1.00  0.00     0.000 C 
BRANCH   3   4
ATOM      4  C   UNL     1     176.074 179.862 172.731  1.00  0.00    -0.000 C 
BRANCH   4   5
ATOM      5  C   UNL     1     176.801 181.020 173.435  1.00  0.00    -0.000 C 
BRANCH   5   6
ATOM      6  C   UNL     1     177.922 181.632 172.575  1.00  0.00    -0.000 C 
BRANCH   6   7
ATOM      7  C   UNL     1     178.384 183.040 173.003  1.00  0.00    -0.000 C 
BRANCH   7   8
ATOM      8  C   UNL     1     179.420 183.074 174.143  1.00  0.00    -0.000 C 
BRANCH   8   9
ATOM      9  C   UNL     1     179.008 183.916 175.364  1.00  0.00    -0.003 C 
ATOM     10  C   UNL     1     180.191 184.291 176.254  1.00  0.00     0.004 C 
ENDBRANCH   8   9
ENDBRANCH   7   8
ENDBRANCH   6   7
ENDBRANCH   5   6
ENDBRANCH   4   5
ENDBRANCH   3   4
ENDBRANCH   2   3
ENDBRANCH   1   2
BRANCH   1  11
ATOM     11  C   UNL     1     179.439 178.980 170.569  1.00  0.00     0.000 C 
BRANCH  11  12
ATOM     12  C   UNL     1     180.525 179.447 171.549  1.00  0.00     0.000 C 
BRANCH  12  13
ATOM     13  C   UNL     1     180.256 179.003 172.997  1.00  0.00     0.001 C 
BRANCH  13  14
ATOM     14  C   UNL     1     181.373 178.152 173.637  1.00  0.00     0.012 C 
BRANCH  14  15
ATOM     15  C   UNL     1     182.076 177.188 172.669  1.00  0.00     0.123 C 
BRANCH  15  16
ATOM     16  C   UNL     1     181.118 176.217 172.054  1.00  0.00     0.305 C 
ATOM     17  O   UNL     1     181.348 175.753 170.904  1.00  0.00    -0.252 OA
BRANCH  16  18
ATOM     18  O   UNL     1     179.957 175.863 172.750  1.00  0.00    -0.466 OA
BRANCH  18  19
ATOM     19  C   UNL     1     179.594 174.515 173.036  1.00  0.00     0.229 C 
ATOM     20  C   UNL     1     178.597 174.463 174.187  1.00  0.00     0.049 C 
ENDBRANCH  18  19
ENDBRANCH  16  18
ENDBRANCH  15  16
ENDBRANCH  14  15
ENDBRANCH  13  14
ENDBRANCH  12  13
ENDBRANCH  11  12
ENDBRANCH   1  11
TORSDOF 16
ENDMDL
MODEL 8
REMARK VINA RESULT:     2.774      2.174      6.804
REMARK INTER + INTRA:           4.744
REMARK INTER:                   5.859
REMARK INTRA:                  -1.115
REMARK UNBOUND:                -0.624
REMARK SMILES CCCCCCCCCCCCCCCC(=O)OCC
REMARK SMILES IDX 10 1 9 2 8 3 7 4 6 5 5 6 4 7 3 8 2 9 1 10 11 11 12 12 13 13
REMARK SMILES IDX 14 14 15 15 16 16 17 17 18 18 19 19 20 20
REMARK H PARENT
REMARK Flexibility Score: inf
ROOT
ATOM      1  C   UNL     1     180.254 179.298 172.864  1.00  0.00     0.000 C 
ENDROOT
BRANCH   1   2
ATOM      2  C   UNL     1     181.209 178.258 173.468  1.00  0.00     0.000 C 
BRANCH   2   3
ATOM      3  C   UNL     1     181.997 177.474 172.403  1.00  0.00     0.000 C 
BRANCH   3   4
ATOM      4  C   UNL     1     181.370 176.133 171.979  1.00  0.00    -0.000 C 
BRANCH   4   5
ATOM      5  C   UNL     1     179.929 175.957 172.486  1.00  0.00    -0.000 C 
BRANCH   5   6
ATOM      6  C   UNL     1     179.594 174.498 172.845  1.00  0.00    -0.000 C 
BRANCH   6   7
ATOM      7  C   UNL     1     178.644 174.318 174.045  1.00  0.00    -0.000 C 
BRANCH   7   8
ATOM      8  C   UNL     1     179.277 173.674 175.295  1.00  0.00    -0.000 C 
BRANCH   8   9
ATOM      9  C   UNL     1     178.312 173.474 176.477  1.00  0.00    -0.003 C 
ATOM     10  C   UNL     1     176.951 174.128 176.251  1.00  0.00     0.004 C 
ENDBRANCH   8   9
ENDBRANCH   7   8
ENDBRANCH   6   7
ENDBRANCH   5   6
ENDBRANCH   4   5
ENDBRANCH   3   4
ENDBRANCH   2   3
ENDBRANCH   1   2
BRANCH   1  11
ATOM     11  C   UNL     1     180.524 179.488 171.366  1.00  0.00     0.000 C 
BRANCH  11  12
ATOM     12  C   UNL     1     179.357 178.952 170.524  1.00  0.00     0.000 C 
BRANCH  12  13
ATOM     13  C   UNL     1     178.218 178.370 171.379  1.00  0.00     0.001 C 
BRANCH  13  14
ATOM     14  C   UNL     1     176.795 178.730 170.903  1.00  0.00     0.012 C 
BRANCH  14  15
ATOM     15  C   UNL     1     176.289 180.100 171.382  1.00  0.00     0.123 C 
BRANCH  15  16
ATOM     16  C   UNL     1     176.441 180.267 172.861  1.00  0.00     0.305 C 
ATOM     17  O   UNL     1     175.992 179.382 173.640  1.00  0.00    -0.252 OA
BRANCH  16  18
ATOM     18  O   UNL     1     177.049 181.422 173.363  1.00  0.00    -0.466 OA
BRANCH  18  19
ATOM     19  C   UNL     1     178.140 182.077 172.721  1.00  0.00     0.229 C 
ATOM     20  C   UNL     1     178.856 183.004 173.696  1.00  0.00     0.049 C 
ENDBRANCH  18  19
ENDBRANCH  16  18
ENDBRANCH  15  16
ENDBRANCH  14  15
ENDBRANCH  13  14
ENDBRANCH  12  13
ENDBRANCH  11  12
ENDBRANCH   1  11
TORSDOF 16
ENDMDL
