MODEL 1
REMARK VINA RESULT:    -4.756      0.000      0.000
REMARK INTER + INTRA:          -5.596
REMARK INTER:                  -5.452
REMARK INTRA:                  -0.145
REMARK UNBOUND:                -0.145
REMARK SMILES O=C([O-])C=Cc1ccc(O)cc1
REMARK SMILES IDX 6 1 7 2 12 3 8 4 11 5 9 6 5 7 4 8 2 9 1 10 3 11 10 12
REMARK H PARENT 10 13
REMARK Flexibility Score: inf
ROOT
ATOM      1  C   UNL     1      20.230   0.048 -19.226  1.00  0.00    -0.025 A 
ATOM      2  C   UNL     1      20.986   0.606 -18.180  1.00  0.00     0.012 A 
ATOM      3  C   UNL     1      18.965  -0.499 -18.932  1.00  0.00     0.012 A 
ATOM      4  C   UNL     1      20.482   0.640 -16.877  1.00  0.00     0.047 A 
ATOM      5  C   UNL     1      18.466  -0.465 -17.627  1.00  0.00     0.047 A 
ATOM      6  C   UNL     1      19.219   0.106 -16.597  1.00  0.00     0.115 A 
ENDROOT
BRANCH   1   7
ATOM      7  C   UNL     1      20.814   0.027 -20.590  1.00  0.00     0.010 C 
ATOM      8  C   UNL     1      21.424   1.079 -21.156  1.00  0.00     0.025 C 
BRANCH   8   9
ATOM      9  C   UNL     1      22.002   1.018 -22.508  1.00  0.00     0.064 C 
ATOM     10  O   UNL     1      22.352   2.065 -23.117  1.00  0.00    -0.545 OA
ATOM     11  O   UNL     1      22.166  -0.215 -23.125  1.00  0.00    -0.545 OA
ENDBRANCH   8   9
ENDBRANCH   1   7
BRANCH   6  12
ATOM     12  O   UNL     1      18.705   0.135 -15.302  1.00  0.00    -0.508 OA
ATOM     13  H   UNL     1      19.078  -0.461 -14.573  1.00  0.00     0.293 HD
ENDBRANCH   6  12
TORSDOF 3
ENDMDL
MODEL 2
REMARK VINA RESULT:    -4.697     15.160     15.886
REMARK INTER + INTRA:          -5.528
REMARK INTER:                  -5.393
REMARK INTRA:                  -0.135
REMARK UNBOUND:                -0.145
REMARK SMILES O=C([O-])C=Cc1ccc(O)cc1
REMARK SMILES IDX 6 1 7 2 12 3 8 4 11 5 9 6 5 7 4 8 2 9 1 10 3 11 10 12
REMARK H PARENT 10 13
REMARK Flexibility Score: inf
ROOT
ATOM      1  C   UNL     1       8.679  -5.351 -10.619  1.00  0.00    -0.025 A 
ATOM      2  C   UNL     1      10.022  -5.768 -10.621  1.00  0.00     0.012 A 
ATOM      3  C   UNL     1       7.988  -5.297  -9.392  1.00  0.00     0.012 A 
ATOM      4  C   UNL     1      10.668  -6.098  -9.427  1.00  0.00     0.047 A 
ATOM      5  C   UNL     1       8.637  -5.630  -8.199  1.00  0.00     0.047 A 
ATOM      6  C   UNL     1       9.977  -6.028  -8.211  1.00  0.00     0.115 A 
ENDROOT
BRANCH   1   7
ATOM      7  C   UNL     1       8.036  -5.021 -11.915  1.00  0.00     0.010 C 
ATOM      8  C   UNL     1       7.725  -3.773 -12.295  1.00  0.00     0.025 C 
BRANCH   8   9
ATOM      9  C   UNL     1       7.097  -3.482 -13.594  1.00  0.00     0.064 C 
ATOM     10  O   UNL     1       7.250  -4.251 -14.581  1.00  0.00    -0.545 OA
ATOM     11  O   UNL     1       6.321  -2.339 -13.736  1.00  0.00    -0.545 OA
ENDBRANCH   8   9
ENDBRANCH   1   7
BRANCH   6  12
ATOM     12  O   UNL     1      10.610  -6.354  -7.014  1.00  0.00    -0.508 OA
ATOM     13  H   UNL     1      10.157  -6.935  -6.318  1.00  0.00     0.293 HD
ENDBRANCH   6  12
TORSDOF 3
ENDMDL
MODEL 3
REMARK VINA RESULT:    -4.612     18.796     19.727
REMARK INTER + INTRA:          -5.431
REMARK INTER:                  -5.293
REMARK INTRA:                  -0.138
REMARK UNBOUND:                -0.145
REMARK SMILES O=C([O-])C=Cc1ccc(O)cc1
REMARK SMILES IDX 6 1 7 2 12 3 8 4 11 5 9 6 5 7 4 8 2 9 1 10 3 11 10 12
REMARK H PARENT 10 13
REMARK Flexibility Score: inf
ROOT
ATOM      1  C   UNL     1       4.931   5.235  -8.859  1.00  0.00    -0.025 A 
ATOM      2  C   UNL     1       4.029   4.988  -7.810  1.00  0.00     0.012 A 
ATOM      3  C   UNL     1       6.155   4.538  -8.880  1.00  0.00     0.012 A 
ATOM      4  C   UNL     1       4.329   4.049  -6.818  1.00  0.00     0.047 A 
ATOM      5  C   UNL     1       6.453   3.601  -7.886  1.00  0.00     0.047 A 
ATOM      6  C   UNL     1       5.542   3.351  -6.855  1.00  0.00     0.115 A 
ENDROOT
BRANCH   1   7
ATOM      7  C   UNL     1       4.569   6.249  -9.881  1.00  0.00     0.010 C 
ATOM      8  C   UNL     1       4.911   7.543  -9.800  1.00  0.00     0.025 C 
BRANCH   8   9
ATOM      9  C   UNL     1       4.545   8.519 -10.840  1.00  0.00     0.064 C 
ATOM     10  O   UNL     1       3.876   8.176 -11.851  1.00  0.00    -0.545 OA
ATOM     11  O   UNL     1       4.943   9.842 -10.703  1.00  0.00    -0.545 OA
ENDBRANCH   8   9
ENDBRANCH   1   7
BRANCH   6  12
ATOM     12  O   UNL     1       5.853   2.413  -5.874  1.00  0.00    -0.508 OA
ATOM     13  H   UNL     1       6.088   1.457  -6.112  1.00  0.00     0.293 HD
ENDBRANCH   6  12
TORSDOF 3
ENDMDL
MODEL 4
REMARK VINA RESULT:    -4.609     15.740     17.800
REMARK INTER + INTRA:          -5.427
REMARK INTER:                  -5.290
REMARK INTRA:                  -0.137
REMARK UNBOUND:                -0.145
REMARK SMILES O=C([O-])C=Cc1ccc(O)cc1
REMARK SMILES IDX 6 1 7 2 12 3 8 4 11 5 9 6 5 7 4 8 2 9 1 10 3 11 10 12
REMARK H PARENT 10 13
REMARK Flexibility Score: inf
ROOT
ATOM      1  C   UNL     1       8.406  -5.757 -10.035  1.00  0.00    -0.025 A 
ATOM      2  C   UNL     1       8.022  -4.497 -10.525  1.00  0.00     0.012 A 
ATOM      3  C   UNL     1       8.402  -6.857 -10.916  1.00  0.00     0.012 A 
ATOM      4  C   UNL     1       7.667  -4.332 -11.867  1.00  0.00     0.047 A 
ATOM      5  C   UNL     1       8.045  -6.689 -12.257  1.00  0.00     0.047 A 
ATOM      6  C   UNL     1       7.680  -5.428 -12.738  1.00  0.00     0.115 A 
ENDROOT
BRANCH   1   7
ATOM      7  C   UNL     1       8.764  -5.882  -8.600  1.00  0.00     0.010 C 
ATOM      8  C   UNL     1       7.867  -5.863  -7.605  1.00  0.00     0.025 C 
BRANCH   8   9
ATOM      9  C   UNL     1       8.258  -6.000  -6.192  1.00  0.00     0.064 C 
ATOM     10  O   UNL     1       9.067  -5.196  -5.657  1.00  0.00    -0.545 OA
ATOM     11  O   UNL     1       7.724  -7.035  -5.434  1.00  0.00    -0.545 OA
ENDBRANCH   8   9
ENDBRANCH   1   7
BRANCH   6  12
ATOM     12  O   UNL     1       7.328  -5.277 -14.077  1.00  0.00    -0.508 OA
ATOM     13  H   UNL     1       6.452  -5.635 -14.437  1.00  0.00     0.293 HD
ENDBRANCH   6  12
TORSDOF 3
ENDMDL
MODEL 5
REMARK VINA RESULT:    -4.601     15.734     17.852
REMARK INTER + INTRA:          -5.418
REMARK INTER:                  -5.284
REMARK INTRA:                  -0.134
REMARK UNBOUND:                -0.145
REMARK SMILES O=C([O-])C=Cc1ccc(O)cc1
REMARK SMILES IDX 6 1 7 2 12 3 8 4 11 5 9 6 5 7 4 8 2 9 1 10 3 11 10 12
REMARK H PARENT 10 13
REMARK Flexibility Score: inf
ROOT
ATOM      1  C   UNL     1       8.303  -5.708 -10.017  1.00  0.00    -0.025 A 
ATOM      2  C   UNL     1       8.344  -6.815 -10.883  1.00  0.00     0.012 A 
ATOM      3  C   UNL     1       7.959  -4.447 -10.543  1.00  0.00     0.012 A 
ATOM      4  C   UNL     1       8.023  -6.672 -12.236  1.00  0.00     0.047 A 
ATOM      5  C   UNL     1       7.641  -4.308 -11.897  1.00  0.00     0.047 A 
ATOM      6  C   UNL     1       7.669  -5.418 -12.747  1.00  0.00     0.115 A 
ENDROOT
BRANCH   1   7
ATOM      7  C   UNL     1       8.662  -5.910  -8.591  1.00  0.00     0.010 C 
ATOM      8  C   UNL     1       7.804  -5.732  -7.575  1.00  0.00     0.025 C 
BRANCH   8   9
ATOM      9  C   UNL     1       8.192  -5.953  -6.172  1.00  0.00     0.064 C 
ATOM     10  O   UNL     1       8.964  -5.156  -5.575  1.00  0.00    -0.545 OA
ATOM     11  O   UNL     1       7.697  -7.059  -5.494  1.00  0.00    -0.545 OA
ENDBRANCH   8   9
ENDBRANCH   1   7
BRANCH   6  12
ATOM     12  O   UNL     1       7.348  -5.263 -14.093  1.00  0.00    -0.508 OA
ATOM     13  H   UNL     1       6.991  -4.386 -14.454  1.00  0.00     0.293 HD
ENDBRANCH   6  12
TORSDOF 3
ENDMDL
MODEL 6
REMARK VINA RESULT:    -4.591     16.111     18.399
REMARK INTER + INTRA:          -5.407
REMARK INTER:                  -5.267
REMARK INTRA:                  -0.140
REMARK UNBOUND:                -0.145
REMARK SMILES O=C([O-])C=Cc1ccc(O)cc1
REMARK SMILES IDX 6 1 7 2 12 3 8 4 11 5 9 6 5 7 4 8 2 9 1 10 3 11 10 12
REMARK H PARENT 10 13
REMARK Flexibility Score: inf
ROOT
ATOM      1  C   UNL     1       8.052  -6.613  -7.463  1.00  0.00    -0.025 A 
ATOM      2  C   UNL     1       7.732  -7.801  -6.784  1.00  0.00     0.012 A 
ATOM      3  C   UNL     1       8.325  -5.453  -6.711  1.00  0.00     0.012 A 
ATOM      4  C   UNL     1       7.709  -7.838  -5.386  1.00  0.00     0.047 A 
ATOM      5  C   UNL     1       8.300  -5.494  -5.313  1.00  0.00     0.047 A 
ATOM      6  C   UNL     1       7.995  -6.684  -4.647  1.00  0.00     0.115 A 
ENDROOT
BRANCH   1   7
ATOM      7  C   UNL     1       8.053  -6.623  -8.948  1.00  0.00     0.010 C 
ATOM      8  C   UNL     1       8.202  -5.523  -9.699  1.00  0.00     0.025 C 
BRANCH   8   9
ATOM      9  C   UNL     1       8.209  -5.572 -11.171  1.00  0.00     0.064 C 
ATOM     10  O   UNL     1       8.820  -6.483 -11.791  1.00  0.00    -0.545 OA
ATOM     11  O   UNL     1       7.530  -4.597 -11.889  1.00  0.00    -0.545 OA
ENDBRANCH   8   9
ENDBRANCH   1   7
BRANCH   6  12
ATOM     12  O   UNL     1       7.976  -6.709  -3.255  1.00  0.00    -0.508 OA
ATOM     13  H   UNL     1       7.153  -7.002  -2.742  1.00  0.00     0.293 HD
ENDBRANCH   6  12
TORSDOF 3
ENDMDL
MODEL 7
REMARK VINA RESULT:    -4.580     17.681     20.533
REMARK INTER + INTRA:          -5.395
REMARK INTER:                  -5.254
REMARK INTRA:                  -0.140
REMARK UNBOUND:                -0.145
REMARK SMILES O=C([O-])C=Cc1ccc(O)cc1
REMARK SMILES IDX 6 1 7 2 12 3 8 4 11 5 9 6 5 7 4 8 2 9 1 10 3 11 10 12
REMARK H PARENT 10 13
REMARK Flexibility Score: inf
ROOT
ATOM      1  C   UNL     1       5.332   3.750  -7.177  1.00  0.00    -0.025 A 
ATOM      2  C   UNL     1       4.366   4.519  -7.851  1.00  0.00     0.012 A 
ATOM      3  C   UNL     1       6.499   3.369  -7.869  1.00  0.00     0.012 A 
ATOM      4  C   UNL     1       4.571   4.919  -9.174  1.00  0.00     0.047 A 
ATOM      5  C   UNL     1       6.700   3.771  -9.193  1.00  0.00     0.047 A 
ATOM      6  C   UNL     1       5.741   4.548  -9.848  1.00  0.00     0.115 A 
ENDROOT
BRANCH   1   7
ATOM      7  C   UNL     1       5.062   3.342  -5.776  1.00  0.00     0.010 C 
ATOM      8  C   UNL     1       5.922   2.636  -5.028  1.00  0.00     0.025 C 
BRANCH   8   9
ATOM      9  C   UNL     1       5.626   2.258  -3.636  1.00  0.00     0.064 C 
ATOM     10  O   UNL     1       4.977   3.025  -2.875  1.00  0.00    -0.545 OA
ATOM     11  O   UNL     1       6.068   1.034  -3.153  1.00  0.00    -0.545 OA
ENDBRANCH   8   9
ENDBRANCH   1   7
BRANCH   6  12
ATOM     12  O   UNL     1       5.957   4.941 -11.167  1.00  0.00    -0.508 OA
ATOM     13  H   UNL     1       6.777   4.642 -11.680  1.00  0.00     0.293 HD
ENDBRANCH   6  12
TORSDOF 3
ENDMDL
MODEL 8
REMARK VINA RESULT:    -4.547      2.405      5.511
REMARK INTER + INTRA:          -5.356
REMARK INTER:                  -5.219
REMARK INTRA:                  -0.137
REMARK UNBOUND:                -0.145
REMARK SMILES O=C([O-])C=Cc1ccc(O)cc1
REMARK SMILES IDX 6 1 7 2 12 3 8 4 11 5 9 6 5 7 4 8 2 9 1 10 3 11 10 12
REMARK H PARENT 10 13
REMARK Flexibility Score: inf
ROOT
ATOM      1  C   UNL     1      21.019   0.327 -18.475  1.00  0.00    -0.025 A 
ATOM      2  C   UNL     1      20.531  -0.981 -18.638  1.00  0.00     0.012 A 
ATOM      3  C   UNL     1      21.311   1.091 -19.622  1.00  0.00     0.012 A 
ATOM      4  C   UNL     1      20.313  -1.506 -19.915  1.00  0.00     0.047 A 
ATOM      5  C   UNL     1      21.093   0.562 -20.898  1.00  0.00     0.047 A 
ATOM      6  C   UNL     1      20.592  -0.734 -21.050  1.00  0.00     0.115 A 
ENDROOT
BRANCH   1   7
ATOM      7  C   UNL     1      21.243   0.834 -17.098  1.00  0.00     0.010 C 
ATOM      8  C   UNL     1      22.440   1.216 -16.630  1.00  0.00     0.025 C 
BRANCH   8   9
ATOM      9  C   UNL     1      22.623   1.725 -15.261  1.00  0.00     0.064 C 
ATOM     10  O   UNL     1      21.966   1.252 -14.295  1.00  0.00    -0.545 OA
ATOM     11  O   UNL     1      23.536   2.745 -15.029  1.00  0.00    -0.545 OA
ENDBRANCH   8   9
ENDBRANCH   1   7
BRANCH   6  12
ATOM     12  O   UNL     1      20.379  -1.245 -22.328  1.00  0.00    -0.508 OA
ATOM     13  H   UNL     1      20.948  -0.957 -23.114  1.00  0.00     0.293 HD
ENDBRANCH   6  12
TORSDOF 3
ENDMDL
MODEL 9
REMARK VINA RESULT:    -4.536     17.146     18.207
REMARK INTER + INTRA:          -5.344
REMARK INTER:                  -5.208
REMARK INTRA:                  -0.136
REMARK UNBOUND:                -0.145
REMARK SMILES O=C([O-])C=Cc1ccc(O)cc1
REMARK SMILES IDX 6 1 7 2 12 3 8 4 11 5 9 6 5 7 4 8 2 9 1 10 3 11 10 12
REMARK H PARENT 10 13
REMARK Flexibility Score: inf
ROOT
ATOM      1  C   UNL     1       8.512  -7.516  -8.422  1.00  0.00    -0.025 A 
ATOM      2  C   UNL     1       7.821  -6.848  -7.396  1.00  0.00     0.012 A 
ATOM      3  C   UNL     1       9.888  -7.263  -8.589  1.00  0.00     0.012 A 
ATOM      4  C   UNL     1       8.491  -5.969  -6.540  1.00  0.00     0.047 A 
ATOM      5  C   UNL     1      10.554  -6.382  -7.732  1.00  0.00     0.047 A 
ATOM      6  C   UNL     1       9.861  -5.735  -6.705  1.00  0.00     0.115 A 
ENDROOT
BRANCH   1   7
ATOM      7  C   UNL     1       7.753  -8.432  -9.310  1.00  0.00     0.010 C 
ATOM      8  C   UNL     1       7.571  -8.217 -10.620  1.00  0.00     0.025 C 
BRANCH   8   9
ATOM      9  C   UNL     1       6.821  -9.154 -11.473  1.00  0.00     0.064 C 
ATOM     10  O   UNL     1       7.218  -9.440 -12.635  1.00  0.00    -0.545 OA
ATOM     11  O   UNL     1       5.657  -9.734 -10.989  1.00  0.00    -0.545 OA
ENDBRANCH   8   9
ENDBRANCH   1   7
BRANCH   6  12
ATOM     12  O   UNL     1      10.540  -4.862  -5.859  1.00  0.00    -0.508 OA
ATOM     13  H   UNL     1      10.478  -3.857  -5.975  1.00  0.00     0.293 HD
ENDBRANCH   6  12
TORSDOF 3
ENDMDL
