MODEL 1
REMARK VINA RESULT:    -6.695      0.000      0.000
REMARK INTER + INTRA:          -8.349
REMARK INTER:                  -8.065
REMARK INTRA:                  -0.284
REMARK UNBOUND:                -0.284
REMARK SMILES O=c1c(O)c(-c2ccc(O)c(O)c2)oc2cc(O)cc(O)c12
REMARK SMILES IDX 5 1 3 2 2 3 1 4 22 5 20 6 19 7 17 8 16 9 15 10 14 11 6 12
REMARK SMILES IDX 7 13 8 14 9 15 13 16 11 17 10 18 12 20 4 22 21 24 18 26
REMARK H PARENT 10 19 12 21 4 23 21 25 18 27
REMARK Flexibility Score: inf
ROOT
ATOM      1  C   UNL     1     137.976 149.119 142.394  1.00  0.00     0.180 A 
ATOM      2  C   UNL     1     138.157 148.949 141.010  1.00  0.00     0.208 A 
ATOM      3  C   UNL     1     137.147 149.379 140.135  1.00  0.00     0.238 A 
ATOM      4  O   UNL     1     137.348 149.294 138.895  1.00  0.00    -0.285 OA
ATOM      5  C   UNL     1     135.946 149.921 140.654  1.00  0.00     0.111 A 
ATOM      6  C   UNL     1     134.838 150.348 139.861  1.00  0.00     0.134 A 
ATOM      7  C   UNL     1     133.743 150.966 140.479  1.00  0.00     0.093 A 
ATOM      8  C   UNL     1     133.688 151.116 141.864  1.00  0.00     0.123 A 
ATOM      9  C   UNL     1     134.742 150.653 142.654  1.00  0.00     0.094 A 
ATOM     10  C   UNL     1     135.864 150.066 142.063  1.00  0.00     0.146 A 
ATOM     11  O   UNL     1     136.852 149.660 142.850  1.00  0.00    -0.452 OA
ENDROOT
BRANCH   1  12
ATOM     12  C   UNL     1     139.001 148.704 143.379  1.00  0.00     0.025 A 
ATOM     13  C   UNL     1     140.130 149.512 143.582  1.00  0.00     0.016 A 
ATOM     14  C   UNL     1     141.121 149.130 144.490  1.00  0.00     0.051 A 
ATOM     15  C   UNL     1     141.005 147.926 145.197  1.00  0.00     0.157 A 
ATOM     16  C   UNL     1     138.898 147.486 144.074  1.00  0.00     0.062 A 
ATOM     17  C   UNL     1     139.890 147.098 144.983  1.00  0.00     0.158 A 
BRANCH  15  18
ATOM     18  O   UNL     1     141.994 147.548 146.104  1.00  0.00    -0.504 OA
ATOM     19  H   UNL     1     141.771 147.039 146.951  1.00  0.00     0.293 HD
ENDBRANCH  15  18
BRANCH  17  20
ATOM     20  O   UNL     1     139.752 145.886 145.660  1.00  0.00    -0.504 OA
ATOM     21  H   UNL     1     138.901 145.339 145.616  1.00  0.00     0.293 HD
ENDBRANCH  17  20
ENDBRANCH   1  12
BRANCH   2  22
ATOM     22  O   UNL     1     139.317 148.342 140.521  1.00  0.00    -0.502 OA
ATOM     23  H   UNL     1     139.332 147.384 140.193  1.00  0.00     0.293 HD
ENDBRANCH   2  22
BRANCH   6  24
ATOM     24  O   UNL     1     134.749 150.167 138.477  1.00  0.00    -0.507 OA
ATOM     25  H   UNL     1     134.738 149.273 138.011  1.00  0.00     0.293 HD
ENDBRANCH   6  24
BRANCH   8  26
ATOM     26  O   UNL     1     132.576 151.721 142.446  1.00  0.00    -0.508 OA
ATOM     27  H   UNL     1     132.530 151.896 143.444  1.00  0.00     0.293 HD
ENDBRANCH   8  26
TORSDOF 6
ENDMDL
MODEL 2
REMARK VINA RESULT:    -6.205      8.605      9.528
REMARK INTER + INTRA:          -7.759
REMARK INTER:                  -7.517
REMARK INTRA:                  -0.242
REMARK UNBOUND:                -0.284
REMARK SMILES O=c1c(O)c(-c2ccc(O)c(O)c2)oc2cc(O)cc(O)c12
REMARK SMILES IDX 5 1 3 2 2 3 1 4 22 5 20 6 19 7 17 8 16 9 15 10 14 11 6 12
REMARK SMILES IDX 7 13 8 14 9 15 13 16 11 17 10 18 12 20 4 22 21 24 18 26
REMARK H PARENT 10 19 12 21 4 23 21 25 18 27
REMARK Flexibility Score: inf
ROOT
ATOM      1  C   UNL     1     134.400 141.537 142.983  1.00  0.00     0.180 A 
ATOM      2  C   UNL     1     134.041 142.193 141.792  1.00  0.00     0.208 A 
ATOM      3  C   UNL     1     133.291 141.496 140.831  1.00  0.00     0.238 A 
ATOM      4  O   UNL     1     132.909 142.112 139.803  1.00  0.00    -0.285 OA
ATOM      5  C   UNL     1     132.958 140.136 141.046  1.00  0.00     0.111 A 
ATOM      6  C   UNL     1     132.240 139.320 140.121  1.00  0.00     0.134 A 
ATOM      7  C   UNL     1     131.875 138.018 140.486  1.00  0.00     0.093 A 
ATOM      8  C   UNL     1     132.255 137.482 141.715  1.00  0.00     0.123 A 
ATOM      9  C   UNL     1     133.005 138.252 142.605  1.00  0.00     0.094 A 
ATOM     10  C   UNL     1     133.351 139.567 142.285  1.00  0.00     0.146 A 
ATOM     11  O   UNL     1     134.045 140.272 143.170  1.00  0.00    -0.452 OA
ENDROOT
BRANCH   1  12
ATOM     12  C   UNL     1     135.177 142.209 144.048  1.00  0.00     0.025 A 
ATOM     13  C   UNL     1     134.557 143.186 144.843  1.00  0.00     0.016 A 
ATOM     14  C   UNL     1     135.277 143.850 145.840  1.00  0.00     0.051 A 
ATOM     15  C   UNL     1     136.632 143.557 146.047  1.00  0.00     0.157 A 
ATOM     16  C   UNL     1     136.543 141.934 144.245  1.00  0.00     0.062 A 
ATOM     17  C   UNL     1     137.268 142.598 145.241  1.00  0.00     0.158 A 
BRANCH  15  18
ATOM     18  O   UNL     1     137.347 144.219 147.044  1.00  0.00    -0.504 OA
ATOM     19  H   UNL     1     137.749 145.136 146.890  1.00  0.00     0.293 HD
ENDBRANCH  15  18
BRANCH  17  20
ATOM     20  O   UNL     1     138.618 142.295 145.412  1.00  0.00    -0.504 OA
ATOM     21  H   UNL     1     139.352 142.945 145.158  1.00  0.00     0.293 HD
ENDBRANCH  17  20
ENDBRANCH   1  12
BRANCH   2  22
ATOM     22  O   UNL     1     134.445 143.512 141.566  1.00  0.00    -0.502 OA
ATOM     23  H   UNL     1     134.579 143.887 140.634  1.00  0.00     0.293 HD
ENDBRANCH   2  22
BRANCH   6  24
ATOM     24  O   UNL     1     131.885 139.725 138.830  1.00  0.00    -0.507 OA
ATOM     25  H   UNL     1     132.442 140.323 138.239  1.00  0.00     0.293 HD
ENDBRANCH   6  24
BRANCH   8  26
ATOM     26  O   UNL     1     131.889 136.177 142.038  1.00  0.00    -0.508 OA
ATOM     27  H   UNL     1     132.549 135.410 141.972  1.00  0.00     0.293 HD
ENDBRANCH   8  26
TORSDOF 6
ENDMDL
MODEL 3
REMARK VINA RESULT:    -6.193      1.496      6.856
REMARK INTER + INTRA:          -7.745
REMARK INTER:                  -7.534
REMARK INTRA:                  -0.210
REMARK UNBOUND:                -0.284
REMARK SMILES O=c1c(O)c(-c2ccc(O)c(O)c2)oc2cc(O)cc(O)c12
REMARK SMILES IDX 5 1 3 2 2 3 1 4 22 5 20 6 19 7 17 8 16 9 15 10 14 11 6 12
REMARK SMILES IDX 7 13 8 14 9 15 13 16 11 17 10 18 12 20 4 22 21 24 18 26
REMARK H PARENT 10 19 12 21 4 23 21 25 18 27
REMARK Flexibility Score: inf
ROOT
ATOM      1  C   UNL     1     137.453 148.761 142.551  1.00  0.00     0.180 A 
ATOM      2  C   UNL     1     138.804 149.137 142.443  1.00  0.00     0.208 A 
ATOM      3  C   UNL     1     139.747 148.537 143.292  1.00  0.00     0.238 A 
ATOM      4  O   UNL     1     140.963 148.822 143.139  1.00  0.00    -0.285 OA
ATOM      5  C   UNL     1     139.323 147.613 144.278  1.00  0.00     0.111 A 
ATOM      6  C   UNL     1     140.185 146.978 145.222  1.00  0.00     0.134 A 
ATOM      7  C   UNL     1     139.669 146.000 146.081  1.00  0.00     0.093 A 
ATOM      8  C   UNL     1     138.312 145.679 146.075  1.00  0.00     0.123 A 
ATOM      9  C   UNL     1     137.449 146.333 145.194  1.00  0.00     0.094 A 
ATOM     10  C   UNL     1     137.941 147.285 144.299  1.00  0.00     0.146 A 
ATOM     11  O   UNL     1     137.090 147.867 143.463  1.00  0.00    -0.452 OA
ENDROOT
BRANCH   1  12
ATOM     12  C   UNL     1     136.403 149.338 141.682  1.00  0.00     0.025 A 
ATOM     13  C   UNL     1     136.386 149.017 140.315  1.00  0.00     0.016 A 
ATOM     14  C   UNL     1     135.417 149.567 139.471  1.00  0.00     0.051 A 
ATOM     15  C   UNL     1     134.462 150.458 139.977  1.00  0.00     0.157 A 
ATOM     16  C   UNL     1     135.456 150.250 142.182  1.00  0.00     0.062 A 
ATOM     17  C   UNL     1     134.486 150.804 141.339  1.00  0.00     0.158 A 
BRANCH  15  18
ATOM     18  O   UNL     1     133.496 151.003 139.133  1.00  0.00    -0.504 OA
ATOM     19  H   UNL     1     132.560 151.210 139.461  1.00  0.00     0.293 HD
ENDBRANCH  15  18
BRANCH  17  20
ATOM     20  O   UNL     1     133.558 151.700 141.871  1.00  0.00    -0.504 OA
ATOM     21  H   UNL     1     133.819 152.403 142.550  1.00  0.00     0.293 HD
ENDBRANCH  17  20
ENDBRANCH   1  12
BRANCH   2  22
ATOM     22  O   UNL     1     139.191 150.108 141.516  1.00  0.00    -0.502 OA
ATOM     23  H   UNL     1     138.807 151.046 141.517  1.00  0.00     0.293 HD
ENDBRANCH   2  22
BRANCH   6  24
ATOM     24  O   UNL     1     141.540 147.286 145.375  1.00  0.00    -0.507 OA
ATOM     25  H   UNL     1     141.918 147.895 146.084  1.00  0.00     0.293 HD
ENDBRANCH   6  24
BRANCH   8  26
ATOM     26  O   UNL     1     137.830 144.713 146.955  1.00  0.00    -0.508 OA
ATOM     27  H   UNL     1     137.581 144.944 147.911  1.00  0.00     0.293 HD
ENDBRANCH   8  26
TORSDOF 6
ENDMDL
MODEL 4
REMARK VINA RESULT:    -6.061     10.199     10.873
REMARK INTER + INTRA:          -7.586
REMARK INTER:                  -7.385
REMARK INTRA:                  -0.201
REMARK UNBOUND:                -0.284
REMARK SMILES O=c1c(O)c(-c2ccc(O)c(O)c2)oc2cc(O)cc(O)c12
REMARK SMILES IDX 5 1 3 2 2 3 1 4 22 5 20 6 19 7 17 8 16 9 15 10 14 11 6 12
REMARK SMILES IDX 7 13 8 14 9 15 13 16 11 17 10 18 12 20 4 22 21 24 18 26
REMARK H PARENT 10 19 12 21 4 23 21 25 18 27
REMARK Flexibility Score: inf
ROOT
ATOM      1  C   UNL     1     147.611 146.461 142.616  1.00  0.00     0.180 A 
ATOM      2  C   UNL     1     147.735 145.775 141.396  1.00  0.00     0.208 A 
ATOM      3  C   UNL     1     147.892 146.514 140.213  1.00  0.00     0.238 A 
ATOM      4  O   UNL     1     148.078 145.894 139.134  1.00  0.00    -0.285 OA
ATOM      5  C   UNL     1     147.868 147.930 140.257  1.00  0.00     0.111 A 
ATOM      6  C   UNL     1     147.973 148.780 139.115  1.00  0.00     0.134 A 
ATOM      7  C   UNL     1     148.043 150.168 139.291  1.00  0.00     0.093 A 
ATOM      8  C   UNL     1     147.948 150.739 140.559  1.00  0.00     0.123 A 
ATOM      9  C   UNL     1     147.789 149.920 141.678  1.00  0.00     0.094 A 
ATOM     10  C   UNL     1     147.754 148.531 141.538  1.00  0.00     0.146 A 
ATOM     11  O   UNL     1     147.624 147.788 142.630  1.00  0.00    -0.452 OA
ENDROOT
BRANCH   1  12
ATOM     12  C   UNL     1     147.456 145.751 143.907  1.00  0.00     0.025 A 
ATOM     13  C   UNL     1     148.528 145.001 144.414  1.00  0.00     0.016 A 
ATOM     14  C   UNL     1     148.397 144.304 145.619  1.00  0.00     0.051 A 
ATOM     15  C   UNL     1     147.187 144.335 146.325  1.00  0.00     0.157 A 
ATOM     16  C   UNL     1     146.236 145.761 144.607  1.00  0.00     0.062 A 
ATOM     17  C   UNL     1     146.100 145.063 145.813  1.00  0.00     0.158 A 
BRANCH  15  18
ATOM     18  O   UNL     1     147.061 143.641 147.527  1.00  0.00    -0.504 OA
ATOM     19  H   UNL     1     146.837 144.116 148.394  1.00  0.00     0.293 HD
ENDBRANCH  15  18
BRANCH  17  20
ATOM     20  O   UNL     1     144.878 145.101 146.484  1.00  0.00    -0.504 OA
ATOM     21  H   UNL     1     144.214 145.853 146.349  1.00  0.00     0.293 HD
ENDBRANCH  17  20
ENDBRANCH   1  12
BRANCH   2  22
ATOM     22  O   UNL     1     147.679 144.378 141.364  1.00  0.00    -0.502 OA
ATOM     23  H   UNL     1     148.017 143.839 140.576  1.00  0.00     0.293 HD
ENDBRANCH   2  22
BRANCH   6  24
ATOM     24  O   UNL     1     147.987 148.320 137.794  1.00  0.00    -0.507 OA
ATOM     25  H   UNL     1     147.167 148.147 137.234  1.00  0.00     0.293 HD
ENDBRANCH   6  24
BRANCH   8  26
ATOM     26  O   UNL     1     148.004 152.124 140.695  1.00  0.00    -0.508 OA
ATOM     27  H   UNL     1     148.620 152.566 141.368  1.00  0.00     0.293 HD
ENDBRANCH   8  26
TORSDOF 6
ENDMDL
MODEL 5
REMARK VINA RESULT:    -5.895      2.338      6.686
REMARK INTER + INTRA:          -7.386
REMARK INTER:                  -7.157
REMARK INTRA:                  -0.229
REMARK UNBOUND:                -0.284
REMARK SMILES O=c1c(O)c(-c2ccc(O)c(O)c2)oc2cc(O)cc(O)c12
REMARK SMILES IDX 5 1 3 2 2 3 1 4 22 5 20 6 19 7 17 8 16 9 15 10 14 11 6 12
REMARK SMILES IDX 7 13 8 14 9 15 13 16 11 17 10 18 12 20 4 22 21 24 18 26
REMARK H PARENT 10 19 12 21 4 23 21 25 18 27
REMARK Flexibility Score: inf
ROOT
ATOM      1  C   UNL     1     137.040 148.980 141.313  1.00  0.00     0.180 A 
ATOM      2  C   UNL     1     137.547 148.018 142.204  1.00  0.00     0.208 A 
ATOM      3  C   UNL     1     138.744 147.359 141.883  1.00  0.00     0.238 A 
ATOM      4  O   UNL     1     139.232 146.555 142.719  1.00  0.00    -0.285 OA
ATOM      5  C   UNL     1     139.391 147.627 140.651  1.00  0.00     0.111 A 
ATOM      6  C   UNL     1     140.584 146.986 140.203  1.00  0.00     0.134 A 
ATOM      7  C   UNL     1     141.192 147.408 139.014  1.00  0.00     0.093 A 
ATOM      8  C   UNL     1     140.616 148.404 138.226  1.00  0.00     0.123 A 
ATOM      9  C   UNL     1     139.419 149.000 138.627  1.00  0.00     0.094 A 
ATOM     10  C   UNL     1     138.810 148.626 139.826  1.00  0.00     0.146 A 
ATOM     11  O   UNL     1     137.685 149.234 140.181  1.00  0.00    -0.452 OA
ENDROOT
BRANCH   1  12
ATOM     12  C   UNL     1     135.791 149.727 141.588  1.00  0.00     0.025 A 
ATOM     13  C   UNL     1     135.779 150.703 142.596  1.00  0.00     0.016 A 
ATOM     14  C   UNL     1     134.606 151.405 142.888  1.00  0.00     0.051 A 
ATOM     15  C   UNL     1     133.425 151.130 142.187  1.00  0.00     0.157 A 
ATOM     16  C   UNL     1     134.598 149.439 140.901  1.00  0.00     0.062 A 
ATOM     17  C   UNL     1     133.421 150.138 141.191  1.00  0.00     0.158 A 
BRANCH  15  18
ATOM     18  O   UNL     1     132.257 151.833 142.478  1.00  0.00    -0.504 OA
ATOM     19  H   UNL     1     132.282 152.746 142.917  1.00  0.00     0.293 HD
ENDBRANCH  15  18
BRANCH  17  20
ATOM     20  O   UNL     1     132.258 149.830 140.486  1.00  0.00    -0.504 OA
ATOM     21  H   UNL     1     132.101 150.156 139.540  1.00  0.00     0.293 HD
ENDBRANCH  17  20
ENDBRANCH   1  12
BRANCH   2  22
ATOM     22  O   UNL     1     136.854 147.712 143.378  1.00  0.00    -0.502 OA
ATOM     23  H   UNL     1     136.604 146.763 143.629  1.00  0.00     0.293 HD
ENDBRANCH   2  22
BRANCH   6  24
ATOM     24  O   UNL     1     141.197 145.919 140.868  1.00  0.00    -0.507 OA
ATOM     25  H   UNL     1     142.182 145.705 140.833  1.00  0.00     0.293 HD
ENDBRANCH   6  24
BRANCH   8  26
ATOM     26  O   UNL     1     141.239 148.788 137.040  1.00  0.00    -0.508 OA
ATOM     27  H   UNL     1     140.794 148.652 136.140  1.00  0.00     0.293 HD
ENDBRANCH   8  26
TORSDOF 6
ENDMDL
MODEL 6
REMARK VINA RESULT:    -5.874      1.859      7.064
REMARK INTER + INTRA:          -7.361
REMARK INTER:                  -7.409
REMARK INTRA:                   0.049
REMARK UNBOUND:                -0.284
REMARK SMILES O=c1c(O)c(-c2ccc(O)c(O)c2)oc2cc(O)cc(O)c12
REMARK SMILES IDX 5 1 3 2 2 3 1 4 22 5 20 6 19 7 17 8 16 9 15 10 14 11 6 12
REMARK SMILES IDX 7 13 8 14 9 15 13 16 11 17 10 18 12 20 4 22 21 24 18 26
REMARK H PARENT 10 19 12 21 4 23 21 25 18 27
REMARK Flexibility Score: inf
ROOT
ATOM      1  C   UNL     1     139.119 148.854 142.082  1.00  0.00     0.180 A 
ATOM      2  C   UNL     1     139.946 148.053 141.275  1.00  0.00     0.208 A 
ATOM      3  C   UNL     1     141.158 147.579 141.802  1.00  0.00     0.238 A 
ATOM      4  O   UNL     1     141.856 146.802 141.101  1.00  0.00    -0.285 OA
ATOM      5  C   UNL     1     141.556 147.957 143.107  1.00  0.00     0.111 A 
ATOM      6  C   UNL     1     142.784 147.572 143.726  1.00  0.00     0.134 A 
ATOM      7  C   UNL     1     143.023 147.919 145.061  1.00  0.00     0.093 A 
ATOM      8  C   UNL     1     142.110 148.688 145.781  1.00  0.00     0.123 A 
ATOM      9  C   UNL     1     140.931 149.117 145.169  1.00  0.00     0.094 A 
ATOM     10  C   UNL     1     140.647 148.755 143.850  1.00  0.00     0.146 A 
ATOM     11  O   UNL     1     139.504 149.165 143.314  1.00  0.00    -0.452 OA
ENDROOT
BRANCH   1  12
ATOM     12  C   UNL     1     137.821 149.380 141.602  1.00  0.00     0.025 A 
ATOM     13  C   UNL     1     136.674 149.211 142.393  1.00  0.00     0.016 A 
ATOM     14  C   UNL     1     135.433 149.679 141.951  1.00  0.00     0.051 A 
ATOM     15  C   UNL     1     135.319 150.309 140.705  1.00  0.00     0.157 A 
ATOM     16  C   UNL     1     137.698 149.993 140.343  1.00  0.00     0.062 A 
ATOM     17  C   UNL     1     136.457 150.462 139.895  1.00  0.00     0.158 A 
BRANCH  15  18
ATOM     18  O   UNL     1     134.081 150.777 140.268  1.00  0.00    -0.504 OA
ATOM     19  H   UNL     1     133.218 150.493 140.714  1.00  0.00     0.293 HD
ENDBRANCH  15  18
BRANCH  17  20
ATOM     20  O   UNL     1     136.375 151.071 138.643  1.00  0.00    -0.504 OA
ATOM     21  H   UNL     1     137.048 151.761 138.335  1.00  0.00     0.293 HD
ENDBRANCH  17  20
ENDBRANCH   1  12
BRANCH   2  22
ATOM     22  O   UNL     1     139.571 147.755 139.962  1.00  0.00    -0.502 OA
ATOM     23  H   UNL     1     140.203 147.866 139.178  1.00  0.00     0.293 HD
ENDBRANCH   2  22
BRANCH   6  24
ATOM     24  O   UNL     1     143.806 146.877 143.072  1.00  0.00    -0.507 OA
ATOM     25  H   UNL     1     144.734 146.735 143.439  1.00  0.00     0.293 HD
ENDBRANCH   6  24
BRANCH   8  26
ATOM     26  O   UNL     1     142.389 149.029 147.103  1.00  0.00    -0.508 OA
ATOM     27  H   UNL     1     142.391 148.333 147.840  1.00  0.00     0.293 HD
ENDBRANCH   8  26
TORSDOF 6
ENDMDL
MODEL 7
REMARK VINA RESULT:    -5.860     10.356     12.256
REMARK INTER + INTRA:          -7.343
REMARK INTER:                  -7.392
REMARK INTRA:                   0.049
REMARK UNBOUND:                -0.284
REMARK SMILES O=c1c(O)c(-c2ccc(O)c(O)c2)oc2cc(O)cc(O)c12
REMARK SMILES IDX 5 1 3 2 2 3 1 4 22 5 20 6 19 7 17 8 16 9 15 10 14 11 6 12
REMARK SMILES IDX 7 13 8 14 9 15 13 16 11 17 10 18 12 20 4 22 21 24 18 26
REMARK H PARENT 10 19 12 21 4 23 21 25 18 27
REMARK Flexibility Score: inf
ROOT
ATOM      1  C   UNL     1     147.609 146.717 142.080  1.00  0.00     0.180 A 
ATOM      2  C   UNL     1     147.118 145.689 141.257  1.00  0.00     0.208 A 
ATOM      3  C   UNL     1     147.048 144.383 141.768  1.00  0.00     0.238 A 
ATOM      4  O   UNL     1     146.537 143.482 141.053  1.00  0.00    -0.285 OA
ATOM      5  C   UNL     1     147.521 144.110 143.075  1.00  0.00     0.111 A 
ATOM      6  C   UNL     1     147.539 142.817 143.679  1.00  0.00     0.134 A 
ATOM      7  C   UNL     1     147.932 142.684 145.017  1.00  0.00     0.093 A 
ATOM      8  C   UNL     1     148.366 143.785 145.753  1.00  0.00     0.123 A 
ATOM      9  C   UNL     1     148.405 145.046 145.155  1.00  0.00     0.094 A 
ATOM     10  C   UNL     1     147.983 145.216 143.835  1.00  0.00     0.146 A 
ATOM     11  O   UNL     1     148.015 146.436 143.313  1.00  0.00    -0.452 OA
ENDROOT
BRANCH   1  12
ATOM     12  C   UNL     1     147.701 148.120 141.617  1.00  0.00     0.025 A 
ATOM     13  C   UNL     1     147.171 149.146 142.415  1.00  0.00     0.016 A 
ATOM     14  C   UNL     1     147.226 150.475 141.988  1.00  0.00     0.051 A 
ATOM     15  C   UNL     1     147.799 150.797 140.751  1.00  0.00     0.157 A 
ATOM     16  C   UNL     1     148.255 148.445 140.366  1.00  0.00     0.062 A 
ATOM     17  C   UNL     1     148.311 149.775 139.934  1.00  0.00     0.158 A 
BRANCH  15  18
ATOM     18  O   UNL     1     147.855 152.125 140.329  1.00  0.00    -0.504 OA
ATOM     19  H   UNL     1     147.043 152.595 139.945  1.00  0.00     0.293 HD
ENDBRANCH  15  18
BRANCH  17  20
ATOM     20  O   UNL     1     148.874 150.061 138.691  1.00  0.00    -0.504 OA
ATOM     21  H   UNL     1     148.554 150.834 138.120  1.00  0.00     0.293 HD
ENDBRANCH  17  20
ENDBRANCH   1  12
BRANCH   2  22
ATOM     22  O   UNL     1     146.728 145.965 139.943  1.00  0.00    -0.502 OA
ATOM     23  H   UNL     1     146.006 146.640 139.721  1.00  0.00     0.293 HD
ENDBRANCH   2  22
BRANCH   6  24
ATOM     24  O   UNL     1     147.209 141.635 143.009  1.00  0.00    -0.507 OA
ATOM     25  H   UNL     1     147.844 141.097 142.439  1.00  0.00     0.293 HD
ENDBRANCH   6  24
BRANCH   8  26
ATOM     26  O   UNL     1     148.766 143.614 147.076  1.00  0.00    -0.508 OA
ATOM     27  H   UNL     1     149.492 144.187 147.489  1.00  0.00     0.293 HD
ENDBRANCH   8  26
TORSDOF 6
ENDMDL
MODEL 8
REMARK VINA RESULT:    -5.670      2.259      3.612
REMARK INTER + INTRA:          -7.114
REMARK INTER:                  -6.967
REMARK INTRA:                  -0.147
REMARK UNBOUND:                -0.284
REMARK SMILES O=c1c(O)c(-c2ccc(O)c(O)c2)oc2cc(O)cc(O)c12
REMARK SMILES IDX 5 1 3 2 2 3 1 4 22 5 20 6 19 7 17 8 16 9 15 10 14 11 6 12
REMARK SMILES IDX 7 13 8 14 9 15 13 16 11 17 10 18 12 20 4 22 21 24 18 26
REMARK H PARENT 10 19 12 21 4 23 21 25 18 27
REMARK Flexibility Score: inf
ROOT
ATOM      1  C   UNL     1     137.879 147.516 143.746  1.00  0.00     0.180 A 
ATOM      2  C   UNL     1     139.134 147.926 143.264  1.00  0.00     0.208 A 
ATOM      3  C   UNL     1     139.187 148.835 142.195  1.00  0.00     0.238 A 
ATOM      4  O   UNL     1     140.312 149.256 141.818  1.00  0.00    -0.285 OA
ATOM      5  C   UNL     1     137.989 149.279 141.585  1.00  0.00     0.111 A 
ATOM      6  C   UNL     1     137.925 150.164 140.467  1.00  0.00     0.134 A 
ATOM      7  C   UNL     1     136.680 150.618 140.015  1.00  0.00     0.093 A 
ATOM      8  C   UNL     1     135.495 150.171 140.597  1.00  0.00     0.123 A 
ATOM      9  C   UNL     1     135.544 149.262 141.655  1.00  0.00     0.094 A 
ATOM     10  C   UNL     1     136.771 148.821 142.153  1.00  0.00     0.146 A 
ATOM     11  O   UNL     1     136.772 147.974 143.175  1.00  0.00    -0.452 OA
ENDROOT
BRANCH   1  12
ATOM     12  C   UNL     1     137.742 146.571 144.878  1.00  0.00     0.025 A 
ATOM     13  C   UNL     1     137.045 145.367 144.691  1.00  0.00     0.016 A 
ATOM     14  C   UNL     1     136.883 144.470 145.751  1.00  0.00     0.051 A 
ATOM     15  C   UNL     1     137.402 144.771 147.017  1.00  0.00     0.157 A 
ATOM     16  C   UNL     1     138.242 146.880 146.156  1.00  0.00     0.062 A 
ATOM     17  C   UNL     1     138.080 145.985 147.221  1.00  0.00     0.158 A 
BRANCH  15  18
ATOM     18  O   UNL     1     137.241 143.874 148.071  1.00  0.00    -0.504 OA
ATOM     19  H   UNL     1     136.328 143.662 148.455  1.00  0.00     0.293 HD
ENDBRANCH  15  18
BRANCH  17  20
ATOM     20  O   UNL     1     138.595 146.321 148.472  1.00  0.00    -0.504 OA
ATOM     21  H   UNL     1     138.413 147.218 148.906  1.00  0.00     0.293 HD
ENDBRANCH  17  20
ENDBRANCH   1  12
BRANCH   2  22
ATOM     22  O   UNL     1     140.307 147.417 143.830  1.00  0.00    -0.502 OA
ATOM     23  H   UNL     1     141.213 147.846 143.680  1.00  0.00     0.293 HD
ENDBRANCH   2  22
BRANCH   6  24
ATOM     24  O   UNL     1     139.044 150.606 139.753  1.00  0.00    -0.507 OA
ATOM     25  H   UNL     1     139.131 151.510 139.317  1.00  0.00     0.293 HD
ENDBRANCH   6  24
BRANCH   8  26
ATOM     26  O   UNL     1     134.274 150.630 140.110  1.00  0.00    -0.508 OA
ATOM     27  H   UNL     1     133.543 149.989 139.823  1.00  0.00     0.293 HD
ENDBRANCH   8  26
TORSDOF 6
ENDMDL
MODEL 9
REMARK VINA RESULT:    -5.656      7.613     10.222
REMARK INTER + INTRA:          -7.097
REMARK INTER:                  -7.013
REMARK INTRA:                  -0.085
REMARK UNBOUND:                -0.284
REMARK SMILES O=c1c(O)c(-c2ccc(O)c(O)c2)oc2cc(O)cc(O)c12
REMARK SMILES IDX 5 1 3 2 2 3 1 4 22 5 20 6 19 7 17 8 16 9 15 10 14 11 6 12
REMARK SMILES IDX 7 13 8 14 9 15 13 16 11 17 10 18 12 20 4 22 21 24 18 26
REMARK H PARENT 10 19 12 21 4 23 21 25 18 27
REMARK Flexibility Score: inf
ROOT
ATOM      1  C   UNL     1     146.027 147.480 143.715  1.00  0.00     0.180 A 
ATOM      2  C   UNL     1     146.904 146.439 143.363  1.00  0.00     0.208 A 
ATOM      3  C   UNL     1     147.841 146.656 142.341  1.00  0.00     0.238 A 
ATOM      4  O   UNL     1     148.672 145.746 142.082  1.00  0.00    -0.285 OA
ATOM      5  C   UNL     1     147.854 147.889 141.644  1.00  0.00     0.111 A 
ATOM      6  C   UNL     1     148.730 148.202 140.562  1.00  0.00     0.134 A 
ATOM      7  C   UNL     1     148.724 149.492 140.018  1.00  0.00     0.093 A 
ATOM      8  C   UNL     1     147.832 150.462 140.475  1.00  0.00     0.123 A 
ATOM      9  C   UNL     1     146.933 150.150 141.496  1.00  0.00     0.094 A 
ATOM     10  C   UNL     1     146.941 148.883 142.083  1.00  0.00     0.146 A 
ATOM     11  O   UNL     1     146.084 148.637 143.066  1.00  0.00    -0.452 OA
ENDROOT
BRANCH   1  12
ATOM     12  C   UNL     1     145.021 147.332 144.792  1.00  0.00     0.025 A 
ATOM     13  C   UNL     1     143.676 147.628 144.524  1.00  0.00     0.016 A 
ATOM     14  C   UNL     1     142.713 147.517 145.530  1.00  0.00     0.051 A 
ATOM     15  C   UNL     1     143.083 147.124 146.822  1.00  0.00     0.157 A 
ATOM     16  C   UNL     1     145.393 146.959 146.096  1.00  0.00     0.062 A 
ATOM     17  C   UNL     1     144.431 146.848 147.107  1.00  0.00     0.158 A 
BRANCH  15  18
ATOM     18  O   UNL     1     142.119 147.012 147.823  1.00  0.00    -0.504 OA
ATOM     19  H   UNL     1     141.132 146.943 147.605  1.00  0.00     0.293 HD
ENDBRANCH  15  18
BRANCH  17  20
ATOM     20  O   UNL     1     144.834 146.469 148.387  1.00  0.00    -0.504 OA
ATOM     21  H   UNL     1     145.618 145.848 148.542  1.00  0.00     0.293 HD
ENDBRANCH  17  20
ENDBRANCH   1  12
BRANCH   2  22
ATOM     22  O   UNL     1     146.824 145.202 144.010  1.00  0.00    -0.502 OA
ATOM     23  H   UNL     1     147.259 145.030 144.909  1.00  0.00     0.293 HD
ENDBRANCH   2  22
BRANCH   6  24
ATOM     24  O   UNL     1     149.601 147.282 139.968  1.00  0.00    -0.507 OA
ATOM     25  H   UNL     1     150.429 147.525 139.445  1.00  0.00     0.293 HD
ENDBRANCH   6  24
BRANCH   8  26
ATOM     26  O   UNL     1     147.843 151.731 139.900  1.00  0.00    -0.508 OA
ATOM     27  H   UNL     1     147.368 152.514 140.334  1.00  0.00     0.293 HD
ENDBRANCH   8  26
TORSDOF 6
ENDMDL
