MODEL 1
REMARK VINA RESULT:    -6.794      0.000      0.000
REMARK INTER + INTRA:          -8.249
REMARK INTER:                  -7.986
REMARK INTRA:                  -0.262
REMARK UNBOUND:                -0.262
REMARK SMILES O=c1cc(-c2ccc(O)c(O)c2)oc2cc(O)cc(O)c12
REMARK SMILES IDX 4 1 3 2 2 3 1 4 21 5 19 6 18 7 16 8 15 9 14 10 13 11 5 12
REMARK SMILES IDX 6 13 7 14 8 15 12 16 10 17 9 18 11 20 20 22 17 24
REMARK H PARENT 9 19 11 21 20 23 17 25
REMARK Flexibility Score: inf
ROOT
ATOM      1  C   UNL     1       9.568  11.292 -15.982  1.00  0.00     0.138 A 
ATOM      2  C   UNL     1      10.216  10.102 -16.341  1.00  0.00     0.100 A 
ATOM      3  C   UNL     1       9.894   8.915 -15.681  1.00  0.00     0.197 A 
ATOM      4  O   UNL     1      10.536   7.875 -15.981  1.00  0.00    -0.289 OA
ATOM      5  C   UNL     1       8.895   8.916 -14.678  1.00  0.00     0.107 A 
ATOM      6  C   UNL     1       8.456   7.759 -13.968  1.00  0.00     0.134 A 
ATOM      7  C   UNL     1       7.543   7.901 -12.915  1.00  0.00     0.093 A 
ATOM      8  C   UNL     1       7.009   9.149 -12.588  1.00  0.00     0.123 A 
ATOM      9  C   UNL     1       7.390  10.277 -13.311  1.00  0.00     0.094 A 
ATOM     10  C   UNL     1       8.325  10.173 -14.344  1.00  0.00     0.146 A 
ATOM     11  O   UNL     1       8.673  11.275 -15.000  1.00  0.00    -0.456 OA
ENDROOT
BRANCH   1  12
ATOM     12  C   UNL     1       9.871  12.582 -16.652  1.00  0.00     0.021 A 
ATOM     13  C   UNL     1      10.777  13.507 -16.100  1.00  0.00     0.016 A 
ATOM     14  C   UNL     1      11.052  14.709 -16.757  1.00  0.00     0.051 A 
ATOM     15  C   UNL     1      10.434  15.005 -17.978  1.00  0.00     0.157 A 
ATOM     16  C   UNL     1       9.264  12.882 -17.885  1.00  0.00     0.062 A 
ATOM     17  C   UNL     1       9.537  14.085 -18.545  1.00  0.00     0.158 A 
BRANCH  15  18
ATOM     18  O   UNL     1      10.709  16.206 -18.630  1.00  0.00    -0.504 OA
ATOM     19  H   UNL     1      11.329  16.898 -18.227  1.00  0.00     0.293 HD
ENDBRANCH  15  18
BRANCH  17  20
ATOM     20  O   UNL     1       8.907  14.349 -19.761  1.00  0.00    -0.504 OA
ATOM     21  H   UNL     1       9.372  14.847 -20.511  1.00  0.00     0.293 HD
ENDBRANCH  17  20
ENDBRANCH   1  12
BRANCH   6  22
ATOM     22  O   UNL     1       8.862   6.456 -14.270  1.00  0.00    -0.507 OA
ATOM     23  H   UNL     1       8.952   6.081 -15.202  1.00  0.00     0.293 HD
ENDBRANCH   6  22
BRANCH   8  24
ATOM     24  O   UNL     1       6.090   9.279 -11.549  1.00  0.00    -0.508 OA
ATOM     25  H   UNL     1       6.154   8.713 -10.710  1.00  0.00     0.293 HD
ENDBRANCH   8  24
TORSDOF 5
ENDMDL
MODEL 2
REMARK VINA RESULT:    -6.545      1.496      7.384
REMARK INTER + INTRA:          -7.956
REMARK INTER:                  -7.692
REMARK INTRA:                  -0.263
REMARK UNBOUND:                -0.262
REMARK SMILES O=c1cc(-c2ccc(O)c(O)c2)oc2cc(O)cc(O)c12
REMARK SMILES IDX 4 1 3 2 2 3 1 4 21 5 19 6 18 7 16 8 15 9 14 10 13 11 5 12
REMARK SMILES IDX 6 13 7 14 8 15 12 16 10 17 9 18 11 20 20 22 17 24
REMARK H PARENT 9 19 11 21 20 23 17 25
REMARK Flexibility Score: inf
ROOT
ATOM      1  C   UNL     1       9.806  12.070 -16.810  1.00  0.00     0.138 A 
ATOM      2  C   UNL     1      10.646  13.093 -16.348  1.00  0.00     0.100 A 
ATOM      3  C   UNL     1      10.741  14.286 -17.066  1.00  0.00     0.197 A 
ATOM      4  O   UNL     1      11.549  15.161 -16.661  1.00  0.00    -0.289 OA
ATOM      5  C   UNL     1       9.964  14.466 -18.236  1.00  0.00     0.107 A 
ATOM      6  C   UNL     1       9.948  15.655 -19.025  1.00  0.00     0.134 A 
ATOM      7  C   UNL     1       9.229  15.676 -20.227  1.00  0.00     0.093 A 
ATOM      8  C   UNL     1       8.478  14.572 -20.636  1.00  0.00     0.123 A 
ATOM      9  C   UNL     1       8.444  13.426 -19.845  1.00  0.00     0.094 A 
ATOM     10  C   UNL     1       9.177  13.362 -18.658  1.00  0.00     0.146 A 
ATOM     11  O   UNL     1       9.130  12.244 -17.941  1.00  0.00    -0.456 OA
ENDROOT
BRANCH   1  12
ATOM     12  C   UNL     1       9.668  10.782 -16.085  1.00  0.00     0.021 A 
ATOM     13  C   UNL     1      10.518   9.691 -16.346  1.00  0.00     0.016 A 
ATOM     14  C   UNL     1      10.373   8.493 -15.640  1.00  0.00     0.051 A 
ATOM     15  C   UNL     1       9.382   8.367 -14.660  1.00  0.00     0.157 A 
ATOM     16  C   UNL     1       8.683  10.650 -15.088  1.00  0.00     0.062 A 
ATOM     17  C   UNL     1       8.535   9.452 -14.381  1.00  0.00     0.158 A 
BRANCH  15  18
ATOM     18  O   UNL     1       9.238   7.170 -13.959  1.00  0.00    -0.504 OA
ATOM     19  H   UNL     1       9.985   6.798 -13.385  1.00  0.00     0.293 HD
ENDBRANCH  15  18
BRANCH  17  20
ATOM     20  O   UNL     1       7.540   9.359 -13.408  1.00  0.00    -0.504 OA
ATOM     21  H   UNL     1       7.753   9.385 -12.417  1.00  0.00     0.293 HD
ENDBRANCH  17  20
ENDBRANCH   1  12
BRANCH   6  22
ATOM     22  O   UNL     1      10.595  16.841 -18.664  1.00  0.00    -0.507 OA
ATOM     23  H   UNL     1      11.512  17.116 -18.979  1.00  0.00     0.293 HD
ENDBRANCH   6  22
BRANCH   8  24
ATOM     24  O   UNL     1       7.753  14.607 -21.825  1.00  0.00    -0.508 OA
ATOM     25  H   UNL     1       8.182  14.376 -22.715  1.00  0.00     0.293 HD
ENDBRANCH   8  24
TORSDOF 5
ENDMDL
MODEL 3
REMARK VINA RESULT:    -6.472      1.843      7.218
REMARK INTER + INTRA:          -7.869
REMARK INTER:                  -7.553
REMARK INTRA:                  -0.316
REMARK UNBOUND:                -0.262
REMARK SMILES O=c1cc(-c2ccc(O)c(O)c2)oc2cc(O)cc(O)c12
REMARK SMILES IDX 4 1 3 2 2 3 1 4 21 5 19 6 18 7 16 8 15 9 14 10 13 11 5 12
REMARK SMILES IDX 6 13 7 14 8 15 12 16 10 17 9 18 11 20 20 22 17 24
REMARK H PARENT 9 19 11 21 20 23 17 25
REMARK Flexibility Score: inf
ROOT
ATOM      1  C   UNL     1       8.145  10.859 -14.757  1.00  0.00     0.138 A 
ATOM      2  C   UNL     1       8.629  12.085 -14.279  1.00  0.00     0.100 A 
ATOM      3  C   UNL     1       9.153  13.017 -15.176  1.00  0.00     0.197 A 
ATOM      4  O   UNL     1       9.636  14.082 -14.711  1.00  0.00    -0.289 OA
ATOM      5  C   UNL     1       9.162  12.731 -16.563  1.00  0.00     0.107 A 
ATOM      6  C   UNL     1       9.634  13.622 -17.572  1.00  0.00     0.134 A 
ATOM      7  C   UNL     1       9.702  13.185 -18.901  1.00  0.00     0.093 A 
ATOM      8  C   UNL     1       9.260  11.910 -19.264  1.00  0.00     0.123 A 
ATOM      9  C   UNL     1       8.747  11.053 -18.293  1.00  0.00     0.094 A 
ATOM     10  C   UNL     1       8.698  11.447 -16.954  1.00  0.00     0.146 A 
ATOM     11  O   UNL     1       8.215  10.594 -16.057  1.00  0.00    -0.456 OA
ENDROOT
BRANCH   1  12
ATOM     12  C   UNL     1       7.576   9.832 -13.847  1.00  0.00     0.021 A 
ATOM     13  C   UNL     1       7.261  10.125 -12.507  1.00  0.00     0.016 A 
ATOM     14  C   UNL     1       6.716   9.142 -11.676  1.00  0.00     0.051 A 
ATOM     15  C   UNL     1       6.472   7.855 -12.169  1.00  0.00     0.157 A 
ATOM     16  C   UNL     1       7.315   8.540 -14.339  1.00  0.00     0.062 A 
ATOM     17  C   UNL     1       6.771   7.554 -13.508  1.00  0.00     0.158 A 
BRANCH  15  18
ATOM     18  O   UNL     1       5.931   6.876 -11.337  1.00  0.00    -0.504 OA
ATOM     19  H   UNL     1       5.019   6.472 -11.516  1.00  0.00     0.293 HD
ENDBRANCH  15  18
BRANCH  17  20
ATOM     20  O   UNL     1       6.535   6.282 -14.031  1.00  0.00    -0.504 OA
ATOM     21  H   UNL     1       7.231   5.547 -13.991  1.00  0.00     0.293 HD
ENDBRANCH  17  20
ENDBRANCH   1  12
BRANCH   6  22
ATOM     22  O   UNL     1      10.019  14.944 -17.330  1.00  0.00    -0.507 OA
ATOM     23  H   UNL     1      10.739  15.436 -17.836  1.00  0.00     0.293 HD
ENDBRANCH   6  22
BRANCH   8  24
ATOM     24  O   UNL     1       9.317  11.489 -20.590  1.00  0.00    -0.508 OA
ATOM     25  H   UNL     1       9.355  10.506 -20.834  1.00  0.00     0.293 HD
ENDBRANCH   8  24
TORSDOF 5
ENDMDL
MODEL 4
REMARK VINA RESULT:    -6.458      2.892      7.949
REMARK INTER + INTRA:          -7.853
REMARK INTER:                  -7.584
REMARK INTRA:                  -0.269
REMARK UNBOUND:                -0.262
REMARK SMILES O=c1cc(-c2ccc(O)c(O)c2)oc2cc(O)cc(O)c12
REMARK SMILES IDX 4 1 3 2 2 3 1 4 21 5 19 6 18 7 16 8 15 9 14 10 13 11 5 12
REMARK SMILES IDX 6 13 7 14 8 15 12 16 10 17 9 18 11 20 20 22 17 24
REMARK H PARENT 9 19 11 21 20 23 17 25
REMARK Flexibility Score: inf
ROOT
ATOM      1  C   UNL     1       9.225  12.297 -18.312  1.00  0.00     0.138 A 
ATOM      2  C   UNL     1       9.890  13.217 -17.491  1.00  0.00     0.100 A 
ATOM      3  C   UNL     1      10.070  14.530 -17.928  1.00  0.00     0.197 A 
ATOM      4  O   UNL     1      10.725  15.317 -17.197  1.00  0.00    -0.289 OA
ATOM      5  C   UNL     1       9.551  14.930 -19.184  1.00  0.00     0.107 A 
ATOM      6  C   UNL     1       9.638  16.251 -19.715  1.00  0.00     0.134 A 
ATOM      7  C   UNL     1       9.191  16.502 -21.019  1.00  0.00     0.093 A 
ATOM      8  C   UNL     1       8.606  15.492 -21.786  1.00  0.00     0.123 A 
ATOM      9  C   UNL     1       8.467  14.212 -21.256  1.00  0.00     0.094 A 
ATOM     10  C   UNL     1       8.934  13.922 -19.972  1.00  0.00     0.146 A 
ATOM     11  O   UNL     1       8.796  12.684 -19.509  1.00  0.00    -0.456 OA
ENDROOT
BRANCH   1  12
ATOM     12  C   UNL     1       9.006  10.888 -17.895  1.00  0.00     0.021 A 
ATOM     13  C   UNL     1       7.729  10.298 -17.924  1.00  0.00     0.016 A 
ATOM     14  C   UNL     1       7.554   8.967 -17.537  1.00  0.00     0.051 A 
ATOM     15  C   UNL     1       8.650   8.202 -17.121  1.00  0.00     0.157 A 
ATOM     16  C   UNL     1      10.104  10.108 -17.489  1.00  0.00     0.062 A 
ATOM     17  C   UNL     1       9.932   8.776 -17.099  1.00  0.00     0.158 A 
BRANCH  15  18
ATOM     18  O   UNL     1       8.471   6.875 -16.732  1.00  0.00    -0.504 OA
ATOM     19  H   UNL     1       8.549   6.113 -17.396  1.00  0.00     0.293 HD
ENDBRANCH  15  18
BRANCH  17  20
ATOM     20  O   UNL     1      11.045   8.039 -16.693  1.00  0.00    -0.504 OA
ATOM     21  H   UNL     1      11.453   8.144 -15.772  1.00  0.00     0.293 HD
ENDBRANCH  17  20
ENDBRANCH   1  12
BRANCH   6  22
ATOM     22  O   UNL     1      10.127  17.349 -19.001  1.00  0.00    -0.507 OA
ATOM     23  H   UNL     1       9.857  17.592 -18.060  1.00  0.00     0.293 HD
ENDBRANCH   6  22
BRANCH   8  24
ATOM     24  O   UNL     1       8.150  15.754 -23.076  1.00  0.00    -0.508 OA
ATOM     25  H   UNL     1       8.070  16.701 -23.428  1.00  0.00     0.293 HD
ENDBRANCH   8  24
TORSDOF 5
ENDMDL
MODEL 5
REMARK VINA RESULT:    -6.455      2.874      7.475
REMARK INTER + INTRA:          -7.849
REMARK INTER:                  -7.583
REMARK INTRA:                  -0.266
REMARK UNBOUND:                -0.262
REMARK SMILES O=c1cc(-c2ccc(O)c(O)c2)oc2cc(O)cc(O)c12
REMARK SMILES IDX 4 1 3 2 2 3 1 4 21 5 19 6 18 7 16 8 15 9 14 10 13 11 5 12
REMARK SMILES IDX 6 13 7 14 8 15 12 16 10 17 9 18 11 20 20 22 17 24
REMARK H PARENT 9 19 11 21 20 23 17 25
REMARK Flexibility Score: inf
ROOT
ATOM      1  C   UNL     1       7.253   7.951 -14.918  1.00  0.00     0.138 A 
ATOM      2  C   UNL     1       6.944   8.254 -13.585  1.00  0.00     0.100 A 
ATOM      3  C   UNL     1       7.260   9.513 -13.072  1.00  0.00     0.197 A 
ATOM      4  O   UNL     1       7.027   9.736 -11.856  1.00  0.00    -0.289 OA
ATOM      5  C   UNL     1       7.861  10.484 -13.911  1.00  0.00     0.107 A 
ATOM      6  C   UNL     1       8.190  11.812 -13.509  1.00  0.00     0.134 A 
ATOM      7  C   UNL     1       8.888  12.647 -14.391  1.00  0.00     0.093 A 
ATOM      8  C   UNL     1       9.215  12.220 -15.680  1.00  0.00     0.123 A 
ATOM      9  C   UNL     1       8.850  10.944 -16.100  1.00  0.00     0.094 A 
ATOM     10  C   UNL     1       8.183  10.076 -15.233  1.00  0.00     0.146 A 
ATOM     11  O   UNL     1       7.867   8.860 -15.668  1.00  0.00    -0.456 OA
ENDROOT
BRANCH   1  12
ATOM     12  C   UNL     1       6.938   6.627 -15.514  1.00  0.00     0.021 A 
ATOM     13  C   UNL     1       6.147   6.507 -16.672  1.00  0.00     0.016 A 
ATOM     14  C   UNL     1       5.875   5.249 -17.217  1.00  0.00     0.051 A 
ATOM     15  C   UNL     1       6.394   4.093 -16.622  1.00  0.00     0.157 A 
ATOM     16  C   UNL     1       7.467   5.462 -14.930  1.00  0.00     0.062 A 
ATOM     17  C   UNL     1       7.195   4.201 -15.473  1.00  0.00     0.158 A 
BRANCH  15  18
ATOM     18  O   UNL     1       6.119   2.840 -17.168  1.00  0.00    -0.504 OA
ATOM     19  H   UNL     1       6.059   2.700 -18.169  1.00  0.00     0.293 HD
ENDBRANCH  15  18
BRANCH  17  20
ATOM     20  O   UNL     1       7.730   3.069 -14.859  1.00  0.00    -0.504 OA
ATOM     21  H   UNL     1       8.685   3.040 -14.521  1.00  0.00     0.293 HD
ENDBRANCH  17  20
ENDBRANCH   1  12
BRANCH   6  22
ATOM     22  O   UNL     1       7.835  12.366 -12.275  1.00  0.00    -0.507 OA
ATOM     23  H   UNL     1       8.457  12.465 -11.488  1.00  0.00     0.293 HD
ENDBRANCH   6  22
BRANCH   8  24
ATOM     24  O   UNL     1       9.896  13.062 -16.556  1.00  0.00    -0.508 OA
ATOM     25  H   UNL     1       9.603  13.175 -17.520  1.00  0.00     0.293 HD
ENDBRANCH   8  24
TORSDOF 5
ENDMDL
MODEL 6
REMARK VINA RESULT:    -6.399      2.083      7.447
REMARK INTER + INTRA:          -7.784
REMARK INTER:                  -7.521
REMARK INTRA:                  -0.263
REMARK UNBOUND:                -0.262
REMARK SMILES O=c1cc(-c2ccc(O)c(O)c2)oc2cc(O)cc(O)c12
REMARK SMILES IDX 4 1 3 2 2 3 1 4 21 5 19 6 18 7 16 8 15 9 14 10 13 11 5 12
REMARK SMILES IDX 6 13 7 14 8 15 12 16 10 17 9 18 11 20 20 22 17 24
REMARK H PARENT 9 19 11 21 20 23 17 25
REMARK Flexibility Score: inf
ROOT
ATOM      1  C   UNL     1       8.903  11.883 -17.926  1.00  0.00     0.138 A 
ATOM      2  C   UNL     1       8.081  11.641 -19.036  1.00  0.00     0.100 A 
ATOM      3  C   UNL     1       7.880  12.650 -19.979  1.00  0.00     0.197 A 
ATOM      4  O   UNL     1       7.088  12.425 -20.930  1.00  0.00    -0.289 OA
ATOM      5  C   UNL     1       8.533  13.898 -19.824  1.00  0.00     0.107 A 
ATOM      6  C   UNL     1       8.434  14.984 -20.743  1.00  0.00     0.134 A 
ATOM      7  C   UNL     1       9.031  16.212 -20.427  1.00  0.00     0.093 A 
ATOM      8  C   UNL     1       9.772  16.371 -19.253  1.00  0.00     0.123 A 
ATOM      9  C   UNL     1       9.919  15.299 -18.376  1.00  0.00     0.094 A 
ATOM     10  C   UNL     1       9.307  14.073 -18.647  1.00  0.00     0.146 A 
ATOM     11  O   UNL     1       9.460  13.080 -17.777  1.00  0.00    -0.456 OA
ENDROOT
BRANCH   1  12
ATOM     12  C   UNL     1       9.152  10.845 -16.894  1.00  0.00     0.021 A 
ATOM     13  C   UNL     1       8.361  10.752 -15.733  1.00  0.00     0.016 A 
ATOM     14  C   UNL     1       8.610   9.758 -14.783  1.00  0.00     0.051 A 
ATOM     15  C   UNL     1       9.647   8.837 -14.979  1.00  0.00     0.157 A 
ATOM     16  C   UNL     1      10.182   9.907 -17.089  1.00  0.00     0.062 A 
ATOM     17  C   UNL     1      10.435   8.911 -16.139  1.00  0.00     0.158 A 
BRANCH  15  18
ATOM     18  O   UNL     1       9.894   7.848 -14.027  1.00  0.00    -0.504 OA
ATOM     19  H   UNL     1       9.821   6.863 -14.255  1.00  0.00     0.293 HD
ENDBRANCH  15  18
BRANCH  17  20
ATOM     20  O   UNL     1      11.472   8.007 -16.365  1.00  0.00    -0.504 OA
ATOM     21  H   UNL     1      11.452   7.062 -15.998  1.00  0.00     0.293 HD
ENDBRANCH  17  20
ENDBRANCH   1  12
BRANCH   6  22
ATOM     22  O   UNL     1       7.790  14.905 -21.981  1.00  0.00    -0.507 OA
ATOM     23  H   UNL     1       7.527  15.698 -22.546  1.00  0.00     0.293 HD
ENDBRANCH   6  22
BRANCH   8  24
ATOM     24  O   UNL     1      10.375  17.590 -18.954  1.00  0.00    -0.508 OA
ATOM     25  H   UNL     1      11.352  17.764 -19.161  1.00  0.00     0.293 HD
ENDBRANCH   8  24
TORSDOF 5
ENDMDL
MODEL 7
REMARK VINA RESULT:    -6.319      1.932      2.974
REMARK INTER + INTRA:          -7.690
REMARK INTER:                  -7.402
REMARK INTRA:                  -0.288
REMARK UNBOUND:                -0.262
REMARK SMILES O=c1cc(-c2ccc(O)c(O)c2)oc2cc(O)cc(O)c12
REMARK SMILES IDX 4 1 3 2 2 3 1 4 21 5 19 6 18 7 16 8 15 9 14 10 13 11 5 12
REMARK SMILES IDX 6 13 7 14 8 15 12 16 10 17 9 18 11 20 20 22 17 24
REMARK H PARENT 9 19 11 21 20 23 17 25
REMARK Flexibility Score: inf
ROOT
ATOM      1  C   UNL     1       9.085  12.475 -18.298  1.00  0.00     0.138 A 
ATOM      2  C   UNL     1       9.610  11.228 -18.664  1.00  0.00     0.100 A 
ATOM      3  C   UNL     1       9.623  10.185 -17.737  1.00  0.00     0.197 A 
ATOM      4  O   UNL     1      10.157   9.097 -18.074  1.00  0.00    -0.289 OA
ATOM      5  C   UNL     1       9.075  10.385 -16.446  1.00  0.00     0.107 A 
ATOM      6  C   UNL     1       8.996   9.382 -15.434  1.00  0.00     0.134 A 
ATOM      7  C   UNL     1       8.540   9.728 -14.155  1.00  0.00     0.093 A 
ATOM      8  C   UNL     1       8.104  11.024 -13.871  1.00  0.00     0.123 A 
ATOM      9  C   UNL     1       8.127  11.996 -14.869  1.00  0.00     0.094 A 
ATOM     10  C   UNL     1       8.608  11.692 -16.144  1.00  0.00     0.146 A 
ATOM     11  O   UNL     1       8.627  12.652 -17.063  1.00  0.00    -0.456 OA
ENDROOT
BRANCH   1  12
ATOM     12  C   UNL     1       9.047  13.619 -19.245  1.00  0.00     0.021 A 
ATOM     13  C   UNL     1       8.498  13.492 -20.535  1.00  0.00     0.016 A 
ATOM     14  C   UNL     1       8.465  14.589 -21.402  1.00  0.00     0.051 A 
ATOM     15  C   UNL     1       8.973  15.828 -20.994  1.00  0.00     0.157 A 
ATOM     16  C   UNL     1       9.543  14.871 -18.838  1.00  0.00     0.062 A 
ATOM     17  C   UNL     1       9.512  15.969 -19.705  1.00  0.00     0.158 A 
BRANCH  15  18
ATOM     18  O   UNL     1       8.941  16.918 -21.862  1.00  0.00    -0.504 OA
ATOM     19  H   UNL     1       8.072  17.381 -22.100  1.00  0.00     0.293 HD
ENDBRANCH  15  18
BRANCH  17  20
ATOM     20  O   UNL     1      10.023  17.191 -19.267  1.00  0.00    -0.504 OA
ATOM     21  H   UNL     1      11.018  17.369 -19.209  1.00  0.00     0.293 HD
ENDBRANCH  17  20
ENDBRANCH   1  12
BRANCH   6  22
ATOM     22  O   UNL     1       9.325   8.039 -15.637  1.00  0.00    -0.507 OA
ATOM     23  H   UNL     1       9.386   7.344 -14.909  1.00  0.00     0.293 HD
ENDBRANCH   6  22
BRANCH   8  24
ATOM     24  O   UNL     1       7.638  11.355 -12.601  1.00  0.00    -0.508 OA
ATOM     25  H   UNL     1       6.829  11.952 -12.472  1.00  0.00     0.293 HD
ENDBRANCH   8  24
TORSDOF 5
ENDMDL
MODEL 8
REMARK VINA RESULT:    -6.225      2.215      4.105
REMARK INTER + INTRA:          -7.579
REMARK INTER:                  -7.317
REMARK INTRA:                  -0.263
REMARK UNBOUND:                -0.262
REMARK SMILES O=c1cc(-c2ccc(O)c(O)c2)oc2cc(O)cc(O)c12
REMARK SMILES IDX 4 1 3 2 2 3 1 4 21 5 19 6 18 7 16 8 15 9 14 10 13 11 5 12
REMARK SMILES IDX 6 13 7 14 8 15 12 16 10 17 9 18 11 20 20 22 17 24
REMARK H PARENT 9 19 11 21 20 23 17 25
REMARK Flexibility Score: inf
ROOT
ATOM      1  C   UNL     1       8.884  12.663 -18.093  1.00  0.00     0.138 A 
ATOM      2  C   UNL     1       7.989  12.638 -17.014  1.00  0.00     0.100 A 
ATOM      3  C   UNL     1       8.064  11.605 -16.078  1.00  0.00     0.197 A 
ATOM      4  O   UNL     1       7.209  11.576 -15.156  1.00  0.00    -0.289 OA
ATOM      5  C   UNL     1       9.062  10.609 -16.209  1.00  0.00     0.107 A 
ATOM      6  C   UNL     1       9.259   9.533 -15.294  1.00  0.00     0.134 A 
ATOM      7  C   UNL     1      10.204   8.541 -15.588  1.00  0.00     0.093 A 
ATOM      8  C   UNL     1      10.999   8.621 -16.734  1.00  0.00     0.123 A 
ATOM      9  C   UNL     1      10.851   9.697 -17.606  1.00  0.00     0.094 A 
ATOM     10  C   UNL     1       9.894  10.684 -17.357  1.00  0.00     0.146 A 
ATOM     11  O   UNL     1       9.775  11.686 -18.222  1.00  0.00    -0.456 OA
ENDROOT
BRANCH   1  12
ATOM     12  C   UNL     1       8.848  13.738 -19.116  1.00  0.00     0.021 A 
ATOM     13  C   UNL     1       8.250  13.542 -20.375  1.00  0.00     0.016 A 
ATOM     14  C   UNL     1       8.221  14.576 -21.316  1.00  0.00     0.051 A 
ATOM     15  C   UNL     1       8.781  15.822 -21.013  1.00  0.00     0.157 A 
ATOM     16  C   UNL     1       9.397  14.999 -18.816  1.00  0.00     0.062 A 
ATOM     17  C   UNL     1       9.370  16.035 -19.755  1.00  0.00     0.158 A 
BRANCH  15  18
ATOM     18  O   UNL     1       8.753  16.851 -21.954  1.00  0.00    -0.504 OA
ATOM     19  H   UNL     1       9.338  17.672 -21.861  1.00  0.00     0.293 HD
ENDBRANCH  15  18
BRANCH  17  20
ATOM     20  O   UNL     1       9.933  17.266 -19.422  1.00  0.00    -0.504 OA
ATOM     21  H   UNL     1      10.273  17.911 -20.126  1.00  0.00     0.293 HD
ENDBRANCH  17  20
ENDBRANCH   1  12
BRANCH   6  22
ATOM     22  O   UNL     1       8.579   9.405 -14.079  1.00  0.00    -0.507 OA
ATOM     23  H   UNL     1       9.018   9.236 -13.187  1.00  0.00     0.293 HD
ENDBRANCH   6  22
BRANCH   8  24
ATOM     24  O   UNL     1      11.946   7.638 -17.011  1.00  0.00    -0.508 OA
ATOM     25  H   UNL     1      12.915   7.740 -16.729  1.00  0.00     0.293 HD
ENDBRANCH   8  24
TORSDOF 5
ENDMDL
MODEL 9
REMARK VINA RESULT:    -6.181      2.597      7.550
REMARK INTER + INTRA:          -7.527
REMARK INTER:                  -7.212
REMARK INTRA:                  -0.315
REMARK UNBOUND:                -0.262
REMARK SMILES O=c1cc(-c2ccc(O)c(O)c2)oc2cc(O)cc(O)c12
REMARK SMILES IDX 4 1 3 2 2 3 1 4 21 5 19 6 18 7 16 8 15 9 14 10 13 11 5 12
REMARK SMILES IDX 6 13 7 14 8 15 12 16 10 17 9 18 11 20 20 22 17 24
REMARK H PARENT 9 19 11 21 20 23 17 25
REMARK Flexibility Score: inf
ROOT
ATOM      1  C   UNL     1       7.669  12.647 -17.123  1.00  0.00     0.138 A 
ATOM      2  C   UNL     1       7.053  12.222 -18.308  1.00  0.00     0.100 A 
ATOM      3  C   UNL     1       7.201  12.976 -19.472  1.00  0.00     0.197 A 
ATOM      4  O   UNL     1       6.586  12.603 -20.505  1.00  0.00    -0.289 OA
ATOM      5  C   UNL     1       7.998  14.147 -19.455  1.00  0.00     0.107 A 
ATOM      6  C   UNL     1       8.253  14.972 -20.591  1.00  0.00     0.134 A 
ATOM      7  C   UNL     1       8.961  16.169 -20.428  1.00  0.00     0.093 A 
ATOM      8  C   UNL     1       9.474  16.540 -19.183  1.00  0.00     0.123 A 
ATOM      9  C   UNL     1       9.276  15.714 -18.079  1.00  0.00     0.094 A 
ATOM     10  C   UNL     1       8.545  14.530 -18.202  1.00  0.00     0.146 A 
ATOM     11  O   UNL     1       8.366  13.778 -17.121  1.00  0.00    -0.456 OA
ENDROOT
BRANCH   1  12
ATOM     12  C   UNL     1       7.544  11.881 -15.856  1.00  0.00     0.021 A 
ATOM     13  C   UNL     1       7.077  10.554 -15.837  1.00  0.00     0.016 A 
ATOM     14  C   UNL     1       6.981   9.853 -14.631  1.00  0.00     0.051 A 
ATOM     15  C   UNL     1       7.354  10.463 -13.428  1.00  0.00     0.157 A 
ATOM     16  C   UNL     1       7.930  12.482 -14.644  1.00  0.00     0.062 A 
ATOM     17  C   UNL     1       7.833  11.783 -13.435  1.00  0.00     0.158 A 
BRANCH  15  18
ATOM     18  O   UNL     1       7.254   9.762 -12.227  1.00  0.00    -0.504 OA
ATOM     19  H   UNL     1       7.696  10.096 -11.379  1.00  0.00     0.293 HD
ENDBRANCH  15  18
BRANCH  17  20
ATOM     20  O   UNL     1       8.217  12.417 -12.253  1.00  0.00    -0.504 OA
ATOM     21  H   UNL     1       9.171  12.716 -12.088  1.00  0.00     0.293 HD
ENDBRANCH  17  20
ENDBRANCH   1  12
BRANCH   6  22
ATOM     22  O   UNL     1       7.860  14.652 -21.894  1.00  0.00    -0.507 OA
ATOM     23  H   UNL     1       6.917  14.719 -22.244  1.00  0.00     0.293 HD
ENDBRANCH   6  22
BRANCH   8  24
ATOM     24  O   UNL     1      10.190  17.725 -19.034  1.00  0.00    -0.508 OA
ATOM     25  H   UNL     1      11.197  17.755 -19.149  1.00  0.00     0.293 HD
ENDBRANCH   8  24
TORSDOF 5
ENDMDL
