MODEL 1
REMARK VINA RESULT:    -4.131      0.000      0.000
REMARK INTER + INTRA:          -9.766
REMARK INTER:                  -7.754
REMARK INTRA:                  -2.012
REMARK UNBOUND:                -2.012
REMARK SMILES CCCCCCCCC=CCCCCCCCC(=O)[O-]
REMARK SMILES IDX 10 1 9 2 11 3 12 4 13 5 14 6 15 7 16 8 17 9 18 10 19 11
REMARK SMILES IDX 20 12 8 13 7 14 6 15 5 16 4 17 3 18 2 19 1 20
REMARK H PARENT
REMARK Flexibility Score: inf
ROOT
ATOM      1  C   UNL     1       6.554  -2.933  -7.452  1.00  0.00    -0.031 C 
ATOM      2  C   UNL     1       6.566  -2.816  -8.789  1.00  0.00    -0.031 C 
ENDROOT
BRANCH   1   3
ATOM      3  C   UNL     1       7.828  -2.983  -6.655  1.00  0.00     0.027 C 
BRANCH   3   4
ATOM      4  C   UNL     1       9.036  -3.267  -7.559  1.00  0.00     0.004 C 
BRANCH   4   5
ATOM      5  C   UNL     1      10.086  -4.161  -6.882  1.00  0.00     0.000 C 
BRANCH   5   6
ATOM      6  C   UNL     1      10.004  -5.624  -7.347  1.00  0.00     0.000 C 
BRANCH   6   7
ATOM      7  C   UNL     1       8.873  -5.811  -8.369  1.00  0.00     0.000 C 
BRANCH   7   8
ATOM      8  C   UNL     1       7.704  -6.649  -7.819  1.00  0.00     0.006 C 
BRANCH   8   9
ATOM      9  C   UNL     1       7.601  -6.666  -6.285  1.00  0.00     0.053 C 
BRANCH   9  10
ATOM     10  C   UNL     1       6.179  -6.673  -5.817  1.00  0.00     0.041 C 
ATOM     11  O   UNL     1       5.816  -5.912  -4.883  1.00  0.00    -0.550 OA
ATOM     12  O   UNL     1       5.262  -7.545  -6.391  1.00  0.00    -0.550 OA
ENDBRANCH   9  10
ENDBRANCH   8   9
ENDBRANCH   7   8
ENDBRANCH   6   7
ENDBRANCH   5   6
ENDBRANCH   4   5
ENDBRANCH   3   4
ENDBRANCH   1   3
BRANCH   2  13
ATOM     13  C   UNL     1       5.292  -2.765  -9.586  1.00  0.00     0.027 C 
BRANCH  13  14
ATOM     14  C   UNL     1       4.628  -4.148  -9.657  1.00  0.00     0.004 C 
BRANCH  14  15
ATOM     15  C   UNL     1       3.307  -4.213  -8.872  1.00  0.00     0.000 C 
BRANCH  15  16
ATOM     16  C   UNL     1       3.496  -4.758  -7.446  1.00  0.00     0.000 C 
BRANCH  16  17
ATOM     17  C   UNL     1       2.527  -4.119  -6.438  1.00  0.00    -0.000 C 
BRANCH  17  18
ATOM     18  C   UNL     1       3.251  -3.362  -5.314  1.00  0.00    -0.000 C 
BRANCH  18  19
ATOM     19  C   UNL     1       2.260  -2.549  -4.474  1.00  0.00    -0.003 C 
ATOM     20  C   UNL     1       2.486  -2.774  -2.982  1.00  0.00     0.004 C 
ENDBRANCH  18  19
ENDBRANCH  17  18
ENDBRANCH  16  17
ENDBRANCH  15  16
ENDBRANCH  14  15
ENDBRANCH  13  14
ENDBRANCH   2  13
TORSDOF 15
ENDMDL
MODEL 2
REMARK VINA RESULT:    -4.099      1.245      1.698
REMARK INTER + INTRA:          -9.706
REMARK INTER:                  -7.493
REMARK INTRA:                  -2.213
REMARK UNBOUND:                -2.012
REMARK SMILES CCCCCCCCC=CCCCCCCCC(=O)[O-]
REMARK SMILES IDX 10 1 9 2 11 3 12 4 13 5 14 6 15 7 16 8 17 9 18 10 19 11
REMARK SMILES IDX 20 12 8 13 7 14 6 15 5 16 4 17 3 18 2 19 1 20
REMARK H PARENT
REMARK Flexibility Score: inf
ROOT
ATOM      1  C   UNL     1       8.012  -2.317  -9.350  1.00  0.00    -0.031 C 
ATOM      2  C   UNL     1       6.758  -2.366  -8.876  1.00  0.00    -0.031 C 
ENDROOT
BRANCH   1   3
ATOM      3  C   UNL     1       9.194  -2.148  -8.436  1.00  0.00     0.027 C 
BRANCH   3   4
ATOM      4  C   UNL     1       9.778  -3.508  -8.028  1.00  0.00     0.004 C 
BRANCH   4   5
ATOM      5  C   UNL     1       9.823  -4.507  -9.194  1.00  0.00     0.000 C 
BRANCH   5   6
ATOM      6  C   UNL     1       9.187  -5.860  -8.838  1.00  0.00     0.000 C 
BRANCH   6   7
ATOM      7  C   UNL     1       7.759  -5.958  -9.394  1.00  0.00     0.000 C 
BRANCH   7   8
ATOM      8  C   UNL     1       6.690  -6.032  -8.287  1.00  0.00     0.006 C 
BRANCH   8   9
ATOM      9  C   UNL     1       7.222  -6.497  -6.921  1.00  0.00     0.053 C 
BRANCH   9  10
ATOM     10  C   UNL     1       6.785  -5.592  -5.811  1.00  0.00     0.041 C 
ATOM     11  O   UNL     1       6.004  -6.016  -4.919  1.00  0.00    -0.550 OA
ATOM     12  O   UNL     1       7.214  -4.271  -5.780  1.00  0.00    -0.550 OA
ENDBRANCH   9  10
ENDBRANCH   8   9
ENDBRANCH   7   8
ENDBRANCH   6   7
ENDBRANCH   5   6
ENDBRANCH   4   5
ENDBRANCH   3   4
ENDBRANCH   1   3
BRANCH   2  13
ATOM     13  C   UNL     1       5.576  -2.537  -9.790  1.00  0.00     0.027 C 
BRANCH  13  14
ATOM     14  C   UNL     1       4.315  -2.917  -8.999  1.00  0.00     0.004 C 
BRANCH  14  15
ATOM     15  C   UNL     1       4.561  -2.972  -7.482  1.00  0.00     0.000 C 
BRANCH  15  16
ATOM     16  C   UNL     1       3.501  -3.808  -6.744  1.00  0.00     0.000 C 
BRANCH  16  17
ATOM     17  C   UNL     1       3.584  -3.652  -5.218  1.00  0.00    -0.000 C 
BRANCH  17  18
ATOM     18  C   UNL     1       2.657  -2.550  -4.681  1.00  0.00    -0.000 C 
BRANCH  18  19
ATOM     19  C   UNL     1       1.934  -3.013  -3.411  1.00  0.00    -0.003 C 
ATOM     20  C   UNL     1       2.428  -2.250  -2.186  1.00  0.00     0.004 C 
ENDBRANCH  18  19
ENDBRANCH  17  18
ENDBRANCH  16  17
ENDBRANCH  15  16
ENDBRANCH  14  15
ENDBRANCH  13  14
ENDBRANCH   2  13
TORSDOF 15
ENDMDL
MODEL 3
REMARK VINA RESULT:    -4.089      1.185      1.686
REMARK INTER + INTRA:          -9.686
REMARK INTER:                  -7.627
REMARK INTRA:                  -2.059
REMARK UNBOUND:                -2.012
REMARK SMILES CCCCCCCCC=CCCCCCCCC(=O)[O-]
REMARK SMILES IDX 10 1 9 2 11 3 12 4 13 5 14 6 15 7 16 8 17 9 18 10 19 11
REMARK SMILES IDX 20 12 8 13 7 14 6 15 5 16 4 17 3 18 2 19 1 20
REMARK H PARENT
REMARK Flexibility Score: inf
ROOT
ATOM      1  C   UNL     1       7.185  -2.247  -9.892  1.00  0.00    -0.031 C 
ATOM      2  C   UNL     1       5.916  -2.193  -9.460  1.00  0.00    -0.031 C 
ENDROOT
BRANCH   1   3
ATOM      3  C   UNL     1       8.269  -1.420  -9.256  1.00  0.00     0.027 C 
BRANCH   3   4
ATOM      4  C   UNL     1       9.358  -2.312  -8.642  1.00  0.00     0.004 C 
BRANCH   4   5
ATOM      5  C   UNL     1       8.848  -3.721  -8.304  1.00  0.00     0.000 C 
BRANCH   5   6
ATOM      6  C   UNL     1       8.733  -3.961  -6.791  1.00  0.00     0.000 C 
BRANCH   6   7
ATOM      7  C   UNL     1       7.279  -3.805  -6.320  1.00  0.00     0.000 C 
BRANCH   7   8
ATOM      8  C   UNL     1       6.685  -5.116  -5.771  1.00  0.00     0.006 C 
BRANCH   8   9
ATOM      9  C   UNL     1       6.964  -6.353  -6.640  1.00  0.00     0.053 C 
BRANCH   9  10
ATOM     10  C   UNL     1       5.835  -7.336  -6.595  1.00  0.00     0.041 C 
ATOM     11  O   UNL     1       5.461  -7.821  -5.496  1.00  0.00    -0.550 OA
ATOM     12  O   UNL     1       5.219  -7.742  -7.772  1.00  0.00    -0.550 OA
ENDBRANCH   9  10
ENDBRANCH   8   9
ENDBRANCH   7   8
ENDBRANCH   6   7
ENDBRANCH   5   6
ENDBRANCH   4   5
ENDBRANCH   3   4
ENDBRANCH   1   3
BRANCH   2  13
ATOM     13  C   UNL     1       4.833  -3.020 -10.095  1.00  0.00     0.027 C 
BRANCH  13  14
ATOM     14  C   UNL     1       4.734  -4.403  -9.434  1.00  0.00     0.004 C 
BRANCH  14  15
ATOM     15  C   UNL     1       3.392  -4.623  -8.716  1.00  0.00     0.000 C 
BRANCH  15  16
ATOM     16  C   UNL     1       3.551  -4.713  -7.188  1.00  0.00     0.000 C 
BRANCH  16  17
ATOM     17  C   UNL     1       3.391  -3.349  -6.498  1.00  0.00    -0.000 C 
BRANCH  17  18
ATOM     18  C   UNL     1       3.436  -3.449  -4.965  1.00  0.00    -0.000 C 
BRANCH  18  19
ATOM     19  C   UNL     1       2.342  -2.586  -4.327  1.00  0.00    -0.003 C 
ATOM     20  C   UNL     1       2.374  -2.691  -2.805  1.00  0.00     0.004 C 
ENDBRANCH  18  19
ENDBRANCH  17  18
ENDBRANCH  16  17
ENDBRANCH  15  16
ENDBRANCH  14  15
ENDBRANCH  13  14
ENDBRANCH   2  13
TORSDOF 15
ENDMDL
MODEL 4
REMARK VINA RESULT:    -3.984      2.229      5.152
REMARK INTER + INTRA:          -9.490
REMARK INTER:                  -6.132
REMARK INTRA:                  -3.358
REMARK UNBOUND:                -2.012
REMARK SMILES CCCCCCCCC=CCCCCCCCC(=O)[O-]
REMARK SMILES IDX 10 1 9 2 11 3 12 4 13 5 14 6 15 7 16 8 17 9 18 10 19 11
REMARK SMILES IDX 20 12 8 13 7 14 6 15 5 16 4 17 3 18 2 19 1 20
REMARK H PARENT
REMARK Flexibility Score: inf
ROOT
ATOM      1  C   UNL     1       7.750  -4.010  -6.414  1.00  0.00    -0.031 C 
ATOM      2  C   UNL     1       6.563  -4.517  -6.050  1.00  0.00    -0.031 C 
ENDROOT
BRANCH   1   3
ATOM      3  C   UNL     1       7.871  -2.630  -7.000  1.00  0.00     0.027 C 
BRANCH   3   4
ATOM      4  C   UNL     1       8.841  -2.618  -8.191  1.00  0.00     0.004 C 
BRANCH   4   5
ATOM      5  C   UNL     1       8.119  -2.477  -9.540  1.00  0.00     0.000 C 
BRANCH   5   6
ATOM      6  C   UNL     1       6.655  -2.038  -9.384  1.00  0.00     0.000 C 
BRANCH   6   7
ATOM      7  C   UNL     1       5.697  -3.155  -9.824  1.00  0.00     0.000 C 
BRANCH   7   8
ATOM      8  C   UNL     1       4.493  -3.318  -8.878  1.00  0.00     0.006 C 
BRANCH   8   9
ATOM      9  C   UNL     1       3.738  -4.648  -9.033  1.00  0.00     0.053 C 
BRANCH   9  10
ATOM     10  C   UNL     1       3.400  -5.260  -7.709  1.00  0.00     0.041 C 
ATOM     11  O   UNL     1       2.991  -4.537  -6.763  1.00  0.00    -0.550 OA
ATOM     12  O   UNL     1       3.569  -6.624  -7.509  1.00  0.00    -0.550 OA
ENDBRANCH   9  10
ENDBRANCH   8   9
ENDBRANCH   7   8
ENDBRANCH   6   7
ENDBRANCH   5   6
ENDBRANCH   4   5
ENDBRANCH   3   4
ENDBRANCH   1   3
BRANCH   2  13
ATOM     13  C   UNL     1       6.442  -5.897  -5.464  1.00  0.00     0.027 C 
BRANCH  13  14
ATOM     14  C   UNL     1       7.808  -6.598  -5.415  1.00  0.00     0.004 C 
BRANCH  14  15
ATOM     15  C   UNL     1       7.741  -8.060  -5.886  1.00  0.00     0.000 C 
BRANCH  15  16
ATOM     16  C   UNL     1       6.687  -8.277  -6.986  1.00  0.00     0.000 C 
BRANCH  16  17
ATOM     17  C   UNL     1       7.269  -8.116  -8.400  1.00  0.00    -0.000 C 
BRANCH  17  18
ATOM     18  C   UNL     1       6.759  -6.855  -9.114  1.00  0.00    -0.000 C 
BRANCH  18  19
ATOM     19  C   UNL     1       7.928  -6.006  -9.628  1.00  0.00    -0.003 C 
ATOM     20  C   UNL     1       9.226  -6.362  -8.911  1.00  0.00     0.004 C 
ENDBRANCH  18  19
ENDBRANCH  17  18
ENDBRANCH  16  17
ENDBRANCH  15  16
ENDBRANCH  14  15
ENDBRANCH  13  14
ENDBRANCH   2  13
TORSDOF 15
ENDMDL
MODEL 5
REMARK VINA RESULT:    -3.938      1.880      4.770
REMARK INTER + INTRA:          -9.404
REMARK INTER:                  -6.485
REMARK INTRA:                  -2.919
REMARK UNBOUND:                -2.012
REMARK SMILES CCCCCCCCC=CCCCCCCCC(=O)[O-]
REMARK SMILES IDX 10 1 9 2 11 3 12 4 13 5 14 6 15 7 16 8 17 9 18 10 19 11
REMARK SMILES IDX 20 12 8 13 7 14 6 15 5 16 4 17 3 18 2 19 1 20
REMARK H PARENT
REMARK Flexibility Score: inf
ROOT
ATOM      1  C   UNL     1       8.624  -3.575  -6.901  1.00  0.00    -0.031 C 
ATOM      2  C   UNL     1       9.748  -4.215  -7.257  1.00  0.00    -0.031 C 
ENDROOT
BRANCH   1   3
ATOM      3  C   UNL     1       8.247  -2.250  -7.505  1.00  0.00     0.027 C 
BRANCH   3   4
ATOM      4  C   UNL     1       8.715  -2.155  -8.965  1.00  0.00     0.004 C 
BRANCH   4   5
ATOM      5  C   UNL     1       7.746  -2.836  -9.943  1.00  0.00     0.000 C 
BRANCH   5   6
ATOM      6  C   UNL     1       6.393  -2.111 -10.035  1.00  0.00     0.000 C 
BRANCH   6   7
ATOM      7  C   UNL     1       5.240  -3.052  -9.658  1.00  0.00     0.000 C 
BRANCH   7   8
ATOM      8  C   UNL     1       4.530  -2.635  -8.356  1.00  0.00     0.006 C 
BRANCH   8   9
ATOM      9  C   UNL     1       4.829  -3.541  -7.151  1.00  0.00     0.053 C 
BRANCH   9  10
ATOM     10  C   UNL     1       3.583  -3.927  -6.416  1.00  0.00     0.041 C 
ATOM     11  O   UNL     1       3.313  -3.399  -5.306  1.00  0.00    -0.550 OA
ATOM     12  O   UNL     1       2.737  -4.895  -6.942  1.00  0.00    -0.550 OA
ENDBRANCH   9  10
ENDBRANCH   8   9
ENDBRANCH   7   8
ENDBRANCH   6   7
ENDBRANCH   5   6
ENDBRANCH   4   5
ENDBRANCH   3   4
ENDBRANCH   1   3
BRANCH   2  13
ATOM     13  C   UNL     1      10.124  -5.540  -6.654  1.00  0.00     0.027 C 
BRANCH  13  14
ATOM     14  C   UNL     1       9.986  -6.675  -7.680  1.00  0.00     0.004 C 
BRANCH  14  15
ATOM     15  C   UNL     1       9.240  -6.238  -8.951  1.00  0.00     0.000 C 
BRANCH  15  16
ATOM     16  C   UNL     1       7.892  -6.959  -9.120  1.00  0.00     0.000 C 
BRANCH  16  17
ATOM     17  C   UNL     1       6.744  -6.240  -8.393  1.00  0.00    -0.000 C 
BRANCH  17  18
ATOM     18  C   UNL     1       5.954  -7.172  -7.462  1.00  0.00    -0.000 C 
BRANCH  18  19
ATOM     19  C   UNL     1       6.644  -7.298  -6.098  1.00  0.00    -0.003 C 
ATOM     20  C   UNL     1       6.452  -6.035  -5.264  1.00  0.00     0.004 C 
ENDBRANCH  18  19
ENDBRANCH  17  18
ENDBRANCH  16  17
ENDBRANCH  15  16
ENDBRANCH  14  15
ENDBRANCH  13  14
ENDBRANCH   2  13
TORSDOF 15
ENDMDL
MODEL 6
REMARK VINA RESULT:    -3.867      1.871      5.595
REMARK INTER + INTRA:          -9.270
REMARK INTER:                  -6.360
REMARK INTRA:                  -2.910
REMARK UNBOUND:                -2.012
REMARK SMILES CCCCCCCCC=CCCCCCCCC(=O)[O-]
REMARK SMILES IDX 10 1 9 2 11 3 12 4 13 5 14 6 15 7 16 8 17 9 18 10 19 11
REMARK SMILES IDX 20 12 8 13 7 14 6 15 5 16 4 17 3 18 2 19 1 20
REMARK H PARENT
REMARK Flexibility Score: inf
ROOT
ATOM      1  C   UNL     1       6.220  -5.057  -6.325  1.00  0.00    -0.031 C 
ATOM      2  C   UNL     1       6.568  -6.331  -6.092  1.00  0.00    -0.031 C 
ENDROOT
BRANCH   1   3
ATOM      3  C   UNL     1       5.011  -4.440  -5.676  1.00  0.00     0.027 C 
BRANCH   3   4
ATOM      4  C   UNL     1       4.133  -3.722  -6.711  1.00  0.00     0.004 C 
BRANCH   4   5
ATOM      5  C   UNL     1       4.956  -2.990  -7.781  1.00  0.00     0.000 C 
BRANCH   5   6
ATOM      6  C   UNL     1       4.478  -3.297  -9.208  1.00  0.00     0.000 C 
BRANCH   6   7
ATOM      7  C   UNL     1       3.220  -4.179  -9.187  1.00  0.00     0.000 C 
BRANCH   7   8
ATOM      8  C   UNL     1       3.423  -5.527  -9.905  1.00  0.00     0.006 C 
BRANCH   8   9
ATOM      9  C   UNL     1       4.563  -6.385  -9.333  1.00  0.00     0.053 C 
BRANCH   9  10
ATOM     10  C   UNL     1       4.052  -7.487  -8.457  1.00  0.00     0.041 C 
ATOM     11  O   UNL     1       3.362  -7.218  -7.439  1.00  0.00    -0.550 OA
ATOM     12  O   UNL     1       4.365  -8.809  -8.747  1.00  0.00    -0.550 OA
ENDBRANCH   9  10
ENDBRANCH   8   9
ENDBRANCH   7   8
ENDBRANCH   6   7
ENDBRANCH   5   6
ENDBRANCH   4   5
ENDBRANCH   3   4
ENDBRANCH   1   3
BRANCH   2  13
ATOM     13  C   UNL     1       7.777  -6.947  -6.741  1.00  0.00     0.027 C 
BRANCH  13  14
ATOM     14  C   UNL     1       9.066  -6.536  -6.013  1.00  0.00     0.004 C 
BRANCH  14  15
ATOM     15  C   UNL     1       9.964  -5.625  -6.866  1.00  0.00     0.000 C 
BRANCH  15  16
ATOM     16  C   UNL     1       9.978  -6.034  -8.349  1.00  0.00     0.000 C 
BRANCH  16  17
ATOM     17  C   UNL     1       9.789  -4.836  -9.293  1.00  0.00    -0.000 C 
BRANCH  17  18
ATOM     18  C   UNL     1       8.370  -4.249  -9.232  1.00  0.00    -0.000 C 
BRANCH  18  19
ATOM     19  C   UNL     1       8.413  -2.724  -9.083  1.00  0.00    -0.003 C 
ATOM     20  C   UNL     1       8.379  -2.311  -7.615  1.00  0.00     0.004 C 
ENDBRANCH  18  19
ENDBRANCH  17  18
ENDBRANCH  16  17
ENDBRANCH  15  16
ENDBRANCH  14  15
ENDBRANCH  13  14
ENDBRANCH   2  13
TORSDOF 15
ENDMDL
MODEL 7
REMARK VINA RESULT:    -3.866      1.960      4.479
REMARK INTER + INTRA:          -9.268
REMARK INTER:                  -6.189
REMARK INTRA:                  -3.079
REMARK UNBOUND:                -2.012
REMARK SMILES CCCCCCCCC=CCCCCCCCC(=O)[O-]
REMARK SMILES IDX 10 1 9 2 11 3 12 4 13 5 14 6 15 7 16 8 17 9 18 10 19 11
REMARK SMILES IDX 20 12 8 13 7 14 6 15 5 16 4 17 3 18 2 19 1 20
REMARK H PARENT
REMARK Flexibility Score: inf
ROOT
ATOM      1  C   UNL     1       6.360  -6.036  -5.427  1.00  0.00    -0.031 C 
ATOM      2  C   UNL     1       6.136  -4.873  -6.057  1.00  0.00    -0.031 C 
ENDROOT
BRANCH   1   3
ATOM      3  C   UNL     1       7.680  -6.749  -5.536  1.00  0.00     0.027 C 
BRANCH   3   4
ATOM      4  C   UNL     1       7.508  -8.135  -6.175  1.00  0.00     0.004 C 
BRANCH   4   5
ATOM      5  C   UNL     1       7.902  -8.156  -7.659  1.00  0.00     0.000 C 
BRANCH   5   6
ATOM      6  C   UNL     1       8.363  -6.781  -8.167  1.00  0.00     0.000 C 
BRANCH   6   7
ATOM      7  C   UNL     1       7.527  -6.335  -9.376  1.00  0.00     0.000 C 
BRANCH   7   8
ATOM      8  C   UNL     1       6.275  -7.206  -9.591  1.00  0.00     0.006 C 
BRANCH   8   9
ATOM      9  C   UNL     1       4.961  -6.553  -9.133  1.00  0.00     0.053 C 
BRANCH   9  10
ATOM     10  C   UNL     1       4.094  -7.508  -8.372  1.00  0.00     0.041 C 
ATOM     11  O   UNL     1       3.531  -7.142  -7.308  1.00  0.00    -0.550 OA
ATOM     12  O   UNL     1       3.934  -8.812  -8.822  1.00  0.00    -0.550 OA
ENDBRANCH   9  10
ENDBRANCH   8   9
ENDBRANCH   7   8
ENDBRANCH   6   7
ENDBRANCH   5   6
ENDBRANCH   4   5
ENDBRANCH   3   4
ENDBRANCH   1   3
BRANCH   2  13
ATOM     13  C   UNL     1       4.817  -4.159  -5.947  1.00  0.00     0.027 C 
BRANCH  13  14
ATOM     14  C   UNL     1       4.464  -3.443  -7.259  1.00  0.00     0.004 C 
BRANCH  14  15
ATOM     15  C   UNL     1       5.657  -2.681  -7.858  1.00  0.00     0.000 C 
BRANCH  15  16
ATOM     16  C   UNL     1       5.884  -3.015  -9.343  1.00  0.00     0.000 C 
BRANCH  16  17
ATOM     17  C   UNL     1       7.219  -2.467  -9.874  1.00  0.00    -0.000 C 
BRANCH  17  18
ATOM     18  C   UNL     1       8.149  -1.979  -8.753  1.00  0.00    -0.000 C 
BRANCH  18  19
ATOM     19  C   UNL     1       9.323  -2.946  -8.556  1.00  0.00    -0.003 C 
ATOM     20  C   UNL     1       9.375  -3.466  -7.122  1.00  0.00     0.004 C 
ENDBRANCH  18  19
ENDBRANCH  17  18
ENDBRANCH  16  17
ENDBRANCH  15  16
ENDBRANCH  14  15
ENDBRANCH  13  14
ENDBRANCH   2  13
TORSDOF 15
ENDMDL
MODEL 8
REMARK VINA RESULT:    -3.856      1.924      5.163
REMARK INTER + INTRA:          -9.250
REMARK INTER:                  -6.364
REMARK INTRA:                  -2.886
REMARK UNBOUND:                -2.012
REMARK SMILES CCCCCCCCC=CCCCCCCCC(=O)[O-]
REMARK SMILES IDX 10 1 9 2 11 3 12 4 13 5 14 6 15 7 16 8 17 9 18 10 19 11
REMARK SMILES IDX 20 12 8 13 7 14 6 15 5 16 4 17 3 18 2 19 1 20
REMARK H PARENT
REMARK Flexibility Score: inf
ROOT
ATOM      1  C   UNL     1       8.239  -4.469  -6.380  1.00  0.00    -0.031 C 
ATOM      2  C   UNL     1       9.320  -5.054  -6.918  1.00  0.00    -0.031 C 
ENDROOT
BRANCH   1   3
ATOM      3  C   UNL     1       7.820  -3.079  -6.769  1.00  0.00     0.027 C 
BRANCH   3   4
ATOM      4  C   UNL     1       8.700  -2.533  -7.904  1.00  0.00     0.004 C 
BRANCH   4   5
ATOM      5  C   UNL     1       7.882  -1.861  -9.017  1.00  0.00     0.000 C 
BRANCH   5   6
ATOM      6  C   UNL     1       6.860  -2.814  -9.657  1.00  0.00     0.000 C 
BRANCH   6   7
ATOM      7  C   UNL     1       5.474  -2.158  -9.737  1.00  0.00     0.000 C 
BRANCH   7   8
ATOM      8  C   UNL     1       4.590  -2.479  -8.518  1.00  0.00     0.006 C 
BRANCH   8   9
ATOM      9  C   UNL     1       4.546  -3.969  -8.139  1.00  0.00     0.053 C 
BRANCH   9  10
ATOM     10  C   UNL     1       3.918  -4.189  -6.798  1.00  0.00     0.041 C 
ATOM     11  O   UNL     1       4.620  -4.145  -5.755  1.00  0.00    -0.550 OA
ATOM     12  O   UNL     1       2.562  -4.476  -6.704  1.00  0.00    -0.550 OA
ENDBRANCH   9  10
ENDBRANCH   8   9
ENDBRANCH   7   8
ENDBRANCH   6   7
ENDBRANCH   5   6
ENDBRANCH   4   5
ENDBRANCH   3   4
ENDBRANCH   1   3
BRANCH   2  13
ATOM     13  C   UNL     1       9.738  -6.445  -6.529  1.00  0.00     0.027 C 
BRANCH  13  14
ATOM     14  C   UNL     1       8.796  -7.029  -5.466  1.00  0.00     0.004 C 
BRANCH  14  15
ATOM     15  C   UNL     1       7.861  -8.111  -6.032  1.00  0.00     0.000 C 
BRANCH  15  16
ATOM     16  C   UNL     1       6.375  -7.732  -5.903  1.00  0.00     0.000 C 
BRANCH  16  17
ATOM     17  C   UNL     1       5.788  -7.190  -7.216  1.00  0.00    -0.000 C 
BRANCH  17  18
ATOM     18  C   UNL     1       6.454  -7.797  -8.460  1.00  0.00    -0.000 C 
BRANCH  18  19
ATOM     19  C   UNL     1       6.541  -6.768  -9.593  1.00  0.00    -0.003 C 
ATOM     20  C   UNL     1       7.990  -6.391  -9.886  1.00  0.00     0.004 C 
ENDBRANCH  18  19
ENDBRANCH  17  18
ENDBRANCH  16  17
ENDBRANCH  15  16
ENDBRANCH  14  15
ENDBRANCH  13  14
ENDBRANCH   2  13
TORSDOF 15
ENDMDL
MODEL 9
REMARK VINA RESULT:    -3.834      1.747      3.501
REMARK INTER + INTRA:          -9.208
REMARK INTER:                  -6.094
REMARK INTRA:                  -3.114
REMARK UNBOUND:                -2.012
REMARK SMILES CCCCCCCCC=CCCCCCCCC(=O)[O-]
REMARK SMILES IDX 10 1 9 2 11 3 12 4 13 5 14 6 15 7 16 8 17 9 18 10 19 11
REMARK SMILES IDX 20 12 8 13 7 14 6 15 5 16 4 17 3 18 2 19 1 20
REMARK H PARENT
REMARK Flexibility Score: inf
ROOT
ATOM      1  C   UNL     1       7.193  -4.995  -6.056  1.00  0.00    -0.031 C 
ATOM      2  C   UNL     1       8.158  -4.118  -6.369  1.00  0.00    -0.031 C 
ENDROOT
BRANCH   1   3
ATOM      3  C   UNL     1       7.516  -6.392  -5.603  1.00  0.00     0.027 C 
BRANCH   3   4
ATOM      4  C   UNL     1       8.955  -6.777  -5.976  1.00  0.00     0.004 C 
BRANCH   4   5
ATOM      5  C   UNL     1       9.027  -7.654  -7.235  1.00  0.00     0.000 C 
BRANCH   5   6
ATOM      6  C   UNL     1       9.637  -6.915  -8.436  1.00  0.00     0.000 C 
BRANCH   6   7
ATOM      7  C   UNL     1       8.542  -6.258  -9.289  1.00  0.00     0.000 C 
BRANCH   7   8
ATOM      8  C   UNL     1       7.352  -7.196  -9.560  1.00  0.00     0.006 C 
BRANCH   8   9
ATOM      9  C   UNL     1       6.000  -6.672  -9.048  1.00  0.00     0.053 C 
BRANCH   9  10
ATOM     10  C   UNL     1       5.320  -7.657  -8.149  1.00  0.00     0.041 C 
ATOM     11  O   UNL     1       5.696  -8.858  -8.125  1.00  0.00    -0.550 OA
ATOM     12  O   UNL     1       4.248  -7.256  -7.361  1.00  0.00    -0.550 OA
ENDBRANCH   9  10
ENDBRANCH   8   9
ENDBRANCH   7   8
ENDBRANCH   6   7
ENDBRANCH   5   6
ENDBRANCH   4   5
ENDBRANCH   3   4
ENDBRANCH   1   3
BRANCH   2  13
ATOM     13  C   UNL     1       7.836  -2.720  -6.822  1.00  0.00     0.027 C 
BRANCH  13  14
ATOM     14  C   UNL     1       8.551  -2.386  -8.139  1.00  0.00     0.004 C 
BRANCH  14  15
ATOM     15  C   UNL     1       7.583  -1.922  -9.239  1.00  0.00     0.000 C 
BRANCH  15  16
ATOM     16  C   UNL     1       6.785  -3.086  -9.851  1.00  0.00     0.000 C 
BRANCH  16  17
ATOM     17  C   UNL     1       5.269  -2.836  -9.834  1.00  0.00    -0.000 C 
BRANCH  17  18
ATOM     18  C   UNL     1       4.729  -2.554  -8.423  1.00  0.00    -0.000 C 
BRANCH  18  19
ATOM     19  C   UNL     1       4.117  -3.818  -7.808  1.00  0.00    -0.003 C 
ATOM     20  C   UNL     1       3.890  -3.647  -6.309  1.00  0.00     0.004 C 
ENDBRANCH  18  19
ENDBRANCH  17  18
ENDBRANCH  16  17
ENDBRANCH  15  16
ENDBRANCH  14  15
ENDBRANCH  13  14
ENDBRANCH   2  13
TORSDOF 15
ENDMDL
