MODEL 1
REMARK VINA RESULT:    -3.830      0.000      0.000
REMARK INTER + INTRA:          -7.087
REMARK INTER:                  -6.069
REMARK INTRA:                  -1.018
REMARK UNBOUND:                -1.018
REMARK SMILES CCCCCCCCCCCC(=O)[O-]
REMARK SMILES IDX 7 1 8 2 9 3 10 4 11 5 12 6 13 7 14 8 6 9 5 10 4 11 3 12 2 13
REMARK SMILES IDX 1 14
REMARK H PARENT
REMARK Flexibility Score: inf
ROOT
ATOM      1  C   UNL     1      33.352  51.772  26.388  1.00  0.00     0.000 C 
ENDROOT
BRANCH   1   2
ATOM      2  C   UNL     1      33.263  50.239  26.491  1.00  0.00     0.000 C 
BRANCH   2   3
ATOM      3  C   UNL     1      34.635  49.558  26.361  1.00  0.00     0.000 C 
BRANCH   3   4
ATOM      4  C   UNL     1      34.627  48.407  25.339  1.00  0.00     0.006 C 
BRANCH   4   5
ATOM      5  C   UNL     1      33.300  47.638  25.344  1.00  0.00     0.053 C 
BRANCH   5   6
ATOM      6  C   UNL     1      33.493  46.199  25.718  1.00  0.00     0.041 C 
ATOM      7  O   UNL     1      34.603  45.801  26.158  1.00  0.00    -0.550 OA
ATOM      8  O   UNL     1      32.436  45.305  25.607  1.00  0.00    -0.550 OA
ENDBRANCH   5   6
ENDBRANCH   4   5
ENDBRANCH   3   4
ENDBRANCH   2   3
ENDBRANCH   1   2
BRANCH   1   9
ATOM      9  C   UNL     1      32.062  52.471  26.846  1.00  0.00     0.000 C 
BRANCH   9  10
ATOM     10  C   UNL     1      31.611  53.573  25.874  1.00  0.00    -0.000 C 
BRANCH  10  11
ATOM     11  C   UNL     1      30.574  53.036  24.880  1.00  0.00    -0.000 C 
BRANCH  11  12
ATOM     12  C   UNL     1      29.682  51.974  25.533  1.00  0.00    -0.000 C 
BRANCH  12  13
ATOM     13  C   UNL     1      29.653  50.690  24.695  1.00  0.00    -0.003 C 
ATOM     14  C   UNL     1      30.834  50.634  23.731  1.00  0.00     0.004 C 
ENDBRANCH  12  13
ENDBRANCH  11  12
ENDBRANCH  10  11
ENDBRANCH   9  10
ENDBRANCH   1   9
TORSDOF 10
ENDMDL
MODEL 2
REMARK VINA RESULT:    -3.803      1.713      2.886
REMARK INTER + INTRA:          -7.044
REMARK INTER:                  -5.888
REMARK INTRA:                  -1.157
REMARK UNBOUND:                -1.018
REMARK SMILES CCCCCCCCCCCC(=O)[O-]
REMARK SMILES IDX 7 1 8 2 9 3 10 4 11 5 12 6 13 7 14 8 6 9 5 10 4 11 3 12 2 13
REMARK SMILES IDX 1 14
REMARK H PARENT
REMARK Flexibility Score: inf
ROOT
ATOM      1  C   UNL     1      31.652  49.947  24.401  1.00  0.00     0.000 C 
ENDROOT
BRANCH   1   2
ATOM      2  C   UNL     1      31.915  50.028  25.915  1.00  0.00     0.000 C 
BRANCH   2   3
ATOM      3  C   UNL     1      32.995  51.061  26.273  1.00  0.00     0.000 C 
BRANCH   3   4
ATOM      4  C   UNL     1      34.250  50.416  26.887  1.00  0.00     0.006 C 
BRANCH   4   5
ATOM      5  C   UNL     1      34.069  48.911  27.122  1.00  0.00     0.053 C 
BRANCH   5   6
ATOM      6  C   UNL     1      34.987  48.099  26.260  1.00  0.00     0.041 C 
ATOM      7  O   UNL     1      35.765  47.255  26.779  1.00  0.00    -0.550 OA
ATOM      8  O   UNL     1      34.963  48.254  24.880  1.00  0.00    -0.550 OA
ENDBRANCH   5   6
ENDBRANCH   4   5
ENDBRANCH   3   4
ENDBRANCH   2   3
ENDBRANCH   1   2
BRANCH   1   9
ATOM      9  C   UNL     1      30.539  50.902  23.942  1.00  0.00     0.000 C 
BRANCH   9  10
ATOM     10  C   UNL     1      29.341  50.917  24.904  1.00  0.00    -0.000 C 
BRANCH  10  11
ATOM     11  C   UNL     1      28.933  52.355  25.250  1.00  0.00    -0.000 C 
BRANCH  11  12
ATOM     12  C   UNL     1      29.422  52.745  26.650  1.00  0.00    -0.000 C 
BRANCH  12  13
ATOM     13  C   UNL     1      30.642  53.670  26.568  1.00  0.00    -0.003 C 
ATOM     14  C   UNL     1      30.666  54.435  25.249  1.00  0.00     0.004 C 
ENDBRANCH  12  13
ENDBRANCH  11  12
ENDBRANCH  10  11
ENDBRANCH   9  10
ENDBRANCH   1   9
TORSDOF 10
ENDMDL
MODEL 3
REMARK VINA RESULT:    -3.802      1.188      2.332
REMARK INTER + INTRA:          -7.043
REMARK INTER:                  -6.218
REMARK INTRA:                  -0.825
REMARK UNBOUND:                -1.018
REMARK SMILES CCCCCCCCCCCC(=O)[O-]
REMARK SMILES IDX 7 1 8 2 9 3 10 4 11 5 12 6 13 7 14 8 6 9 5 10 4 11 3 12 2 13
REMARK SMILES IDX 1 14
REMARK H PARENT
REMARK Flexibility Score: inf
ROOT
ATOM      1  C   UNL     1      31.955  49.727  25.597  1.00  0.00     0.000 C 
ENDROOT
BRANCH   1   2
ATOM      2  C   UNL     1      33.238  50.461  26.025  1.00  0.00     0.000 C 
BRANCH   2   3
ATOM      3  C   UNL     1      34.386  49.497  26.364  1.00  0.00     0.000 C 
BRANCH   3   4
ATOM      4  C   UNL     1      34.532  48.366  25.330  1.00  0.00     0.006 C 
BRANCH   4   5
ATOM      5  C   UNL     1      34.528  46.980  25.985  1.00  0.00     0.053 C 
BRANCH   5   6
ATOM      6  C   UNL     1      33.183  46.326  25.896  1.00  0.00     0.041 C 
ATOM      7  O   UNL     1      32.393  46.364  26.876  1.00  0.00    -0.550 OA
ATOM      8  O   UNL     1      32.790  45.700  24.720  1.00  0.00    -0.550 OA
ENDBRANCH   5   6
ENDBRANCH   4   5
ENDBRANCH   3   4
ENDBRANCH   2   3
ENDBRANCH   1   2
BRANCH   1   9
ATOM      9  C   UNL     1      31.654  49.888  24.098  1.00  0.00     0.000 C 
BRANCH   9  10
ATOM     10  C   UNL     1      30.555  50.927  23.827  1.00  0.00    -0.000 C 
BRANCH  10  11
ATOM     11  C   UNL     1      29.577  51.013  25.005  1.00  0.00    -0.000 C 
BRANCH  11  12
ATOM     12  C   UNL     1      29.499  52.443  25.554  1.00  0.00    -0.000 C 
BRANCH  12  13
ATOM     13  C   UNL     1      30.519  53.354  24.861  1.00  0.00    -0.003 C 
ATOM     14  C   UNL     1      30.689  54.668  25.618  1.00  0.00     0.004 C 
ENDBRANCH  12  13
ENDBRANCH  11  12
ENDBRANCH  10  11
ENDBRANCH   9  10
ENDBRANCH   1   9
TORSDOF 10
ENDMDL
MODEL 4
REMARK VINA RESULT:    -3.722      0.950      1.861
REMARK INTER + INTRA:          -6.916
REMARK INTER:                  -5.875
REMARK INTRA:                  -1.041
REMARK UNBOUND:                -1.018
REMARK SMILES CCCCCCCCCCCC(=O)[O-]
REMARK SMILES IDX 7 1 8 2 9 3 10 4 11 5 12 6 13 7 14 8 6 9 5 10 4 11 3 12 2 13
REMARK SMILES IDX 1 14
REMARK H PARENT
REMARK Flexibility Score: inf
ROOT
ATOM      1  C   UNL     1      32.154  52.940  26.610  1.00  0.00     0.000 C 
ENDROOT
BRANCH   1   2
ATOM      2  C   UNL     1      33.405  52.072  26.386  1.00  0.00     0.000 C 
BRANCH   2   3
ATOM      3  C   UNL     1      33.277  50.676  27.015  1.00  0.00     0.000 C 
BRANCH   3   4
ATOM      4  C   UNL     1      34.585  49.869  26.936  1.00  0.00     0.006 C 
BRANCH   4   5
ATOM      5  C   UNL     1      34.674  49.036  25.652  1.00  0.00     0.053 C 
BRANCH   5   6
ATOM      6  C   UNL     1      34.319  47.601  25.894  1.00  0.00     0.041 C 
ATOM      7  O   UNL     1      33.247  47.127  25.435  1.00  0.00    -0.550 OA
ATOM      8  O   UNL     1      35.187  46.780  26.603  1.00  0.00    -0.550 OA
ENDBRANCH   5   6
ENDBRANCH   4   5
ENDBRANCH   3   4
ENDBRANCH   2   3
ENDBRANCH   1   2
BRANCH   1   9
ATOM      9  C   UNL     1      31.700  53.662  25.332  1.00  0.00     0.000 C 
BRANCH   9  10
ATOM     10  C   UNL     1      30.226  53.391  24.993  1.00  0.00    -0.000 C 
BRANCH  10  11
ATOM     11  C   UNL     1      29.667  52.250  25.852  1.00  0.00    -0.000 C 
BRANCH  11  12
ATOM     12  C   UNL     1      29.377  51.009  25.000  1.00  0.00    -0.000 C 
BRANCH  12  13
ATOM     13  C   UNL     1      30.338  50.923  23.809  1.00  0.00    -0.003 C 
ATOM     14  C   UNL     1      31.475  49.945  24.088  1.00  0.00     0.004 C 
ENDBRANCH  12  13
ENDBRANCH  11  12
ENDBRANCH  10  11
ENDBRANCH   9  10
ENDBRANCH   1   9
TORSDOF 10
ENDMDL
MODEL 5
REMARK VINA RESULT:    -3.542      2.215      5.162
REMARK INTER + INTRA:          -6.630
REMARK INTER:                  -5.889
REMARK INTRA:                  -0.741
REMARK UNBOUND:                -1.018
REMARK SMILES CCCCCCCCCCCC(=O)[O-]
REMARK SMILES IDX 7 1 8 2 9 3 10 4 11 5 12 6 13 7 14 8 6 9 5 10 4 11 3 12 2 13
REMARK SMILES IDX 1 14
REMARK H PARENT
REMARK Flexibility Score: inf
ROOT
ATOM      1  C   UNL     1      33.048  52.479  26.053  1.00  0.00     0.000 C 
ENDROOT
BRANCH   1   2
ATOM      2  C   UNL     1      31.989  53.076  26.997  1.00  0.00     0.000 C 
BRANCH   2   3
ATOM      3  C   UNL     1      30.699  53.474  26.264  1.00  0.00     0.000 C 
BRANCH   3   4
ATOM      4  C   UNL     1      29.528  52.524  26.572  1.00  0.00     0.006 C 
BRANCH   4   5
ATOM      5  C   UNL     1      29.023  51.802  25.317  1.00  0.00     0.053 C 
BRANCH   5   6
ATOM      6  C   UNL     1      30.019  50.804  24.811  1.00  0.00     0.041 C 
ATOM      7  O   UNL     1      30.461  50.888  23.635  1.00  0.00    -0.550 OA
ATOM      8  O   UNL     1      30.481  49.796  25.648  1.00  0.00    -0.550 OA
ENDBRANCH   5   6
ENDBRANCH   4   5
ENDBRANCH   3   4
ENDBRANCH   2   3
ENDBRANCH   1   2
BRANCH   1   9
ATOM      9  C   UNL     1      34.044  51.565  26.784  1.00  0.00     0.000 C 
BRANCH   9  10
ATOM     10  C   UNL     1      33.630  50.086  26.739  1.00  0.00    -0.000 C 
BRANCH  10  11
ATOM     11  C   UNL     1      34.854  49.179  26.562  1.00  0.00    -0.000 C 
BRANCH  11  12
ATOM     12  C   UNL     1      34.761  48.375  25.260  1.00  0.00    -0.000 C 
BRANCH  12  13
ATOM     13  C   UNL     1      33.327  47.890  25.014  1.00  0.00    -0.003 C 
ATOM     14  C   UNL     1      33.145  46.450  25.483  1.00  0.00     0.004 C 
ENDBRANCH  12  13
ENDBRANCH  11  12
ENDBRANCH  10  11
ENDBRANCH   9  10
ENDBRANCH   1   9
TORSDOF 10
ENDMDL
MODEL 6
REMARK VINA RESULT:    -3.536      1.583      3.053
REMARK INTER + INTRA:          -6.621
REMARK INTER:                  -5.665
REMARK INTRA:                  -0.956
REMARK UNBOUND:                -1.018
REMARK SMILES CCCCCCCCCCCC(=O)[O-]
REMARK SMILES IDX 7 1 8 2 9 3 10 4 11 5 12 6 13 7 14 8 6 9 5 10 4 11 3 12 2 13
REMARK SMILES IDX 1 14
REMARK H PARENT
REMARK Flexibility Score: inf
ROOT
ATOM      1  C   UNL     1      34.909  48.453  25.706  1.00  0.00     0.000 C 
ENDROOT
BRANCH   1   2
ATOM      2  C   UNL     1      33.708  48.044  24.835  1.00  0.00     0.000 C 
BRANCH   2   3
ATOM      3  C   UNL     1      33.146  46.664  25.212  1.00  0.00     0.000 C 
BRANCH   3   4
ATOM      4  C   UNL     1      33.842  46.059  26.444  1.00  0.00     0.006 C 
BRANCH   4   5
ATOM      5  C   UNL     1      34.122  44.561  26.273  1.00  0.00     0.053 C 
BRANCH   5   6
ATOM      6  C   UNL     1      35.589  44.278  26.164  1.00  0.00     0.041 C 
ATOM      7  O   UNL     1      35.992  43.120  25.878  1.00  0.00    -0.550 OA
ATOM      8  O   UNL     1      36.510  45.300  26.351  1.00  0.00    -0.550 OA
ENDBRANCH   5   6
ENDBRANCH   4   5
ENDBRANCH   3   4
ENDBRANCH   2   3
ENDBRANCH   1   2
BRANCH   1   9
ATOM      9  C   UNL     1      34.707  49.814  26.389  1.00  0.00     0.000 C 
BRANCH   9  10
ATOM     10  C   UNL     1      33.226  50.210  26.491  1.00  0.00    -0.000 C 
BRANCH  10  11
ATOM     11  C   UNL     1      33.038  51.708  26.219  1.00  0.00    -0.000 C 
BRANCH  11  12
ATOM     12  C   UNL     1      31.632  51.998  25.679  1.00  0.00    -0.000 C 
BRANCH  12  13
ATOM     13  C   UNL     1      30.949  50.710  25.205  1.00  0.00    -0.003 C 
ATOM     14  C   UNL     1      30.886  50.647  23.682  1.00  0.00     0.004 C 
ENDBRANCH  12  13
ENDBRANCH  11  12
ENDBRANCH  10  11
ENDBRANCH   9  10
ENDBRANCH   1   9
TORSDOF 10
ENDMDL
MODEL 7
REMARK VINA RESULT:    -3.533      3.328      6.159
REMARK INTER + INTRA:          -6.617
REMARK INTER:                  -5.864
REMARK INTRA:                  -0.753
REMARK UNBOUND:                -1.018
REMARK SMILES CCCCCCCCCCCC(=O)[O-]
REMARK SMILES IDX 7 1 8 2 9 3 10 4 11 5 12 6 13 7 14 8 6 9 5 10 4 11 3 12 2 13
REMARK SMILES IDX 1 14
REMARK H PARENT
REMARK Flexibility Score: inf
ROOT
ATOM      1  C   UNL     1      32.450  49.609  25.926  1.00  0.00     0.000 C 
ENDROOT
BRANCH   1   2
ATOM      2  C   UNL     1      32.002  49.479  24.460  1.00  0.00     0.000 C 
BRANCH   2   3
ATOM      3  C   UNL     1      31.002  50.571  24.048  1.00  0.00     0.000 C 
BRANCH   3   4
ATOM      4  C   UNL     1      30.036  50.947  25.186  1.00  0.00     0.006 C 
BRANCH   4   5
ATOM      5  C   UNL     1      29.822  52.463  25.285  1.00  0.00     0.053 C 
BRANCH   5   6
ATOM      6  C   UNL     1      31.122  53.208  25.282  1.00  0.00     0.041 C 
ATOM      7  O   UNL     1      31.386  54.018  24.354  1.00  0.00    -0.550 OA
ATOM      8  O   UNL     1      32.029  53.030  26.318  1.00  0.00    -0.550 OA
ENDBRANCH   5   6
ENDBRANCH   4   5
ENDBRANCH   3   4
ENDBRANCH   2   3
ENDBRANCH   1   2
BRANCH   1   9
ATOM      9  C   UNL     1      33.974  49.494  26.091  1.00  0.00     0.000 C 
BRANCH   9  10
ATOM     10  C   UNL     1      34.563  48.310  25.310  1.00  0.00    -0.000 C 
BRANCH  10  11
ATOM     11  C   UNL     1      34.468  47.013  26.125  1.00  0.00    -0.000 C 
BRANCH  11  12
ATOM     12  C   UNL     1      33.343  46.114  25.599  1.00  0.00    -0.000 C 
BRANCH  12  13
ATOM     13  C   UNL     1      33.007  45.008  26.606  1.00  0.00    -0.003 C 
ATOM     14  C   UNL     1      31.534  45.052  27.002  1.00  0.00     0.004 C 
ENDBRANCH  12  13
ENDBRANCH  11  12
ENDBRANCH  10  11
ENDBRANCH   9  10
ENDBRANCH   1   9
TORSDOF 10
ENDMDL
MODEL 8
REMARK VINA RESULT:    -3.528      1.371      2.657
REMARK INTER + INTRA:          -6.608
REMARK INTER:                  -5.552
REMARK INTRA:                  -1.056
REMARK UNBOUND:                -1.018
REMARK SMILES CCCCCCCCCCCC(=O)[O-]
REMARK SMILES IDX 7 1 8 2 9 3 10 4 11 5 12 6 13 7 14 8 6 9 5 10 4 11 3 12 2 13
REMARK SMILES IDX 1 14
REMARK H PARENT
REMARK Flexibility Score: inf
ROOT
ATOM      1  C   UNL     1      33.169  48.602  25.246  1.00  0.00     0.000 C 
ENDROOT
BRANCH   1   2
ATOM      2  C   UNL     1      34.628  48.114  25.280  1.00  0.00     0.000 C 
BRANCH   2   3
ATOM      3  C   UNL     1      34.968  47.355  26.572  1.00  0.00     0.000 C 
BRANCH   3   4
ATOM      4  C   UNL     1      35.038  45.832  26.362  1.00  0.00     0.006 C 
BRANCH   4   5
ATOM      5  C   UNL     1      33.907  45.095  27.092  1.00  0.00     0.053 C 
BRANCH   5   6
ATOM      6  C   UNL     1      32.653  45.050  26.273  1.00  0.00     0.041 C 
ATOM      7  O   UNL     1      31.527  45.130  26.832  1.00  0.00    -0.550 OA
ATOM      8  O   UNL     1      32.729  44.949  24.890  1.00  0.00    -0.550 OA
ENDBRANCH   5   6
ENDBRANCH   4   5
ENDBRANCH   3   4
ENDBRANCH   2   3
ENDBRANCH   1   2
BRANCH   1   9
ATOM      9  C   UNL     1      32.565  48.759  26.651  1.00  0.00     0.000 C 
BRANCH   9  10
ATOM     10  C   UNL     1      31.816  50.089  26.825  1.00  0.00    -0.000 C 
BRANCH  10  11
ATOM     11  C   UNL     1      32.480  51.204  26.007  1.00  0.00    -0.000 C 
BRANCH  11  12
ATOM     12  C   UNL     1      31.432  52.039  25.263  1.00  0.00    -0.000 C 
BRANCH  12  13
ATOM     13  C   UNL     1      30.736  51.208  24.178  1.00  0.00    -0.003 C 
ATOM     14  C   UNL     1      29.270  50.968  24.523  1.00  0.00     0.004 C 
ENDBRANCH  12  13
ENDBRANCH  11  12
ENDBRANCH  10  11
ENDBRANCH   9  10
ENDBRANCH   1   9
TORSDOF 10
ENDMDL
MODEL 9
REMARK VINA RESULT:    -3.477      2.778      5.951
REMARK INTER + INTRA:          -6.528
REMARK INTER:                  -5.403
REMARK INTRA:                  -1.125
REMARK UNBOUND:                -1.018
REMARK SMILES CCCCCCCCCCCC(=O)[O-]
REMARK SMILES IDX 7 1 8 2 9 3 10 4 11 5 12 6 13 7 14 8 6 9 5 10 4 11 3 12 2 13
REMARK SMILES IDX 1 14
REMARK H PARENT
REMARK Flexibility Score: inf
ROOT
ATOM      1  C   UNL     1      33.103  48.627  25.173  1.00  0.00     0.000 C 
ENDROOT
BRANCH   1   2
ATOM      2  C   UNL     1      32.550  48.841  26.593  1.00  0.00     0.000 C 
BRANCH   2   3
ATOM      3  C   UNL     1      31.602  50.046  26.683  1.00  0.00     0.000 C 
BRANCH   3   4
ATOM      4  C   UNL     1      32.224  51.332  26.109  1.00  0.00     0.006 C 
BRANCH   4   5
ATOM      5  C   UNL     1      31.216  52.145  25.287  1.00  0.00     0.053 C 
BRANCH   5   6
ATOM      6  C   UNL     1      30.378  51.266  24.408  1.00  0.00     0.041 C 
ATOM      7  O   UNL     1      30.875  50.743  23.376  1.00  0.00    -0.550 OA
ATOM      8  O   UNL     1      29.057  51.003  24.745  1.00  0.00    -0.550 OA
ENDBRANCH   5   6
ENDBRANCH   4   5
ENDBRANCH   3   4
ENDBRANCH   2   3
ENDBRANCH   1   2
BRANCH   1   9
ATOM      9  C   UNL     1      34.619  48.375  25.161  1.00  0.00     0.000 C 
BRANCH   9  10
ATOM     10  C   UNL     1      35.149  47.897  26.522  1.00  0.00    -0.000 C 
BRANCH  10  11
ATOM     11  C   UNL     1      35.637  46.445  26.442  1.00  0.00    -0.000 C 
BRANCH  11  12
ATOM     12  C   UNL     1      34.627  45.488  27.086  1.00  0.00    -0.000 C 
BRANCH  12  13
ATOM     13  C   UNL     1      33.727  44.843  26.025  1.00  0.00    -0.003 C 
ATOM     14  C   UNL     1      32.253  45.005  26.381  1.00  0.00     0.004 C 
ENDBRANCH  12  13
ENDBRANCH  11  12
ENDBRANCH  10  11
ENDBRANCH   9  10
ENDBRANCH   1   9
TORSDOF 10
ENDMDL
