MODEL 1
REMARK VINA RESULT:    -4.796      0.000      0.000
REMARK INTER + INTRA:         -11.513
REMARK INTER:                  -9.001
REMARK INTRA:                  -2.512
REMARK UNBOUND:                -2.512
REMARK SMILES CCCCCCCCC=CCCCCCCCC(=O)[O-]
REMARK SMILES IDX 10 1 9 2 11 3 12 4 13 5 14 6 15 7 16 8 17 9 18 10 19 11
REMARK SMILES IDX 20 12 8 13 7 14 6 15 5 16 4 17 3 18 2 19 1 20
REMARK H PARENT
REMARK Flexibility Score: inf
ROOT
ATOM      1  C   UNL     1     -20.577  17.112 -24.036  1.00  0.00    -0.031 C 
ATOM      2  C   UNL     1     -20.243  16.318 -23.001  1.00  0.00    -0.031 C 
ENDROOT
BRANCH   1   3
ATOM      3  C   UNL     1     -21.824  16.958 -24.867  1.00  0.00     0.027 C 
BRANCH   3   4
ATOM      4  C   UNL     1     -22.386  18.329 -25.274  1.00  0.00     0.004 C 
BRANCH   4   5
ATOM      5  C   UNL     1     -21.289  19.296 -25.747  1.00  0.00     0.000 C 
BRANCH   5   6
ATOM      6  C   UNL     1     -21.470  20.710 -25.167  1.00  0.00     0.000 C 
BRANCH   6   7
ATOM      7  C   UNL     1     -22.935  21.037 -24.831  1.00  0.00     0.000 C 
BRANCH   7   8
ATOM      8  C   UNL     1     -23.229  22.520 -24.533  1.00  0.00     0.006 C 
BRANCH   8   9
ATOM      9  C   UNL     1     -21.969  23.399 -24.417  1.00  0.00     0.053 C 
BRANCH   9  10
ATOM     10  C   UNL     1     -21.808  24.326 -25.584  1.00  0.00     0.041 C 
ATOM     11  O   UNL     1     -22.232  25.511 -25.516  1.00  0.00    -0.550 OA
ATOM     12  O   UNL     1     -21.154  23.898 -26.732  1.00  0.00    -0.550 OA
ENDBRANCH   9  10
ENDBRANCH   8   9
ENDBRANCH   7   8
ENDBRANCH   6   7
ENDBRANCH   5   6
ENDBRANCH   4   5
ENDBRANCH   3   4
ENDBRANCH   1   3
BRANCH   2  13
ATOM     13  C   UNL     1     -21.084  15.178 -22.474  1.00  0.00     0.027 C 
BRANCH  13  14
ATOM     14  C   UNL     1     -21.875  15.597 -21.229  1.00  0.00     0.004 C 
BRANCH  14  15
ATOM     15  C   UNL     1     -23.294  15.004 -21.220  1.00  0.00     0.000 C 
BRANCH  15  16
ATOM     16  C   UNL     1     -24.384  16.082 -21.115  1.00  0.00     0.000 C 
BRANCH  16  17
ATOM     17  C   UNL     1     -24.406  17.019 -22.335  1.00  0.00    -0.000 C 
BRANCH  17  18
ATOM     18  C   UNL     1     -24.385  18.504 -21.939  1.00  0.00    -0.000 C 
BRANCH  18  19
ATOM     19  C   UNL     1     -22.966  19.022 -21.668  1.00  0.00    -0.003 C 
ATOM     20  C   UNL     1     -22.990  20.479 -21.216  1.00  0.00     0.004 C 
ENDBRANCH  18  19
ENDBRANCH  17  18
ENDBRANCH  16  17
ENDBRANCH  15  16
ENDBRANCH  14  15
ENDBRANCH  13  14
ENDBRANCH   2  13
TORSDOF 15
ENDMDL
MODEL 2
REMARK VINA RESULT:    -4.761      1.329      4.175
REMARK INTER + INTRA:         -11.448
REMARK INTER:                  -9.039
REMARK INTRA:                  -2.409
REMARK UNBOUND:                -2.512
REMARK SMILES CCCCCCCCC=CCCCCCCCC(=O)[O-]
REMARK SMILES IDX 10 1 9 2 11 3 12 4 13 5 14 6 15 7 16 8 17 9 18 10 19 11
REMARK SMILES IDX 20 12 8 13 7 14 6 15 5 16 4 17 3 18 2 19 1 20
REMARK H PARENT
REMARK Flexibility Score: inf
ROOT
ATOM      1  C   UNL     1     -22.854  20.106 -21.220  1.00  0.00    -0.031 C 
ATOM      2  C   UNL     1     -22.894  18.862 -21.736  1.00  0.00    -0.031 C 
ENDROOT
BRANCH   1   3
ATOM      3  C   UNL     1     -24.062  20.973 -20.977  1.00  0.00     0.027 C 
BRANCH   3   4
ATOM      4  C   UNL     1     -23.646  22.406 -20.611  1.00  0.00     0.004 C 
BRANCH   4   5
ATOM      5  C   UNL     1     -23.327  23.258 -21.850  1.00  0.00     0.000 C 
BRANCH   5   6
ATOM      6  C   UNL     1     -24.344  23.041 -22.985  1.00  0.00     0.000 C 
BRANCH   6   7
ATOM      7  C   UNL     1     -23.678  22.852 -24.358  1.00  0.00     0.000 C 
BRANCH   7   8
ATOM      8  C   UNL     1     -22.542  21.811 -24.403  1.00  0.00     0.006 C 
BRANCH   8   9
ATOM      9  C   UNL     1     -21.510  22.055 -25.521  1.00  0.00     0.053 C 
BRANCH   9  10
ATOM     10  C   UNL     1     -21.067  23.486 -25.589  1.00  0.00     0.041 C 
ATOM     11  O   UNL     1     -20.324  23.963 -24.691  1.00  0.00    -0.550 OA
ATOM     12  O   UNL     1     -21.439  24.282 -26.664  1.00  0.00    -0.550 OA
ENDBRANCH   9  10
ENDBRANCH   8   9
ENDBRANCH   7   8
ENDBRANCH   6   7
ENDBRANCH   5   6
ENDBRANCH   4   5
ENDBRANCH   3   4
ENDBRANCH   1   3
BRANCH   2  13
ATOM     13  C   UNL     1     -24.155  18.116 -22.107  1.00  0.00     0.027 C 
BRANCH  13  14
ATOM     14  C   UNL     1     -24.045  17.500 -23.507  1.00  0.00     0.004 C 
BRANCH  14  15
ATOM     15  C   UNL     1     -23.134  18.325 -24.432  1.00  0.00     0.000 C 
BRANCH  15  16
ATOM     16  C   UNL     1     -22.545  17.490 -25.579  1.00  0.00     0.000 C 
BRANCH  16  17
ATOM     17  C   UNL     1     -21.329  16.657 -25.139  1.00  0.00    -0.000 C 
BRANCH  17  18
ATOM     18  C   UNL     1     -20.401  17.426 -24.186  1.00  0.00    -0.000 C 
BRANCH  18  19
ATOM     19  C   UNL     1     -20.164  16.681 -22.865  1.00  0.00    -0.003 C 
ATOM     20  C   UNL     1     -20.967  15.386 -22.812  1.00  0.00     0.004 C 
ENDBRANCH  18  19
ENDBRANCH  17  18
ENDBRANCH  16  17
ENDBRANCH  15  16
ENDBRANCH  14  15
ENDBRANCH  13  14
ENDBRANCH   2  13
TORSDOF 15
ENDMDL
MODEL 3
REMARK VINA RESULT:    -4.742      1.651      2.986
REMARK INTER + INTRA:         -11.411
REMARK INTER:                  -9.322
REMARK INTRA:                  -2.089
REMARK UNBOUND:                -2.512
REMARK SMILES CCCCCCCCC=CCCCCCCCC(=O)[O-]
REMARK SMILES IDX 10 1 9 2 11 3 12 4 13 5 14 6 15 7 16 8 17 9 18 10 19 11
REMARK SMILES IDX 20 12 8 13 7 14 6 15 5 16 4 17 3 18 2 19 1 20
REMARK H PARENT
REMARK Flexibility Score: inf
ROOT
ATOM      1  C   UNL     1     -20.182  18.265 -24.981  1.00  0.00    -0.031 C 
ATOM      2  C   UNL     1     -20.406  17.353 -24.015  1.00  0.00    -0.031 C 
ENDROOT
BRANCH   1   3
ATOM      3  C   UNL     1     -21.257  19.051 -25.684  1.00  0.00     0.027 C 
BRANCH   3   4
ATOM      4  C   UNL     1     -21.316  20.494 -25.159  1.00  0.00     0.004 C 
BRANCH   4   5
ATOM      5  C   UNL     1     -22.750  20.943 -24.834  1.00  0.00     0.000 C 
BRANCH   5   6
ATOM      6  C   UNL     1     -22.870  22.473 -24.724  1.00  0.00     0.000 C 
BRANCH   6   7
ATOM      7  C   UNL     1     -21.515  23.190 -24.846  1.00  0.00     0.000 C 
BRANCH   7   8
ATOM      8  C   UNL     1     -21.592  24.699 -25.151  1.00  0.00     0.006 C 
BRANCH   8   9
ATOM      9  C   UNL     1     -22.822  25.110 -25.982  1.00  0.00     0.053 C 
BRANCH   9  10
ATOM     10  C   UNL     1     -22.446  25.691 -27.312  1.00  0.00     0.041 C 
ATOM     11  O   UNL     1     -23.192  25.519 -28.312  1.00  0.00    -0.550 OA
ATOM     12  O   UNL     1     -21.294  26.457 -27.439  1.00  0.00    -0.550 OA
ENDBRANCH   9  10
ENDBRANCH   8   9
ENDBRANCH   7   8
ENDBRANCH   6   7
ENDBRANCH   5   6
ENDBRANCH   4   5
ENDBRANCH   3   4
ENDBRANCH   1   3
BRANCH   2  13
ATOM     13  C   UNL     1     -21.763  17.005 -23.447  1.00  0.00     0.027 C 
BRANCH  13  14
ATOM     14  C   UNL     1     -21.938  17.576 -22.034  1.00  0.00     0.004 C 
BRANCH  14  15
ATOM     15  C   UNL     1     -23.084  18.599 -21.962  1.00  0.00     0.000 C 
BRANCH  15  16
ATOM     16  C   UNL     1     -22.666  19.908 -21.274  1.00  0.00     0.000 C 
BRANCH  16  17
ATOM     17  C   UNL     1     -23.830  20.905 -21.145  1.00  0.00    -0.000 C 
BRANCH  17  18
ATOM     18  C   UNL     1     -23.389  22.253 -20.552  1.00  0.00    -0.000 C 
BRANCH  18  19
ATOM     19  C   UNL     1     -23.644  23.428 -21.506  1.00  0.00    -0.003 C 
ATOM     20  C   UNL     1     -22.493  24.429 -21.466  1.00  0.00     0.004 C 
ENDBRANCH  18  19
ENDBRANCH  17  18
ENDBRANCH  16  17
ENDBRANCH  15  16
ENDBRANCH  14  15
ENDBRANCH  13  14
ENDBRANCH   2  13
TORSDOF 15
ENDMDL
MODEL 4
REMARK VINA RESULT:    -4.704      1.481      3.571
REMARK INTER + INTRA:         -11.341
REMARK INTER:                  -9.010
REMARK INTRA:                  -2.331
REMARK UNBOUND:                -2.512
REMARK SMILES CCCCCCCCC=CCCCCCCCC(=O)[O-]
REMARK SMILES IDX 10 1 9 2 11 3 12 4 13 5 14 6 15 7 16 8 17 9 18 10 19 11
REMARK SMILES IDX 20 12 8 13 7 14 6 15 5 16 4 17 3 18 2 19 1 20
REMARK H PARENT
REMARK Flexibility Score: inf
ROOT
ATOM      1  C   UNL     1     -22.596  17.325 -25.240  1.00  0.00    -0.031 C 
ATOM      2  C   UNL     1     -21.292  16.991 -25.205  1.00  0.00    -0.031 C 
ENDROOT
BRANCH   1   3
ATOM      3  C   UNL     1     -23.267  18.265 -24.273  1.00  0.00     0.027 C 
BRANCH   3   4
ATOM      4  C   UNL     1     -24.013  17.486 -23.178  1.00  0.00     0.004 C 
BRANCH   4   5
ATOM      5  C   UNL     1     -23.818  18.104 -21.783  1.00  0.00     0.000 C 
BRANCH   5   6
ATOM      6  C   UNL     1     -22.657  19.113 -21.750  1.00  0.00     0.000 C 
BRANCH   6   7
ATOM      7  C   UNL     1     -23.080  20.495 -21.223  1.00  0.00     0.000 C 
BRANCH   7   8
ATOM      8  C   UNL     1     -23.945  21.331 -22.186  1.00  0.00     0.006 C 
BRANCH   8   9
ATOM      9  C   UNL     1     -23.286  22.648 -22.639  1.00  0.00     0.053 C 
BRANCH   9  10
ATOM     10  C   UNL     1     -22.712  22.554 -24.021  1.00  0.00     0.041 C 
ATOM     11  O   UNL     1     -23.173  21.719 -24.844  1.00  0.00    -0.550 OA
ATOM     12  O   UNL     1     -21.697  23.416 -24.416  1.00  0.00    -0.550 OA
ENDBRANCH   9  10
ENDBRANCH   8   9
ENDBRANCH   7   8
ENDBRANCH   6   7
ENDBRANCH   5   6
ENDBRANCH   4   5
ENDBRANCH   3   4
ENDBRANCH   1   3
BRANCH   2  13
ATOM     13  C   UNL     1     -20.281  17.539 -24.223  1.00  0.00     0.027 C 
BRANCH  13  14
ATOM     14  C   UNL     1     -20.217  16.682 -22.952  1.00  0.00     0.004 C 
BRANCH  14  15
ATOM     15  C   UNL     1     -20.571  15.211 -23.230  1.00  0.00     0.000 C 
BRANCH  15  16
ATOM     16  C   UNL     1     -20.798  14.405 -21.941  1.00  0.00     0.000 C 
BRANCH  16  17
ATOM     17  C   UNL     1     -21.836  15.058 -21.012  1.00  0.00    -0.000 C 
BRANCH  17  18
ATOM     18  C   UNL     1     -23.242  14.463 -21.187  1.00  0.00    -0.000 C 
BRANCH  18  19
ATOM     19  C   UNL     1     -23.915  14.134 -19.847  1.00  0.00    -0.003 C 
ATOM     20  C   UNL     1     -24.996  15.156 -19.509  1.00  0.00     0.004 C 
ENDBRANCH  18  19
ENDBRANCH  17  18
ENDBRANCH  16  17
ENDBRANCH  15  16
ENDBRANCH  14  15
ENDBRANCH  13  14
ENDBRANCH   2  13
TORSDOF 15
ENDMDL
MODEL 5
REMARK VINA RESULT:    -4.670      3.875      6.497
REMARK INTER + INTRA:         -11.276
REMARK INTER:                  -9.081
REMARK INTRA:                  -2.196
REMARK UNBOUND:                -2.512
REMARK SMILES CCCCCCCCC=CCCCCCCCC(=O)[O-]
REMARK SMILES IDX 10 1 9 2 11 3 12 4 13 5 14 6 15 7 16 8 17 9 18 10 19 11
REMARK SMILES IDX 20 12 8 13 7 14 6 15 5 16 4 17 3 18 2 19 1 20
REMARK H PARENT
REMARK Flexibility Score: inf
ROOT
ATOM      1  C   UNL     1     -23.704  17.518 -24.004  1.00  0.00    -0.031 C 
ATOM      2  C   UNL     1     -23.595  18.211 -22.853  1.00  0.00    -0.031 C 
ENDROOT
BRANCH   1   3
ATOM      3  C   UNL     1     -23.245  18.015 -25.350  1.00  0.00     0.027 C 
BRANCH   3   4
ATOM      4  C   UNL     1     -21.925  17.345 -25.762  1.00  0.00     0.004 C 
BRANCH   4   5
ATOM      5  C   UNL     1     -20.709  18.261 -25.544  1.00  0.00     0.000 C 
BRANCH   5   6
ATOM      6  C   UNL     1     -19.905  17.873 -24.290  1.00  0.00     0.000 C 
BRANCH   6   7
ATOM      7  C   UNL     1     -20.191  16.437 -23.817  1.00  0.00     0.000 C 
BRANCH   7   8
ATOM      8  C   UNL     1     -20.639  16.303 -22.349  1.00  0.00     0.006 C 
BRANCH   8   9
ATOM      9  C   UNL     1     -20.414  14.902 -21.749  1.00  0.00     0.053 C 
BRANCH   9  10
ATOM     10  C   UNL     1     -21.462  14.536 -20.741  1.00  0.00     0.041 C 
ATOM     11  O   UNL     1     -22.614  15.039 -20.814  1.00  0.00    -0.550 OA
ATOM     12  O   UNL     1     -21.181  13.607 -19.747  1.00  0.00    -0.550 OA
ENDBRANCH   9  10
ENDBRANCH   8   9
ENDBRANCH   7   8
ENDBRANCH   6   7
ENDBRANCH   5   6
ENDBRANCH   4   5
ENDBRANCH   3   4
ENDBRANCH   1   3
BRANCH   2  13
ATOM     13  C   UNL     1     -22.954  19.573 -22.717  1.00  0.00     0.027 C 
BRANCH  13  14
ATOM     14  C   UNL     1     -22.912  20.025 -21.252  1.00  0.00     0.004 C 
BRANCH  14  15
ATOM     15  C   UNL     1     -23.316  21.500 -21.091  1.00  0.00     0.000 C 
BRANCH  15  16
ATOM     16  C   UNL     1     -24.466  21.903 -22.028  1.00  0.00     0.000 C 
BRANCH  16  17
ATOM     17  C   UNL     1     -24.190  23.225 -22.766  1.00  0.00    -0.000 C 
BRANCH  17  18
ATOM     18  C   UNL     1     -22.697  23.588 -22.788  1.00  0.00    -0.000 C 
BRANCH  18  19
ATOM     19  C   UNL     1     -22.121  23.630 -24.211  1.00  0.00    -0.003 C 
ATOM     20  C   UNL     1     -22.176  22.254 -24.867  1.00  0.00     0.004 C 
ENDBRANCH  18  19
ENDBRANCH  17  18
ENDBRANCH  16  17
ENDBRANCH  15  16
ENDBRANCH  14  15
ENDBRANCH  13  14
ENDBRANCH   2  13
TORSDOF 15
ENDMDL
MODEL 6
REMARK VINA RESULT:    -4.667      2.483      4.561
REMARK INTER + INTRA:         -11.271
REMARK INTER:                  -8.767
REMARK INTRA:                  -2.503
REMARK UNBOUND:                -2.512
REMARK SMILES CCCCCCCCC=CCCCCCCCC(=O)[O-]
REMARK SMILES IDX 10 1 9 2 11 3 12 4 13 5 14 6 15 7 16 8 17 9 18 10 19 11
REMARK SMILES IDX 20 12 8 13 7 14 6 15 5 16 4 17 3 18 2 19 1 20
REMARK H PARENT
REMARK Flexibility Score: inf
ROOT
ATOM      1  C   UNL     1     -23.106  20.115 -21.308  1.00  0.00    -0.031 C 
ATOM      2  C   UNL     1     -23.110  18.810 -21.645  1.00  0.00    -0.031 C 
ENDROOT
BRANCH   1   3
ATOM      3  C   UNL     1     -23.905  21.183 -22.007  1.00  0.00     0.027 C 
BRANCH   3   4
ATOM      4  C   UNL     1     -22.986  22.275 -22.575  1.00  0.00     0.004 C 
BRANCH   4   5
ATOM      5  C   UNL     1     -23.292  22.593 -24.047  1.00  0.00     0.000 C 
BRANCH   5   6
ATOM      6  C   UNL     1     -23.098  21.369 -24.960  1.00  0.00     0.000 C 
BRANCH   6   7
ATOM      7  C   UNL     1     -21.621  20.978 -25.129  1.00  0.00     0.000 C 
BRANCH   7   8
ATOM      8  C   UNL     1     -21.260  19.550 -24.675  1.00  0.00     0.006 C 
BRANCH   8   9
ATOM      9  C   UNL     1     -20.605  18.688 -25.771  1.00  0.00     0.053 C 
BRANCH   9  10
ATOM     10  C   UNL     1     -21.596  17.824 -26.489  1.00  0.00     0.041 C 
ATOM     11  O   UNL     1     -21.674  17.857 -27.746  1.00  0.00    -0.550 OA
ATOM     12  O   UNL     1     -22.406  16.949 -25.776  1.00  0.00    -0.550 OA
ENDBRANCH   9  10
ENDBRANCH   8   9
ENDBRANCH   7   8
ENDBRANCH   6   7
ENDBRANCH   5   6
ENDBRANCH   4   5
ENDBRANCH   3   4
ENDBRANCH   1   3
BRANCH   2  13
ATOM     13  C   UNL     1     -23.949  18.200 -22.744  1.00  0.00     0.027 C 
BRANCH  13  14
ATOM     14  C   UNL     1     -24.945  17.178 -22.182  1.00  0.00     0.004 C 
BRANCH  14  15
ATOM     15  C   UNL     1     -24.402  16.473 -20.927  1.00  0.00     0.000 C 
BRANCH  15  16
ATOM     16  C   UNL     1     -24.282  14.952 -21.109  1.00  0.00     0.000 C 
BRANCH  16  17
ATOM     17  C   UNL     1     -22.840  14.447 -20.932  1.00  0.00    -0.000 C 
BRANCH  17  18
ATOM     18  C   UNL     1     -21.796  15.545 -21.189  1.00  0.00    -0.000 C 
BRANCH  18  19
ATOM     19  C   UNL     1     -21.199  15.473 -22.602  1.00  0.00    -0.003 C 
ATOM     20  C   UNL     1     -20.188  16.592 -22.830  1.00  0.00     0.004 C 
ENDBRANCH  18  19
ENDBRANCH  17  18
ENDBRANCH  16  17
ENDBRANCH  15  16
ENDBRANCH  14  15
ENDBRANCH  13  14
ENDBRANCH   2  13
TORSDOF 15
ENDMDL
MODEL 7
REMARK VINA RESULT:    -4.636      1.401      3.908
REMARK INTER + INTRA:         -11.213
REMARK INTER:                  -8.754
REMARK INTRA:                  -2.459
REMARK UNBOUND:                -2.512
REMARK SMILES CCCCCCCCC=CCCCCCCCC(=O)[O-]
REMARK SMILES IDX 10 1 9 2 11 3 12 4 13 5 14 6 15 7 16 8 17 9 18 10 19 11
REMARK SMILES IDX 20 12 8 13 7 14 6 15 5 16 4 17 3 18 2 19 1 20
REMARK H PARENT
REMARK Flexibility Score: inf
ROOT
ATOM      1  C   UNL     1     -23.216  19.769 -22.697  1.00  0.00    -0.031 C 
ATOM      2  C   UNL     1     -23.604  18.522 -23.027  1.00  0.00    -0.031 C 
ENDROOT
BRANCH   1   3
ATOM      3  C   UNL     1     -22.947  20.240 -21.291  1.00  0.00     0.027 C 
BRANCH   3   4
ATOM      4  C   UNL     1     -24.064  21.173 -20.800  1.00  0.00     0.004 C 
BRANCH   4   5
ATOM      5  C   UNL     1     -24.299  22.358 -21.751  1.00  0.00     0.000 C 
BRANCH   5   6
ATOM      6  C   UNL     1     -23.207  23.435 -21.619  1.00  0.00     0.000 C 
BRANCH   6   7
ATOM      7  C   UNL     1     -22.638  23.879 -22.977  1.00  0.00     0.000 C 
BRANCH   7   8
ATOM      8  C   UNL     1     -22.997  22.973 -24.171  1.00  0.00     0.006 C 
BRANCH   8   9
ATOM      9  C   UNL     1     -21.777  22.472 -24.969  1.00  0.00     0.053 C 
BRANCH   9  10
ATOM     10  C   UNL     1     -20.930  23.596 -25.484  1.00  0.00     0.041 C 
ATOM     11  O   UNL     1     -21.331  24.304 -26.445  1.00  0.00    -0.550 OA
ATOM     12  O   UNL     1     -19.715  23.890 -24.877  1.00  0.00    -0.550 OA
ENDBRANCH   9  10
ENDBRANCH   8   9
ENDBRANCH   7   8
ENDBRANCH   6   7
ENDBRANCH   5   6
ENDBRANCH   4   5
ENDBRANCH   3   4
ENDBRANCH   1   3
BRANCH   2  13
ATOM     13  C   UNL     1     -23.784  17.382 -22.051  1.00  0.00     0.027 C 
BRANCH  13  14
ATOM     14  C   UNL     1     -22.773  16.258 -22.313  1.00  0.00     0.004 C 
BRANCH  14  15
ATOM     15  C   UNL     1     -21.419  16.532 -21.637  1.00  0.00     0.000 C 
BRANCH  15  16
ATOM     16  C   UNL     1     -20.235  16.391 -22.607  1.00  0.00     0.000 C 
BRANCH  16  17
ATOM     17  C   UNL     1     -20.622  16.711 -24.061  1.00  0.00    -0.000 C 
BRANCH  17  18
ATOM     18  C   UNL     1     -19.954  17.993 -24.581  1.00  0.00    -0.000 C 
BRANCH  18  19
ATOM     19  C   UNL     1     -20.878  18.811 -25.495  1.00  0.00    -0.003 C 
ATOM     20  C   UNL     1     -21.826  17.903 -26.272  1.00  0.00     0.004 C 
ENDBRANCH  18  19
ENDBRANCH  17  18
ENDBRANCH  16  17
ENDBRANCH  15  16
ENDBRANCH  14  15
ENDBRANCH  13  14
ENDBRANCH   2  13
TORSDOF 15
ENDMDL
MODEL 8
REMARK VINA RESULT:    -4.619      2.221      5.557
REMARK INTER + INTRA:         -11.180
REMARK INTER:                  -8.819
REMARK INTRA:                  -2.361
REMARK UNBOUND:                -2.512
REMARK SMILES CCCCCCCCC=CCCCCCCCC(=O)[O-]
REMARK SMILES IDX 10 1 9 2 11 3 12 4 13 5 14 6 15 7 16 8 17 9 18 10 19 11
REMARK SMILES IDX 20 12 8 13 7 14 6 15 5 16 4 17 3 18 2 19 1 20
REMARK H PARENT
REMARK Flexibility Score: inf
ROOT
ATOM      1  C   UNL     1     -23.993  18.018 -22.750  1.00  0.00    -0.031 C 
ATOM      2  C   UNL     1     -23.545  19.273 -22.556  1.00  0.00    -0.031 C 
ENDROOT
BRANCH   1   3
ATOM      3  C   UNL     1     -23.830  16.888 -21.767  1.00  0.00     0.027 C 
BRANCH   3   4
ATOM      4  C   UNL     1     -22.685  15.954 -22.188  1.00  0.00     0.004 C 
BRANCH   4   5
ATOM      5  C   UNL     1     -21.341  16.353 -21.558  1.00  0.00     0.000 C 
BRANCH   5   6
ATOM      6  C   UNL     1     -20.275  16.681 -22.619  1.00  0.00     0.000 C 
BRANCH   6   7
ATOM      7  C   UNL     1     -20.756  16.409 -24.054  1.00  0.00     0.000 C 
BRANCH   7   8
ATOM      8  C   UNL     1     -20.994  17.662 -24.920  1.00  0.00     0.006 C 
BRANCH   8   9
ATOM      9  C   UNL     1     -21.917  17.424 -26.131  1.00  0.00     0.053 C 
BRANCH   9  10
ATOM     10  C   UNL     1     -21.351  17.984 -27.400  1.00  0.00     0.041 C 
ATOM     11  O   UNL     1     -21.245  19.230 -27.551  1.00  0.00    -0.550 OA
ATOM     12  O   UNL     1     -20.901  17.132 -28.401  1.00  0.00    -0.550 OA
ENDBRANCH   9  10
ENDBRANCH   8   9
ENDBRANCH   7   8
ENDBRANCH   6   7
ENDBRANCH   5   6
ENDBRANCH   4   5
ENDBRANCH   3   4
ENDBRANCH   1   3
BRANCH   2  13
ATOM     13  C   UNL     1     -22.851  19.764 -21.306  1.00  0.00     0.027 C 
BRANCH  13  14
ATOM     14  C   UNL     1     -23.233  21.216 -20.990  1.00  0.00     0.004 C 
BRANCH  14  15
ATOM     15  C   UNL     1     -24.099  21.838 -22.098  1.00  0.00     0.000 C 
BRANCH  15  16
ATOM     16  C   UNL     1     -23.600  23.226 -22.529  1.00  0.00     0.000 C 
BRANCH  16  17
ATOM     17  C   UNL     1     -23.404  23.337 -24.051  1.00  0.00    -0.000 C 
BRANCH  17  18
ATOM     18  C   UNL     1     -23.143  21.974 -24.712  1.00  0.00    -0.000 C 
BRANCH  18  19
ATOM     19  C   UNL     1     -21.670  21.780 -25.101  1.00  0.00    -0.003 C 
ATOM     20  C   UNL     1     -20.921  23.109 -25.100  1.00  0.00     0.004 C 
ENDBRANCH  18  19
ENDBRANCH  17  18
ENDBRANCH  16  17
ENDBRANCH  15  16
ENDBRANCH  14  15
ENDBRANCH  13  14
ENDBRANCH   2  13
TORSDOF 15
ENDMDL
MODEL 9
REMARK VINA RESULT:    -4.615      1.516      3.212
REMARK INTER + INTRA:         -11.174
REMARK INTER:                  -8.962
REMARK INTRA:                  -2.212
REMARK UNBOUND:                -2.512
REMARK SMILES CCCCCCCCC=CCCCCCCCC(=O)[O-]
REMARK SMILES IDX 10 1 9 2 11 3 12 4 13 5 14 6 15 7 16 8 17 9 18 10 19 11
REMARK SMILES IDX 20 12 8 13 7 14 6 15 5 16 4 17 3 18 2 19 1 20
REMARK H PARENT
REMARK Flexibility Score: inf
ROOT
ATOM      1  C   UNL     1     -20.911  17.067 -22.975  1.00  0.00    -0.031 C 
ATOM      2  C   UNL     1     -21.762  17.595 -22.073  1.00  0.00    -0.031 C 
ENDROOT
BRANCH   1   3
ATOM      3  C   UNL     1     -21.327  16.249 -24.170  1.00  0.00     0.027 C 
BRANCH   3   4
ATOM      4  C   UNL     1     -21.545  17.144 -25.399  1.00  0.00     0.004 C 
BRANCH   4   5
ATOM      5  C   UNL     1     -20.593  18.351 -25.423  1.00  0.00     0.000 C 
BRANCH   5   6
ATOM      6  C   UNL     1     -21.289  19.633 -25.914  1.00  0.00     0.000 C 
BRANCH   6   7
ATOM      7  C   UNL     1     -22.423  20.092 -24.983  1.00  0.00     0.000 C 
BRANCH   7   8
ATOM      8  C   UNL     1     -22.623  21.617 -24.889  1.00  0.00     0.006 C 
BRANCH   8   9
ATOM      9  C   UNL     1     -21.323  22.432 -25.036  1.00  0.00     0.053 C 
BRANCH   9  10
ATOM     10  C   UNL     1     -21.518  23.679 -25.844  1.00  0.00     0.041 C 
ATOM     11  O   UNL     1     -22.490  24.443 -25.606  1.00  0.00    -0.550 OA
ATOM     12  O   UNL     1     -20.604  24.021 -26.833  1.00  0.00    -0.550 OA
ENDBRANCH   9  10
ENDBRANCH   8   9
ENDBRANCH   7   8
ENDBRANCH   6   7
ENDBRANCH   5   6
ENDBRANCH   4   5
ENDBRANCH   3   4
ENDBRANCH   1   3
BRANCH   2  13
ATOM     13  C   UNL     1     -23.269  17.494 -22.138  1.00  0.00     0.027 C 
BRANCH  13  14
ATOM     14  C   UNL     1     -23.934  18.821 -21.750  1.00  0.00     0.004 C 
BRANCH  14  15
ATOM     15  C   UNL     1     -22.901  19.887 -21.347  1.00  0.00     0.000 C 
BRANCH  15  16
ATOM     16  C   UNL     1     -23.416  21.319 -21.562  1.00  0.00     0.000 C 
BRANCH  16  17
ATOM     17  C   UNL     1     -23.347  22.169 -20.281  1.00  0.00    -0.000 C 
BRANCH  17  18
ATOM     18  C   UNL     1     -23.197  23.670 -20.577  1.00  0.00    -0.000 C 
BRANCH  18  19
ATOM     19  C   UNL     1     -22.793  23.947 -22.032  1.00  0.00    -0.003 C 
ATOM     20  C   UNL     1     -21.766  25.073 -22.112  1.00  0.00     0.004 C 
ENDBRANCH  18  19
ENDBRANCH  17  18
ENDBRANCH  16  17
ENDBRANCH  15  16
ENDBRANCH  14  15
ENDBRANCH  13  14
ENDBRANCH   2  13
TORSDOF 15
ENDMDL
