MODEL 1
REMARK VINA RESULT:    -6.760      0.000      0.000
REMARK INTER + INTRA:          -8.217
REMARK INTER:                  -7.946
REMARK INTRA:                  -0.271
REMARK UNBOUND:                -0.271
REMARK SMILES O=c1cc(-c2ccc(O)c(O)c2)oc2cc(O)cc(O)c12
REMARK SMILES IDX 4 1 3 2 2 3 1 4 21 5 19 6 18 7 16 8 15 9 14 10 13 11 5 12
REMARK SMILES IDX 6 13 7 14 8 15 12 16 10 17 9 18 11 20 20 22 17 24
REMARK H PARENT 9 19 11 21 20 23 17 25
REMARK Flexibility Score: inf
ROOT
ATOM      1  C   UNL     1       2.088 -11.728 -32.602  1.00  0.00     0.138 A 
ATOM      2  C   UNL     1       0.823 -11.128 -32.664  1.00  0.00     0.100 A 
ATOM      3  C   UNL     1       0.037 -11.053 -31.513  1.00  0.00     0.197 A 
ATOM      4  O   UNL     1      -1.118 -10.566 -31.614  1.00  0.00    -0.289 OA
ATOM      5  C   UNL     1       0.535 -11.554 -30.287  1.00  0.00     0.107 A 
ATOM      6  C   UNL     1      -0.160 -11.495 -29.043  1.00  0.00     0.134 A 
ATOM      7  C   UNL     1       0.384 -12.129 -27.918  1.00  0.00     0.093 A 
ATOM      8  C   UNL     1       1.623 -12.765 -27.978  1.00  0.00     0.123 A 
ATOM      9  C   UNL     1       2.337 -12.782 -29.177  1.00  0.00     0.094 A 
ATOM     10  C   UNL     1       1.806 -12.189 -30.325  1.00  0.00     0.146 A 
ATOM     11  O   UNL     1       2.510 -12.241 -31.450  1.00  0.00    -0.456 OA
ENDROOT
BRANCH   1  12
ATOM     12  C   UNL     1       2.965 -11.834 -33.796  1.00  0.00     0.021 A 
ATOM     13  C   UNL     1       4.312 -11.427 -33.763  1.00  0.00     0.016 A 
ATOM     14  C   UNL     1       5.117 -11.548 -34.898  1.00  0.00     0.051 A 
ATOM     15  C   UNL     1       4.598 -12.082 -36.080  1.00  0.00     0.157 A 
ATOM     16  C   UNL     1       2.453 -12.384 -34.985  1.00  0.00     0.062 A 
ATOM     17  C   UNL     1       3.260 -12.504 -36.125  1.00  0.00     0.158 A 
BRANCH  15  18
ATOM     18  O   UNL     1       5.427 -12.189 -37.198  1.00  0.00    -0.504 OA
ATOM     19  H   UNL     1       5.545 -13.061 -37.698  1.00  0.00     0.293 HD
ENDBRANCH  15  18
BRANCH  17  20
ATOM     20  O   UNL     1       2.736 -13.042 -37.300  1.00  0.00    -0.504 OA
ATOM     21  H   UNL     1       1.845 -12.736 -37.673  1.00  0.00     0.293 HD
ENDBRANCH  17  20
ENDBRANCH   1  12
BRANCH   6  22
ATOM     22  O   UNL     1      -1.365 -10.812 -28.852  1.00  0.00    -0.507 OA
ATOM     23  H   UNL     1      -1.764 -10.156 -29.505  1.00  0.00     0.293 HD
ENDBRANCH   6  22
BRANCH   8  24
ATOM     24  O   UNL     1       2.140 -13.371 -26.835  1.00  0.00    -0.508 OA
ATOM     25  H   UNL     1       2.383 -14.355 -26.821  1.00  0.00     0.293 HD
ENDBRANCH   8  24
TORSDOF 5
ENDMDL
MODEL 2
REMARK VINA RESULT:    -6.253      2.080      7.117
REMARK INTER + INTRA:          -7.620
REMARK INTER:                  -7.338
REMARK INTRA:                  -0.282
REMARK UNBOUND:                -0.271
REMARK SMILES O=c1cc(-c2ccc(O)c(O)c2)oc2cc(O)cc(O)c12
REMARK SMILES IDX 4 1 3 2 2 3 1 4 21 5 19 6 18 7 16 8 15 9 14 10 13 11 5 12
REMARK SMILES IDX 6 13 7 14 8 15 12 16 10 17 9 18 11 20 20 22 17 24
REMARK H PARENT 9 19 11 21 20 23 17 25
REMARK Flexibility Score: inf
ROOT
ATOM      1  C   UNL     1       3.089 -11.684 -32.160  1.00  0.00     0.138 A 
ATOM      2  C   UNL     1       2.181 -12.399 -32.953  1.00  0.00     0.100 A 
ATOM      3  C   UNL     1       2.384 -12.482 -34.331  1.00  0.00     0.197 A 
ATOM      4  O   UNL     1       1.519 -13.078 -35.024  1.00  0.00    -0.289 OA
ATOM      5  C   UNL     1       3.520 -11.873 -34.913  1.00  0.00     0.107 A 
ATOM      6  C   UNL     1       3.851 -11.927 -36.299  1.00  0.00     0.134 A 
ATOM      7  C   UNL     1       4.940 -11.186 -36.778  1.00  0.00     0.093 A 
ATOM      8  C   UNL     1       5.743 -10.444 -35.914  1.00  0.00     0.123 A 
ATOM      9  C   UNL     1       5.461 -10.428 -34.547  1.00  0.00     0.094 A 
ATOM     10  C   UNL     1       4.362 -11.128 -34.043  1.00  0.00     0.146 A 
ATOM     11  O   UNL     1       4.118 -11.074 -32.739  1.00  0.00    -0.456 OA
ENDROOT
BRANCH   1  12
ATOM     12  C   UNL     1       2.920 -11.565 -30.690  1.00  0.00     0.021 A 
ATOM     13  C   UNL     1       3.235 -10.377 -30.003  1.00  0.00     0.016 A 
ATOM     14  C   UNL     1       3.056 -10.289 -28.620  1.00  0.00     0.051 A 
ATOM     15  C   UNL     1       2.554 -11.376 -27.901  1.00  0.00     0.157 A 
ATOM     16  C   UNL     1       2.402 -12.651 -29.961  1.00  0.00     0.062 A 
ATOM     17  C   UNL     1       2.223 -12.564 -28.573  1.00  0.00     0.158 A 
BRANCH  15  18
ATOM     18  O   UNL     1       2.388 -11.258 -26.520  1.00  0.00    -0.504 OA
ATOM     19  H   UNL     1       2.421 -10.363 -26.049  1.00  0.00     0.293 HD
ENDBRANCH  15  18
BRANCH  17  20
ATOM     20  O   UNL     1       1.718 -13.652 -27.862  1.00  0.00    -0.504 OA
ATOM     21  H   UNL     1       2.329 -14.312 -27.396  1.00  0.00     0.293 HD
ENDBRANCH  17  20
ENDBRANCH   1  12
BRANCH   6  22
ATOM     22  O   UNL     1       3.166 -12.705 -37.237  1.00  0.00    -0.507 OA
ATOM     23  H   UNL     1       3.135 -12.520 -38.227  1.00  0.00     0.293 HD
ENDBRANCH   6  22
BRANCH   8  24
ATOM     24  O   UNL     1       6.827  -9.733 -36.423  1.00  0.00    -0.508 OA
ATOM     25  H   UNL     1       7.742 -10.159 -36.521  1.00  0.00     0.293 HD
ENDBRANCH   8  24
TORSDOF 5
ENDMDL
MODEL 3
REMARK VINA RESULT:    -6.205      1.619      7.242
REMARK INTER + INTRA:          -7.563
REMARK INTER:                  -7.289
REMARK INTRA:                  -0.275
REMARK UNBOUND:                -0.271
REMARK SMILES O=c1cc(-c2ccc(O)c(O)c2)oc2cc(O)cc(O)c12
REMARK SMILES IDX 4 1 3 2 2 3 1 4 21 5 19 6 18 7 16 8 15 9 14 10 13 11 5 12
REMARK SMILES IDX 6 13 7 14 8 15 12 16 10 17 9 18 11 20 20 22 17 24
REMARK H PARENT 9 19 11 21 20 23 17 25
REMARK Flexibility Score: inf
ROOT
ATOM      1  C   UNL     1       2.458 -11.960 -30.565  1.00  0.00     0.138 A 
ATOM      2  C   UNL     1       3.672 -11.263 -30.511  1.00  0.00     0.100 A 
ATOM      3  C   UNL     1       4.390 -11.035 -31.686  1.00  0.00     0.197 A 
ATOM      4  O   UNL     1       5.506 -10.462 -31.598  1.00  0.00    -0.289 OA
ATOM      5  C   UNL     1       3.871 -11.479 -32.925  1.00  0.00     0.107 A 
ATOM      6  C   UNL     1       4.494 -11.266 -34.190  1.00  0.00     0.134 A 
ATOM      7  C   UNL     1       3.946 -11.854 -35.337  1.00  0.00     0.093 A 
ATOM      8  C   UNL     1       2.766 -12.594 -35.274  1.00  0.00     0.123 A 
ATOM      9  C   UNL     1       2.118 -12.763 -34.050  1.00  0.00     0.094 A 
ATOM     10  C   UNL     1       2.658 -12.219 -32.882  1.00  0.00     0.146 A 
ATOM     11  O   UNL     1       2.019 -12.415 -31.735  1.00  0.00    -0.456 OA
ENDROOT
BRANCH   1  12
ATOM     12  C   UNL     1       1.654 -12.230 -29.346  1.00  0.00     0.021 A 
ATOM     13  C   UNL     1       2.157 -13.008 -28.286  1.00  0.00     0.016 A 
ATOM     14  C   UNL     1       1.382 -13.237 -27.145  1.00  0.00     0.051 A 
ATOM     15  C   UNL     1       0.102 -12.690 -27.038  1.00  0.00     0.157 A 
ATOM     16  C   UNL     1       0.369 -11.671 -29.225  1.00  0.00     0.062 A 
ATOM     17  C   UNL     1      -0.409 -11.902 -28.081  1.00  0.00     0.158 A 
BRANCH  15  18
ATOM     18  O   UNL     1      -0.648 -12.937 -25.887  1.00  0.00    -0.504 OA
ATOM     19  H   UNL     1      -1.588 -13.312 -25.928  1.00  0.00     0.293 HD
ENDBRANCH  15  18
BRANCH  17  20
ATOM     20  O   UNL     1      -1.685 -11.349 -27.980  1.00  0.00    -0.504 OA
ATOM     21  H   UNL     1      -2.508 -11.930 -27.865  1.00  0.00     0.293 HD
ENDBRANCH  17  20
ENDBRANCH   1  12
BRANCH   6  22
ATOM     22  O   UNL     1       5.630 -10.472 -34.378  1.00  0.00    -0.507 OA
ATOM     23  H   UNL     1       5.874  -9.673 -33.814  1.00  0.00     0.293 HD
ENDBRANCH   6  22
BRANCH   8  24
ATOM     24  O   UNL     1       2.241 -13.151 -36.438  1.00  0.00    -0.508 OA
ATOM     25  H   UNL     1       1.271 -13.437 -36.498  1.00  0.00     0.293 HD
ENDBRANCH   8  24
TORSDOF 5
ENDMDL
MODEL 4
REMARK VINA RESULT:    -6.094      1.751      2.699
REMARK INTER + INTRA:          -7.434
REMARK INTER:                  -7.116
REMARK INTRA:                  -0.318
REMARK UNBOUND:                -0.271
REMARK SMILES O=c1cc(-c2ccc(O)c(O)c2)oc2cc(O)cc(O)c12
REMARK SMILES IDX 4 1 3 2 2 3 1 4 21 5 19 6 18 7 16 8 15 9 14 10 13 11 5 12
REMARK SMILES IDX 6 13 7 14 8 15 12 16 10 17 9 18 11 20 20 22 17 24
REMARK H PARENT 9 19 11 21 20 23 17 25
REMARK Flexibility Score: inf
ROOT
ATOM      1  C   UNL     1       3.438 -11.368 -31.707  1.00  0.00     0.138 A 
ATOM      2  C   UNL     1       4.364 -10.774 -30.838  1.00  0.00     0.100 A 
ATOM      3  C   UNL     1       4.032 -10.592 -29.495  1.00  0.00     0.197 A 
ATOM      4  O   UNL     1       4.858 -10.000 -28.754  1.00  0.00    -0.289 OA
ATOM      5  C   UNL     1       2.778 -11.038 -29.014  1.00  0.00     0.107 A 
ATOM      6  C   UNL     1       2.347 -10.942 -27.657  1.00  0.00     0.134 A 
ATOM      7  C   UNL     1       1.038 -11.310 -27.321  1.00  0.00     0.093 A 
ATOM      8  C   UNL     1       0.166 -11.825 -28.279  1.00  0.00     0.123 A 
ATOM      9  C   UNL     1       0.594 -11.974 -29.599  1.00  0.00     0.094 A 
ATOM     10  C   UNL     1       1.882 -11.584 -29.973  1.00  0.00     0.146 A 
ATOM     11  O   UNL     1       2.246 -11.727 -31.242  1.00  0.00    -0.456 OA
ENDROOT
BRANCH   1  12
ATOM     12  C   UNL     1       3.741 -11.585 -33.144  1.00  0.00     0.021 A 
ATOM     13  C   UNL     1       4.957 -11.166 -33.716  1.00  0.00     0.016 A 
ATOM     14  C   UNL     1       5.219 -11.394 -35.070  1.00  0.00     0.051 A 
ATOM     15  C   UNL     1       4.282 -12.048 -35.872  1.00  0.00     0.157 A 
ATOM     16  C   UNL     1       2.807 -12.256 -33.955  1.00  0.00     0.062 A 
ATOM     17  C   UNL     1       3.069 -12.483 -35.314  1.00  0.00     0.158 A 
BRANCH  15  18
ATOM     18  O   UNL     1       4.572 -12.259 -37.221  1.00  0.00    -0.504 OA
ATOM     19  H   UNL     1       5.409 -11.891 -37.655  1.00  0.00     0.293 HD
ENDBRANCH  15  18
BRANCH  17  20
ATOM     20  O   UNL     1       2.130 -13.141 -36.108  1.00  0.00    -0.504 OA
ATOM     21  H   UNL     1       2.238 -13.206 -37.113  1.00  0.00     0.293 HD
ENDBRANCH  17  20
ENDBRANCH   1  12
BRANCH   6  22
ATOM     22  O   UNL     1       3.166 -10.520 -26.605  1.00  0.00    -0.507 OA
ATOM     23  H   UNL     1       2.913  -9.824 -25.921  1.00  0.00     0.293 HD
ENDBRANCH   6  22
BRANCH   8  24
ATOM     24  O   UNL     1      -1.124 -12.196 -27.904  1.00  0.00    -0.508 OA
ATOM     25  H   UNL     1      -1.724 -12.725 -28.526  1.00  0.00     0.293 HD
ENDBRANCH   8  24
TORSDOF 5
ENDMDL
MODEL 5
REMARK VINA RESULT:    -6.061      1.835      7.201
REMARK INTER + INTRA:          -7.394
REMARK INTER:                  -7.132
REMARK INTRA:                  -0.262
REMARK UNBOUND:                -0.271
REMARK SMILES O=c1cc(-c2ccc(O)c(O)c2)oc2cc(O)cc(O)c12
REMARK SMILES IDX 4 1 3 2 2 3 1 4 21 5 19 6 18 7 16 8 15 9 14 10 13 11 5 12
REMARK SMILES IDX 6 13 7 14 8 15 12 16 10 17 9 18 11 20 20 22 17 24
REMARK H PARENT 9 19 11 21 20 23 17 25
REMARK Flexibility Score: inf
ROOT
ATOM      1  C   UNL     1       2.915 -11.614 -33.037  1.00  0.00     0.138 A 
ATOM      2  C   UNL     1       2.582 -12.363 -34.173  1.00  0.00     0.100 A 
ATOM      3  C   UNL     1       3.244 -12.121 -35.378  1.00  0.00     0.197 A 
ATOM      4  O   UNL     1       2.881 -12.765 -36.396  1.00  0.00    -0.289 OA
ATOM      5  C   UNL     1       4.267 -11.145 -35.435  1.00  0.00     0.107 A 
ATOM      6  C   UNL     1       5.037 -10.841 -36.596  1.00  0.00     0.134 A 
ATOM      7  C   UNL     1       5.943  -9.774 -36.564  1.00  0.00     0.093 A 
ATOM      8  C   UNL     1       6.151  -9.039 -35.397  1.00  0.00     0.123 A 
ATOM      9  C   UNL     1       5.442  -9.362 -34.239  1.00  0.00     0.094 A 
ATOM     10  C   UNL     1       4.506 -10.399 -34.249  1.00  0.00     0.146 A 
ATOM     11  O   UNL     1       3.841 -10.665 -33.130  1.00  0.00    -0.456 OA
ENDROOT
BRANCH   1  12
ATOM     12  C   UNL     1       2.242 -11.832 -31.731  1.00  0.00     0.021 A 
ATOM     13  C   UNL     1       2.831 -12.609 -30.716  1.00  0.00     0.016 A 
ATOM     14  C   UNL     1       2.180 -12.788 -29.492  1.00  0.00     0.051 A 
ATOM     15  C   UNL     1       0.940 -12.190 -29.256  1.00  0.00     0.157 A 
ATOM     16  C   UNL     1       1.000 -11.221 -31.481  1.00  0.00     0.062 A 
ATOM     17  C   UNL     1       0.346 -11.401 -30.254  1.00  0.00     0.158 A 
BRANCH  15  18
ATOM     18  O   UNL     1       0.314 -12.388 -28.025  1.00  0.00    -0.504 OA
ATOM     19  H   UNL     1      -0.653 -12.680 -27.954  1.00  0.00     0.293 HD
ENDBRANCH  15  18
BRANCH  17  20
ATOM     20  O   UNL     1      -0.890 -10.797 -30.024  1.00  0.00    -0.504 OA
ATOM     21  H   UNL     1      -1.545 -11.170 -29.347  1.00  0.00     0.293 HD
ENDBRANCH  17  20
ENDBRANCH   1  12
BRANCH   6  22
ATOM     22  O   UNL     1       4.971 -11.567 -37.790  1.00  0.00    -0.507 OA
ATOM     23  H   UNL     1       5.555 -12.357 -38.018  1.00  0.00     0.293 HD
ENDBRANCH   6  22
BRANCH   8  24
ATOM     24  O   UNL     1       7.072  -7.994 -35.398  1.00  0.00    -0.508 OA
ATOM     25  H   UNL     1       7.957  -8.067 -34.909  1.00  0.00     0.293 HD
ENDBRANCH   8  24
TORSDOF 5
ENDMDL
MODEL 6
REMARK VINA RESULT:    -6.013      1.979      7.084
REMARK INTER + INTRA:          -7.338
REMARK INTER:                  -7.040
REMARK INTRA:                  -0.298
REMARK UNBOUND:                -0.271
REMARK SMILES O=c1cc(-c2ccc(O)c(O)c2)oc2cc(O)cc(O)c12
REMARK SMILES IDX 4 1 3 2 2 3 1 4 21 5 19 6 18 7 16 8 15 9 14 10 13 11 5 12
REMARK SMILES IDX 6 13 7 14 8 15 12 16 10 17 9 18 11 20 20 22 17 24
REMARK H PARENT 9 19 11 21 20 23 17 25
REMARK Flexibility Score: inf
ROOT
ATOM      1  C   UNL     1       2.464 -11.974 -30.348  1.00  0.00     0.138 A 
ATOM      2  C   UNL     1       1.332 -12.485 -30.996  1.00  0.00     0.100 A 
ATOM      3  C   UNL     1       1.334 -12.621 -32.385  1.00  0.00     0.197 A 
ATOM      4  O   UNL     1       0.281 -13.023 -32.944  1.00  0.00    -0.289 OA
ATOM      5  C   UNL     1       2.489 -12.274 -33.124  1.00  0.00     0.107 A 
ATOM      6  C   UNL     1       2.620 -12.410 -34.538  1.00  0.00     0.134 A 
ATOM      7  C   UNL     1       3.769 -11.924 -35.175  1.00  0.00     0.093 A 
ATOM      8  C   UNL     1       4.816 -11.363 -34.443  1.00  0.00     0.123 A 
ATOM      9  C   UNL     1       4.722 -11.275 -33.053  1.00  0.00     0.094 A 
ATOM     10  C   UNL     1       3.574 -11.719 -32.393  1.00  0.00     0.146 A 
ATOM     11  O   UNL     1       3.517 -11.603 -31.071  1.00  0.00    -0.456 OA
ENDROOT
BRANCH   1  12
ATOM     12  C   UNL     1       2.516 -11.808 -28.873  1.00  0.00     0.021 A 
ATOM     13  C   UNL     1       1.994 -12.782 -28.001  1.00  0.00     0.016 A 
ATOM     14  C   UNL     1       2.066 -12.605 -26.616  1.00  0.00     0.051 A 
ATOM     15  C   UNL     1       2.664 -11.463 -26.079  1.00  0.00     0.157 A 
ATOM     16  C   UNL     1       3.128 -10.667 -28.325  1.00  0.00     0.062 A 
ATOM     17  C   UNL     1       3.199 -10.488 -26.936  1.00  0.00     0.158 A 
BRANCH  15  18
ATOM     18  O   UNL     1       2.719 -11.314 -24.693  1.00  0.00    -0.504 OA
ATOM     19  H   UNL     1       3.595 -11.194 -24.199  1.00  0.00     0.293 HD
ENDBRANCH  15  18
BRANCH  17  20
ATOM     20  O   UNL     1       3.801  -9.347 -26.406  1.00  0.00    -0.504 OA
ATOM     21  H   UNL     1       4.024  -9.273 -25.421  1.00  0.00     0.293 HD
ENDBRANCH  17  20
ENDBRANCH   1  12
BRANCH   6  22
ATOM     22  O   UNL     1       1.670 -13.031 -35.355  1.00  0.00    -0.507 OA
ATOM     23  H   UNL     1       1.671 -14.010 -35.597  1.00  0.00     0.293 HD
ENDBRANCH   6  22
BRANCH   8  24
ATOM     24  O   UNL     1       5.951 -10.905 -35.109  1.00  0.00    -0.508 OA
ATOM     25  H   UNL     1       6.122  -9.915 -35.244  1.00  0.00     0.293 HD
ENDBRANCH   8  24
TORSDOF 5
ENDMDL
MODEL 7
REMARK VINA RESULT:    -5.980      4.512      6.277
REMARK INTER + INTRA:          -7.299
REMARK INTER:                  -7.030
REMARK INTRA:                  -0.270
REMARK UNBOUND:                -0.271
REMARK SMILES O=c1cc(-c2ccc(O)c(O)c2)oc2cc(O)cc(O)c12
REMARK SMILES IDX 4 1 3 2 2 3 1 4 21 5 19 6 18 7 16 8 15 9 14 10 13 11 5 12
REMARK SMILES IDX 6 13 7 14 8 15 12 16 10 17 9 18 11 20 20 22 17 24
REMARK H PARENT 9 19 11 21 20 23 17 25
REMARK Flexibility Score: inf
ROOT
ATOM      1  C   UNL     1       5.598  -8.733 -35.272  1.00  0.00     0.138 A 
ATOM      2  C   UNL     1       5.261 -10.026 -35.693  1.00  0.00     0.100 A 
ATOM      3  C   UNL     1       4.995 -11.013 -34.743  1.00  0.00     0.197 A 
ATOM      4  O   UNL     1       4.756 -12.180 -35.149  1.00  0.00    -0.289 OA
ATOM      5  C   UNL     1       5.035 -10.693 -33.365  1.00  0.00     0.107 A 
ATOM      6  C   UNL     1       4.742 -11.607 -32.310  1.00  0.00     0.134 A 
ATOM      7  C   UNL     1       4.929 -11.208 -30.980  1.00  0.00     0.093 A 
ATOM      8  C   UNL     1       5.340  -9.913 -30.667  1.00  0.00     0.123 A 
ATOM      9  C   UNL     1       5.577  -8.994 -31.690  1.00  0.00     0.094 A 
ATOM     10  C   UNL     1       5.433  -9.371 -33.027  1.00  0.00     0.146 A 
ATOM     11  O   UNL     1       5.683  -8.472 -33.972  1.00  0.00    -0.456 OA
ENDROOT
BRANCH   1  12
ATOM     12  C   UNL     1       5.891  -7.645 -36.241  1.00  0.00     0.021 A 
ATOM     13  C   UNL     1       7.029  -7.678 -37.068  1.00  0.00     0.016 A 
ATOM     14  C   UNL     1       7.274  -6.646 -37.978  1.00  0.00     0.051 A 
ATOM     15  C   UNL     1       6.387  -5.572 -38.086  1.00  0.00     0.157 A 
ATOM     16  C   UNL     1       4.995  -6.568 -36.364  1.00  0.00     0.062 A 
ATOM     17  C   UNL     1       5.240  -5.531 -37.276  1.00  0.00     0.158 A 
BRANCH  15  18
ATOM     18  O   UNL     1       6.659  -4.556 -39.003  1.00  0.00    -0.504 OA
ATOM     19  H   UNL     1       7.602  -4.343 -39.306  1.00  0.00     0.293 HD
ENDBRANCH  15  18
BRANCH  17  20
ATOM     20  O   UNL     1       4.349  -4.465 -37.381  1.00  0.00    -0.504 OA
ATOM     21  H   UNL     1       4.065  -4.096 -38.281  1.00  0.00     0.293 HD
ENDBRANCH  17  20
ENDBRANCH   1  12
BRANCH   6  22
ATOM     22  O   UNL     1       4.244 -12.898 -32.509  1.00  0.00    -0.507 OA
ATOM     23  H   UNL     1       4.399 -13.454 -33.336  1.00  0.00     0.293 HD
ENDBRANCH   6  22
BRANCH   8  24
ATOM     24  O   UNL     1       5.500  -9.547 -29.332  1.00  0.00    -0.508 OA
ATOM     25  H   UNL     1       5.210  -8.636 -28.994  1.00  0.00     0.293 HD
ENDBRANCH   8  24
TORSDOF 5
ENDMDL
MODEL 8
REMARK VINA RESULT:    -5.971      3.079      4.927
REMARK INTER + INTRA:          -7.289
REMARK INTER:                  -6.974
REMARK INTRA:                  -0.315
REMARK UNBOUND:                -0.271
REMARK SMILES O=c1cc(-c2ccc(O)c(O)c2)oc2cc(O)cc(O)c12
REMARK SMILES IDX 4 1 3 2 2 3 1 4 21 5 19 6 18 7 16 8 15 9 14 10 13 11 5 12
REMARK SMILES IDX 6 13 7 14 8 15 12 16 10 17 9 18 11 20 20 22 17 24
REMARK H PARENT 9 19 11 21 20 23 17 25
REMARK Flexibility Score: inf
ROOT
ATOM      1  C   UNL     1       4.426 -10.219 -34.507  1.00  0.00     0.138 A 
ATOM      2  C   UNL     1       5.116 -11.251 -33.856  1.00  0.00     0.100 A 
ATOM      3  C   UNL     1       4.421 -12.127 -33.021  1.00  0.00     0.197 A 
ATOM      4  O   UNL     1       5.077 -13.003 -32.401  1.00  0.00    -0.289 OA
ATOM      5  C   UNL     1       3.021 -11.987 -32.865  1.00  0.00     0.107 A 
ATOM      6  C   UNL     1       2.203 -12.846 -32.073  1.00  0.00     0.134 A 
ATOM      7  C   UNL     1       0.847 -12.540 -31.899  1.00  0.00     0.093 A 
ATOM      8  C   UNL     1       0.268 -11.443 -32.537  1.00  0.00     0.123 A 
ATOM      9  C   UNL     1       1.048 -10.627 -33.357  1.00  0.00     0.094 A 
ATOM     10  C   UNL     1       2.411 -10.886 -33.523  1.00  0.00     0.146 A 
ATOM     11  O   UNL     1       3.122 -10.076 -34.300  1.00  0.00    -0.456 OA
ENDROOT
BRANCH   1  12
ATOM     12  C   UNL     1       5.118  -9.260 -35.406  1.00  0.00     0.021 A 
ATOM     13  C   UNL     1       6.394  -9.530 -35.935  1.00  0.00     0.016 A 
ATOM     14  C   UNL     1       7.016  -8.614 -36.788  1.00  0.00     0.051 A 
ATOM     15  C   UNL     1       6.376  -7.421 -37.133  1.00  0.00     0.157 A 
ATOM     16  C   UNL     1       4.473  -8.063 -35.769  1.00  0.00     0.062 A 
ATOM     17  C   UNL     1       5.098  -7.143 -36.623  1.00  0.00     0.158 A 
BRANCH  15  18
ATOM     18  O   UNL     1       7.024  -6.526 -37.985  1.00  0.00    -0.504 OA
ATOM     19  H   UNL     1       7.809  -6.803 -38.561  1.00  0.00     0.293 HD
ENDBRANCH  15  18
BRANCH  17  20
ATOM     20  O   UNL     1       4.452  -5.956 -36.966  1.00  0.00    -0.504 OA
ATOM     21  H   UNL     1       4.444  -5.612 -37.919  1.00  0.00     0.293 HD
ENDBRANCH  17  20
ENDBRANCH   1  12
BRANCH   6  22
ATOM     22  O   UNL     1       2.661 -14.017 -31.460  1.00  0.00    -0.507 OA
ATOM     23  H   UNL     1       2.514 -14.949 -31.816  1.00  0.00     0.293 HD
ENDBRANCH   6  22
BRANCH   8  24
ATOM     24  O   UNL     1      -1.087 -11.179 -32.354  1.00  0.00    -0.508 OA
ATOM     25  H   UNL     1      -1.626 -11.647 -31.634  1.00  0.00     0.293 HD
ENDBRANCH   8  24
TORSDOF 5
ENDMDL
MODEL 9
REMARK VINA RESULT:    -5.841      2.208      7.515
REMARK INTER + INTRA:          -7.136
REMARK INTER:                  -6.845
REMARK INTRA:                  -0.291
REMARK UNBOUND:                -0.271
REMARK SMILES O=c1cc(-c2ccc(O)c(O)c2)oc2cc(O)cc(O)c12
REMARK SMILES IDX 4 1 3 2 2 3 1 4 21 5 19 6 18 7 16 8 15 9 14 10 13 11 5 12
REMARK SMILES IDX 6 13 7 14 8 15 12 16 10 17 9 18 11 20 20 22 17 24
REMARK H PARENT 9 19 11 21 20 23 17 25
REMARK Flexibility Score: inf
ROOT
ATOM      1  C   UNL     1       3.835 -11.013 -31.081  1.00  0.00     0.138 A 
ATOM      2  C   UNL     1       4.844 -10.043 -31.139  1.00  0.00     0.100 A 
ATOM      3  C   UNL     1       5.412  -9.710 -32.369  1.00  0.00     0.197 A 
ATOM      4  O   UNL     1       6.359  -8.882 -32.381  1.00  0.00    -0.289 OA
ATOM      5  C   UNL     1       4.943 -10.329 -33.552  1.00  0.00     0.107 A 
ATOM      6  C   UNL     1       5.418 -10.039 -34.865  1.00  0.00     0.134 A 
ATOM      7  C   UNL     1       4.960 -10.799 -35.948  1.00  0.00     0.093 A 
ATOM      8  C   UNL     1       4.002 -11.797 -35.775  1.00  0.00     0.123 A 
ATOM      9  C   UNL     1       3.489 -12.053 -34.502  1.00  0.00     0.094 A 
ATOM     10  C   UNL     1       3.951 -11.335 -33.396  1.00  0.00     0.146 A 
ATOM     11  O   UNL     1       3.450 -11.620 -32.200  1.00  0.00    -0.456 OA
ENDROOT
BRANCH   1  12
ATOM     12  C   UNL     1       3.196 -11.405 -29.799  1.00  0.00     0.021 A 
ATOM     13  C   UNL     1       2.490 -12.614 -29.663  1.00  0.00     0.016 A 
ATOM     14  C   UNL     1       1.908 -12.963 -28.441  1.00  0.00     0.051 A 
ATOM     15  C   UNL     1       2.028 -12.119 -27.334  1.00  0.00     0.157 A 
ATOM     16  C   UNL     1       3.325 -10.566 -28.677  1.00  0.00     0.062 A 
ATOM     17  C   UNL     1       2.740 -10.914 -27.450  1.00  0.00     0.158 A 
BRANCH  15  18
ATOM     18  O   UNL     1       1.435 -12.493 -26.128  1.00  0.00    -0.504 OA
ATOM     19  H   UNL     1       0.812 -11.877 -25.621  1.00  0.00     0.293 HD
ENDBRANCH  15  18
BRANCH  17  20
ATOM     20  O   UNL     1       2.867 -10.069 -26.349  1.00  0.00    -0.504 OA
ATOM     21  H   UNL     1       3.677 -10.107 -25.741  1.00  0.00     0.293 HD
ENDBRANCH  17  20
ENDBRANCH   1  12
BRANCH   6  22
ATOM     22  O   UNL     1       6.313  -9.006 -35.162  1.00  0.00    -0.507 OA
ATOM     23  H   UNL     1       6.123  -8.242 -35.792  1.00  0.00     0.293 HD
ENDBRANCH   6  22
BRANCH   8  24
ATOM     24  O   UNL     1       3.558 -12.523 -36.878  1.00  0.00    -0.508 OA
ATOM     25  H   UNL     1       3.736 -13.517 -36.964  1.00  0.00     0.293 HD
ENDBRANCH   8  24
TORSDOF 5
ENDMDL
