MODEL 1
REMARK VINA RESULT:    -5.041      0.000      0.000
REMARK INTER + INTRA:         -14.010
REMARK INTER:                 -11.525
REMARK INTRA:                  -2.485
REMARK UNBOUND:                -2.485
REMARK SMILES CCCCCCCCCCCCCCCCCCCCCCCC(=O)[O-]
REMARK SMILES IDX 13 1 14 2 15 3 16 4 17 5 18 6 19 7 20 8 21 9 22 10 23 11
REMARK SMILES IDX 24 12 25 13 26 14 12 15 11 16 10 17 9 18 8 19 7 20 6 21 5 22
REMARK SMILES IDX 4 23 3 24 2 25 1 26
REMARK H PARENT
REMARK Flexibility Score: inf
ROOT
ATOM      1  C   UNL     1     -25.921 -15.495  17.523  1.00  0.00     0.000 C 
ENDROOT
BRANCH   1   2
ATOM      2  C   UNL     1     -26.334 -14.074  17.946  1.00  0.00     0.000 C 
BRANCH   2   3
ATOM      3  C   UNL     1     -25.178 -13.057  17.999  1.00  0.00     0.000 C 
BRANCH   3   4
ATOM      4  C   UNL     1     -25.485 -11.731  17.265  1.00  0.00     0.000 C 
BRANCH   4   5
ATOM      5  C   UNL     1     -26.901 -11.665  16.668  1.00  0.00     0.000 C 
BRANCH   5   6
ATOM      6  C   UNL     1     -27.817 -10.701  17.442  1.00  0.00     0.000 C 
BRANCH   6   7
ATOM      7  C   UNL     1     -29.283 -11.167  17.465  1.00  0.00     0.000 C 
BRANCH   7   8
ATOM      8  C   UNL     1     -29.531 -12.462  16.660  1.00  0.00     0.000 C 
BRANCH   8   9
ATOM      9  C   UNL     1     -30.114 -13.584  17.535  1.00  0.00     0.000 C 
BRANCH   9  10
ATOM     10  C   UNL     1     -31.655 -13.619  17.521  1.00  0.00     0.006 C 
BRANCH  10  11
ATOM     11  C   UNL     1     -32.241 -14.978  17.104  1.00  0.00     0.053 C 
BRANCH  11  12
ATOM     12  C   UNL     1     -33.106 -14.884  15.885  1.00  0.00     0.041 C 
ATOM     13  O   UNL     1     -33.325 -13.767  15.347  1.00  0.00    -0.550 OA
ATOM     14  O   UNL     1     -33.669 -16.032  15.339  1.00  0.00    -0.550 OA
ENDBRANCH  11  12
ENDBRANCH  10  11
ENDBRANCH   9  10
ENDBRANCH   8   9
ENDBRANCH   7   8
ENDBRANCH   6   7
ENDBRANCH   5   6
ENDBRANCH   4   5
ENDBRANCH   3   4
ENDBRANCH   2   3
ENDBRANCH   1   2
BRANCH   1  15
ATOM     15  C   UNL     1     -26.827 -16.626  18.054  1.00  0.00     0.000 C 
BRANCH  15  16
ATOM     16  C   UNL     1     -28.268 -16.623  17.506  1.00  0.00     0.000 C 
BRANCH  16  17
ATOM     17  C   UNL     1     -28.405 -17.045  16.030  1.00  0.00     0.000 C 
BRANCH  17  18
ATOM     18  C   UNL     1     -29.848 -17.048  15.488  1.00  0.00    -0.000 C 
BRANCH  18  19
ATOM     19  C   UNL     1     -30.018 -16.436  14.083  1.00  0.00    -0.000 C 
BRANCH  19  20
ATOM     20  C   UNL     1     -29.844 -17.425  12.913  1.00  0.00    -0.000 C 
BRANCH  20  21
ATOM     21  C   UNL     1     -28.408 -17.560  12.378  1.00  0.00    -0.000 C 
BRANCH  21  22
ATOM     22  C   UNL     1     -27.739 -18.883  12.792  1.00  0.00    -0.000 C 
BRANCH  22  23
ATOM     23  C   UNL     1     -26.698 -19.365  11.769  1.00  0.00    -0.000 C 
BRANCH  23  24
ATOM     24  C   UNL     1     -27.063 -18.977  10.325  1.00  0.00    -0.000 C 
BRANCH  24  25
ATOM     25  C   UNL     1     -27.516 -20.183   9.488  1.00  0.00    -0.003 C 
ATOM     26  C   UNL     1     -27.353 -21.511  10.229  1.00  0.00     0.004 C 
ENDBRANCH  24  25
ENDBRANCH  23  24
ENDBRANCH  22  23
ENDBRANCH  21  22
ENDBRANCH  20  21
ENDBRANCH  19  20
ENDBRANCH  18  19
ENDBRANCH  17  18
ENDBRANCH  16  17
ENDBRANCH  15  16
ENDBRANCH   1  15
TORSDOF 22
ENDMDL
MODEL 2
REMARK VINA RESULT:    -4.958      2.616      7.380
REMARK INTER + INTRA:         -13.819
REMARK INTER:                 -10.488
REMARK INTRA:                  -3.331
REMARK UNBOUND:                -2.485
REMARK SMILES CCCCCCCCCCCCCCCCCCCCCCCC(=O)[O-]
REMARK SMILES IDX 13 1 14 2 15 3 16 4 17 5 18 6 19 7 20 8 21 9 22 10 23 11
REMARK SMILES IDX 24 12 25 13 26 14 12 15 11 16 10 17 9 18 8 19 7 20 6 21 5 22
REMARK SMILES IDX 4 23 3 24 2 25 1 26
REMARK H PARENT
REMARK Flexibility Score: inf
ROOT
ATOM      1  C   UNL     1     -26.114 -15.030  17.478  1.00  0.00     0.000 C 
ENDROOT
BRANCH   1   2
ATOM      2  C   UNL     1     -27.413 -15.804  17.764  1.00  0.00     0.000 C 
BRANCH   2   3
ATOM      3  C   UNL     1     -28.305 -16.041  16.531  1.00  0.00     0.000 C 
BRANCH   3   4
ATOM      4  C   UNL     1     -29.383 -17.130  16.745  1.00  0.00     0.000 C 
BRANCH   4   5
ATOM      5  C   UNL     1     -30.272 -17.375  15.514  1.00  0.00     0.000 C 
BRANCH   5   6
ATOM      6  C   UNL     1     -29.980 -16.382  14.375  1.00  0.00     0.000 C 
BRANCH   6   7
ATOM      7  C   UNL     1     -29.472 -17.076  13.100  1.00  0.00     0.000 C 
BRANCH   7   8
ATOM      8  C   UNL     1     -28.907 -18.492  13.352  1.00  0.00     0.000 C 
BRANCH   8   9
ATOM      9  C   UNL     1     -27.369 -18.500  13.394  1.00  0.00     0.000 C 
BRANCH   9  10
ATOM     10  C   UNL     1     -26.753 -19.699  12.647  1.00  0.00     0.006 C 
BRANCH  10  11
ATOM     11  C   UNL     1     -26.154 -19.337  11.277  1.00  0.00     0.053 C 
BRANCH  11  12
ATOM     12  C   UNL     1     -27.181 -19.301  10.189  1.00  0.00     0.041 C 
ATOM     13  O   UNL     1     -27.538 -20.365   9.618  1.00  0.00    -0.550 OA
ATOM     14  O   UNL     1     -27.751 -18.092   9.807  1.00  0.00    -0.550 OA
ENDBRANCH  11  12
ENDBRANCH  10  11
ENDBRANCH   9  10
ENDBRANCH   8   9
ENDBRANCH   7   8
ENDBRANCH   6   7
ENDBRANCH   5   6
ENDBRANCH   4   5
ENDBRANCH   3   4
ENDBRANCH   2   3
ENDBRANCH   1   2
BRANCH   1  15
ATOM     15  C   UNL     1     -26.036 -13.625  18.113  1.00  0.00     0.000 C 
BRANCH  15  16
ATOM     16  C   UNL     1     -25.459 -12.524  17.202  1.00  0.00     0.000 C 
BRANCH  16  17
ATOM     17  C   UNL     1     -26.494 -11.523  16.653  1.00  0.00     0.000 C 
BRANCH  17  18
ATOM     18  C   UNL     1     -27.524 -11.022  17.685  1.00  0.00    -0.000 C 
BRANCH  18  19
ATOM     19  C   UNL     1     -28.986 -11.408  17.387  1.00  0.00    -0.000 C 
BRANCH  19  20
ATOM     20  C   UNL     1     -29.165 -12.593  16.416  1.00  0.00    -0.000 C 
BRANCH  20  21
ATOM     21  C   UNL     1     -30.613 -13.086  16.246  1.00  0.00    -0.000 C 
BRANCH  21  22
ATOM     22  C   UNL     1     -31.159 -13.780  17.507  1.00  0.00    -0.000 C 
BRANCH  22  23
ATOM     23  C   UNL     1     -32.285 -14.778  17.192  1.00  0.00    -0.000 C 
BRANCH  23  24
ATOM     24  C   UNL     1     -32.874 -14.582  15.785  1.00  0.00    -0.000 C 
BRANCH  24  25
ATOM     25  C   UNL     1     -34.047 -15.533  15.499  1.00  0.00    -0.003 C 
ATOM     26  C   UNL     1     -34.139 -16.676  16.510  1.00  0.00     0.004 C 
ENDBRANCH  24  25
ENDBRANCH  23  24
ENDBRANCH  22  23
ENDBRANCH  21  22
ENDBRANCH  20  21
ENDBRANCH  19  20
ENDBRANCH  18  19
ENDBRANCH  17  18
ENDBRANCH  16  17
ENDBRANCH  15  16
ENDBRANCH   1  15
TORSDOF 22
ENDMDL
MODEL 3
REMARK VINA RESULT:    -4.936      0.931      2.124
REMARK INTER + INTRA:         -13.769
REMARK INTER:                 -10.939
REMARK INTRA:                  -2.831
REMARK UNBOUND:                -2.485
REMARK SMILES CCCCCCCCCCCCCCCCCCCCCCCC(=O)[O-]
REMARK SMILES IDX 13 1 14 2 15 3 16 4 17 5 18 6 19 7 20 8 21 9 22 10 23 11
REMARK SMILES IDX 24 12 25 13 26 14 12 15 11 16 10 17 9 18 8 19 7 20 6 21 5 22
REMARK SMILES IDX 4 23 3 24 2 25 1 26
REMARK H PARENT
REMARK Flexibility Score: inf
ROOT
ATOM      1  C   UNL     1     -25.664 -13.576  17.369  1.00  0.00     0.000 C 
ENDROOT
BRANCH   1   2
ATOM      2  C   UNL     1     -25.750 -12.045  17.497  1.00  0.00     0.000 C 
BRANCH   2   3
ATOM      3  C   UNL     1     -26.854 -11.388  16.646  1.00  0.00     0.000 C 
BRANCH   3   4
ATOM      4  C   UNL     1     -27.878 -10.580  17.476  1.00  0.00     0.000 C 
BRANCH   4   5
ATOM      5  C   UNL     1     -29.238 -11.281  17.637  1.00  0.00     0.000 C 
BRANCH   5   6
ATOM      6  C   UNL     1     -29.603 -12.137  16.412  1.00  0.00     0.000 C 
BRANCH   6   7
ATOM      7  C   UNL     1     -29.999 -13.575  16.791  1.00  0.00     0.000 C 
BRANCH   7   8
ATOM      8  C   UNL     1     -31.272 -13.654  17.664  1.00  0.00     0.000 C 
BRANCH   8   9
ATOM      9  C   UNL     1     -32.517 -14.014  16.837  1.00  0.00     0.000 C 
BRANCH   9  10
ATOM     10  C   UNL     1     -32.178 -14.771  15.537  1.00  0.00     0.006 C 
BRANCH  10  11
ATOM     11  C   UNL     1     -32.620 -16.244  15.543  1.00  0.00     0.053 C 
BRANCH  11  12
ATOM     12  C   UNL     1     -34.062 -16.413  15.909  1.00  0.00     0.041 C 
ATOM     13  O   UNL     1     -34.389 -17.147  16.878  1.00  0.00    -0.550 OA
ATOM     14  O   UNL     1     -35.046 -15.755  15.181  1.00  0.00    -0.550 OA
ENDBRANCH  11  12
ENDBRANCH  10  11
ENDBRANCH   9  10
ENDBRANCH   8   9
ENDBRANCH   7   8
ENDBRANCH   6   7
ENDBRANCH   5   6
ENDBRANCH   4   5
ENDBRANCH   3   4
ENDBRANCH   2   3
ENDBRANCH   1   2
BRANCH   1  15
ATOM     15  C   UNL     1     -26.846 -14.352  17.990  1.00  0.00     0.000 C 
BRANCH  15  16
ATOM     16  C   UNL     1     -27.009 -15.803  17.496  1.00  0.00     0.000 C 
BRANCH  16  17
ATOM     17  C   UNL     1     -28.214 -16.561  18.088  1.00  0.00     0.000 C 
BRANCH  17  18
ATOM     18  C   UNL     1     -29.079 -17.313  17.056  1.00  0.00    -0.000 C 
BRANCH  18  19
ATOM     19  C   UNL     1     -28.963 -16.795  15.608  1.00  0.00    -0.000 C 
BRANCH  19  20
ATOM     20  C   UNL     1     -29.173 -17.861  14.514  1.00  0.00    -0.000 C 
BRANCH  20  21
ATOM     21  C   UNL     1     -29.519 -17.309  13.119  1.00  0.00    -0.000 C 
BRANCH  21  22
ATOM     22  C   UNL     1     -28.389 -17.523  12.097  1.00  0.00    -0.000 C 
BRANCH  22  23
ATOM     23  C   UNL     1     -27.303 -18.483  12.608  1.00  0.00    -0.000 C 
BRANCH  23  24
ATOM     24  C   UNL     1     -26.575 -19.215  11.467  1.00  0.00    -0.000 C 
BRANCH  24  25
ATOM     25  C   UNL     1     -27.358 -19.173  10.146  1.00  0.00    -0.003 C 
ATOM     26  C   UNL     1     -27.370 -20.520   9.423  1.00  0.00     0.004 C 
ENDBRANCH  24  25
ENDBRANCH  23  24
ENDBRANCH  22  23
ENDBRANCH  21  22
ENDBRANCH  20  21
ENDBRANCH  19  20
ENDBRANCH  18  19
ENDBRANCH  17  18
ENDBRANCH  16  17
ENDBRANCH  15  16
ENDBRANCH   1  15
TORSDOF 22
ENDMDL
MODEL 4
REMARK VINA RESULT:    -4.881      1.495      2.331
REMARK INTER + INTRA:         -13.643
REMARK INTER:                  -9.992
REMARK INTRA:                  -3.651
REMARK UNBOUND:                -2.485
REMARK SMILES CCCCCCCCCCCCCCCCCCCCCCCC(=O)[O-]
REMARK SMILES IDX 13 1 14 2 15 3 16 4 17 5 18 6 19 7 20 8 21 9 22 10 23 11
REMARK SMILES IDX 24 12 25 13 26 14 12 15 11 16 10 17 9 18 8 19 7 20 6 21 5 22
REMARK SMILES IDX 4 23 3 24 2 25 1 26
REMARK H PARENT
REMARK Flexibility Score: inf
ROOT
ATOM      1  C   UNL     1     -26.417 -15.326  17.425  1.00  0.00     0.000 C 
ENDROOT
BRANCH   1   2
ATOM      2  C   UNL     1     -26.510 -13.951  18.111  1.00  0.00     0.000 C 
BRANCH   2   3
ATOM      3  C   UNL     1     -25.804 -12.807  17.359  1.00  0.00     0.000 C 
BRANCH   3   4
ATOM      4  C   UNL     1     -26.780 -11.797  16.710  1.00  0.00     0.000 C 
BRANCH   4   5
ATOM      5  C   UNL     1     -27.691 -11.078  17.720  1.00  0.00     0.000 C 
BRANCH   5   6
ATOM      6  C   UNL     1     -29.161 -11.057  17.269  1.00  0.00     0.000 C 
BRANCH   6   7
ATOM      7  C   UNL     1     -29.600 -12.380  16.617  1.00  0.00     0.000 C 
BRANCH   7   8
ATOM      8  C   UNL     1     -30.229 -13.379  17.613  1.00  0.00     0.000 C 
BRANCH   8   9
ATOM      9  C   UNL     1     -31.242 -14.313  16.931  1.00  0.00     0.000 C 
BRANCH   9  10
ATOM     10  C   UNL     1     -32.441 -14.664  17.835  1.00  0.00     0.006 C 
BRANCH  10  11
ATOM     11  C   UNL     1     -33.801 -14.241  17.255  1.00  0.00     0.053 C 
BRANCH  11  12
ATOM     12  C   UNL     1     -33.923 -14.540  15.793  1.00  0.00     0.041 C 
ATOM     13  O   UNL     1     -33.747 -13.629  14.942  1.00  0.00    -0.550 OA
ATOM     14  O   UNL     1     -34.227 -15.828  15.369  1.00  0.00    -0.550 OA
ENDBRANCH  11  12
ENDBRANCH  10  11
ENDBRANCH   9  10
ENDBRANCH   8   9
ENDBRANCH   7   8
ENDBRANCH   6   7
ENDBRANCH   5   6
ENDBRANCH   4   5
ENDBRANCH   3   4
ENDBRANCH   2   3
ENDBRANCH   1   2
BRANCH   1  15
ATOM     15  C   UNL     1     -27.771 -15.957  17.037  1.00  0.00     0.000 C 
BRANCH  15  16
ATOM     16  C   UNL     1     -28.234 -17.121  17.936  1.00  0.00     0.000 C 
BRANCH  16  17
ATOM     17  C   UNL     1     -29.248 -18.083  17.286  1.00  0.00     0.000 C 
BRANCH  17  18
ATOM     18  C   UNL     1     -30.719 -17.832  17.672  1.00  0.00    -0.000 C 
BRANCH  18  19
ATOM     19  C   UNL     1     -31.745 -18.126  16.560  1.00  0.00    -0.000 C 
BRANCH  19  20
ATOM     20  C   UNL     1     -31.158 -18.216  15.136  1.00  0.00    -0.000 C 
BRANCH  20  21
ATOM     21  C   UNL     1     -31.061 -16.877  14.383  1.00  0.00    -0.000 C 
BRANCH  21  22
ATOM     22  C   UNL     1     -29.646 -16.598  13.844  1.00  0.00    -0.000 C 
BRANCH  22  23
ATOM     23  C   UNL     1     -29.352 -17.353  12.538  1.00  0.00    -0.000 C 
BRANCH  23  24
ATOM     24  C   UNL     1     -28.258 -18.422  12.705  1.00  0.00    -0.000 C 
BRANCH  24  25
ATOM     25  C   UNL     1     -27.724 -18.497  14.144  1.00  0.00    -0.003 C 
ATOM     26  C   UNL     1     -26.228 -18.811  14.202  1.00  0.00     0.004 C 
ENDBRANCH  24  25
ENDBRANCH  23  24
ENDBRANCH  22  23
ENDBRANCH  21  22
ENDBRANCH  20  21
ENDBRANCH  19  20
ENDBRANCH  18  19
ENDBRANCH  17  18
ENDBRANCH  16  17
ENDBRANCH  15  16
ENDBRANCH   1  15
TORSDOF 22
ENDMDL
MODEL 5
REMARK VINA RESULT:    -4.880      2.516      7.179
REMARK INTER + INTRA:         -13.641
REMARK INTER:                 -10.394
REMARK INTRA:                  -3.247
REMARK UNBOUND:                -2.485
REMARK SMILES CCCCCCCCCCCCCCCCCCCCCCCC(=O)[O-]
REMARK SMILES IDX 13 1 14 2 15 3 16 4 17 5 18 6 19 7 20 8 21 9 22 10 23 11
REMARK SMILES IDX 24 12 25 13 26 14 12 15 11 16 10 17 9 18 8 19 7 20 6 21 5 22
REMARK SMILES IDX 4 23 3 24 2 25 1 26
REMARK H PARENT
REMARK Flexibility Score: inf
ROOT
ATOM      1  C   UNL     1     -27.743 -15.427  17.729  1.00  0.00     0.000 C 
ENDROOT
BRANCH   1   2
ATOM      2  C   UNL     1     -28.218 -16.567  16.810  1.00  0.00     0.000 C 
BRANCH   2   3
ATOM      3  C   UNL     1     -27.607 -17.945  17.126  1.00  0.00     0.000 C 
BRANCH   3   4
ATOM      4  C   UNL     1     -28.563 -19.127  16.839  1.00  0.00     0.000 C 
BRANCH   4   5
ATOM      5  C   UNL     1     -29.960 -18.961  17.461  1.00  0.00     0.000 C 
BRANCH   5   6
ATOM      6  C   UNL     1     -31.083 -19.102  16.420  1.00  0.00     0.000 C 
BRANCH   6   7
ATOM      7  C   UNL     1     -32.001 -17.869  16.368  1.00  0.00     0.000 C 
BRANCH   7   8
ATOM      8  C   UNL     1     -32.065 -17.206  14.974  1.00  0.00     0.000 C 
BRANCH   8   9
ATOM      9  C   UNL     1     -31.260 -17.990  13.925  1.00  0.00     0.000 C 
BRANCH   9  10
ATOM     10  C   UNL     1     -30.000 -17.239  13.448  1.00  0.00     0.006 C 
BRANCH  10  11
ATOM     11  C   UNL     1     -28.736 -18.114  13.401  1.00  0.00     0.053 C 
BRANCH  11  12
ATOM     12  C   UNL     1     -27.989 -17.980  12.110  1.00  0.00     0.041 C 
ATOM     13  O   UNL     1     -26.852 -18.502  11.978  1.00  0.00    -0.550 OA
ATOM     14  O   UNL     1     -28.553 -17.281  11.049  1.00  0.00    -0.550 OA
ENDBRANCH  11  12
ENDBRANCH  10  11
ENDBRANCH   9  10
ENDBRANCH   8   9
ENDBRANCH   7   8
ENDBRANCH   6   7
ENDBRANCH   5   6
ENDBRANCH   4   5
ENDBRANCH   3   4
ENDBRANCH   2   3
ENDBRANCH   1   2
BRANCH   1  15
ATOM     15  C   UNL     1     -26.274 -14.997  17.532  1.00  0.00     0.000 C 
BRANCH  15  16
ATOM     16  C   UNL     1     -25.909 -13.621  18.124  1.00  0.00     0.000 C 
BRANCH  16  17
ATOM     17  C   UNL     1     -25.485 -12.559  17.091  1.00  0.00     0.000 C 
BRANCH  17  18
ATOM     18  C   UNL     1     -26.603 -11.587  16.664  1.00  0.00    -0.000 C 
BRANCH  18  19
ATOM     19  C   UNL     1     -27.526 -11.114  17.804  1.00  0.00    -0.000 C 
BRANCH  19  20
ATOM     20  C   UNL     1     -29.018 -10.993  17.430  1.00  0.00    -0.000 C 
BRANCH  20  21
ATOM     21  C   UNL     1     -29.828 -12.298  17.537  1.00  0.00    -0.000 C 
BRANCH  21  22
ATOM     22  C   UNL     1     -30.001 -13.005  16.182  1.00  0.00    -0.000 C 
BRANCH  22  23
ATOM     23  C   UNL     1     -30.989 -14.181  16.250  1.00  0.00    -0.000 C 
BRANCH  23  24
ATOM     24  C   UNL     1     -32.428 -13.729  16.553  1.00  0.00    -0.000 C 
BRANCH  24  25
ATOM     25  C   UNL     1     -33.395 -14.028  15.398  1.00  0.00    -0.003 C 
ATOM     26  C   UNL     1     -34.721 -13.278  15.528  1.00  0.00     0.004 C 
ENDBRANCH  24  25
ENDBRANCH  23  24
ENDBRANCH  22  23
ENDBRANCH  21  22
ENDBRANCH  20  21
ENDBRANCH  19  20
ENDBRANCH  18  19
ENDBRANCH  17  18
ENDBRANCH  16  17
ENDBRANCH  15  16
ENDBRANCH   1  15
TORSDOF 22
ENDMDL
MODEL 6
REMARK VINA RESULT:    -4.767      2.600      6.799
REMARK INTER + INTRA:         -13.383
REMARK INTER:                 -10.582
REMARK INTRA:                  -2.801
REMARK UNBOUND:                -2.485
REMARK SMILES CCCCCCCCCCCCCCCCCCCCCCCC(=O)[O-]
REMARK SMILES IDX 13 1 14 2 15 3 16 4 17 5 18 6 19 7 20 8 21 9 22 10 23 11
REMARK SMILES IDX 24 12 25 13 26 14 12 15 11 16 10 17 9 18 8 19 7 20 6 21 5 22
REMARK SMILES IDX 4 23 3 24 2 25 1 26
REMARK H PARENT
REMARK Flexibility Score: inf
ROOT
ATOM      1  C   UNL     1     -28.075 -10.967  17.394  1.00  0.00     0.000 C 
ENDROOT
BRANCH   1   2
ATOM      2  C   UNL     1     -26.988 -11.736  16.622  1.00  0.00     0.000 C 
BRANCH   2   3
ATOM      3  C   UNL     1     -25.634 -11.840  17.350  1.00  0.00     0.000 C 
BRANCH   3   4
ATOM      4  C   UNL     1     -25.386 -13.220  18.003  1.00  0.00     0.000 C 
BRANCH   4   5
ATOM      5  C   UNL     1     -26.518 -14.233  17.765  1.00  0.00     0.000 C 
BRANCH   5   6
ATOM      6  C   UNL     1     -25.993 -15.668  17.591  1.00  0.00     0.000 C 
BRANCH   6   7
ATOM      7  C   UNL     1     -27.122 -16.711  17.546  1.00  0.00     0.000 C 
BRANCH   7   8
ATOM      8  C   UNL     1     -27.280 -17.392  16.168  1.00  0.00     0.000 C 
BRANCH   8   9
ATOM      9  C   UNL     1     -28.729 -17.835  15.905  1.00  0.00     0.000 C 
BRANCH   9  10
ATOM     10  C   UNL     1     -28.868 -18.724  14.654  1.00  0.00     0.006 C 
BRANCH  10  11
ATOM     11  C   UNL     1     -29.319 -17.962  13.397  1.00  0.00     0.053 C 
BRANCH  11  12
ATOM     12  C   UNL     1     -28.201 -17.739  12.426  1.00  0.00     0.041 C 
ATOM     13  O   UNL     1     -27.099 -18.327  12.580  1.00  0.00    -0.550 OA
ATOM     14  O   UNL     1     -28.378 -16.883  11.344  1.00  0.00    -0.550 OA
ENDBRANCH  11  12
ENDBRANCH  10  11
ENDBRANCH   9  10
ENDBRANCH   8   9
ENDBRANCH   7   8
ENDBRANCH   6   7
ENDBRANCH   5   6
ENDBRANCH   4   5
ENDBRANCH   3   4
ENDBRANCH   2   3
ENDBRANCH   1   2
BRANCH   1  15
ATOM     15  C   UNL     1     -29.428 -11.700  17.524  1.00  0.00     0.000 C 
BRANCH  15  16
ATOM     16  C   UNL     1     -29.884 -12.463  16.265  1.00  0.00     0.000 C 
BRANCH  16  17
ATOM     17  C   UNL     1     -29.926 -13.997  16.410  1.00  0.00     0.000 C 
BRANCH  17  18
ATOM     18  C   UNL     1     -30.225 -14.764  15.107  1.00  0.00    -0.000 C 
BRANCH  18  19
ATOM     19  C   UNL     1     -31.558 -15.538  15.097  1.00  0.00    -0.000 C 
BRANCH  19  20
ATOM     20  C   UNL     1     -32.111 -15.907  16.489  1.00  0.00    -0.000 C 
BRANCH  20  21
ATOM     21  C   UNL     1     -33.535 -15.401  16.783  1.00  0.00    -0.000 C 
BRANCH  21  22
ATOM     22  C   UNL     1     -33.664 -13.873  16.646  1.00  0.00    -0.000 C 
BRANCH  22  23
ATOM     23  C   UNL     1     -34.632 -13.460  15.526  1.00  0.00    -0.000 C 
BRANCH  23  24
ATOM     24  C   UNL     1     -36.041 -13.134  16.052  1.00  0.00    -0.000 C 
BRANCH  24  25
ATOM     25  C   UNL     1     -37.151 -13.667  15.133  1.00  0.00    -0.003 C 
ATOM     26  C   UNL     1     -37.333 -15.181  15.245  1.00  0.00     0.004 C 
ENDBRANCH  24  25
ENDBRANCH  23  24
ENDBRANCH  22  23
ENDBRANCH  21  22
ENDBRANCH  20  21
ENDBRANCH  19  20
ENDBRANCH  18  19
ENDBRANCH  17  18
ENDBRANCH  16  17
ENDBRANCH  15  16
ENDBRANCH   1  15
TORSDOF 22
ENDMDL
MODEL 7
REMARK VINA RESULT:    -4.764      3.272      7.711
REMARK INTER + INTRA:         -13.376
REMARK INTER:                 -10.382
REMARK INTRA:                  -2.994
REMARK UNBOUND:                -2.485
REMARK SMILES CCCCCCCCCCCCCCCCCCCCCCCC(=O)[O-]
REMARK SMILES IDX 13 1 14 2 15 3 16 4 17 5 18 6 19 7 20 8 21 9 22 10 23 11
REMARK SMILES IDX 24 12 25 13 26 14 12 15 11 16 10 17 9 18 8 19 7 20 6 21 5 22
REMARK SMILES IDX 4 23 3 24 2 25 1 26
REMARK H PARENT
REMARK Flexibility Score: inf
ROOT
ATOM      1  C   UNL     1     -27.694 -15.441  17.782  1.00  0.00     0.000 C 
ENDROOT
BRANCH   1   2
ATOM      2  C   UNL     1     -28.079 -16.678  16.951  1.00  0.00     0.000 C 
BRANCH   2   3
ATOM      3  C   UNL     1     -28.559 -17.886  17.779  1.00  0.00     0.000 C 
BRANCH   3   4
ATOM      4  C   UNL     1     -29.474 -18.853  16.992  1.00  0.00     0.000 C 
BRANCH   4   5
ATOM      5  C   UNL     1     -30.678 -18.164  16.326  1.00  0.00     0.000 C 
BRANCH   5   6
ATOM      6  C   UNL     1     -30.787 -18.497  14.828  1.00  0.00     0.000 C 
BRANCH   6   7
ATOM      7  C   UNL     1     -30.505 -17.281  13.928  1.00  0.00     0.000 C 
BRANCH   7   8
ATOM      8  C   UNL     1     -29.182 -17.392  13.139  1.00  0.00     0.000 C 
BRANCH   8   9
ATOM      9  C   UNL     1     -28.306 -18.553  13.640  1.00  0.00     0.000 C 
BRANCH   9  10
ATOM     10  C   UNL     1     -27.660 -19.358  12.495  1.00  0.00     0.006 C 
BRANCH  10  11
ATOM     11  C   UNL     1     -26.236 -18.897  12.138  1.00  0.00     0.053 C 
BRANCH  11  12
ATOM     12  C   UNL     1     -25.356 -20.029  11.706  1.00  0.00     0.041 C 
ATOM     13  O   UNL     1     -25.026 -20.150  10.497  1.00  0.00    -0.550 OA
ATOM     14  O   UNL     1     -24.894 -20.948  12.640  1.00  0.00    -0.550 OA
ENDBRANCH  11  12
ENDBRANCH  10  11
ENDBRANCH   9  10
ENDBRANCH   8   9
ENDBRANCH   7   8
ENDBRANCH   6   7
ENDBRANCH   5   6
ENDBRANCH   4   5
ENDBRANCH   3   4
ENDBRANCH   2   3
ENDBRANCH   1   2
BRANCH   1  15
ATOM     15  C   UNL     1     -26.247 -14.942  17.581  1.00  0.00     0.000 C 
BRANCH  15  16
ATOM     16  C   UNL     1     -25.965 -13.520  18.102  1.00  0.00     0.000 C 
BRANCH  16  17
ATOM     17  C   UNL     1     -25.466 -12.522  17.039  1.00  0.00     0.000 C 
BRANCH  17  18
ATOM     18  C   UNL     1     -26.483 -11.433  16.642  1.00  0.00    -0.000 C 
BRANCH  18  19
ATOM     19  C   UNL     1     -27.464 -11.020  17.757  1.00  0.00    -0.000 C 
BRANCH  19  20
ATOM     20  C   UNL     1     -28.950 -11.000  17.346  1.00  0.00    -0.000 C 
BRANCH  20  21
ATOM     21  C   UNL     1     -29.655 -12.368  17.370  1.00  0.00    -0.000 C 
BRANCH  21  22
ATOM     22  C   UNL     1     -30.167 -12.798  15.984  1.00  0.00    -0.000 C 
BRANCH  22  23
ATOM     23  C   UNL     1     -30.476 -14.303  15.909  1.00  0.00    -0.000 C 
BRANCH  23  24
ATOM     24  C   UNL     1     -31.822 -14.664  16.560  1.00  0.00    -0.000 C 
BRANCH  24  25
ATOM     25  C   UNL     1     -32.931 -14.907  15.525  1.00  0.00    -0.003 C 
ATOM     26  C   UNL     1     -33.805 -13.673  15.295  1.00  0.00     0.004 C 
ENDBRANCH  24  25
ENDBRANCH  23  24
ENDBRANCH  22  23
ENDBRANCH  21  22
ENDBRANCH  20  21
ENDBRANCH  19  20
ENDBRANCH  18  19
ENDBRANCH  17  18
ENDBRANCH  16  17
ENDBRANCH  15  16
ENDBRANCH   1  15
TORSDOF 22
ENDMDL
MODEL 8
REMARK VINA RESULT:    -4.754      2.611      4.392
REMARK INTER + INTRA:         -13.354
REMARK INTER:                 -10.832
REMARK INTRA:                  -2.523
REMARK UNBOUND:                -2.485
REMARK SMILES CCCCCCCCCCCCCCCCCCCCCCCC(=O)[O-]
REMARK SMILES IDX 13 1 14 2 15 3 16 4 17 5 18 6 19 7 20 8 21 9 22 10 23 11
REMARK SMILES IDX 24 12 25 13 26 14 12 15 11 16 10 17 9 18 8 19 7 20 6 21 5 22
REMARK SMILES IDX 4 23 3 24 2 25 1 26
REMARK H PARENT
REMARK Flexibility Score: inf
ROOT
ATOM      1  C   UNL     1     -30.701 -13.160  17.484  1.00  0.00     0.000 C 
ENDROOT
BRANCH   1   2
ATOM      2  C   UNL     1     -29.536 -12.603  16.646  1.00  0.00     0.000 C 
BRANCH   2   3
ATOM      3  C   UNL     1     -29.002 -11.236  17.114  1.00  0.00     0.000 C 
BRANCH   3   4
ATOM      4  C   UNL     1     -27.618 -11.312  17.800  1.00  0.00     0.000 C 
BRANCH   4   5
ATOM      5  C   UNL     1     -26.442 -11.423  16.815  1.00  0.00     0.000 C 
BRANCH   5   6
ATOM      6  C   UNL     1     -25.479 -12.565  17.180  1.00  0.00     0.000 C 
BRANCH   6   7
ATOM      7  C   UNL     1     -26.122 -13.608  18.110  1.00  0.00     0.000 C 
BRANCH   7   8
ATOM      8  C   UNL     1     -26.244 -15.010  17.473  1.00  0.00     0.000 C 
BRANCH   8   9
ATOM      9  C   UNL     1     -27.645 -15.613  17.669  1.00  0.00     0.000 C 
BRANCH   9  10
ATOM     10  C   UNL     1     -27.969 -16.726  16.653  1.00  0.00     0.006 C 
BRANCH  10  11
ATOM     11  C   UNL     1     -27.342 -18.087  17.001  1.00  0.00     0.053 C 
BRANCH  11  12
ATOM     12  C   UNL     1     -26.236 -18.468  16.066  1.00  0.00     0.041 C 
ATOM     13  O   UNL     1     -26.477 -18.674  14.848  1.00  0.00    -0.550 OA
ATOM     14  O   UNL     1     -24.936 -18.593  16.541  1.00  0.00    -0.550 OA
ENDBRANCH  11  12
ENDBRANCH  10  11
ENDBRANCH   9  10
ENDBRANCH   8   9
ENDBRANCH   7   8
ENDBRANCH   6   7
ENDBRANCH   5   6
ENDBRANCH   4   5
ENDBRANCH   3   4
ENDBRANCH   2   3
ENDBRANCH   1   2
BRANCH   1  15
ATOM     15  C   UNL     1     -31.204 -14.556  17.059  1.00  0.00     0.000 C 
BRANCH  15  16
ATOM     16  C   UNL     1     -31.795 -14.636  15.638  1.00  0.00     0.000 C 
BRANCH  16  17
ATOM     17  C   UNL     1     -33.101 -15.447  15.519  1.00  0.00     0.000 C 
BRANCH  17  18
ATOM     18  C   UNL     1     -32.911 -16.975  15.443  1.00  0.00    -0.000 C 
BRANCH  18  19
ATOM     19  C   UNL     1     -31.448 -17.445  15.318  1.00  0.00    -0.000 C 
BRANCH  19  20
ATOM     20  C   UNL     1     -30.996 -17.804  13.888  1.00  0.00    -0.000 C 
BRANCH  20  21
ATOM     21  C   UNL     1     -29.722 -17.088  13.405  1.00  0.00    -0.000 C 
BRANCH  21  22
ATOM     22  C   UNL     1     -28.902 -17.935  12.416  1.00  0.00    -0.000 C 
BRANCH  22  23
ATOM     23  C   UNL     1     -28.278 -17.092  11.292  1.00  0.00    -0.000 C 
BRANCH  23  24
ATOM     24  C   UNL     1     -27.842 -17.942  10.086  1.00  0.00    -0.000 C 
BRANCH  24  25
ATOM     25  C   UNL     1     -27.477 -19.382  10.482  1.00  0.00    -0.003 C 
ATOM     26  C   UNL     1     -25.985 -19.557  10.763  1.00  0.00     0.004 C 
ENDBRANCH  24  25
ENDBRANCH  23  24
ENDBRANCH  22  23
ENDBRANCH  21  22
ENDBRANCH  20  21
ENDBRANCH  19  20
ENDBRANCH  18  19
ENDBRANCH  17  18
ENDBRANCH  16  17
ENDBRANCH  15  16
ENDBRANCH   1  15
TORSDOF 22
ENDMDL
MODEL 9
REMARK VINA RESULT:    -4.754      1.285      2.664
REMARK INTER + INTRA:         -13.354
REMARK INTER:                 -10.648
REMARK INTRA:                  -2.705
REMARK UNBOUND:                -2.485
REMARK SMILES CCCCCCCCCCCCCCCCCCCCCCCC(=O)[O-]
REMARK SMILES IDX 13 1 14 2 15 3 16 4 17 5 18 6 19 7 20 8 21 9 22 10 23 11
REMARK SMILES IDX 24 12 25 13 26 14 12 15 11 16 10 17 9 18 8 19 7 20 6 21 5 22
REMARK SMILES IDX 4 23 3 24 2 25 1 26
REMARK H PARENT
REMARK Flexibility Score: inf
ROOT
ATOM      1  C   UNL     1     -25.861 -15.274  18.102  1.00  0.00     0.000 C 
ENDROOT
BRANCH   1   2
ATOM      2  C   UNL     1     -26.395 -13.836  17.967  1.00  0.00     0.000 C 
BRANCH   2   3
ATOM      3  C   UNL     1     -25.330 -12.786  17.598  1.00  0.00     0.000 C 
BRANCH   3   4
ATOM      4  C   UNL     1     -25.912 -11.377  17.340  1.00  0.00     0.000 C 
BRANCH   4   5
ATOM      5  C   UNL     1     -27.297 -11.390  16.671  1.00  0.00     0.000 C 
BRANCH   5   6
ATOM      6  C   UNL     1     -28.410 -10.916  17.621  1.00  0.00     0.000 C 
BRANCH   6   7
ATOM      7  C   UNL     1     -29.648 -11.829  17.586  1.00  0.00     0.000 C 
BRANCH   7   8
ATOM      8  C   UNL     1     -29.796 -12.617  16.266  1.00  0.00     0.000 C 
BRANCH   8   9
ATOM      9  C   UNL     1     -29.781 -14.137  16.497  1.00  0.00     0.000 C 
BRANCH   9  10
ATOM     10  C   UNL     1     -30.660 -14.907  15.490  1.00  0.00     0.006 C 
BRANCH  10  11
ATOM     11  C   UNL     1     -31.812 -15.690  16.142  1.00  0.00     0.053 C 
BRANCH  11  12
ATOM     12  C   UNL     1     -33.135 -15.006  15.986  1.00  0.00     0.041 C 
ATOM     13  O   UNL     1     -34.181 -15.538  16.441  1.00  0.00    -0.550 OA
ATOM     14  O   UNL     1     -33.212 -13.778  15.340  1.00  0.00    -0.550 OA
ENDBRANCH  11  12
ENDBRANCH  10  11
ENDBRANCH   9  10
ENDBRANCH   8   9
ENDBRANCH   7   8
ENDBRANCH   6   7
ENDBRANCH   5   6
ENDBRANCH   4   5
ENDBRANCH   3   4
ENDBRANCH   2   3
ENDBRANCH   1   2
BRANCH   1  15
ATOM     15  C   UNL     1     -26.692 -16.352  17.373  1.00  0.00     0.000 C 
BRANCH  15  16
ATOM     16  C   UNL     1     -25.870 -17.436  16.650  1.00  0.00     0.000 C 
BRANCH  16  17
ATOM     17  C   UNL     1     -26.611 -18.167  15.513  1.00  0.00     0.000 C 
BRANCH  17  18
ATOM     18  C   UNL     1     -26.203 -19.640  15.315  1.00  0.00    -0.000 C 
BRANCH  18  19
ATOM     19  C   UNL     1     -26.917 -20.365  14.156  1.00  0.00    -0.000 C 
BRANCH  19  20
ATOM     20  C   UNL     1     -26.113 -20.447  12.843  1.00  0.00    -0.000 C 
BRANCH  20  21
ATOM     21  C   UNL     1     -26.153 -19.179  11.970  1.00  0.00    -0.000 C 
BRANCH  21  22
ATOM     22  C   UNL     1     -27.253 -19.231  10.895  1.00  0.00    -0.000 C 
BRANCH  22  23
ATOM     23  C   UNL     1     -28.175 -18.002  10.932  1.00  0.00    -0.000 C 
BRANCH  23  24
ATOM     24  C   UNL     1     -28.298 -17.397  12.341  1.00  0.00    -0.000 C 
BRANCH  24  25
ATOM     25  C   UNL     1     -29.746 -17.388  12.854  1.00  0.00    -0.003 C 
ATOM     26  C   UNL     1     -29.933 -18.244  14.108  1.00  0.00     0.004 C 
ENDBRANCH  24  25
ENDBRANCH  23  24
ENDBRANCH  22  23
ENDBRANCH  21  22
ENDBRANCH  20  21
ENDBRANCH  19  20
ENDBRANCH  18  19
ENDBRANCH  17  18
ENDBRANCH  16  17
ENDBRANCH  15  16
ENDBRANCH   1  15
TORSDOF 22
ENDMDL
