MODEL 1
REMARK VINA RESULT:    -6.796      0.000      0.000
REMARK INTER + INTRA:          -8.449
REMARK INTER:                  -8.186
REMARK INTRA:                  -0.263
REMARK UNBOUND:                -0.263
REMARK SMILES O=c1c(O)c(-c2ccc(O)c(O)c2)oc2cc(O)cc(O)c12
REMARK SMILES IDX 5 1 3 2 2 3 1 4 22 5 20 6 19 7 17 8 16 9 15 10 14 11 6 12
REMARK SMILES IDX 7 13 8 14 9 15 13 16 11 17 10 18 12 20 4 22 21 24 18 26
REMARK H PARENT 10 19 12 21 4 23 21 25 18 27
REMARK Flexibility Score: inf
ROOT
ATOM      1  C   UNL     1      22.996  33.513   6.952  1.00  0.00     0.180 A 
ATOM      2  C   UNL     1      23.071  34.232   5.743  1.00  0.00     0.208 A 
ATOM      3  C   UNL     1      22.066  35.165   5.445  1.00  0.00     0.238 A 
ATOM      4  O   UNL     1      22.117  35.807   4.361  1.00  0.00    -0.285 OA
ATOM      5  C   UNL     1      21.018  35.379   6.365  1.00  0.00     0.111 A 
ATOM      6  C   UNL     1      19.970  36.304   6.142  1.00  0.00     0.134 A 
ATOM      7  C   UNL     1      18.968  36.466   7.111  1.00  0.00     0.093 A 
ATOM      8  C   UNL     1      18.995  35.725   8.295  1.00  0.00     0.123 A 
ATOM      9  C   UNL     1      20.028  34.809   8.519  1.00  0.00     0.094 A 
ATOM     10  C   UNL     1      21.034  34.632   7.566  1.00  0.00     0.146 A 
ATOM     11  O   UNL     1      22.002  33.752   7.802  1.00  0.00    -0.452 OA
ENDROOT
BRANCH   1  12
ATOM     12  C   UNL     1      24.006  32.499   7.328  1.00  0.00     0.025 A 
ATOM     13  C   UNL     1      25.286  32.870   7.775  1.00  0.00     0.016 A 
ATOM     14  C   UNL     1      26.231  31.894   8.101  1.00  0.00     0.051 A 
ATOM     15  C   UNL     1      25.917  30.535   7.975  1.00  0.00     0.157 A 
ATOM     16  C   UNL     1      23.703  31.134   7.183  1.00  0.00     0.062 A 
ATOM     17  C   UNL     1      24.651  30.154   7.512  1.00  0.00     0.158 A 
BRANCH  15  18
ATOM     18  O   UNL     1      26.856  29.559   8.302  1.00  0.00    -0.504 OA
ATOM     19  H   UNL     1      27.565  29.264   7.640  1.00  0.00     0.293 HD
ENDBRANCH  15  18
BRANCH  17  20
ATOM     20  O   UNL     1      24.342  28.802   7.380  1.00  0.00    -0.504 OA
ATOM     21  H   UNL     1      23.444  28.432   7.667  1.00  0.00     0.293 HD
ENDBRANCH  17  20
ENDBRANCH   1  12
BRANCH   2  22
ATOM     22  O   UNL     1      24.145  34.037   4.872  1.00  0.00    -0.502 OA
ATOM     23  H   UNL     1      24.422  33.118   4.548  1.00  0.00     0.293 HD
ENDBRANCH   2  22
BRANCH   6  24
ATOM     24  O   UNL     1      19.916  37.060   4.972  1.00  0.00    -0.507 OA
ATOM     25  H   UNL     1      19.531  37.998   4.960  1.00  0.00     0.293 HD
ENDBRANCH   6  24
BRANCH   8  26
ATOM     26  O   UNL     1      17.988  35.906   9.240  1.00  0.00    -0.508 OA
ATOM     27  H   UNL     1      17.864  36.791   9.718  1.00  0.00     0.293 HD
ENDBRANCH   8  26
TORSDOF 6
ENDMDL
MODEL 2
REMARK VINA RESULT:    -6.568      1.860      6.736
REMARK INTER + INTRA:          -8.175
REMARK INTER:                  -7.874
REMARK INTRA:                  -0.301
REMARK UNBOUND:                -0.263
REMARK SMILES O=c1c(O)c(-c2ccc(O)c(O)c2)oc2cc(O)cc(O)c12
REMARK SMILES IDX 5 1 3 2 2 3 1 4 22 5 20 6 19 7 17 8 16 9 15 10 14 11 6 12
REMARK SMILES IDX 7 13 8 14 9 15 13 16 11 17 10 18 12 20 4 22 21 24 18 26
REMARK H PARENT 10 19 12 21 4 23 21 25 18 27
REMARK Flexibility Score: inf
ROOT
ATOM      1  C   UNL     1      22.316  33.922   5.816  1.00  0.00     0.180 A 
ATOM      2  C   UNL     1      22.631  33.213   4.641  1.00  0.00     0.208 A 
ATOM      3  C   UNL     1      23.788  32.419   4.616  1.00  0.00     0.238 A 
ATOM      4  O   UNL     1      24.086  31.790   3.565  1.00  0.00    -0.285 OA
ATOM      5  C   UNL     1      24.597  32.331   5.768  1.00  0.00     0.111 A 
ATOM      6  C   UNL     1      25.777  31.550   5.827  1.00  0.00     0.134 A 
ATOM      7  C   UNL     1      26.522  31.506   7.015  1.00  0.00     0.093 A 
ATOM      8  C   UNL     1      26.113  32.223   8.140  1.00  0.00     0.123 A 
ATOM      9  C   UNL     1      24.949  32.997   8.087  1.00  0.00     0.094 A 
ATOM     10  C   UNL     1      24.193  33.055   6.913  1.00  0.00     0.146 A 
ATOM     11  O   UNL     1      23.094  33.801   6.889  1.00  0.00    -0.452 OA
ENDROOT
BRANCH   1  12
ATOM     12  C   UNL     1      21.124  34.794   5.914  1.00  0.00     0.025 A 
ATOM     13  C   UNL     1      21.115  36.086   5.359  1.00  0.00     0.016 A 
ATOM     14  C   UNL     1      19.986  36.901   5.486  1.00  0.00     0.051 A 
ATOM     15  C   UNL     1      18.858  36.443   6.177  1.00  0.00     0.157 A 
ATOM     16  C   UNL     1      19.997  34.348   6.625  1.00  0.00     0.062 A 
ATOM     17  C   UNL     1      18.864  35.165   6.750  1.00  0.00     0.158 A 
BRANCH  15  18
ATOM     18  O   UNL     1      17.730  37.251   6.303  1.00  0.00    -0.504 OA
ATOM     19  H   UNL     1      16.866  37.034   5.819  1.00  0.00     0.293 HD
ENDBRANCH  15  18
BRANCH  17  20
ATOM     20  O   UNL     1      17.743  34.714   7.445  1.00  0.00    -0.504 OA
ATOM     21  H   UNL     1      16.819  35.083   7.258  1.00  0.00     0.293 HD
ENDBRANCH  17  20
ENDBRANCH   1  12
BRANCH   2  22
ATOM     22  O   UNL     1      21.787  33.280   3.529  1.00  0.00    -0.502 OA
ATOM     23  H   UNL     1      20.807  33.521   3.606  1.00  0.00     0.293 HD
ENDBRANCH   2  22
BRANCH   6  24
ATOM     24  O   UNL     1      26.212  30.820   4.720  1.00  0.00    -0.507 OA
ATOM     25  H   UNL     1      26.548  29.868   4.808  1.00  0.00     0.293 HD
ENDBRANCH   6  24
BRANCH   8  26
ATOM     26  O   UNL     1      26.872  32.161   9.307  1.00  0.00    -0.508 OA
ATOM     27  H   UNL     1      27.824  31.813   9.300  1.00  0.00     0.293 HD
ENDBRANCH   8  26
TORSDOF 6
ENDMDL
MODEL 3
REMARK VINA RESULT:    -6.272      1.995      7.136
REMARK INTER + INTRA:          -7.819
REMARK INTER:                  -7.536
REMARK INTRA:                  -0.282
REMARK UNBOUND:                -0.263
REMARK SMILES O=c1c(O)c(-c2ccc(O)c(O)c2)oc2cc(O)cc(O)c12
REMARK SMILES IDX 5 1 3 2 2 3 1 4 22 5 20 6 19 7 17 8 16 9 15 10 14 11 6 12
REMARK SMILES IDX 7 13 8 14 9 15 13 16 11 17 10 18 12 20 4 22 21 24 18 26
REMARK H PARENT 10 19 12 21 4 23 21 25 18 27
REMARK Flexibility Score: inf
ROOT
ATOM      1  C   UNL     1      22.717  33.227   6.066  1.00  0.00     0.180 A 
ATOM      2  C   UNL     1      23.488  33.000   7.222  1.00  0.00     0.208 A 
ATOM      3  C   UNL     1      24.138  31.765   7.371  1.00  0.00     0.238 A 
ATOM      4  O   UNL     1      24.823  31.546   8.408  1.00  0.00    -0.285 OA
ATOM      5  C   UNL     1      24.024  30.790   6.359  1.00  0.00     0.111 A 
ATOM      6  C   UNL     1      24.651  29.523   6.431  1.00  0.00     0.134 A 
ATOM      7  C   UNL     1      24.497  28.610   5.376  1.00  0.00     0.093 A 
ATOM      8  C   UNL     1      23.732  28.939   4.255  1.00  0.00     0.123 A 
ATOM      9  C   UNL     1      23.110  30.189   4.180  1.00  0.00     0.094 A 
ATOM     10  C   UNL     1      23.250  31.112   5.220  1.00  0.00     0.146 A 
ATOM     11  O   UNL     1      22.645  32.290   5.124  1.00  0.00    -0.452 OA
ENDROOT
BRANCH   1  12
ATOM     12  C   UNL     1      21.986  34.496   5.844  1.00  0.00     0.025 A 
ATOM     13  C   UNL     1      22.500  35.500   5.005  1.00  0.00     0.016 A 
ATOM     14  C   UNL     1      21.804  36.699   4.831  1.00  0.00     0.051 A 
ATOM     15  C   UNL     1      20.593  36.917   5.500  1.00  0.00     0.157 A 
ATOM     16  C   UNL     1      20.782  34.728   6.530  1.00  0.00     0.062 A 
ATOM     17  C   UNL     1      20.083  35.932   6.354  1.00  0.00     0.158 A 
BRANCH  15  18
ATOM     18  O   UNL     1      19.895  38.111   5.327  1.00  0.00    -0.504 OA
ATOM     19  H   UNL     1      18.918  38.195   5.584  1.00  0.00     0.293 HD
ENDBRANCH  15  18
BRANCH  17  20
ATOM     20  O   UNL     1      18.881  36.153   7.025  1.00  0.00    -0.504 OA
ATOM     21  H   UNL     1      18.029  36.379   6.528  1.00  0.00     0.293 HD
ENDBRANCH  17  20
ENDBRANCH   1  12
BRANCH   2  22
ATOM     22  O   UNL     1      23.625  34.000   8.187  1.00  0.00    -0.502 OA
ATOM     23  H   UNL     1      24.449  34.586   8.249  1.00  0.00     0.293 HD
ENDBRANCH   2  22
BRANCH   6  24
ATOM     24  O   UNL     1      25.423  29.164   7.536  1.00  0.00    -0.507 OA
ATOM     25  H   UNL     1      26.429  29.057   7.472  1.00  0.00     0.293 HD
ENDBRANCH   6  24
BRANCH   8  26
ATOM     26  O   UNL     1      23.596  28.014   3.222  1.00  0.00    -0.508 OA
ATOM     27  H   UNL     1      22.695  27.614   2.986  1.00  0.00     0.293 HD
ENDBRANCH   8  26
TORSDOF 6
ENDMDL
MODEL 4
REMARK VINA RESULT:    -5.796      2.546      3.464
REMARK INTER + INTRA:          -7.245
REMARK INTER:                  -6.989
REMARK INTRA:                  -0.256
REMARK UNBOUND:                -0.263
REMARK SMILES O=c1c(O)c(-c2ccc(O)c(O)c2)oc2cc(O)cc(O)c12
REMARK SMILES IDX 5 1 3 2 2 3 1 4 22 5 20 6 19 7 17 8 16 9 15 10 14 11 6 12
REMARK SMILES IDX 7 13 8 14 9 15 13 16 11 17 10 18 12 20 4 22 21 24 18 26
REMARK H PARENT 10 19 12 21 4 23 21 25 18 27
REMARK Flexibility Score: inf
ROOT
ATOM      1  C   UNL     1      22.448  33.997   6.093  1.00  0.00     0.180 A 
ATOM      2  C   UNL     1      22.286  33.824   7.481  1.00  0.00     0.208 A 
ATOM      3  C   UNL     1      21.147  34.359   8.102  1.00  0.00     0.238 A 
ATOM      4  O   UNL     1      20.996  34.221   9.347  1.00  0.00    -0.285 OA
ATOM      5  C   UNL     1      20.183  35.038   7.327  1.00  0.00     0.111 A 
ATOM      6  C   UNL     1      19.007  35.602   7.875  1.00  0.00     0.134 A 
ATOM      7  C   UNL     1      18.091  36.253   7.034  1.00  0.00     0.093 A 
ATOM      8  C   UNL     1      18.327  36.349   5.662  1.00  0.00     0.123 A 
ATOM      9  C   UNL     1      19.489  35.794   5.115  1.00  0.00     0.094 A 
ATOM     10  C   UNL     1      20.414  35.143   5.936  1.00  0.00     0.146 A 
ATOM     11  O   UNL     1      21.511  34.628   5.391  1.00  0.00    -0.452 OA
ENDROOT
BRANCH   1  12
ATOM     12  C   UNL     1      23.631  33.479   5.369  1.00  0.00     0.025 A 
ATOM     13  C   UNL     1      24.897  34.071   5.516  1.00  0.00     0.016 A 
ATOM     14  C   UNL     1      25.994  33.579   4.803  1.00  0.00     0.051 A 
ATOM     15  C   UNL     1      25.840  32.499   3.925  1.00  0.00     0.157 A 
ATOM     16  C   UNL     1      23.477  32.409   4.470  1.00  0.00     0.062 A 
ATOM     17  C   UNL     1      24.579  31.915   3.755  1.00  0.00     0.158 A 
BRANCH  15  18
ATOM     18  O   UNL     1      26.931  32.005   3.214  1.00  0.00    -0.504 OA
ATOM     19  H   UNL     1      26.810  31.393   2.415  1.00  0.00     0.293 HD
ENDBRANCH  15  18
BRANCH  17  20
ATOM     20  O   UNL     1      24.425  30.846   2.875  1.00  0.00    -0.504 OA
ATOM     21  H   UNL     1      25.190  30.217   2.665  1.00  0.00     0.293 HD
ENDBRANCH  17  20
ENDBRANCH   1  12
BRANCH   2  22
ATOM     22  O   UNL     1      23.230  33.107   8.218  1.00  0.00    -0.502 OA
ATOM     23  H   UNL     1      23.200  32.098   8.303  1.00  0.00     0.293 HD
ENDBRANCH   2  22
BRANCH   6  24
ATOM     24  O   UNL     1      18.740  35.522   9.242  1.00  0.00    -0.507 OA
ATOM     25  H   UNL     1      18.823  34.649   9.751  1.00  0.00     0.293 HD
ENDBRANCH   6  24
BRANCH   8  26
ATOM     26  O   UNL     1      17.401  37.001   4.850  1.00  0.00    -0.508 OA
ATOM     27  H   UNL     1      16.594  36.516   4.475  1.00  0.00     0.293 HD
ENDBRANCH   8  26
TORSDOF 6
ENDMDL
MODEL 5
REMARK VINA RESULT:    -5.358      3.445      8.141
REMARK INTER + INTRA:          -6.718
REMARK INTER:                  -6.405
REMARK INTRA:                  -0.312
REMARK UNBOUND:                -0.263
REMARK SMILES O=c1c(O)c(-c2ccc(O)c(O)c2)oc2cc(O)cc(O)c12
REMARK SMILES IDX 5 1 3 2 2 3 1 4 22 5 20 6 19 7 17 8 16 9 15 10 14 11 6 12
REMARK SMILES IDX 7 13 8 14 9 15 13 16 11 17 10 18 12 20 4 22 21 24 18 26
REMARK H PARENT 10 19 12 21 4 23 21 25 18 27
REMARK Flexibility Score: inf
ROOT
ATOM      1  C   UNL     1      24.317  29.270   6.069  1.00  0.00     0.180 A 
ATOM      2  C   UNL     1      25.548  28.654   6.369  1.00  0.00     0.208 A 
ATOM      3  C   UNL     1      25.594  27.256   6.496  1.00  0.00     0.238 A 
ATOM      4  O   UNL     1      26.687  26.694   6.776  1.00  0.00    -0.285 OA
ATOM      5  C   UNL     1      24.419  26.500   6.302  1.00  0.00     0.111 A 
ATOM      6  C   UNL     1      24.381  25.089   6.408  1.00  0.00     0.134 A 
ATOM      7  C   UNL     1      23.174  24.407   6.190  1.00  0.00     0.093 A 
ATOM      8  C   UNL     1      22.009  25.107   5.869  1.00  0.00     0.123 A 
ATOM      9  C   UNL     1      22.041  26.501   5.764  1.00  0.00     0.094 A 
ATOM     10  C   UNL     1      23.233  27.198   5.978  1.00  0.00     0.146 A 
ATOM     11  O   UNL     1      23.234  28.523   5.877  1.00  0.00    -0.452 OA
ENDROOT
BRANCH   1  12
ATOM     12  C   UNL     1      24.184  30.738   5.938  1.00  0.00     0.025 A 
ATOM     13  C   UNL     1      24.267  31.372   4.685  1.00  0.00     0.016 A 
ATOM     14  C   UNL     1      24.163  32.763   4.590  1.00  0.00     0.051 A 
ATOM     15  C   UNL     1      23.987  33.539   5.742  1.00  0.00     0.157 A 
ATOM     16  C   UNL     1      24.029  31.524   7.092  1.00  0.00     0.062 A 
ATOM     17  C   UNL     1      23.923  32.919   6.996  1.00  0.00     0.158 A 
BRANCH  15  18
ATOM     18  O   UNL     1      23.880  34.925   5.650  1.00  0.00    -0.504 OA
ATOM     19  H   UNL     1      22.983  35.393   5.709  1.00  0.00     0.293 HD
ENDBRANCH  15  18
BRANCH  17  20
ATOM     20  O   UNL     1      23.756  33.694   8.142  1.00  0.00    -0.504 OA
ATOM     21  H   UNL     1      22.949  33.584   8.744  1.00  0.00     0.293 HD
ENDBRANCH  17  20
ENDBRANCH   1  12
BRANCH   2  22
ATOM     22  O   UNL     1      26.706  29.421   6.508  1.00  0.00    -0.502 OA
ATOM     23  H   UNL     1      27.383  29.254   7.243  1.00  0.00     0.293 HD
ENDBRANCH   2  22
BRANCH   6  24
ATOM     24  O   UNL     1      25.528  24.361   6.725  1.00  0.00    -0.507 OA
ATOM     25  H   UNL     1      25.700  23.440   6.338  1.00  0.00     0.293 HD
ENDBRANCH   6  24
BRANCH   8  26
ATOM     26  O   UNL     1      20.824  24.405   5.658  1.00  0.00    -0.508 OA
ATOM     27  H   UNL     1      20.749  23.417   5.872  1.00  0.00     0.293 HD
ENDBRANCH   8  26
TORSDOF 6
ENDMDL
MODEL 6
REMARK VINA RESULT:    -5.355      4.115      7.370
REMARK INTER + INTRA:          -6.714
REMARK INTER:                  -6.429
REMARK INTRA:                  -0.286
REMARK UNBOUND:                -0.263
REMARK SMILES O=c1c(O)c(-c2ccc(O)c(O)c2)oc2cc(O)cc(O)c12
REMARK SMILES IDX 5 1 3 2 2 3 1 4 22 5 20 6 19 7 17 8 16 9 15 10 14 11 6 12
REMARK SMILES IDX 7 13 8 14 9 15 13 16 11 17 10 18 12 20 4 22 21 24 18 26
REMARK H PARENT 10 19 12 21 4 23 21 25 18 27
REMARK Flexibility Score: inf
ROOT
ATOM      1  C   UNL     1      24.178  28.010   6.107  1.00  0.00     0.180 A 
ATOM      2  C   UNL     1      25.519  27.665   6.363  1.00  0.00     0.208 A 
ATOM      3  C   UNL     1      26.372  28.628   6.925  1.00  0.00     0.238 A 
ATOM      4  O   UNL     1      27.578  28.334   7.148  1.00  0.00    -0.285 OA
ATOM      5  C   UNL     1      25.868  29.908   7.239  1.00  0.00     0.111 A 
ATOM      6  C   UNL     1      26.660  30.932   7.810  1.00  0.00     0.134 A 
ATOM      7  C   UNL     1      26.082  32.177   8.103  1.00  0.00     0.093 A 
ATOM      8  C   UNL     1      24.731  32.415   7.837  1.00  0.00     0.123 A 
ATOM      9  C   UNL     1      23.945  31.407   7.272  1.00  0.00     0.094 A 
ATOM     10  C   UNL     1      24.503  30.160   6.972  1.00  0.00     0.146 A 
ATOM     11  O   UNL     1      23.734  29.222   6.431  1.00  0.00    -0.452 OA
ENDROOT
BRANCH   1  12
ATOM     12  C   UNL     1      23.223  27.057   5.499  1.00  0.00     0.025 A 
ATOM     13  C   UNL     1      22.853  27.154   4.146  1.00  0.00     0.016 A 
ATOM     14  C   UNL     1      21.930  26.257   3.601  1.00  0.00     0.051 A 
ATOM     15  C   UNL     1      21.356  25.260   4.400  1.00  0.00     0.157 A 
ATOM     16  C   UNL     1      22.628  26.069   6.301  1.00  0.00     0.062 A 
ATOM     17  C   UNL     1      21.702  25.168   5.754  1.00  0.00     0.158 A 
BRANCH  15  18
ATOM     18  O   UNL     1      20.437  24.363   3.860  1.00  0.00    -0.504 OA
ATOM     19  H   UNL     1      20.687  23.743   3.097  1.00  0.00     0.293 HD
ENDBRANCH  15  18
BRANCH  17  20
ATOM     20  O   UNL     1      21.124  24.181   6.550  1.00  0.00    -0.504 OA
ATOM     21  H   UNL     1      20.128  24.162   6.732  1.00  0.00     0.293 HD
ENDBRANCH  17  20
ENDBRANCH   1  12
BRANCH   2  22
ATOM     22  O   UNL     1      25.981  26.376   6.088  1.00  0.00    -0.502 OA
ATOM     23  H   UNL     1      25.959  25.633   6.776  1.00  0.00     0.293 HD
ENDBRANCH   2  22
BRANCH   6  24
ATOM     24  O   UNL     1      28.011  30.726   8.090  1.00  0.00    -0.507 OA
ATOM     25  H   UNL     1      28.721  30.787   7.369  1.00  0.00     0.293 HD
ENDBRANCH   6  24
BRANCH   8  26
ATOM     26  O   UNL     1      24.182  33.660   8.138  1.00  0.00    -0.508 OA
ATOM     27  H   UNL     1      24.637  34.296   8.782  1.00  0.00     0.293 HD
ENDBRANCH   8  26
TORSDOF 6
ENDMDL
MODEL 7
REMARK VINA RESULT:    -5.019      3.271      5.904
REMARK INTER + INTRA:          -6.309
REMARK INTER:                  -6.156
REMARK INTRA:                  -0.154
REMARK UNBOUND:                -0.263
REMARK SMILES O=c1c(O)c(-c2ccc(O)c(O)c2)oc2cc(O)cc(O)c12
REMARK SMILES IDX 5 1 3 2 2 3 1 4 22 5 20 6 19 7 17 8 16 9 15 10 14 11 6 12
REMARK SMILES IDX 7 13 8 14 9 15 13 16 11 17 10 18 12 20 4 22 21 24 18 26
REMARK H PARENT 10 19 12 21 4 23 21 25 18 27
REMARK Flexibility Score: inf
ROOT
ATOM      1  C   UNL     1      24.778  28.767   6.473  1.00  0.00     0.180 A 
ATOM      2  C   UNL     1      25.449  29.509   7.465  1.00  0.00     0.208 A 
ATOM      3  C   UNL     1      25.265  30.899   7.513  1.00  0.00     0.238 A 
ATOM      4  O   UNL     1      25.869  31.576   8.389  1.00  0.00    -0.285 OA
ATOM      5  C   UNL     1      24.402  31.521   6.585  1.00  0.00     0.111 A 
ATOM      6  C   UNL     1      24.160  32.915   6.568  1.00  0.00     0.134 A 
ATOM      7  C   UNL     1      23.279  33.456   5.619  1.00  0.00     0.093 A 
ATOM      8  C   UNL     1      22.638  32.633   4.691  1.00  0.00     0.123 A 
ATOM      9  C   UNL     1      22.875  31.255   4.703  1.00  0.00     0.094 A 
ATOM     10  C   UNL     1      23.750  30.697   5.639  1.00  0.00     0.146 A 
ATOM     11  O   UNL     1      23.960  29.385   5.626  1.00  0.00    -0.452 OA
ENDROOT
BRANCH   1  12
ATOM     12  C   UNL     1      24.936  27.301   6.346  1.00  0.00     0.025 A 
ATOM     13  C   UNL     1      26.188  26.719   6.081  1.00  0.00     0.016 A 
ATOM     14  C   UNL     1      26.307  25.333   5.941  1.00  0.00     0.051 A 
ATOM     15  C   UNL     1      25.179  24.512   6.052  1.00  0.00     0.157 A 
ATOM     16  C   UNL     1      23.803  26.473   6.435  1.00  0.00     0.062 A 
ATOM     17  C   UNL     1      23.924  25.083   6.296  1.00  0.00     0.158 A 
BRANCH  15  18
ATOM     18  O   UNL     1      25.294  23.130   5.915  1.00  0.00    -0.504 OA
ATOM     19  H   UNL     1      25.941  22.594   6.482  1.00  0.00     0.293 HD
ENDBRANCH  15  18
BRANCH  17  20
ATOM     20  O   UNL     1      22.800  24.265   6.398  1.00  0.00    -0.504 OA
ATOM     21  H   UNL     1      22.859  23.263   6.265  1.00  0.00     0.293 HD
ENDBRANCH  17  20
ENDBRANCH   1  12
BRANCH   2  22
ATOM     22  O   UNL     1      26.259  28.864   8.402  1.00  0.00    -0.502 OA
ATOM     23  H   UNL     1      27.125  28.405   8.146  1.00  0.00     0.293 HD
ENDBRANCH   2  22
BRANCH   6  24
ATOM     24  O   UNL     1      24.783  33.765   7.483  1.00  0.00    -0.507 OA
ATOM     25  H   UNL     1      24.987  33.470   8.431  1.00  0.00     0.293 HD
ENDBRANCH   6  24
BRANCH   8  26
ATOM     26  O   UNL     1      21.769  33.196   3.760  1.00  0.00    -0.508 OA
ATOM     27  H   UNL     1      21.167  33.975   4.002  1.00  0.00     0.293 HD
ENDBRANCH   8  26
TORSDOF 6
ENDMDL
MODEL 8
REMARK VINA RESULT:    -5.000      3.935      6.364
REMARK INTER + INTRA:          -6.287
REMARK INTER:                  -5.983
REMARK INTRA:                  -0.304
REMARK UNBOUND:                -0.263
REMARK SMILES O=c1c(O)c(-c2ccc(O)c(O)c2)oc2cc(O)cc(O)c12
REMARK SMILES IDX 5 1 3 2 2 3 1 4 22 5 20 6 19 7 17 8 16 9 15 10 14 11 6 12
REMARK SMILES IDX 7 13 8 14 9 15 13 16 11 17 10 18 12 20 4 22 21 24 18 26
REMARK H PARENT 10 19 12 21 4 23 21 25 18 27
REMARK Flexibility Score: inf
ROOT
ATOM      1  C   UNL     1      23.630  28.667   5.378  1.00  0.00     0.180 A 
ATOM      2  C   UNL     1      24.477  28.908   4.279  1.00  0.00     0.208 A 
ATOM      3  C   UNL     1      25.095  30.163   4.162  1.00  0.00     0.238 A 
ATOM      4  O   UNL     1      25.847  30.395   3.176  1.00  0.00    -0.285 OA
ATOM      5  C   UNL     1      24.874  31.144   5.151  1.00  0.00     0.111 A 
ATOM      6  C   UNL     1      25.461  32.431   5.109  1.00  0.00     0.134 A 
ATOM      7  C   UNL     1      25.199  33.349   6.138  1.00  0.00     0.093 A 
ATOM      8  C   UNL     1      24.365  33.006   7.203  1.00  0.00     0.123 A 
ATOM      9  C   UNL     1      23.781  31.736   7.249  1.00  0.00     0.094 A 
ATOM     10  C   UNL     1      24.028  30.808   6.233  1.00  0.00     0.146 A 
ATOM     11  O   UNL     1      23.457  29.610   6.299  1.00  0.00    -0.452 OA
ENDROOT
BRANCH   1  12
ATOM     12  C   UNL     1      22.928  27.377   5.561  1.00  0.00     0.025 A 
ATOM     13  C   UNL     1      23.451  26.369   6.391  1.00  0.00     0.016 A 
ATOM     14  C   UNL     1      22.781  25.150   6.529  1.00  0.00     0.051 A 
ATOM     15  C   UNL     1      21.590  24.915   5.832  1.00  0.00     0.157 A 
ATOM     16  C   UNL     1      21.743  27.127   4.847  1.00  0.00     0.062 A 
ATOM     17  C   UNL     1      21.071  25.904   4.986  1.00  0.00     0.158 A 
BRANCH  15  18
ATOM     18  O   UNL     1      20.919  23.701   5.968  1.00  0.00    -0.504 OA
ATOM     19  H   UNL     1      20.777  23.274   6.876  1.00  0.00     0.293 HD
ENDBRANCH  15  18
BRANCH  17  20
ATOM     20  O   UNL     1      19.890  25.665   4.287  1.00  0.00    -0.504 OA
ATOM     21  H   UNL     1      19.001  26.031   4.606  1.00  0.00     0.293 HD
ENDBRANCH  17  20
ENDBRANCH   1  12
BRANCH   2  22
ATOM     22  O   UNL     1      24.719  27.904   3.339  1.00  0.00    -0.502 OA
ATOM     23  H   UNL     1      24.561  26.923   3.540  1.00  0.00     0.293 HD
ENDBRANCH   2  22
BRANCH   6  24
ATOM     24  O   UNL     1      26.301  32.805   4.059  1.00  0.00    -0.507 OA
ATOM     25  H   UNL     1      26.956  32.153   3.643  1.00  0.00     0.293 HD
ENDBRANCH   6  24
BRANCH   8  26
ATOM     26  O   UNL     1      24.121  33.936   8.211  1.00  0.00    -0.508 OA
ATOM     27  H   UNL     1      23.178  34.155   8.512  1.00  0.00     0.293 HD
ENDBRANCH   8  26
TORSDOF 6
ENDMDL
