MODEL 1
REMARK VINA RESULT:    -4.606      0.000      0.000
REMARK INTER + INTRA:          -9.216
REMARK INTER:                  -7.837
REMARK INTRA:                  -1.378
REMARK UNBOUND:                -1.378
REMARK SMILES CCCCCCCCCCCCCC(=O)[O-]
REMARK SMILES IDX 8 1 9 2 10 3 11 4 12 5 13 6 14 7 15 8 16 9 7 10 6 11 5 12
REMARK SMILES IDX 4 13 3 14 2 15 1 16
REMARK H PARENT
REMARK Flexibility Score: inf
ROOT
ATOM      1  C   UNL     1      -8.000 -32.741  41.059  1.00  0.00     0.000 C 
ENDROOT
BRANCH   1   2
ATOM      2  C   UNL     1      -7.948 -31.234  41.363  1.00  0.00     0.000 C 
BRANCH   2   3
ATOM      3  C   UNL     1      -7.283 -30.917  42.715  1.00  0.00     0.000 C 
BRANCH   3   4
ATOM      4  C   UNL     1      -7.066 -32.129  43.641  1.00  0.00     0.000 C 
BRANCH   4   5
ATOM      5  C   UNL     1      -7.157 -31.769  45.132  1.00  0.00     0.006 C 
BRANCH   5   6
ATOM      6  C   UNL     1      -5.761 -31.664  45.756  1.00  0.00     0.053 C 
BRANCH   6   7
ATOM      7  C   UNL     1      -5.262 -30.254  45.688  1.00  0.00     0.041 C 
ATOM      8  O   UNL     1      -5.685 -29.392  46.503  1.00  0.00    -0.550 OA
ATOM      9  O   UNL     1      -4.366 -29.882  44.694  1.00  0.00    -0.550 OA
ENDBRANCH   6   7
ENDBRANCH   5   6
ENDBRANCH   4   5
ENDBRANCH   3   4
ENDBRANCH   2   3
ENDBRANCH   1   2
BRANCH   1  10
ATOM     10  C   UNL     1      -9.427 -33.247  40.773  1.00  0.00     0.000 C 
BRANCH  10  11
ATOM     11  C   UNL     1     -10.030 -34.161  41.855  1.00  0.00    -0.000 C 
BRANCH  11  12
ATOM     12  C   UNL     1     -10.545 -33.385  43.078  1.00  0.00    -0.000 C 
BRANCH  12  13
ATOM     13  C   UNL     1     -10.180 -34.107  44.381  1.00  0.00    -0.000 C 
BRANCH  13  14
ATOM     14  C   UNL     1      -9.631 -35.512  44.096  1.00  0.00    -0.000 C 
BRANCH  14  15
ATOM     15  C   UNL     1     -10.547 -36.624  44.631  1.00  0.00    -0.003 C 
ATOM     16  C   UNL     1     -11.016 -36.366  46.063  1.00  0.00     0.004 C 
ENDBRANCH  14  15
ENDBRANCH  13  14
ENDBRANCH  12  13
ENDBRANCH  11  12
ENDBRANCH  10  11
ENDBRANCH   1  10
TORSDOF 12
ENDMDL
MODEL 2
REMARK VINA RESULT:    -4.497      3.261      5.796
REMARK INTER + INTRA:          -9.029
REMARK INTER:                  -7.875
REMARK INTRA:                  -1.155
REMARK UNBOUND:                -1.378
REMARK SMILES CCCCCCCCCCCCCC(=O)[O-]
REMARK SMILES IDX 8 1 9 2 10 3 11 4 12 5 13 6 14 7 15 8 16 9 7 10 6 11 5 12
REMARK SMILES IDX 4 13 3 14 2 15 1 16
REMARK H PARENT
REMARK Flexibility Score: inf
ROOT
ATOM      1  C   UNL     1     -11.018 -37.304  44.564  1.00  0.00     0.000 C 
ENDROOT
BRANCH   1   2
ATOM      2  C   UNL     1      -9.953 -36.209  44.374  1.00  0.00     0.000 C 
BRANCH   2   3
ATOM      3  C   UNL     1     -10.494 -34.793  44.644  1.00  0.00     0.000 C 
BRANCH   3   4
ATOM      4  C   UNL     1     -10.181 -33.751  43.554  1.00  0.00     0.000 C 
BRANCH   4   5
ATOM      5  C   UNL     1      -9.848 -34.385  42.195  1.00  0.00     0.006 C 
BRANCH   5   6
ATOM      6  C   UNL     1      -9.695 -33.312  41.113  1.00  0.00     0.053 C 
BRANCH   6   7
ATOM      7  C   UNL     1      -8.339 -32.683  41.187  1.00  0.00     0.041 C 
ATOM      8  O   UNL     1      -7.312 -33.403  41.306  1.00  0.00    -0.550 OA
ATOM      9  O   UNL     1      -8.213 -31.300  41.175  1.00  0.00    -0.550 OA
ENDBRANCH   6   7
ENDBRANCH   5   6
ENDBRANCH   4   5
ENDBRANCH   3   4
ENDBRANCH   2   3
ENDBRANCH   1   2
BRANCH   1  10
ATOM     10  C   UNL     1     -10.490 -38.716  44.246  1.00  0.00     0.000 C 
BRANCH  10  11
ATOM     11  C   UNL     1     -11.328 -39.875  44.817  1.00  0.00    -0.000 C 
BRANCH  11  12
ATOM     12  C   UNL     1     -10.828 -40.360  46.187  1.00  0.00    -0.000 C 
BRANCH  12  13
ATOM     13  C   UNL     1     -11.624 -39.709  47.325  1.00  0.00    -0.000 C 
BRANCH  13  14
ATOM     14  C   UNL     1     -10.685 -39.139  48.397  1.00  0.00    -0.000 C 
BRANCH  14  15
ATOM     15  C   UNL     1     -10.122 -37.760  48.015  1.00  0.00    -0.003 C 
ATOM     16  C   UNL     1      -8.620 -37.792  47.737  1.00  0.00     0.004 C 
ENDBRANCH  14  15
ENDBRANCH  13  14
ENDBRANCH  12  13
ENDBRANCH  11  12
ENDBRANCH  10  11
ENDBRANCH   1  10
TORSDOF 12
ENDMDL
MODEL 3
REMARK VINA RESULT:    -4.445      1.558      2.557
REMARK INTER + INTRA:          -8.941
REMARK INTER:                  -8.054
REMARK INTRA:                  -0.887
REMARK UNBOUND:                -1.378
REMARK SMILES CCCCCCCCCCCCCC(=O)[O-]
REMARK SMILES IDX 8 1 9 2 10 3 11 4 12 5 13 6 14 7 15 8 16 9 7 10 6 11 5 12
REMARK SMILES IDX 4 13 3 14 2 15 1 16
REMARK H PARENT
REMARK Flexibility Score: inf
ROOT
ATOM      1  C   UNL     1      -7.504 -31.904  42.816  1.00  0.00     0.000 C 
ENDROOT
BRANCH   1   2
ATOM      2  C   UNL     1      -7.378 -32.259  44.307  1.00  0.00     0.000 C 
BRANCH   2   3
ATOM      3  C   UNL     1      -6.039 -31.810  44.921  1.00  0.00     0.000 C 
BRANCH   3   4
ATOM      4  C   UNL     1      -5.984 -30.339  45.373  1.00  0.00     0.000 C 
BRANCH   4   5
ATOM      5  C   UNL     1      -5.084 -29.470  44.482  1.00  0.00     0.006 C 
BRANCH   5   6
ATOM      6  C   UNL     1      -3.624 -29.548  44.937  1.00  0.00     0.053 C 
BRANCH   6   7
ATOM      7  C   UNL     1      -3.179 -28.233  45.496  1.00  0.00     0.041 C 
ATOM      8  O   UNL     1      -1.984 -27.858  45.360  1.00  0.00    -0.550 OA
ATOM      9  O   UNL     1      -4.071 -27.444  46.211  1.00  0.00    -0.550 OA
ENDBRANCH   6   7
ENDBRANCH   5   6
ENDBRANCH   4   5
ENDBRANCH   3   4
ENDBRANCH   2   3
ENDBRANCH   1   2
BRANCH   1  10
ATOM     10  C   UNL     1      -7.483 -33.142  41.899  1.00  0.00     0.000 C 
BRANCH  10  11
ATOM     11  C   UNL     1      -8.673 -33.262  40.929  1.00  0.00    -0.000 C 
BRANCH  11  12
ATOM     12  C   UNL     1     -10.030 -33.316  41.646  1.00  0.00    -0.000 C 
BRANCH  12  13
ATOM     13  C   UNL     1     -10.122 -34.544  42.559  1.00  0.00    -0.000 C 
BRANCH  13  14
ATOM     14  C   UNL     1     -10.532 -34.142  43.983  1.00  0.00    -0.000 C 
BRANCH  14  15
ATOM     15  C   UNL     1     -10.391 -35.297  44.987  1.00  0.00    -0.003 C 
ATOM     16  C   UNL     1     -10.678 -36.662  44.362  1.00  0.00     0.004 C 
ENDBRANCH  14  15
ENDBRANCH  13  14
ENDBRANCH  12  13
ENDBRANCH  11  12
ENDBRANCH  10  11
ENDBRANCH   1  10
TORSDOF 12
ENDMDL
MODEL 4
REMARK VINA RESULT:    -4.423      4.046      6.381
REMARK INTER + INTRA:          -8.905
REMARK INTER:                  -7.677
REMARK INTRA:                  -1.228
REMARK UNBOUND:                -1.378
REMARK SMILES CCCCCCCCCCCCCC(=O)[O-]
REMARK SMILES IDX 8 1 9 2 10 3 11 4 12 5 13 6 14 7 15 8 16 9 7 10 6 11 5 12
REMARK SMILES IDX 4 13 3 14 2 15 1 16
REMARK H PARENT
REMARK Flexibility Score: inf
ROOT
ATOM      1  C   UNL     1      -9.866 -34.336  42.049  1.00  0.00     0.000 C 
ENDROOT
BRANCH   1   2
ATOM      2  C   UNL     1     -10.546 -33.607  43.221  1.00  0.00     0.000 C 
BRANCH   2   3
ATOM      3  C   UNL     1     -10.585 -34.450  44.510  1.00  0.00     0.000 C 
BRANCH   3   4
ATOM      4  C   UNL     1      -9.791 -35.768  44.457  1.00  0.00     0.000 C 
BRANCH   4   5
ATOM      5  C   UNL     1     -10.692 -37.012  44.443  1.00  0.00     0.006 C 
BRANCH   5   6
ATOM      6  C   UNL     1      -9.890 -38.274  44.772  1.00  0.00     0.053 C 
BRANCH   6   7
ATOM      7  C   UNL     1     -10.450 -38.949  45.985  1.00  0.00     0.041 C 
ATOM      8  O   UNL     1     -10.651 -38.292  47.040  1.00  0.00    -0.550 OA
ATOM      9  O   UNL     1     -10.705 -40.315  45.965  1.00  0.00    -0.550 OA
ENDBRANCH   6   7
ENDBRANCH   5   6
ENDBRANCH   4   5
ENDBRANCH   3   4
ENDBRANCH   2   3
ENDBRANCH   1   2
BRANCH   1  10
ATOM     10  C   UNL     1      -9.408 -33.379  40.932  1.00  0.00     0.000 C 
BRANCH  10  11
ATOM     11  C   UNL     1      -7.999 -32.785  41.110  1.00  0.00    -0.000 C 
BRANCH  11  12
ATOM     12  C   UNL     1      -8.015 -31.281  41.422  1.00  0.00    -0.000 C 
BRANCH  12  13
ATOM     13  C   UNL     1      -7.217 -30.975  42.695  1.00  0.00    -0.000 C 
BRANCH  13  14
ATOM     14  C   UNL     1      -7.179 -32.195  43.627  1.00  0.00    -0.000 C 
BRANCH  14  15
ATOM     15  C   UNL     1      -6.945 -31.808  45.096  1.00  0.00    -0.003 C 
ATOM     16  C   UNL     1      -8.123 -32.171  45.999  1.00  0.00     0.004 C 
ENDBRANCH  14  15
ENDBRANCH  13  14
ENDBRANCH  12  13
ENDBRANCH  11  12
ENDBRANCH  10  11
ENDBRANCH   1  10
TORSDOF 12
ENDMDL
MODEL 5
REMARK VINA RESULT:    -4.379      3.564      6.575
REMARK INTER + INTRA:          -8.829
REMARK INTER:                  -7.521
REMARK INTRA:                  -1.308
REMARK UNBOUND:                -1.378
REMARK SMILES CCCCCCCCCCCCCC(=O)[O-]
REMARK SMILES IDX 8 1 9 2 10 3 11 4 12 5 13 6 14 7 15 8 16 9 7 10 6 11 5 12
REMARK SMILES IDX 4 13 3 14 2 15 1 16
REMARK H PARENT
REMARK Flexibility Score: inf
ROOT
ATOM      1  C   UNL     1      -8.626 -38.677  45.613  1.00  0.00     0.000 C 
ENDROOT
BRANCH   1   2
ATOM      2  C   UNL     1      -9.798 -38.219  44.728  1.00  0.00     0.000 C 
BRANCH   2   3
ATOM      3  C   UNL     1     -10.243 -36.775  45.022  1.00  0.00     0.000 C 
BRANCH   3   4
ATOM      4  C   UNL     1     -10.141 -35.801  43.834  1.00  0.00     0.000 C 
BRANCH   4   5
ATOM      5  C   UNL     1     -10.283 -34.329  44.250  1.00  0.00     0.006 C 
BRANCH   5   6
ATOM      6  C   UNL     1     -10.605 -33.446  43.040  1.00  0.00     0.053 C 
BRANCH   6   7
ATOM      7  C   UNL     1      -9.414 -33.334  42.142  1.00  0.00     0.041 C 
ATOM      8  O   UNL     1      -9.492 -33.695  40.937  1.00  0.00    -0.550 OA
ATOM      9  O   UNL     1      -8.203 -32.877  42.646  1.00  0.00    -0.550 OA
ENDBRANCH   6   7
ENDBRANCH   5   6
ENDBRANCH   4   5
ENDBRANCH   3   4
ENDBRANCH   2   3
ENDBRANCH   1   2
BRANCH   1  10
ATOM     10  C   UNL     1      -8.747 -38.192  47.070  1.00  0.00     0.000 C 
BRANCH  10  11
ATOM     11  C   UNL     1      -8.294 -39.202  48.140  1.00  0.00    -0.000 C 
BRANCH  11  12
ATOM     12  C   UNL     1      -9.411 -40.167  48.567  1.00  0.00    -0.000 C 
BRANCH  12  13
ATOM     13  C   UNL     1     -10.793 -39.537  48.354  1.00  0.00    -0.000 C 
BRANCH  13  14
ATOM     14  C   UNL     1     -11.620 -40.352  47.349  1.00  0.00    -0.000 C 
BRANCH  14  15
ATOM     15  C   UNL     1     -12.678 -39.501  46.628  1.00  0.00    -0.003 C 
ATOM     16  C   UNL     1     -12.849 -38.117  47.253  1.00  0.00     0.004 C 
ENDBRANCH  14  15
ENDBRANCH  13  14
ENDBRANCH  12  13
ENDBRANCH  11  12
ENDBRANCH  10  11
ENDBRANCH   1  10
TORSDOF 12
ENDMDL
MODEL 6
REMARK VINA RESULT:    -4.332      4.338      7.495
REMARK INTER + INTRA:          -8.748
REMARK INTER:                  -7.072
REMARK INTRA:                  -1.676
REMARK UNBOUND:                -1.378
REMARK SMILES CCCCCCCCCCCCCC(=O)[O-]
REMARK SMILES IDX 8 1 9 2 10 3 11 4 12 5 13 6 14 7 15 8 16 9 7 10 6 11 5 12
REMARK SMILES IDX 4 13 3 14 2 15 1 16
REMARK H PARENT
REMARK Flexibility Score: inf
ROOT
ATOM      1  C   UNL     1     -11.571 -40.693  45.727  1.00  0.00     0.000 C 
ENDROOT
BRANCH   1   2
ATOM      2  C   UNL     1     -11.219 -39.872  44.474  1.00  0.00     0.000 C 
BRANCH   2   3
ATOM      3  C   UNL     1      -9.737 -39.457  44.425  1.00  0.00     0.000 C 
BRANCH   3   4
ATOM      4  C   UNL     1      -9.473 -37.946  44.571  1.00  0.00     0.000 C 
BRANCH   4   5
ATOM      5  C   UNL     1     -10.695 -37.086  44.217  1.00  0.00     0.006 C 
BRANCH   5   6
ATOM      6  C   UNL     1     -10.583 -35.692  44.841  1.00  0.00     0.053 C 
BRANCH   6   7
ATOM      7  C   UNL     1     -10.134 -34.695  43.820  1.00  0.00     0.041 C 
ATOM      8  O   UNL     1     -10.834 -33.676  43.579  1.00  0.00    -0.550 OA
ATOM      9  O   UNL     1      -8.967 -34.915  43.100  1.00  0.00    -0.550 OA
ENDBRANCH   6   7
ENDBRANCH   5   6
ENDBRANCH   4   5
ENDBRANCH   3   4
ENDBRANCH   2   3
ENDBRANCH   1   2
BRANCH   1  10
ATOM     10  C   UNL     1     -12.741 -40.093  46.529  1.00  0.00     0.000 C 
BRANCH  10  11
ATOM     11  C   UNL     1     -12.535 -38.645  47.010  1.00  0.00    -0.000 C 
BRANCH  11  12
ATOM     12  C   UNL     1     -11.231 -38.454  47.800  1.00  0.00    -0.000 C 
BRANCH  12  13
ATOM     13  C   UNL     1     -11.281 -39.205  49.135  1.00  0.00    -0.000 C 
BRANCH  13  14
ATOM     14  C   UNL     1     -10.140 -40.228  49.233  1.00  0.00    -0.000 C 
BRANCH  14  15
ATOM     15  C   UNL     1      -9.046 -39.995  48.180  1.00  0.00    -0.003 C 
ATOM     16  C   UNL     1      -7.683 -40.533  48.614  1.00  0.00     0.004 C 
ENDBRANCH  14  15
ENDBRANCH  13  14
ENDBRANCH  12  13
ENDBRANCH  11  12
ENDBRANCH  10  11
ENDBRANCH   1  10
TORSDOF 12
ENDMDL
MODEL 7
REMARK VINA RESULT:    -4.254      2.438      4.157
REMARK INTER + INTRA:          -8.616
REMARK INTER:                  -7.777
REMARK INTRA:                  -0.839
REMARK UNBOUND:                -1.378
REMARK SMILES CCCCCCCCCCCCCC(=O)[O-]
REMARK SMILES IDX 8 1 9 2 10 3 11 4 12 5 13 6 14 7 15 8 16 9 7 10 6 11 5 12
REMARK SMILES IDX 4 13 3 14 2 15 1 16
REMARK H PARENT
REMARK Flexibility Score: inf
ROOT
ATOM      1  C   UNL     1      -6.292 -31.030  44.955  1.00  0.00     0.000 C 
ENDROOT
BRANCH   1   2
ATOM      2  C   UNL     1      -5.911 -29.778  44.146  1.00  0.00     0.000 C 
BRANCH   2   3
ATOM      3  C   UNL     1      -5.298 -28.665  45.015  1.00  0.00     0.000 C 
BRANCH   3   4
ATOM      4  C   UNL     1      -4.074 -29.083  45.851  1.00  0.00     0.000 C 
BRANCH   4   5
ATOM      5  C   UNL     1      -2.880 -29.520  44.989  1.00  0.00     0.006 C 
BRANCH   5   6
ATOM      6  C   UNL     1      -1.627 -28.709  45.338  1.00  0.00     0.053 C 
BRANCH   6   7
ATOM      7  C   UNL     1      -1.106 -29.104  46.684  1.00  0.00     0.041 C 
ATOM      8  O   UNL     1      -0.610 -30.248  46.861  1.00  0.00    -0.550 OA
ATOM      9  O   UNL     1      -1.211 -28.225  47.755  1.00  0.00    -0.550 OA
ENDBRANCH   6   7
ENDBRANCH   5   6
ENDBRANCH   4   5
ENDBRANCH   3   4
ENDBRANCH   2   3
ENDBRANCH   1   2
BRANCH   1  10
ATOM     10  C   UNL     1      -6.994 -32.105  44.104  1.00  0.00     0.000 C 
BRANCH  10  11
ATOM     11  C   UNL     1      -7.480 -31.635  42.720  1.00  0.00    -0.000 C 
BRANCH  11  12
ATOM     12  C   UNL     1      -7.631 -32.785  41.713  1.00  0.00    -0.000 C 
BRANCH  12  13
ATOM     13  C   UNL     1      -9.037 -32.800  41.101  1.00  0.00    -0.000 C 
BRANCH  13  14
ATOM     14  C   UNL     1      -9.903 -33.897  41.737  1.00  0.00    -0.000 C 
BRANCH  14  15
ATOM     15  C   UNL     1     -10.644 -33.411  42.992  1.00  0.00    -0.003 C 
ATOM     16  C   UNL     1     -10.247 -34.184  44.250  1.00  0.00     0.004 C 
ENDBRANCH  14  15
ENDBRANCH  13  14
ENDBRANCH  12  13
ENDBRANCH  11  12
ENDBRANCH  10  11
ENDBRANCH   1  10
TORSDOF 12
ENDMDL
MODEL 8
REMARK VINA RESULT:    -4.248      5.022      7.851
REMARK INTER + INTRA:          -8.607
REMARK INTER:                  -7.671
REMARK INTRA:                  -0.936
REMARK UNBOUND:                -1.378
REMARK SMILES CCCCCCCCCCCCCC(=O)[O-]
REMARK SMILES IDX 8 1 9 2 10 3 11 4 12 5 13 6 14 7 15 8 16 9 7 10 6 11 5 12
REMARK SMILES IDX 4 13 3 14 2 15 1 16
REMARK H PARENT
REMARK Flexibility Score: inf
ROOT
ATOM      1  C   UNL     1      -9.615 -35.981  44.228  1.00  0.00     0.000 C 
ENDROOT
BRANCH   1   2
ATOM      2  C   UNL     1     -10.604 -37.136  44.458  1.00  0.00     0.000 C 
BRANCH   2   3
ATOM      3  C   UNL     1     -10.182 -38.067  45.610  1.00  0.00     0.000 C 
BRANCH   3   4
ATOM      4  C   UNL     1      -9.904 -39.527  45.206  1.00  0.00     0.000 C 
BRANCH   4   5
ATOM      5  C   UNL     1      -8.893 -39.650  44.056  1.00  0.00     0.006 C 
BRANCH   5   6
ATOM      6  C   UNL     1      -9.356 -40.688  43.029  1.00  0.00     0.053 C 
BRANCH   6   7
ATOM      7  C   UNL     1      -8.198 -41.508  42.554  1.00  0.00     0.041 C 
ATOM      8  O   UNL     1      -8.344 -42.319  41.602  1.00  0.00    -0.550 OA
ATOM      9  O   UNL     1      -6.969 -41.412  43.196  1.00  0.00    -0.550 OA
ENDBRANCH   6   7
ENDBRANCH   5   6
ENDBRANCH   4   5
ENDBRANCH   3   4
ENDBRANCH   2   3
ENDBRANCH   1   2
BRANCH   1  10
ATOM     10  C   UNL     1     -10.200 -34.605  44.601  1.00  0.00     0.000 C 
BRANCH  10  11
ATOM     11  C   UNL     1     -10.503 -33.675  43.412  1.00  0.00    -0.000 C 
BRANCH  11  12
ATOM     12  C   UNL     1     -10.090 -34.275  42.059  1.00  0.00    -0.000 C 
BRANCH  12  13
ATOM     13  C   UNL     1      -9.394 -33.227  41.182  1.00  0.00    -0.000 C 
BRANCH  13  14
ATOM     14  C   UNL     1      -7.893 -33.157  41.497  1.00  0.00    -0.000 C 
BRANCH  14  15
ATOM     15  C   UNL     1      -7.508 -31.876  42.255  1.00  0.00    -0.003 C 
ATOM     16  C   UNL     1      -7.101 -32.146  43.703  1.00  0.00     0.004 C 
ENDBRANCH  14  15
ENDBRANCH  13  14
ENDBRANCH  12  13
ENDBRANCH  11  12
ENDBRANCH  10  11
ENDBRANCH   1  10
TORSDOF 12
ENDMDL
MODEL 9
REMARK VINA RESULT:    -4.221      3.247      6.144
REMARK INTER + INTRA:          -8.561
REMARK INTER:                  -6.883
REMARK INTRA:                  -1.678
REMARK UNBOUND:                -1.378
REMARK SMILES CCCCCCCCCCCCCC(=O)[O-]
REMARK SMILES IDX 8 1 9 2 10 3 11 4 12 5 13 6 14 7 15 8 16 9 7 10 6 11 5 12
REMARK SMILES IDX 4 13 3 14 2 15 1 16
REMARK H PARENT
REMARK Flexibility Score: inf
ROOT
ATOM      1  C   UNL     1      -9.205 -39.346  45.103  1.00  0.00     0.000 C 
ENDROOT
BRANCH   1   2
ATOM      2  C   UNL     1      -8.746 -38.000  44.515  1.00  0.00     0.000 C 
BRANCH   2   3
ATOM      3  C   UNL     1      -9.519 -36.799  45.090  1.00  0.00     0.000 C 
BRANCH   3   4
ATOM      4  C   UNL     1     -10.575 -36.187  44.150  1.00  0.00     0.000 C 
BRANCH   4   5
ATOM      5  C   UNL     1     -10.507 -34.654  44.089  1.00  0.00     0.006 C 
BRANCH   5   6
ATOM      6  C   UNL     1     -10.152 -34.177  42.677  1.00  0.00     0.053 C 
BRANCH   6   7
ATOM      7  C   UNL     1      -8.745 -33.670  42.634  1.00  0.00     0.041 C 
ATOM      8  O   UNL     1      -8.072 -33.756  41.573  1.00  0.00    -0.550 OA
ATOM      9  O   UNL     1      -8.160 -33.146  43.780  1.00  0.00    -0.550 OA
ENDBRANCH   6   7
ENDBRANCH   5   6
ENDBRANCH   4   5
ENDBRANCH   3   4
ENDBRANCH   2   3
ENDBRANCH   1   2
BRANCH   1  10
ATOM     10  C   UNL     1     -10.105 -40.145  44.141  1.00  0.00     0.000 C 
BRANCH  10  11
ATOM     11  C   UNL     1     -11.496 -40.510  44.691  1.00  0.00    -0.000 C 
BRANCH  11  12
ATOM     12  C   UNL     1     -12.345 -39.278  45.043  1.00  0.00    -0.000 C 
BRANCH  12  13
ATOM     13  C   UNL     1     -12.794 -39.320  46.508  1.00  0.00    -0.000 C 
BRANCH  13  14
ATOM     14  C   UNL     1     -12.288 -38.089  47.274  1.00  0.00    -0.000 C 
BRANCH  14  15
ATOM     15  C   UNL     1     -11.064 -38.401  48.150  1.00  0.00    -0.003 C 
ATOM     16  C   UNL     1     -10.960 -39.882  48.514  1.00  0.00     0.004 C 
ENDBRANCH  14  15
ENDBRANCH  13  14
ENDBRANCH  12  13
ENDBRANCH  11  12
ENDBRANCH  10  11
ENDBRANCH   1  10
TORSDOF 12
ENDMDL
