MODEL 1
REMARK VINA RESULT:    -6.081      0.000      0.000
REMARK INTER + INTRA:         -12.571
REMARK INTER:                 -11.769
REMARK INTRA:                  -0.802
REMARK UNBOUND:                -0.802
REMARK SMILES CCCCCCCCCCCCCCCCCC(=O)[O-]
REMARK SMILES IDX 10 1 11 2 12 3 13 4 14 5 15 6 16 7 17 8 18 9 19 10 20 11
REMARK SMILES IDX 9 12 8 13 7 14 6 15 5 16 4 17 3 18 2 19 1 20
REMARK H PARENT
REMARK Flexibility Score: inf
ROOT
ATOM      1  C   UNL     1      89.248 325.125 198.391  1.00  0.00     0.000 C 
ENDROOT
BRANCH   1   2
ATOM      2  C   UNL     1      89.368 325.080 199.923  1.00  0.00     0.000 C 
BRANCH   2   3
ATOM      3  C   UNL     1      89.500 326.481 200.548  1.00  0.00     0.000 C 
BRANCH   3   4
ATOM      4  C   UNL     1      88.897 326.560 201.960  1.00  0.00     0.000 C 
BRANCH   4   5
ATOM      5  C   UNL     1      89.878 327.150 202.987  1.00  0.00     0.000 C 
BRANCH   5   6
ATOM      6  C   UNL     1      89.172 327.752 204.214  1.00  0.00     0.000 C 
BRANCH   6   7
ATOM      7  C   UNL     1      89.806 327.408 205.577  1.00  0.00     0.006 C 
BRANCH   7   8
ATOM      8  C   UNL     1      88.847 326.709 206.558  1.00  0.00     0.053 C 
BRANCH   8   9
ATOM      9  C   UNL     1      88.234 325.467 205.981  1.00  0.00     0.041 C 
ATOM     10  O   UNL     1      88.965 324.562 205.499  1.00  0.00    -0.550 OA
ATOM     11  O   UNL     1      86.852 325.328 205.937  1.00  0.00    -0.550 OA
ENDBRANCH   8   9
ENDBRANCH   7   8
ENDBRANCH   6   7
ENDBRANCH   5   6
ENDBRANCH   4   5
ENDBRANCH   3   4
ENDBRANCH   2   3
ENDBRANCH   1   2
BRANCH   1  12
ATOM     12  C   UNL     1      88.806 326.506 197.875  1.00  0.00     0.000 C 
BRANCH  12  13
ATOM     13  C   UNL     1      88.573 326.522 196.355  1.00  0.00    -0.000 C 
BRANCH  13  14
ATOM     14  C   UNL     1      87.448 325.573 195.916  1.00  0.00    -0.000 C 
BRANCH  14  15
ATOM     15  C   UNL     1      86.513 326.262 194.912  1.00  0.00    -0.000 C 
BRANCH  15  16
ATOM     16  C   UNL     1      86.571 325.627 193.513  1.00  0.00    -0.000 C 
BRANCH  16  17
ATOM     17  C   UNL     1      87.984 325.646 192.911  1.00  0.00    -0.000 C 
BRANCH  17  18
ATOM     18  C   UNL     1      88.377 324.259 192.389  1.00  0.00    -0.000 C 
BRANCH  18  19
ATOM     19  C   UNL     1      88.600 324.285 190.872  1.00  0.00    -0.003 C 
ATOM     20  C   UNL     1      87.810 323.178 190.180  1.00  0.00     0.004 C 
ENDBRANCH  18  19
ENDBRANCH  17  18
ENDBRANCH  16  17
ENDBRANCH  15  16
ENDBRANCH  14  15
ENDBRANCH  13  14
ENDBRANCH  12  13
ENDBRANCH   1  12
TORSDOF 16
ENDMDL
MODEL 2
REMARK VINA RESULT:    -6.058     19.543     20.764
REMARK INTER + INTRA:         -12.527
REMARK INTER:                 -11.891
REMARK INTRA:                  -0.636
REMARK UNBOUND:                -0.802
REMARK SMILES CCCCCCCCCCCCCCCCCC(=O)[O-]
REMARK SMILES IDX 10 1 11 2 12 3 13 4 14 5 15 6 16 7 17 8 18 9 19 10 20 11
REMARK SMILES IDX 9 12 8 13 7 14 6 15 5 16 4 17 3 18 2 19 1 20
REMARK H PARENT
REMARK Flexibility Score: inf
ROOT
ATOM      1  C   UNL     1     104.297 312.318 195.543  1.00  0.00     0.000 C 
ENDROOT
BRANCH   1   2
ATOM      2  C   UNL     1     104.170 311.544 196.866  1.00  0.00     0.000 C 
BRANCH   2   3
ATOM      3  C   UNL     1     103.872 312.464 198.064  1.00  0.00     0.000 C 
BRANCH   3   4
ATOM      4  C   UNL     1     103.937 311.725 199.410  1.00  0.00     0.000 C 
BRANCH   4   5
ATOM      5  C   UNL     1     102.567 311.645 200.104  1.00  0.00     0.000 C 
BRANCH   5   6
ATOM      6  C   UNL     1     102.672 311.309 201.602  1.00  0.00     0.000 C 
BRANCH   6   7
ATOM      7  C   UNL     1     104.053 311.554 202.241  1.00  0.00     0.006 C 
BRANCH   7   8
ATOM      8  C   UNL     1     104.417 310.552 203.353  1.00  0.00     0.053 C 
BRANCH   8   9
ATOM      9  C   UNL     1     103.806 310.908 204.675  1.00  0.00     0.041 C 
ATOM     10  O   UNL     1     104.419 311.661 205.478  1.00  0.00    -0.550 OA
ATOM     11  O   UNL     1     102.576 310.374 205.040  1.00  0.00    -0.550 OA
ENDBRANCH   8   9
ENDBRANCH   7   8
ENDBRANCH   6   7
ENDBRANCH   5   6
ENDBRANCH   4   5
ENDBRANCH   3   4
ENDBRANCH   2   3
ENDBRANCH   1   2
BRANCH   1  12
ATOM     12  C   UNL     1     105.578 311.959 194.771  1.00  0.00     0.000 C 
BRANCH  12  13
ATOM     13  C   UNL     1     105.289 311.455 193.348  1.00  0.00    -0.000 C 
BRANCH  13  14
ATOM     14  C   UNL     1     104.610 312.516 192.468  1.00  0.00    -0.000 C 
BRANCH  14  15
ATOM     15  C   UNL     1     105.653 313.432 191.811  1.00  0.00    -0.000 C 
BRANCH  15  16
ATOM     16  C   UNL     1     105.019 314.493 190.897  1.00  0.00    -0.000 C 
BRANCH  16  17
ATOM     17  C   UNL     1     103.718 314.010 190.240  1.00  0.00    -0.000 C 
BRANCH  17  18
ATOM     18  C   UNL     1     103.421 314.803 188.962  1.00  0.00    -0.000 C 
BRANCH  18  19
ATOM     19  C   UNL     1     102.287 314.151 188.161  1.00  0.00    -0.003 C 
ATOM     20  C   UNL     1     101.157 315.142 187.899  1.00  0.00     0.004 C 
ENDBRANCH  18  19
ENDBRANCH  17  18
ENDBRANCH  16  17
ENDBRANCH  15  16
ENDBRANCH  14  15
ENDBRANCH  13  14
ENDBRANCH  12  13
ENDBRANCH   1  12
TORSDOF 16
ENDMDL
MODEL 3
REMARK VINA RESULT:    -6.047      1.334      2.159
REMARK INTER + INTRA:         -12.505
REMARK INTER:                 -11.205
REMARK INTRA:                  -1.299
REMARK UNBOUND:                -0.802
REMARK SMILES CCCCCCCCCCCCCCCCCC(=O)[O-]
REMARK SMILES IDX 10 1 11 2 12 3 13 4 14 5 15 6 16 7 17 8 18 9 19 10 20 11
REMARK SMILES IDX 9 12 8 13 7 14 6 15 5 16 4 17 3 18 2 19 1 20
REMARK H PARENT
REMARK Flexibility Score: inf
ROOT
ATOM      1  C   UNL     1      88.580 324.291 196.639  1.00  0.00     0.000 C 
ENDROOT
BRANCH   1   2
ATOM      2  C   UNL     1      88.973 324.154 198.119  1.00  0.00     0.000 C 
BRANCH   2   3
ATOM      3  C   UNL     1      89.330 325.506 198.764  1.00  0.00     0.000 C 
BRANCH   3   4
ATOM      4  C   UNL     1      89.186 325.489 200.295  1.00  0.00     0.000 C 
BRANCH   4   5
ATOM      5  C   UNL     1      89.524 326.847 200.932  1.00  0.00     0.000 C 
BRANCH   5   6
ATOM      6  C   UNL     1      90.894 326.857 201.633  1.00  0.00     0.000 C 
BRANCH   6   7
ATOM      7  C   UNL     1      90.890 327.366 203.088  1.00  0.00     0.006 C 
BRANCH   7   8
ATOM      8  C   UNL     1      89.483 327.525 203.694  1.00  0.00     0.053 C 
BRANCH   8   9
ATOM      9  C   UNL     1      89.439 327.180 205.153  1.00  0.00     0.041 C 
ATOM     10  O   UNL     1      88.496 326.484 205.615  1.00  0.00    -0.550 OA
ATOM     11  O   UNL     1      90.419 327.662 206.012  1.00  0.00    -0.550 OA
ENDBRANCH   8   9
ENDBRANCH   7   8
ENDBRANCH   6   7
ENDBRANCH   5   6
ENDBRANCH   4   5
ENDBRANCH   3   4
ENDBRANCH   2   3
ENDBRANCH   1   2
BRANCH   1  12
ATOM     12  C   UNL     1      87.825 325.600 196.349  1.00  0.00     0.000 C 
BRANCH  12  13
ATOM     13  C   UNL     1      88.565 326.498 195.345  1.00  0.00    -0.000 C 
BRANCH  13  14
ATOM     14  C   UNL     1      87.709 326.852 194.119  1.00  0.00    -0.000 C 
BRANCH  14  15
ATOM     15  C   UNL     1      86.401 326.048 194.115  1.00  0.00    -0.000 C 
BRANCH  15  16
ATOM     16  C   UNL     1      86.317 325.056 192.943  1.00  0.00    -0.000 C 
BRANCH  16  17
ATOM     17  C   UNL     1      87.055 323.739 193.226  1.00  0.00    -0.000 C 
BRANCH  17  18
ATOM     18  C   UNL     1      88.418 323.713 192.524  1.00  0.00    -0.000 C 
BRANCH  18  19
ATOM     19  C   UNL     1      88.394 324.557 191.245  1.00  0.00    -0.003 C 
ATOM     20  C   UNL     1      88.772 323.721 190.026  1.00  0.00     0.004 C 
ENDBRANCH  18  19
ENDBRANCH  17  18
ENDBRANCH  16  17
ENDBRANCH  15  16
ENDBRANCH  14  15
ENDBRANCH  13  14
ENDBRANCH  12  13
ENDBRANCH   1  12
TORSDOF 16
ENDMDL
MODEL 4
REMARK VINA RESULT:    -5.976      3.140      3.868
REMARK INTER + INTRA:         -12.367
REMARK INTER:                 -10.664
REMARK INTRA:                  -1.703
REMARK UNBOUND:                -0.802
REMARK SMILES CCCCCCCCCCCCCCCCCC(=O)[O-]
REMARK SMILES IDX 10 1 11 2 12 3 13 4 14 5 15 6 16 7 17 8 18 9 19 10 20 11
REMARK SMILES IDX 9 12 8 13 7 14 6 15 5 16 4 17 3 18 2 19 1 20
REMARK H PARENT
REMARK Flexibility Score: inf
ROOT
ATOM      1  C   UNL     1      88.831 326.194 195.990  1.00  0.00     0.000 C 
ENDROOT
BRANCH   1   2
ATOM      2  C   UNL     1      89.119 324.713 196.286  1.00  0.00     0.000 C 
BRANCH   2   3
ATOM      3  C   UNL     1      88.578 324.266 197.656  1.00  0.00     0.000 C 
BRANCH   3   4
ATOM      4  C   UNL     1      89.622 324.396 198.778  1.00  0.00     0.000 C 
BRANCH   4   5
ATOM      5  C   UNL     1      88.979 324.515 200.169  1.00  0.00     0.000 C 
BRANCH   5   6
ATOM      6  C   UNL     1      88.894 325.967 200.670  1.00  0.00     0.000 C 
BRANCH   6   7
ATOM      7  C   UNL     1      90.118 326.849 200.355  1.00  0.00     0.006 C 
BRANCH   7   8
ATOM      8  C   UNL     1      91.040 327.100 201.563  1.00  0.00     0.053 C 
BRANCH   8   9
ATOM      9  C   UNL     1      92.348 326.376 201.453  1.00  0.00     0.041 C 
ATOM     10  O   UNL     1      92.457 325.369 200.703  1.00  0.00    -0.550 OA
ATOM     11  O   UNL     1      93.438 326.786 202.211  1.00  0.00    -0.550 OA
ENDBRANCH   8   9
ENDBRANCH   7   8
ENDBRANCH   6   7
ENDBRANCH   5   6
ENDBRANCH   4   5
ENDBRANCH   3   4
ENDBRANCH   2   3
ENDBRANCH   1   2
BRANCH   1  12
ATOM     12  C   UNL     1      87.481 326.657 196.566  1.00  0.00     0.000 C 
BRANCH  12  13
ATOM     13  C   UNL     1      86.362 326.664 195.512  1.00  0.00    -0.000 C 
BRANCH  13  14
ATOM     14  C   UNL     1      86.894 326.546 194.077  1.00  0.00    -0.000 C 
BRANCH  14  15
ATOM     15  C   UNL     1      86.151 325.444 193.306  1.00  0.00    -0.000 C 
BRANCH  15  16
ATOM     16  C   UNL     1      87.055 324.250 192.959  1.00  0.00    -0.000 C 
BRANCH  16  17
ATOM     17  C   UNL     1      88.430 324.680 192.427  1.00  0.00    -0.000 C 
BRANCH  17  18
ATOM     18  C   UNL     1      88.575 324.335 190.940  1.00  0.00    -0.000 C 
BRANCH  18  19
ATOM     19  C   UNL     1      87.640 323.185 190.548  1.00  0.00    -0.003 C 
ATOM     20  C   UNL     1      87.772 322.848 189.066  1.00  0.00     0.004 C 
ENDBRANCH  18  19
ENDBRANCH  17  18
ENDBRANCH  16  17
ENDBRANCH  15  16
ENDBRANCH  14  15
ENDBRANCH  13  14
ENDBRANCH  12  13
ENDBRANCH   1  12
TORSDOF 16
ENDMDL
MODEL 5
REMARK VINA RESULT:    -5.969     19.680     20.803
REMARK INTER + INTRA:         -12.354
REMARK INTER:                 -11.002
REMARK INTRA:                  -1.352
REMARK UNBOUND:                -0.802
REMARK SMILES CCCCCCCCCCCCCCCCCC(=O)[O-]
REMARK SMILES IDX 10 1 11 2 12 3 13 4 14 5 15 6 16 7 17 8 18 9 19 10 20 11
REMARK SMILES IDX 9 12 8 13 7 14 6 15 5 16 4 17 3 18 2 19 1 20
REMARK H PARENT
REMARK Flexibility Score: inf
ROOT
ATOM      1  C   UNL     1     103.905 313.711 196.230  1.00  0.00     0.000 C 
ENDROOT
BRANCH   1   2
ATOM      2  C   UNL     1     103.703 313.502 197.740  1.00  0.00     0.000 C 
BRANCH   2   3
ATOM      3  C   UNL     1     103.914 312.038 198.168  1.00  0.00     0.000 C 
BRANCH   3   4
ATOM      4  C   UNL     1     103.442 311.766 199.605  1.00  0.00     0.000 C 
BRANCH   4   5
ATOM      5  C   UNL     1     104.600 311.771 200.616  1.00  0.00     0.000 C 
BRANCH   5   6
ATOM      6  C   UNL     1     104.142 312.071 202.053  1.00  0.00     0.000 C 
BRANCH   6   7
ATOM      7  C   UNL     1     104.254 310.896 203.044  1.00  0.00     0.006 C 
BRANCH   7   8
ATOM      8  C   UNL     1     104.705 311.307 204.459  1.00  0.00     0.053 C 
BRANCH   8   9
ATOM      9  C   UNL     1     103.624 311.134 205.483  1.00  0.00     0.041 C 
ATOM     10  O   UNL     1     102.627 310.404 205.240  1.00  0.00    -0.550 OA
ATOM     11  O   UNL     1     103.695 311.815 206.693  1.00  0.00    -0.550 OA
ENDBRANCH   8   9
ENDBRANCH   7   8
ENDBRANCH   6   7
ENDBRANCH   5   6
ENDBRANCH   4   5
ENDBRANCH   3   4
ENDBRANCH   2   3
ENDBRANCH   1   2
BRANCH   1  12
ATOM     12  C   UNL     1     104.737 312.589 195.586  1.00  0.00     0.000 C 
BRANCH  12  13
ATOM     13  C   UNL     1     103.908 311.712 194.633  1.00  0.00    -0.000 C 
BRANCH  13  14
ATOM     14  C   UNL     1     104.611 311.463 193.290  1.00  0.00    -0.000 C 
BRANCH  14  15
ATOM     15  C   UNL     1     105.926 312.253 193.206  1.00  0.00    -0.000 C 
BRANCH  15  16
ATOM     16  C   UNL     1     105.851 313.425 192.214  1.00  0.00    -0.000 C 
BRANCH  16  17
ATOM     17  C   UNL     1     104.531 313.456 191.429  1.00  0.00    -0.000 C 
BRANCH  17  18
ATOM     18  C   UNL     1     103.661 314.641 191.865  1.00  0.00    -0.000 C 
BRANCH  18  19
ATOM     19  C   UNL     1     104.372 315.482 192.931  1.00  0.00    -0.003 C 
ATOM     20  C   UNL     1     103.382 316.364 193.687  1.00  0.00     0.004 C 
ENDBRANCH  18  19
ENDBRANCH  17  18
ENDBRANCH  16  17
ENDBRANCH  15  16
ENDBRANCH  14  15
ENDBRANCH  13  14
ENDBRANCH  12  13
ENDBRANCH   1  12
TORSDOF 16
ENDMDL
MODEL 6
REMARK VINA RESULT:    -5.963      0.790      1.546
REMARK INTER + INTRA:         -12.343
REMARK INTER:                 -11.440
REMARK INTRA:                  -0.903
REMARK UNBOUND:                -0.802
REMARK SMILES CCCCCCCCCCCCCCCCCC(=O)[O-]
REMARK SMILES IDX 10 1 11 2 12 3 13 4 14 5 15 6 16 7 17 8 18 9 19 10 20 11
REMARK SMILES IDX 9 12 8 13 7 14 6 15 5 16 4 17 3 18 2 19 1 20
REMARK H PARENT
REMARK Flexibility Score: inf
ROOT
ATOM      1  C   UNL     1      89.398 325.018 199.896  1.00  0.00     0.000 C 
ENDROOT
BRANCH   1   2
ATOM      2  C   UNL     1      89.517 326.431 200.492  1.00  0.00     0.000 C 
BRANCH   2   3
ATOM      3  C   UNL     1      88.877 326.541 201.888  1.00  0.00     0.000 C 
BRANCH   3   4
ATOM      4  C   UNL     1      89.854 327.072 202.949  1.00  0.00     0.000 C 
BRANCH   4   5
ATOM      5  C   UNL     1      89.131 327.692 204.156  1.00  0.00     0.000 C 
BRANCH   5   6
ATOM      6  C   UNL     1      89.787 327.330 205.500  1.00  0.00     0.000 C 
BRANCH   6   7
ATOM      7  C   UNL     1      88.933 326.456 206.440  1.00  0.00     0.006 C 
BRANCH   7   8
ATOM      8  C   UNL     1      87.792 325.700 205.731  1.00  0.00     0.053 C 
BRANCH   8   9
ATOM      9  C   UNL     1      88.175 324.301 205.351  1.00  0.00     0.041 C 
ATOM     10  O   UNL     1      88.293 323.981 204.138  1.00  0.00    -0.550 OA
ATOM     11  O   UNL     1      88.362 323.338 206.334  1.00  0.00    -0.550 OA
ENDBRANCH   8   9
ENDBRANCH   7   8
ENDBRANCH   6   7
ENDBRANCH   5   6
ENDBRANCH   4   5
ENDBRANCH   3   4
ENDBRANCH   2   3
ENDBRANCH   1   2
BRANCH   1  12
ATOM     12  C   UNL     1      89.053 325.039 198.397  1.00  0.00     0.000 C 
BRANCH  12  13
ATOM     13  C   UNL     1      88.810 326.461 197.866  1.00  0.00    -0.000 C 
BRANCH  13  14
ATOM     14  C   UNL     1      88.578 326.499 196.349  1.00  0.00    -0.000 C 
BRANCH  14  15
ATOM     15  C   UNL     1      87.081 326.398 196.021  1.00  0.00    -0.000 C 
BRANCH  15  16
ATOM     16  C   UNL     1      86.767 326.768 194.562  1.00  0.00    -0.000 C 
BRANCH  16  17
ATOM     17  C   UNL     1      86.839 325.561 193.615  1.00  0.00    -0.000 C 
BRANCH  17  18
ATOM     18  C   UNL     1      88.175 325.533 192.863  1.00  0.00    -0.000 C 
BRANCH  18  19
ATOM     19  C   UNL     1      88.485 324.124 192.345  1.00  0.00    -0.003 C 
ATOM     20  C   UNL     1      88.360 324.056 190.826  1.00  0.00     0.004 C 
ENDBRANCH  18  19
ENDBRANCH  17  18
ENDBRANCH  16  17
ENDBRANCH  15  16
ENDBRANCH  14  15
ENDBRANCH  13  14
ENDBRANCH  12  13
ENDBRANCH   1  12
TORSDOF 16
ENDMDL
MODEL 7
REMARK VINA RESULT:    -5.904      4.220     10.529
REMARK INTER + INTRA:         -12.229
REMARK INTER:                 -10.998
REMARK INTRA:                  -1.231
REMARK UNBOUND:                -0.802
REMARK SMILES CCCCCCCCCCCCCCCCCC(=O)[O-]
REMARK SMILES IDX 10 1 11 2 12 3 13 4 14 5 15 6 16 7 17 8 18 9 19 10 20 11
REMARK SMILES IDX 9 12 8 13 7 14 6 15 5 16 4 17 3 18 2 19 1 20
REMARK H PARENT
REMARK Flexibility Score: inf
ROOT
ATOM      1  C   UNL     1      89.038 324.867 198.590  1.00  0.00     0.000 C 
ENDROOT
BRANCH   1   2
ATOM      2  C   UNL     1      88.720 324.747 197.091  1.00  0.00     0.000 C 
BRANCH   2   3
ATOM      3  C   UNL     1      88.019 325.998 196.532  1.00  0.00     0.000 C 
BRANCH   3   4
ATOM      4  C   UNL     1      88.763 326.611 195.335  1.00  0.00     0.000 C 
BRANCH   4   5
ATOM      5  C   UNL     1      87.825 326.927 194.158  1.00  0.00     0.000 C 
BRANCH   5   6
ATOM      6  C   UNL     1      86.629 325.964 194.068  1.00  0.00     0.000 C 
BRANCH   6   7
ATOM      7  C   UNL     1      86.665 324.971 192.888  1.00  0.00     0.006 C 
BRANCH   7   8
ATOM      8  C   UNL     1      88.048 324.834 192.225  1.00  0.00     0.053 C 
BRANCH   8   9
ATOM      9  C   UNL     1      88.731 323.545 192.571  1.00  0.00     0.041 C 
ATOM     10  O   UNL     1      89.083 322.746 191.663  1.00  0.00    -0.550 OA
ATOM     11  O   UNL     1      88.940 323.203 193.902  1.00  0.00    -0.550 OA
ENDBRANCH   8   9
ENDBRANCH   7   8
ENDBRANCH   6   7
ENDBRANCH   5   6
ENDBRANCH   4   5
ENDBRANCH   3   4
ENDBRANCH   2   3
ENDBRANCH   1   2
BRANCH   1  12
ATOM     12  C   UNL     1      89.233 326.327 199.035  1.00  0.00     0.000 C 
BRANCH  12  13
ATOM     13  C   UNL     1      89.509 326.453 200.543  1.00  0.00    -0.000 C 
BRANCH  13  14
ATOM     14  C   UNL     1      90.974 326.166 200.905  1.00  0.00    -0.000 C 
BRANCH  14  15
ATOM     15  C   UNL     1      91.514 327.223 201.880  1.00  0.00    -0.000 C 
BRANCH  15  16
ATOM     16  C   UNL     1      91.544 326.727 203.335  1.00  0.00    -0.000 C 
BRANCH  16  17
ATOM     17  C   UNL     1      90.870 327.705 204.309  1.00  0.00    -0.000 C 
BRANCH  17  18
ATOM     18  C   UNL     1      89.343 327.595 204.229  1.00  0.00    -0.000 C 
BRANCH  18  19
ATOM     19  C   UNL     1      88.839 326.368 204.997  1.00  0.00    -0.003 C 
ATOM     20  C   UNL     1      88.801 326.635 206.499  1.00  0.00     0.004 C 
ENDBRANCH  18  19
ENDBRANCH  17  18
ENDBRANCH  16  17
ENDBRANCH  15  16
ENDBRANCH  14  15
ENDBRANCH  13  14
ENDBRANCH  12  13
ENDBRANCH   1  12
TORSDOF 16
ENDMDL
MODEL 8
REMARK VINA RESULT:    -5.895      6.220     11.505
REMARK INTER + INTRA:         -12.212
REMARK INTER:                 -10.619
REMARK INTRA:                  -1.592
REMARK UNBOUND:                -0.802
REMARK SMILES CCCCCCCCCCCCCCCCCC(=O)[O-]
REMARK SMILES IDX 10 1 11 2 12 3 13 4 14 5 15 6 16 7 17 8 18 9 19 10 20 11
REMARK SMILES IDX 9 12 8 13 7 14 6 15 5 16 4 17 3 18 2 19 1 20
REMARK H PARENT
REMARK Flexibility Score: inf
ROOT
ATOM      1  C   UNL     1      88.132 325.394 192.726  1.00  0.00     0.000 C 
ENDROOT
BRANCH   1   2
ATOM      2  C   UNL     1      88.000 324.004 193.370  1.00  0.00     0.000 C 
BRANCH   2   3
ATOM      3  C   UNL     1      86.700 323.285 192.965  1.00  0.00     0.000 C 
BRANCH   3   4
ATOM      4  C   UNL     1      86.249 323.633 191.538  1.00  0.00     0.000 C 
BRANCH   4   5
ATOM      5  C   UNL     1      86.467 322.474 190.551  1.00  0.00     0.000 C 
BRANCH   5   6
ATOM      6  C   UNL     1      87.450 322.824 189.421  1.00  0.00     0.000 C 
BRANCH   6   7
ATOM      7  C   UNL     1      88.860 323.248 189.876  1.00  0.00     0.006 C 
BRANCH   7   8
ATOM      8  C   UNL     1      89.690 323.947 188.783  1.00  0.00     0.053 C 
BRANCH   8   9
ATOM      9  C   UNL     1      90.784 323.076 188.241  1.00  0.00     0.041 C 
ATOM     10  O   UNL     1      91.991 323.408 188.383  1.00  0.00    -0.550 OA
ATOM     11  O   UNL     1      90.470 321.918 187.541  1.00  0.00    -0.550 OA
ENDBRANCH   8   9
ENDBRANCH   7   8
ENDBRANCH   6   7
ENDBRANCH   5   6
ENDBRANCH   4   5
ENDBRANCH   3   4
ENDBRANCH   2   3
ENDBRANCH   1   2
BRANCH   1  12
ATOM     12  C   UNL     1      88.077 326.531 193.761  1.00  0.00     0.000 C 
BRANCH  12  13
ATOM     13  C   UNL     1      86.763 326.538 194.561  1.00  0.00    -0.000 C 
BRANCH  13  14
ATOM     14  C   UNL     1      86.991 326.568 196.079  1.00  0.00    -0.000 C 
BRANCH  14  15
ATOM     15  C   UNL     1      88.467 326.308 196.416  1.00  0.00    -0.000 C 
BRANCH  15  16
ATOM     16  C   UNL     1      88.695 324.932 197.062  1.00  0.00    -0.000 C 
BRANCH  16  17
ATOM     17  C   UNL     1      89.588 325.002 198.310  1.00  0.00    -0.000 C 
BRANCH  17  18
ATOM     18  C   UNL     1      88.771 324.755 199.583  1.00  0.00    -0.000 C 
BRANCH  18  19
ATOM     19  C   UNL     1      88.935 325.912 200.576  1.00  0.00    -0.003 C 
ATOM     20  C   UNL     1      90.254 326.645 200.353  1.00  0.00     0.004 C 
ENDBRANCH  18  19
ENDBRANCH  17  18
ENDBRANCH  16  17
ENDBRANCH  15  16
ENDBRANCH  14  15
ENDBRANCH  13  14
ENDBRANCH  12  13
ENDBRANCH   1  12
TORSDOF 16
ENDMDL
MODEL 9
REMARK VINA RESULT:    -5.885      6.860     10.711
REMARK INTER + INTRA:         -12.192
REMARK INTER:                 -10.153
REMARK INTRA:                  -2.039
REMARK UNBOUND:                -0.802
REMARK SMILES CCCCCCCCCCCCCCCCCC(=O)[O-]
REMARK SMILES IDX 10 1 11 2 12 3 13 4 14 5 15 6 16 7 17 8 18 9 19 10 20 11
REMARK SMILES IDX 9 12 8 13 7 14 6 15 5 16 4 17 3 18 2 19 1 20
REMARK H PARENT
REMARK Flexibility Score: inf
ROOT
ATOM      1  C   UNL     1      86.778 326.947 194.519  1.00  0.00     0.000 C 
ENDROOT
BRANCH   1   2
ATOM      2  C   UNL     1      88.070 326.673 193.732  1.00  0.00     0.000 C 
BRANCH   2   3
ATOM      3  C   UNL     1      88.200 325.201 193.300  1.00  0.00     0.000 C 
BRANCH   3   4
ATOM      4  C   UNL     1      86.898 324.641 192.704  1.00  0.00     0.000 C 
BRANCH   4   5
ATOM      5  C   UNL     1      87.134 323.881 191.387  1.00  0.00     0.000 C 
BRANCH   5   6
ATOM      6  C   UNL     1      88.496 324.199 190.746  1.00  0.00     0.000 C 
BRANCH   6   7
ATOM      7  C   UNL     1      88.826 323.405 189.467  1.00  0.00     0.006 C 
BRANCH   7   8
ATOM      8  C   UNL     1      90.039 323.949 188.686  1.00  0.00     0.053 C 
BRANCH   8   9
ATOM      9  C   UNL     1      90.980 322.865 188.253  1.00  0.00     0.041 C 
ATOM     10  O   UNL     1      92.181 322.875 188.635  1.00  0.00    -0.550 OA
ATOM     11  O   UNL     1      90.544 321.865 187.393  1.00  0.00    -0.550 OA
ENDBRANCH   8   9
ENDBRANCH   7   8
ENDBRANCH   6   7
ENDBRANCH   5   6
ENDBRANCH   4   5
ENDBRANCH   3   4
ENDBRANCH   2   3
ENDBRANCH   1   2
BRANCH   1  12
ATOM     12  C   UNL     1      86.918 326.617 196.015  1.00  0.00     0.000 C 
BRANCH  12  13
ATOM     13  C   UNL     1      88.385 326.526 196.465  1.00  0.00    -0.000 C 
BRANCH  13  14
ATOM     14  C   UNL     1      88.533 326.077 197.926  1.00  0.00    -0.000 C 
BRANCH  14  15
ATOM     15  C   UNL     1      89.270 324.732 198.014  1.00  0.00    -0.000 C 
BRANCH  15  16
ATOM     16  C   UNL     1      89.641 324.167 196.633  1.00  0.00    -0.000 C 
BRANCH  16  17
ATOM     17  C   UNL     1      89.237 322.695 196.466  1.00  0.00    -0.000 C 
BRANCH  17  18
ATOM     18  C   UNL     1      87.858 322.575 195.807  1.00  0.00    -0.000 C 
BRANCH  18  19
ATOM     19  C   UNL     1      87.911 321.655 194.582  1.00  0.00    -0.003 C 
ATOM     20  C   UNL     1      89.272 321.730 193.895  1.00  0.00     0.004 C 
ENDBRANCH  18  19
ENDBRANCH  17  18
ENDBRANCH  16  17
ENDBRANCH  15  16
ENDBRANCH  14  15
ENDBRANCH  13  14
ENDBRANCH  12  13
ENDBRANCH   1  12
TORSDOF 16
ENDMDL
