MODEL 1
REMARK VINA RESULT:    -4.768      0.000      0.000
REMARK INTER + INTRA:         -17.004
REMARK INTER:                 -12.573
REMARK INTRA:                  -4.431
REMARK UNBOUND:                -4.431
REMARK SMILES CCCCCCCCCCCCCCCCCCCCCCCCCCCCCC(=O)[O-]
REMARK SMILES IDX 16 1 17 2 18 3 19 4 20 5 21 6 22 7 23 8 24 9 25 10 26 11
REMARK SMILES IDX 27 12 28 13 29 14 30 15 31 16 32 17 15 18 14 19 13 20 12 21
REMARK SMILES IDX 11 22 10 23 9 24 8 25 7 26 6 27 5 28 4 29 3 30 2 31 1 32
REMARK H PARENT
REMARK Flexibility Score: inf
ROOT
ATOM      1  C   UNL     1      10.026  13.482  21.668  1.00  0.00     0.000 C 
ENDROOT
BRANCH   1   2
ATOM      2  C   UNL     1       9.076  14.382  22.475  1.00  0.00     0.000 C 
BRANCH   2   3
ATOM      3  C   UNL     1       7.597  14.096  22.173  1.00  0.00     0.000 C 
BRANCH   3   4
ATOM      4  C   UNL     1       6.869  13.409  23.344  1.00  0.00     0.000 C 
BRANCH   4   5
ATOM      5  C   UNL     1       6.212  12.065  22.964  1.00  0.00     0.000 C 
BRANCH   5   6
ATOM      6  C   UNL     1       6.773  11.488  21.652  1.00  0.00     0.000 C 
BRANCH   6   7
ATOM      7  C   UNL     1       7.677  10.264  21.881  1.00  0.00     0.000 C 
BRANCH   7   8
ATOM      8  C   UNL     1       8.712  10.010  20.767  1.00  0.00     0.000 C 
BRANCH   8   9
ATOM      9  C   UNL     1       8.587  10.981  19.572  1.00  0.00     0.000 C 
BRANCH   9  10
ATOM     10  C   UNL     1       9.659  10.728  18.501  1.00  0.00     0.000 C 
BRANCH  10  11
ATOM     11  C   UNL     1      11.070  10.786  19.104  1.00  0.00     0.000 C 
BRANCH  11  12
ATOM     12  C   UNL     1      12.069  11.550  18.220  1.00  0.00     0.000 C 
BRANCH  12  13
ATOM     13  C   UNL     1      12.507  10.779  16.955  1.00  0.00     0.006 C 
BRANCH  13  14
ATOM     14  C   UNL     1      12.345  11.578  15.650  1.00  0.00     0.053 C 
BRANCH  14  15
ATOM     15  C   UNL     1      10.913  11.674  15.216  1.00  0.00     0.041 C 
ATOM     16  O   UNL     1      10.354  10.701  14.644  1.00  0.00    -0.550 OA
ATOM     17  O   UNL     1      10.195  12.842  15.445  1.00  0.00    -0.550 OA
ENDBRANCH  14  15
ENDBRANCH  13  14
ENDBRANCH  12  13
ENDBRANCH  11  12
ENDBRANCH  10  11
ENDBRANCH   9  10
ENDBRANCH   8   9
ENDBRANCH   7   8
ENDBRANCH   6   7
ENDBRANCH   5   6
ENDBRANCH   4   5
ENDBRANCH   3   4
ENDBRANCH   2   3
ENDBRANCH   1   2
BRANCH   1  18
ATOM     18  C   UNL     1      10.723  12.433  22.551  1.00  0.00     0.000 C 
BRANCH  18  19
ATOM     19  C   UNL     1      12.257  12.471  22.427  1.00  0.00     0.000 C 
BRANCH  19  20
ATOM     20  C   UNL     1      12.887  13.862  22.622  1.00  0.00     0.000 C 
BRANCH  20  21
ATOM     21  C   UNL     1      13.087  14.227  24.104  1.00  0.00     0.000 C 
BRANCH  21  22
ATOM     22  C   UNL     1      12.165  15.377  24.561  1.00  0.00     0.000 C 
BRANCH  22  23
ATOM     23  C   UNL     1      12.855  16.401  25.478  1.00  0.00     0.000 C 
BRANCH  23  24
ATOM     24  C   UNL     1      12.166  17.774  25.474  1.00  0.00    -0.000 C 
BRANCH  24  25
ATOM     25  C   UNL     1      13.136  18.875  25.030  1.00  0.00    -0.000 C 
BRANCH  25  26
ATOM     26  C   UNL     1      14.251  18.303  24.143  1.00  0.00    -0.000 C 
BRANCH  26  27
ATOM     27  C   UNL     1      14.922  19.373  23.268  1.00  0.00    -0.000 C 
BRANCH  27  28
ATOM     28  C   UNL     1      14.786  19.082  21.761  1.00  0.00    -0.000 C 
BRANCH  28  29
ATOM     29  C   UNL     1      13.773  20.021  21.074  1.00  0.00    -0.000 C 
BRANCH  29  30
ATOM     30  C   UNL     1      12.564  19.281  20.477  1.00  0.00    -0.000 C 
BRANCH  30  31
ATOM     31  C   UNL     1      12.515  17.800  20.876  1.00  0.00    -0.003 C 
ATOM     32  C   UNL     1      11.346  17.523  21.816  1.00  0.00     0.004 C 
ENDBRANCH  30  31
ENDBRANCH  29  30
ENDBRANCH  28  29
ENDBRANCH  27  28
ENDBRANCH  26  27
ENDBRANCH  25  26
ENDBRANCH  24  25
ENDBRANCH  23  24
ENDBRANCH  22  23
ENDBRANCH  21  22
ENDBRANCH  20  21
ENDBRANCH  19  20
ENDBRANCH  18  19
ENDBRANCH   1  18
TORSDOF 28
ENDMDL
MODEL 2
REMARK VINA RESULT:    -4.631      1.512      2.324
REMARK INTER + INTRA:         -16.643
REMARK INTER:                 -12.413
REMARK INTRA:                  -4.230
REMARK UNBOUND:                -4.431
REMARK SMILES CCCCCCCCCCCCCCCCCCCCCCCCCCCCCC(=O)[O-]
REMARK SMILES IDX 16 1 17 2 18 3 19 4 20 5 21 6 22 7 23 8 24 9 25 10 26 11
REMARK SMILES IDX 27 12 28 13 29 14 30 15 31 16 32 17 15 18 14 19 13 20 12 21
REMARK SMILES IDX 11 22 10 23 9 24 8 25 7 26 6 27 5 28 4 29 3 30 2 31 1 32
REMARK H PARENT
REMARK Flexibility Score: inf
ROOT
ATOM      1  C   UNL     1       8.115  13.881  21.917  1.00  0.00     0.000 C 
ENDROOT
BRANCH   1   2
ATOM      2  C   UNL     1       7.141  13.628  23.079  1.00  0.00     0.000 C 
BRANCH   2   3
ATOM      3  C   UNL     1       6.497  12.235  23.014  1.00  0.00     0.000 C 
BRANCH   3   4
ATOM      4  C   UNL     1       7.375  11.204  22.281  1.00  0.00     0.000 C 
BRANCH   4   5
ATOM      5  C   UNL     1       8.344  10.441  23.210  1.00  0.00     0.000 C 
BRANCH   5   6
ATOM      6  C   UNL     1       9.809  10.564  22.757  1.00  0.00     0.000 C 
BRANCH   6   7
ATOM      7  C   UNL     1      10.049   9.970  21.357  1.00  0.00     0.000 C 
BRANCH   7   8
ATOM      8  C   UNL     1      10.742  10.923  20.363  1.00  0.00     0.000 C 
BRANCH   8   9
ATOM      9  C   UNL     1       9.757  11.775  19.533  1.00  0.00     0.000 C 
BRANCH   9  10
ATOM     10  C   UNL     1      10.104  11.774  18.036  1.00  0.00     0.000 C 
BRANCH  10  11
ATOM     11  C   UNL     1      11.234  10.782  17.729  1.00  0.00     0.000 C 
BRANCH  11  12
ATOM     12  C   UNL     1      11.030  10.031  16.404  1.00  0.00     0.000 C 
BRANCH  12  13
ATOM     13  C   UNL     1       9.851  10.558  15.555  1.00  0.00     0.006 C 
BRANCH  13  14
ATOM     14  C   UNL     1      10.218  10.853  14.091  1.00  0.00     0.053 C 
BRANCH  14  15
ATOM     15  C   UNL     1      10.353  12.322  13.823  1.00  0.00     0.041 C 
ATOM     16  O   UNL     1      10.264  12.765  12.646  1.00  0.00    -0.550 OA
ATOM     17  O   UNL     1      10.577  13.202  14.874  1.00  0.00    -0.550 OA
ENDBRANCH  14  15
ENDBRANCH  13  14
ENDBRANCH  12  13
ENDBRANCH  11  12
ENDBRANCH  10  11
ENDBRANCH   9  10
ENDBRANCH   8   9
ENDBRANCH   7   8
ENDBRANCH   6   7
ENDBRANCH   5   6
ENDBRANCH   4   5
ENDBRANCH   3   4
ENDBRANCH   2   3
ENDBRANCH   1   2
BRANCH   1  18
ATOM     18  C   UNL     1       9.269  14.816  22.318  1.00  0.00     0.000 C 
BRANCH  18  19
ATOM     19  C   UNL     1      10.646  14.134  22.240  1.00  0.00     0.000 C 
BRANCH  19  20
ATOM     20  C   UNL     1      11.368  13.978  23.590  1.00  0.00     0.000 C 
BRANCH  20  21
ATOM     21  C   UNL     1      11.377  15.276  24.419  1.00  0.00     0.000 C 
BRANCH  21  22
ATOM     22  C   UNL     1      12.781  15.628  24.954  1.00  0.00     0.000 C 
BRANCH  22  23
ATOM     23  C   UNL     1      13.055  17.138  25.037  1.00  0.00     0.000 C 
BRANCH  23  24
ATOM     24  C   UNL     1      12.574  17.768  26.352  1.00  0.00    -0.000 C 
BRANCH  24  25
ATOM     25  C   UNL     1      12.022  19.178  26.117  1.00  0.00    -0.000 C 
BRANCH  25  26
ATOM     26  C   UNL     1      11.186  19.237  24.832  1.00  0.00    -0.000 C 
BRANCH  26  27
ATOM     27  C   UNL     1      11.711  20.275  23.828  1.00  0.00    -0.000 C 
BRANCH  27  28
ATOM     28  C   UNL     1      12.209  19.637  22.516  1.00  0.00    -0.000 C 
BRANCH  28  29
ATOM     29  C   UNL     1      11.418  18.364  22.150  1.00  0.00    -0.000 C 
BRANCH  29  30
ATOM     30  C   UNL     1      12.171  17.436  21.182  1.00  0.00    -0.000 C 
BRANCH  30  31
ATOM     31  C   UNL     1      13.679  17.380  21.462  1.00  0.00    -0.003 C 
ATOM     32  C   UNL     1      14.396  16.507  20.437  1.00  0.00     0.004 C 
ENDBRANCH  30  31
ENDBRANCH  29  30
ENDBRANCH  28  29
ENDBRANCH  27  28
ENDBRANCH  26  27
ENDBRANCH  25  26
ENDBRANCH  24  25
ENDBRANCH  23  24
ENDBRANCH  22  23
ENDBRANCH  21  22
ENDBRANCH  20  21
ENDBRANCH  19  20
ENDBRANCH  18  19
ENDBRANCH   1  18
TORSDOF 28
ENDMDL
MODEL 3
REMARK VINA RESULT:    -4.621      2.026      2.594
REMARK INTER + INTRA:         -16.616
REMARK INTER:                 -12.111
REMARK INTRA:                  -4.506
REMARK UNBOUND:                -4.431
REMARK SMILES CCCCCCCCCCCCCCCCCCCCCCCCCCCCCC(=O)[O-]
REMARK SMILES IDX 16 1 17 2 18 3 19 4 20 5 21 6 22 7 23 8 24 9 25 10 26 11
REMARK SMILES IDX 27 12 28 13 29 14 30 15 31 16 32 17 15 18 14 19 13 20 12 21
REMARK SMILES IDX 11 22 10 23 9 24 8 25 7 26 6 27 5 28 4 29 3 30 2 31 1 32
REMARK H PARENT
REMARK Flexibility Score: inf
ROOT
ATOM      1  C   UNL     1      10.258  13.600  21.875  1.00  0.00     0.000 C 
ENDROOT
BRANCH   1   2
ATOM      2  C   UNL     1       9.133  14.394  22.559  1.00  0.00     0.000 C 
BRANCH   2   3
ATOM      3  C   UNL     1       7.737  13.963  22.083  1.00  0.00     0.000 C 
BRANCH   3   4
ATOM      4  C   UNL     1       6.850  13.438  23.227  1.00  0.00     0.000 C 
BRANCH   4   5
ATOM      5  C   UNL     1       6.381  11.980  23.029  1.00  0.00     0.000 C 
BRANCH   5   6
ATOM      6  C   UNL     1       7.552  10.981  23.043  1.00  0.00     0.000 C 
BRANCH   6   7
ATOM      7  C   UNL     1       7.605  10.111  21.775  1.00  0.00     0.000 C 
BRANCH   7   8
ATOM      8  C   UNL     1       8.863  10.313  20.907  1.00  0.00     0.000 C 
BRANCH   8   9
ATOM      9  C   UNL     1       8.613  11.167  19.644  1.00  0.00     0.000 C 
BRANCH   9  10
ATOM     10  C   UNL     1       9.599  10.838  18.514  1.00  0.00     0.000 C 
BRANCH  10  11
ATOM     11  C   UNL     1      10.444  12.064  18.139  1.00  0.00     0.000 C 
BRANCH  11  12
ATOM     12  C   UNL     1      11.949  11.848  18.363  1.00  0.00     0.000 C 
BRANCH  12  13
ATOM     13  C   UNL     1      12.305  11.290  19.759  1.00  0.00     0.006 C 
BRANCH  13  14
ATOM     14  C   UNL     1      13.782  11.473  20.147  1.00  0.00     0.053 C 
BRANCH  14  15
ATOM     15  C   UNL     1      14.297  12.838  19.801  1.00  0.00     0.041 C 
ATOM     16  O   UNL     1      15.148  12.983  18.883  1.00  0.00    -0.550 OA
ATOM     17  O   UNL     1      13.835  13.951  20.492  1.00  0.00    -0.550 OA
ENDBRANCH  14  15
ENDBRANCH  13  14
ENDBRANCH  12  13
ENDBRANCH  11  12
ENDBRANCH  10  11
ENDBRANCH   9  10
ENDBRANCH   8   9
ENDBRANCH   7   8
ENDBRANCH   6   7
ENDBRANCH   5   6
ENDBRANCH   4   5
ENDBRANCH   3   4
ENDBRANCH   2   3
ENDBRANCH   1   2
BRANCH   1  18
ATOM     18  C   UNL     1      11.356  13.176  22.866  1.00  0.00     0.000 C 
BRANCH  18  19
ATOM     19  C   UNL     1      11.605  14.223  23.966  1.00  0.00     0.000 C 
BRANCH  19  20
ATOM     20  C   UNL     1      13.087  14.551  24.223  1.00  0.00     0.000 C 
BRANCH  20  21
ATOM     21  C   UNL     1      13.328  16.041  24.523  1.00  0.00     0.000 C 
BRANCH  21  22
ATOM     22  C   UNL     1      12.074  16.744  25.084  1.00  0.00     0.000 C 
BRANCH  22  23
ATOM     23  C   UNL     1      12.387  17.925  26.017  1.00  0.00     0.000 C 
BRANCH  23  24
ATOM     24  C   UNL     1      12.601  19.247  25.266  1.00  0.00    -0.000 C 
BRANCH  24  25
ATOM     25  C   UNL     1      11.716  19.319  24.016  1.00  0.00    -0.000 C 
BRANCH  25  26
ATOM     26  C   UNL     1      11.832  20.690  23.337  1.00  0.00    -0.000 C 
BRANCH  26  27
ATOM     27  C   UNL     1      13.229  20.948  22.753  1.00  0.00    -0.000 C 
BRANCH  27  28
ATOM     28  C   UNL     1      13.258  20.859  21.215  1.00  0.00    -0.000 C 
BRANCH  28  29
ATOM     29  C   UNL     1      14.370  19.918  20.705  1.00  0.00    -0.000 C 
BRANCH  29  30
ATOM     30  C   UNL     1      14.596  18.695  21.610  1.00  0.00    -0.000 C 
BRANCH  30  31
ATOM     31  C   UNL     1      14.082  17.390  20.987  1.00  0.00    -0.003 C 
ATOM     32  C   UNL     1      12.578  17.240  21.186  1.00  0.00     0.004 C 
ENDBRANCH  30  31
ENDBRANCH  29  30
ENDBRANCH  28  29
ENDBRANCH  27  28
ENDBRANCH  26  27
ENDBRANCH  25  26
ENDBRANCH  24  25
ENDBRANCH  23  24
ENDBRANCH  22  23
ENDBRANCH  21  22
ENDBRANCH  20  21
ENDBRANCH  19  20
ENDBRANCH  18  19
ENDBRANCH   1  18
TORSDOF 28
ENDMDL
MODEL 4
REMARK VINA RESULT:    -4.587      2.212      3.210
REMARK INTER + INTRA:         -16.527
REMARK INTER:                 -11.766
REMARK INTRA:                  -4.761
REMARK UNBOUND:                -4.431
REMARK SMILES CCCCCCCCCCCCCCCCCCCCCCCCCCCCCC(=O)[O-]
REMARK SMILES IDX 16 1 17 2 18 3 19 4 20 5 21 6 22 7 23 8 24 9 25 10 26 11
REMARK SMILES IDX 27 12 28 13 29 14 30 15 31 16 32 17 15 18 14 19 13 20 12 21
REMARK SMILES IDX 11 22 10 23 9 24 8 25 7 26 6 27 5 28 4 29 3 30 2 31 1 32
REMARK H PARENT
REMARK Flexibility Score: inf
ROOT
ATOM      1  C   UNL     1       7.764  13.886  22.073  1.00  0.00     0.000 C 
ENDROOT
BRANCH   1   2
ATOM      2  C   UNL     1       6.849  13.392  23.206  1.00  0.00     0.000 C 
BRANCH   2   3
ATOM      3  C   UNL     1       6.382  11.944  22.996  1.00  0.00     0.000 C 
BRANCH   3   4
ATOM      4  C   UNL     1       7.542  10.931  23.025  1.00  0.00     0.000 C 
BRANCH   4   5
ATOM      5  C   UNL     1       7.533   9.943  21.838  1.00  0.00     0.000 C 
BRANCH   5   6
ATOM      6  C   UNL     1       8.791  10.068  20.961  1.00  0.00     0.000 C 
BRANCH   6   7
ATOM      7  C   UNL     1       8.616  11.077  19.813  1.00  0.00     0.000 C 
BRANCH   7   8
ATOM      8  C   UNL     1       9.529  10.832  18.595  1.00  0.00     0.000 C 
BRANCH   8   9
ATOM      9  C   UNL     1      10.668  11.866  18.458  1.00  0.00     0.000 C 
BRANCH   9  10
ATOM     10  C   UNL     1      11.833  11.580  19.418  1.00  0.00     0.000 C 
BRANCH  10  11
ATOM     11  C   UNL     1      13.164  12.080  18.839  1.00  0.00     0.000 C 
BRANCH  11  12
ATOM     12  C   UNL     1      14.365  11.785  19.752  1.00  0.00     0.000 C 
BRANCH  12  13
ATOM     13  C   UNL     1      15.241  13.020  20.060  1.00  0.00     0.006 C 
BRANCH  13  14
ATOM     14  C   UNL     1      14.481  14.356  20.000  1.00  0.00     0.053 C 
BRANCH  14  15
ATOM     15  C   UNL     1      15.102  15.320  19.033  1.00  0.00     0.041 C 
ATOM     16  O   UNL     1      14.651  15.426  17.862  1.00  0.00    -0.550 OA
ATOM     17  O   UNL     1      16.180  16.103  19.428  1.00  0.00    -0.550 OA
ENDBRANCH  14  15
ENDBRANCH  13  14
ENDBRANCH  12  13
ENDBRANCH  11  12
ENDBRANCH  10  11
ENDBRANCH   9  10
ENDBRANCH   8   9
ENDBRANCH   7   8
ENDBRANCH   6   7
ENDBRANCH   5   6
ENDBRANCH   4   5
ENDBRANCH   3   4
ENDBRANCH   2   3
ENDBRANCH   1   2
BRANCH   1  18
ATOM     18  C   UNL     1       9.134  14.353  22.593  1.00  0.00     0.000 C 
BRANCH  18  19
ATOM     19  C   UNL     1      10.270  13.373  22.250  1.00  0.00     0.000 C 
BRANCH  19  20
ATOM     20  C   UNL     1      11.667  14.012  22.148  1.00  0.00     0.000 C 
BRANCH  20  21
ATOM     21  C   UNL     1      12.602  13.596  23.297  1.00  0.00     0.000 C 
BRANCH  21  22
ATOM     22  C   UNL     1      13.087  14.798  24.133  1.00  0.00     0.000 C 
BRANCH  22  23
ATOM     23  C   UNL     1      11.990  15.435  25.002  1.00  0.00     0.000 C 
BRANCH  23  24
ATOM     24  C   UNL     1      11.715  16.903  24.646  1.00  0.00    -0.000 C 
BRANCH  24  25
ATOM     25  C   UNL     1      12.308  17.845  25.701  1.00  0.00    -0.000 C 
BRANCH  25  26
ATOM     26  C   UNL     1      13.194  18.915  25.049  1.00  0.00    -0.000 C 
BRANCH  26  27
ATOM     27  C   UNL     1      14.323  18.315  24.197  1.00  0.00    -0.000 C 
BRANCH  27  28
ATOM     28  C   UNL     1      14.795  19.265  23.079  1.00  0.00    -0.000 C 
BRANCH  28  29
ATOM     29  C   UNL     1      14.523  18.691  21.672  1.00  0.00    -0.000 C 
BRANCH  29  30
ATOM     30  C   UNL     1      13.567  17.487  21.679  1.00  0.00    -0.000 C 
BRANCH  30  31
ATOM     31  C   UNL     1      12.201  17.807  21.057  1.00  0.00    -0.003 C 
ATOM     32  C   UNL     1      11.851  19.282  21.226  1.00  0.00     0.004 C 
ENDBRANCH  30  31
ENDBRANCH  29  30
ENDBRANCH  28  29
ENDBRANCH  27  28
ENDBRANCH  26  27
ENDBRANCH  25  26
ENDBRANCH  24  25
ENDBRANCH  23  24
ENDBRANCH  22  23
ENDBRANCH  21  22
ENDBRANCH  20  21
ENDBRANCH  19  20
ENDBRANCH  18  19
ENDBRANCH   1  18
TORSDOF 28
ENDMDL
MODEL 5
REMARK VINA RESULT:    -4.568      2.603      7.601
REMARK INTER + INTRA:         -16.478
REMARK INTER:                 -11.462
REMARK INTRA:                  -5.015
REMARK UNBOUND:                -4.431
REMARK SMILES CCCCCCCCCCCCCCCCCCCCCCCCCCCCCC(=O)[O-]
REMARK SMILES IDX 16 1 17 2 18 3 19 4 20 5 21 6 22 7 23 8 24 9 25 10 26 11
REMARK SMILES IDX 27 12 28 13 29 14 30 15 31 16 32 17 15 18 14 19 13 20 12 21
REMARK SMILES IDX 11 22 10 23 9 24 8 25 7 26 6 27 5 28 4 29 3 30 2 31 1 32
REMARK H PARENT
REMARK Flexibility Score: inf
ROOT
ATOM      1  C   UNL     1       7.598  13.763  21.907  1.00  0.00     0.000 C 
ENDROOT
BRANCH   1   2
ATOM      2  C   UNL     1       8.780  14.630  22.371  1.00  0.00     0.000 C 
BRANCH   2   3
ATOM      3  C   UNL     1      10.008  13.792  22.755  1.00  0.00     0.000 C 
BRANCH   3   4
ATOM      4  C   UNL     1      11.316  14.605  22.743  1.00  0.00     0.000 C 
BRANCH   4   5
ATOM      5  C   UNL     1      12.384  14.077  23.725  1.00  0.00     0.000 C 
BRANCH   5   6
ATOM      6  C   UNL     1      12.931  15.182  24.646  1.00  0.00     0.000 C 
BRANCH   6   7
ATOM      7  C   UNL     1      11.958  16.364  24.797  1.00  0.00     0.000 C 
BRANCH   7   8
ATOM      8  C   UNL     1      12.498  17.541  25.635  1.00  0.00     0.000 C 
BRANCH   8   9
ATOM      9  C   UNL     1      12.944  18.752  24.785  1.00  0.00     0.000 C 
BRANCH   9  10
ATOM     10  C   UNL     1      14.327  18.541  24.150  1.00  0.00     0.000 C 
BRANCH  10  11
ATOM     11  C   UNL     1      14.273  18.732  22.628  1.00  0.00     0.000 C 
BRANCH  11  12
ATOM     12  C   UNL     1      14.029  17.420  21.866  1.00  0.00     0.000 C 
BRANCH  12  13
ATOM     13  C   UNL     1      12.681  17.371  21.112  1.00  0.00     0.006 C 
BRANCH  13  14
ATOM     14  C   UNL     1      11.870  18.675  21.196  1.00  0.00     0.053 C 
BRANCH  14  15
ATOM     15  C   UNL     1      11.514  19.212  19.842  1.00  0.00     0.041 C 
ATOM     16  O   UNL     1      10.312  19.448  19.547  1.00  0.00    -0.550 OA
ATOM     17  O   UNL     1      12.512  19.453  18.906  1.00  0.00    -0.550 OA
ENDBRANCH  14  15
ENDBRANCH  13  14
ENDBRANCH  12  13
ENDBRANCH  11  12
ENDBRANCH  10  11
ENDBRANCH   9  10
ENDBRANCH   8   9
ENDBRANCH   7   8
ENDBRANCH   6   7
ENDBRANCH   5   6
ENDBRANCH   4   5
ENDBRANCH   3   4
ENDBRANCH   2   3
ENDBRANCH   1   2
BRANCH   1  18
ATOM     18  C   UNL     1       7.003  12.928  23.055  1.00  0.00     0.000 C 
BRANCH  18  19
ATOM     19  C   UNL     1       6.239  11.688  22.558  1.00  0.00     0.000 C 
BRANCH  19  20
ATOM     20  C   UNL     1       7.018  10.364  22.664  1.00  0.00     0.000 C 
BRANCH  20  21
ATOM     21  C   UNL     1       8.500  10.567  23.026  1.00  0.00     0.000 C 
BRANCH  21  22
ATOM     22  C   UNL     1       9.449  10.219  21.860  1.00  0.00     0.000 C 
BRANCH  22  23
ATOM     23  C   UNL     1       8.736  10.039  20.510  1.00  0.00     0.000 C 
BRANCH  23  24
ATOM     24  C   UNL     1       8.748  11.309  19.648  1.00  0.00    -0.000 C 
BRANCH  24  25
ATOM     25  C   UNL     1      10.109  12.011  19.722  1.00  0.00    -0.000 C 
BRANCH  25  26
ATOM     26  C   UNL     1      11.033  11.542  18.590  1.00  0.00    -0.000 C 
BRANCH  26  27
ATOM     27  C   UNL     1      12.471  11.282  19.066  1.00  0.00    -0.000 C 
BRANCH  27  28
ATOM     28  C   UNL     1      12.680  11.634  20.551  1.00  0.00    -0.000 C 
BRANCH  28  29
ATOM     29  C   UNL     1      13.816  12.659  20.754  1.00  0.00    -0.000 C 
BRANCH  29  30
ATOM     30  C   UNL     1      14.474  13.108  19.439  1.00  0.00    -0.000 C 
BRANCH  30  31
ATOM     31  C   UNL     1      14.692  14.625  19.369  1.00  0.00    -0.003 C 
ATOM     32  C   UNL     1      14.581  15.132  17.935  1.00  0.00     0.004 C 
ENDBRANCH  30  31
ENDBRANCH  29  30
ENDBRANCH  28  29
ENDBRANCH  27  28
ENDBRANCH  26  27
ENDBRANCH  25  26
ENDBRANCH  24  25
ENDBRANCH  23  24
ENDBRANCH  22  23
ENDBRANCH  21  22
ENDBRANCH  20  21
ENDBRANCH  19  20
ENDBRANCH  18  19
ENDBRANCH   1  18
TORSDOF 28
ENDMDL
MODEL 6
REMARK VINA RESULT:    -4.536      2.668      7.971
REMARK INTER + INTRA:         -16.392
REMARK INTER:                 -11.554
REMARK INTRA:                  -4.839
REMARK UNBOUND:                -4.431
REMARK SMILES CCCCCCCCCCCCCCCCCCCCCCCCCCCCCC(=O)[O-]
REMARK SMILES IDX 16 1 17 2 18 3 19 4 20 5 21 6 22 7 23 8 24 9 25 10 26 11
REMARK SMILES IDX 27 12 28 13 29 14 30 15 31 16 32 17 15 18 14 19 13 20 12 21
REMARK SMILES IDX 11 22 10 23 9 24 8 25 7 26 6 27 5 28 4 29 3 30 2 31 1 32
REMARK H PARENT
REMARK Flexibility Score: inf
ROOT
ATOM      1  C   UNL     1       8.434  14.020  22.006  1.00  0.00     0.000 C 
ENDROOT
BRANCH   1   2
ATOM      2  C   UNL     1       9.798  13.744  22.658  1.00  0.00     0.000 C 
BRANCH   2   3
ATOM      3  C   UNL     1      10.559  15.034  22.999  1.00  0.00     0.000 C 
BRANCH   3   4
ATOM      4  C   UNL     1      11.264  14.970  24.366  1.00  0.00     0.000 C 
BRANCH   4   5
ATOM      5  C   UNL     1      12.803  15.071  24.276  1.00  0.00     0.000 C 
BRANCH   5   6
ATOM      6  C   UNL     1      13.321  16.472  24.646  1.00  0.00     0.000 C 
BRANCH   6   7
ATOM      7  C   UNL     1      12.701  17.009  25.948  1.00  0.00     0.000 C 
BRANCH   7   8
ATOM      8  C   UNL     1      12.171  18.454  25.862  1.00  0.00     0.000 C 
BRANCH   8   9
ATOM      9  C   UNL     1      11.321  18.727  24.601  1.00  0.00     0.000 C 
BRANCH   9  10
ATOM     10  C   UNL     1      11.732  20.026  23.891  1.00  0.00     0.000 C 
BRANCH  10  11
ATOM     11  C   UNL     1      12.107  19.763  22.425  1.00  0.00     0.000 C 
BRANCH  11  12
ATOM     12  C   UNL     1      11.664  18.376  21.932  1.00  0.00     0.000 C 
BRANCH  12  13
ATOM     13  C   UNL     1      12.767  17.590  21.187  1.00  0.00     0.006 C 
BRANCH  13  14
ATOM     14  C   UNL     1      14.192  18.098  21.466  1.00  0.00     0.053 C 
BRANCH  14  15
ATOM     15  C   UNL     1      14.781  18.814  20.288  1.00  0.00     0.041 C 
ATOM     16  O   UNL     1      14.222  18.751  19.160  1.00  0.00    -0.550 OA
ATOM     17  O   UNL     1      15.949  19.552  20.436  1.00  0.00    -0.550 OA
ENDBRANCH  14  15
ENDBRANCH  13  14
ENDBRANCH  12  13
ENDBRANCH  11  12
ENDBRANCH  10  11
ENDBRANCH   9  10
ENDBRANCH   8   9
ENDBRANCH   7   8
ENDBRANCH   6   7
ENDBRANCH   5   6
ENDBRANCH   4   5
ENDBRANCH   3   4
ENDBRANCH   2   3
ENDBRANCH   1   2
BRANCH   1  18
ATOM     18  C   UNL     1       7.264  13.753  22.968  1.00  0.00     0.000 C 
BRANCH  18  19
ATOM     19  C   UNL     1       6.751  12.304  22.898  1.00  0.00     0.000 C 
BRANCH  19  20
ATOM     20  C   UNL     1       6.853  11.648  21.508  1.00  0.00     0.000 C 
BRANCH  20  21
ATOM     21  C   UNL     1       7.756  10.402  21.498  1.00  0.00     0.000 C 
BRANCH  21  22
ATOM     22  C   UNL     1       8.592  10.286  20.206  1.00  0.00     0.000 C 
BRANCH  22  23
ATOM     23  C   UNL     1       9.991  10.916  20.311  1.00  0.00     0.000 C 
BRANCH  23  24
ATOM     24  C   UNL     1      10.216  12.055  19.306  1.00  0.00    -0.000 C 
BRANCH  24  25
ATOM     25  C   UNL     1      10.287  11.517  17.872  1.00  0.00    -0.000 C 
BRANCH  25  26
ATOM     26  C   UNL     1      11.062  12.477  16.960  1.00  0.00    -0.000 C 
BRANCH  26  27
ATOM     27  C   UNL     1      12.525  12.052  16.755  1.00  0.00    -0.000 C 
BRANCH  27  28
ATOM     28  C   UNL     1      13.513  12.902  17.577  1.00  0.00    -0.000 C 
BRANCH  28  29
ATOM     29  C   UNL     1      14.013  12.163  18.836  1.00  0.00    -0.000 C 
BRANCH  29  30
ATOM     30  C   UNL     1      14.393  13.109  19.987  1.00  0.00    -0.000 C 
BRANCH  30  31
ATOM     31  C   UNL     1      13.249  13.320  20.989  1.00  0.00    -0.003 C 
ATOM     32  C   UNL     1      13.113  12.125  21.926  1.00  0.00     0.004 C 
ENDBRANCH  30  31
ENDBRANCH  29  30
ENDBRANCH  28  29
ENDBRANCH  27  28
ENDBRANCH  26  27
ENDBRANCH  25  26
ENDBRANCH  24  25
ENDBRANCH  23  24
ENDBRANCH  22  23
ENDBRANCH  21  22
ENDBRANCH  20  21
ENDBRANCH  19  20
ENDBRANCH  18  19
ENDBRANCH   1  18
TORSDOF 28
ENDMDL
MODEL 7
REMARK VINA RESULT:    -4.523      2.300      7.942
REMARK INTER + INTRA:         -16.357
REMARK INTER:                 -11.593
REMARK INTRA:                  -4.764
REMARK UNBOUND:                -4.431
REMARK SMILES CCCCCCCCCCCCCCCCCCCCCCCCCCCCCC(=O)[O-]
REMARK SMILES IDX 16 1 17 2 18 3 19 4 20 5 21 6 22 7 23 8 24 9 25 10 26 11
REMARK SMILES IDX 27 12 28 13 29 14 30 15 31 16 32 17 15 18 14 19 13 20 12 21
REMARK SMILES IDX 11 22 10 23 9 24 8 25 7 26 6 27 5 28 4 29 3 30 2 31 1 32
REMARK H PARENT
REMARK Flexibility Score: inf
ROOT
ATOM      1  C   UNL     1       9.868  15.637  22.266  1.00  0.00     0.000 C 
ENDROOT
BRANCH   1   2
ATOM      2  C   UNL     1      11.345  15.580  22.688  1.00  0.00     0.000 C 
BRANCH   2   3
ATOM      3  C   UNL     1      11.524  15.131  24.146  1.00  0.00     0.000 C 
BRANCH   3   4
ATOM      4  C   UNL     1      12.553  15.982  24.913  1.00  0.00     0.000 C 
BRANCH   4   5
ATOM      5  C   UNL     1      12.051  17.401  25.258  1.00  0.00     0.000 C 
BRANCH   5   6
ATOM      6  C   UNL     1      13.144  18.469  25.079  1.00  0.00     0.000 C 
BRANCH   6   7
ATOM      7  C   UNL     1      14.263  18.019  24.125  1.00  0.00     0.000 C 
BRANCH   7   8
ATOM      8  C   UNL     1      15.284  19.117  23.765  1.00  0.00     0.000 C 
BRANCH   8   9
ATOM      9  C   UNL     1      15.052  19.745  22.373  1.00  0.00     0.000 C 
BRANCH   9  10
ATOM     10  C   UNL     1      13.947  20.812  22.393  1.00  0.00     0.000 C 
BRANCH  10  11
ATOM     11  C   UNL     1      12.963  20.613  21.231  1.00  0.00     0.000 C 
BRANCH  11  12
ATOM     12  C   UNL     1      11.893  19.550  21.526  1.00  0.00     0.000 C 
BRANCH  12  13
ATOM     13  C   UNL     1      11.973  18.305  20.614  1.00  0.00     0.006 C 
BRANCH  13  14
ATOM     14  C   UNL     1      13.092  18.372  19.561  1.00  0.00     0.053 C 
BRANCH  14  15
ATOM     15  C   UNL     1      14.000  17.181  19.620  1.00  0.00     0.041 C 
ATOM     16  O   UNL     1      14.417  16.752  20.729  1.00  0.00    -0.550 OA
ATOM     17  O   UNL     1      14.387  16.543  18.447  1.00  0.00    -0.550 OA
ENDBRANCH  14  15
ENDBRANCH  13  14
ENDBRANCH  12  13
ENDBRANCH  11  12
ENDBRANCH  10  11
ENDBRANCH   9  10
ENDBRANCH   8   9
ENDBRANCH   7   8
ENDBRANCH   6   7
ENDBRANCH   5   6
ENDBRANCH   4   5
ENDBRANCH   3   4
ENDBRANCH   2   3
ENDBRANCH   1   2
BRANCH   1  18
ATOM     18  C   UNL     1       9.187  14.260  22.344  1.00  0.00     0.000 C 
BRANCH  18  19
ATOM     19  C   UNL     1       7.650  14.352  22.328  1.00  0.00     0.000 C 
BRANCH  19  20
ATOM     20  C   UNL     1       6.926  13.201  23.050  1.00  0.00     0.000 C 
BRANCH  20  21
ATOM     21  C   UNL     1       7.498  11.816  22.696  1.00  0.00     0.000 C 
BRANCH  21  22
ATOM     22  C   UNL     1       7.148  11.381  21.258  1.00  0.00     0.000 C 
BRANCH  22  23
ATOM     23  C   UNL     1       8.329  10.768  20.488  1.00  0.00     0.000 C 
BRANCH  23  24
ATOM     24  C   UNL     1       9.259  11.823  19.871  1.00  0.00    -0.000 C 
BRANCH  24  25
ATOM     25  C   UNL     1      10.713  11.337  19.861  1.00  0.00    -0.000 C 
BRANCH  25  26
ATOM     26  C   UNL     1      11.133  10.826  21.246  1.00  0.00    -0.000 C 
BRANCH  26  27
ATOM     27  C   UNL     1      11.768  11.922  22.117  1.00  0.00    -0.000 C 
BRANCH  27  28
ATOM     28  C   UNL     1      13.277  12.089  21.856  1.00  0.00    -0.000 C 
BRANCH  28  29
ATOM     29  C   UNL     1      13.589  13.348  21.019  1.00  0.00    -0.000 C 
BRANCH  29  30
ATOM     30  C   UNL     1      14.598  13.091  19.886  1.00  0.00    -0.000 C 
BRANCH  30  31
ATOM     31  C   UNL     1      13.922  12.854  18.529  1.00  0.00    -0.003 C 
ATOM     32  C   UNL     1      14.016  11.388  18.117  1.00  0.00     0.004 C 
ENDBRANCH  30  31
ENDBRANCH  29  30
ENDBRANCH  28  29
ENDBRANCH  27  28
ENDBRANCH  26  27
ENDBRANCH  25  26
ENDBRANCH  24  25
ENDBRANCH  23  24
ENDBRANCH  22  23
ENDBRANCH  21  22
ENDBRANCH  20  21
ENDBRANCH  19  20
ENDBRANCH  18  19
ENDBRANCH   1  18
TORSDOF 28
ENDMDL
MODEL 8
REMARK VINA RESULT:    -4.512      2.393      8.151
REMARK INTER + INTRA:         -16.328
REMARK INTER:                 -11.776
REMARK INTRA:                  -4.553
REMARK UNBOUND:                -4.431
REMARK SMILES CCCCCCCCCCCCCCCCCCCCCCCCCCCCCC(=O)[O-]
REMARK SMILES IDX 16 1 17 2 18 3 19 4 20 5 21 6 22 7 23 8 24 9 25 10 26 11
REMARK SMILES IDX 27 12 28 13 29 14 30 15 31 16 32 17 15 18 14 19 13 20 12 21
REMARK SMILES IDX 11 22 10 23 9 24 8 25 7 26 6 27 5 28 4 29 3 30 2 31 1 32
REMARK H PARENT
REMARK Flexibility Score: inf
ROOT
ATOM      1  C   UNL     1      10.169  13.592  21.773  1.00  0.00     0.000 C 
ENDROOT
BRANCH   1   2
ATOM      2  C   UNL     1      10.977  12.608  22.634  1.00  0.00     0.000 C 
BRANCH   2   3
ATOM      3  C   UNL     1      12.489  12.872  22.565  1.00  0.00     0.000 C 
BRANCH   3   4
ATOM      4  C   UNL     1      13.018  13.644  23.788  1.00  0.00     0.000 C 
BRANCH   4   5
ATOM      5  C   UNL     1      12.907  15.178  23.649  1.00  0.00     0.000 C 
BRANCH   5   6
ATOM      6  C   UNL     1      12.015  15.802  24.736  1.00  0.00     0.000 C 
BRANCH   6   7
ATOM      7  C   UNL     1      12.800  16.710  25.699  1.00  0.00     0.000 C 
BRANCH   7   8
ATOM      8  C   UNL     1      12.999  18.156  25.203  1.00  0.00     0.000 C 
BRANCH   8   9
ATOM      9  C   UNL     1      11.782  19.072  25.463  1.00  0.00     0.000 C 
BRANCH   9  10
ATOM     10  C   UNL     1      11.412  19.912  24.231  1.00  0.00     0.000 C 
BRANCH  10  11
ATOM     11  C   UNL     1      12.567  19.956  23.221  1.00  0.00     0.000 C 
BRANCH  11  12
ATOM     12  C   UNL     1      12.114  19.682  21.778  1.00  0.00     0.000 C 
BRANCH  12  13
ATOM     13  C   UNL     1      12.099  18.185  21.396  1.00  0.00     0.006 C 
BRANCH  13  14
ATOM     14  C   UNL     1      13.499  17.560  21.264  1.00  0.00     0.053 C 
BRANCH  14  15
ATOM     15  C   UNL     1      14.128  17.849  19.933  1.00  0.00     0.041 C 
ATOM     16  O   UNL     1      15.376  17.759  19.786  1.00  0.00    -0.550 OA
ATOM     17  O   UNL     1      13.333  18.217  18.855  1.00  0.00    -0.550 OA
ENDBRANCH  14  15
ENDBRANCH  13  14
ENDBRANCH  12  13
ENDBRANCH  11  12
ENDBRANCH  10  11
ENDBRANCH   9  10
ENDBRANCH   8   9
ENDBRANCH   7   8
ENDBRANCH   6   7
ENDBRANCH   5   6
ENDBRANCH   4   5
ENDBRANCH   3   4
ENDBRANCH   2   3
ENDBRANCH   1   2
BRANCH   1  18
ATOM     18  C   UNL     1       9.063  14.297  22.578  1.00  0.00     0.000 C 
BRANCH  18  19
ATOM     19  C   UNL     1       7.648  13.865  22.155  1.00  0.00     0.000 C 
BRANCH  19  20
ATOM     20  C   UNL     1       6.786  13.278  23.287  1.00  0.00     0.000 C 
BRANCH  20  21
ATOM     21  C   UNL     1       6.080  11.969  22.887  1.00  0.00     0.000 C 
BRANCH  21  22
ATOM     22  C   UNL     1       6.768  11.264  21.700  1.00  0.00     0.000 C 
BRANCH  22  23
ATOM     23  C   UNL     1       7.773  10.178  22.118  1.00  0.00     0.000 C 
BRANCH  23  24
ATOM     24  C   UNL     1       8.868   9.934  21.069  1.00  0.00    -0.000 C 
BRANCH  24  25
ATOM     25  C   UNL     1       8.675  10.844  19.851  1.00  0.00    -0.000 C 
BRANCH  25  26
ATOM     26  C   UNL     1       8.966  10.089  18.547  1.00  0.00    -0.000 C 
BRANCH  26  27
ATOM     27  C   UNL     1      10.129  10.702  17.752  1.00  0.00    -0.000 C 
BRANCH  27  28
ATOM     28  C   UNL     1      10.786  11.891  18.478  1.00  0.00    -0.000 C 
BRANCH  28  29
ATOM     29  C   UNL     1      12.178  11.535  19.042  1.00  0.00    -0.000 C 
BRANCH  29  30
ATOM     30  C   UNL     1      13.315  12.371  18.431  1.00  0.00    -0.000 C 
BRANCH  30  31
ATOM     31  C   UNL     1      14.456  12.640  19.422  1.00  0.00    -0.003 C 
ATOM     32  C   UNL     1      14.508  14.114  19.812  1.00  0.00     0.004 C 
ENDBRANCH  30  31
ENDBRANCH  29  30
ENDBRANCH  28  29
ENDBRANCH  27  28
ENDBRANCH  26  27
ENDBRANCH  25  26
ENDBRANCH  24  25
ENDBRANCH  23  24
ENDBRANCH  22  23
ENDBRANCH  21  22
ENDBRANCH  20  21
ENDBRANCH  19  20
ENDBRANCH  18  19
ENDBRANCH   1  18
TORSDOF 28
ENDMDL
MODEL 9
REMARK VINA RESULT:    -4.483      2.401      3.843
REMARK INTER + INTRA:         -16.252
REMARK INTER:                 -11.952
REMARK INTRA:                  -4.300
REMARK UNBOUND:                -4.431
REMARK SMILES CCCCCCCCCCCCCCCCCCCCCCCCCCCCCC(=O)[O-]
REMARK SMILES IDX 16 1 17 2 18 3 19 4 20 5 21 6 22 7 23 8 24 9 25 10 26 11
REMARK SMILES IDX 27 12 28 13 29 14 30 15 31 16 32 17 15 18 14 19 13 20 12 21
REMARK SMILES IDX 11 22 10 23 9 24 8 25 7 26 6 27 5 28 4 29 3 30 2 31 1 32
REMARK H PARENT
REMARK Flexibility Score: inf
ROOT
ATOM      1  C   UNL     1      10.884  15.309  22.911  1.00  0.00     0.000 C 
ENDROOT
BRANCH   1   2
ATOM      2  C   UNL     1      10.039  14.495  21.918  1.00  0.00     0.000 C 
BRANCH   2   3
ATOM      3  C   UNL     1       9.110  13.493  22.620  1.00  0.00     0.000 C 
BRANCH   3   4
ATOM      4  C   UNL     1       7.629  13.685  22.243  1.00  0.00     0.000 C 
BRANCH   4   5
ATOM      5  C   UNL     1       6.644  13.130  23.295  1.00  0.00     0.000 C 
BRANCH   5   6
ATOM      6  C   UNL     1       6.133  11.724  22.935  1.00  0.00     0.000 C 
BRANCH   6   7
ATOM      7  C   UNL     1       6.709  11.205  21.607  1.00  0.00     0.000 C 
BRANCH   7   8
ATOM      8  C   UNL     1       7.717  10.046  21.750  1.00  0.00     0.000 C 
BRANCH   8   9
ATOM      9  C   UNL     1       8.889  10.118  20.746  1.00  0.00     0.000 C 
BRANCH   9  10
ATOM     10  C   UNL     1       8.660  11.178  19.658  1.00  0.00     0.000 C 
BRANCH  10  11
ATOM     11  C   UNL     1       9.976  11.866  19.269  1.00  0.00     0.000 C 
BRANCH  11  12
ATOM     12  C   UNL     1      11.216  11.159  19.841  1.00  0.00     0.000 C 
BRANCH  12  13
ATOM     13  C   UNL     1      12.220  12.108  20.533  1.00  0.00     0.006 C 
BRANCH  13  14
ATOM     14  C   UNL     1      13.088  11.426  21.604  1.00  0.00     0.053 C 
BRANCH  14  15
ATOM     15  C   UNL     1      14.527  11.841  21.519  1.00  0.00     0.041 C 
ATOM     16  O   UNL     1      15.364  11.409  22.355  1.00  0.00    -0.550 OA
ATOM     17  O   UNL     1      14.942  12.707  20.514  1.00  0.00    -0.550 OA
ENDBRANCH  14  15
ENDBRANCH  13  14
ENDBRANCH  12  13
ENDBRANCH  11  12
ENDBRANCH  10  11
ENDBRANCH   9  10
ENDBRANCH   8   9
ENDBRANCH   7   8
ENDBRANCH   6   7
ENDBRANCH   5   6
ENDBRANCH   4   5
ENDBRANCH   3   4
ENDBRANCH   2   3
ENDBRANCH   1   2
BRANCH   1  18
ATOM     18  C   UNL     1      12.111  14.527  23.410  1.00  0.00     0.000 C 
BRANCH  18  19
ATOM     19  C   UNL     1      12.830  15.225  24.579  1.00  0.00     0.000 C 
BRANCH  19  20
ATOM     20  C   UNL     1      12.027  16.353  25.251  1.00  0.00     0.000 C 
BRANCH  20  21
ATOM     21  C   UNL     1      12.908  17.536  25.691  1.00  0.00     0.000 C 
BRANCH  21  22
ATOM     22  C   UNL     1      12.361  18.895  25.207  1.00  0.00     0.000 C 
BRANCH  22  23
ATOM     23  C   UNL     1      12.899  19.328  23.833  1.00  0.00     0.000 C 
BRANCH  23  24
ATOM     24  C   UNL     1      14.212  18.630  23.452  1.00  0.00    -0.000 C 
BRANCH  24  25
ATOM     25  C   UNL     1      14.065  17.866  22.132  1.00  0.00    -0.000 C 
BRANCH  25  26
ATOM     26  C   UNL     1      12.611  17.885  21.641  1.00  0.00    -0.000 C 
BRANCH  26  27
ATOM     27  C   UNL     1      12.468  18.473  20.229  1.00  0.00    -0.000 C 
BRANCH  27  28
ATOM     28  C   UNL     1      11.865  19.891  20.232  1.00  0.00    -0.000 C 
BRANCH  28  29
ATOM     29  C   UNL     1      12.771  20.913  19.513  1.00  0.00    -0.000 C 
BRANCH  29  30
ATOM     30  C   UNL     1      14.193  20.981  20.094  1.00  0.00    -0.000 C 
BRANCH  30  31
ATOM     31  C   UNL     1      15.273  20.582  19.079  1.00  0.00    -0.003 C 
ATOM     32  C   UNL     1      15.902  21.812  18.434  1.00  0.00     0.004 C 
ENDBRANCH  30  31
ENDBRANCH  29  30
ENDBRANCH  28  29
ENDBRANCH  27  28
ENDBRANCH  26  27
ENDBRANCH  25  26
ENDBRANCH  24  25
ENDBRANCH  23  24
ENDBRANCH  22  23
ENDBRANCH  21  22
ENDBRANCH  20  21
ENDBRANCH  19  20
ENDBRANCH  18  19
ENDBRANCH   1  18
TORSDOF 28
ENDMDL
