MODEL 1
REMARK VINA RESULT:    -3.282      0.000      0.000
REMARK INTER + INTRA:          -3.378
REMARK INTER:                  -3.378
REMARK INTRA:                   0.000
REMARK UNBOUND:                 0.000
REMARK SMILES CC1(C)[C@@H]2CC[C@@](C)(C2)[C@H]1O
REMARK SMILES IDX 1 1 2 2 4 3 5 4 6 5 7 6 9 7 10 8 8 9 3 10 11 11
REMARK H PARENT 11 12
REMARK Flexibility Score: inf
ROOT
ATOM      1  C   UNL     1     170.629 157.089 170.000  1.00  0.00     0.014 C 
ATOM      2  C   UNL     1     169.385 157.881 170.483  1.00  0.00    -0.006 C 
ATOM      3  C   UNL     1     169.786 159.366 170.781  1.00  0.00    -0.002 C 
ATOM      4  C   UNL     1     168.663 160.111 171.533  1.00  0.00     0.005 C 
ATOM      5  C   UNL     1     167.552 160.207 170.476  1.00  0.00     0.010 C 
ATOM      6  C   UNL     1     168.224 159.607 169.218  1.00  0.00    -0.006 C 
ATOM      7  C   UNL     1     169.667 160.017 169.414  1.00  0.00     0.013 C 
ATOM      8  C   UNL     1     168.292 158.061 169.374  1.00  0.00     0.126 C 
ATOM      9  C   UNL     1     167.603 160.104 167.907  1.00  0.00     0.014 C 
ATOM     10  C   UNL     1     168.815 157.135 171.715  1.00  0.00     0.014 C 
ENDROOT
BRANCH   8  11
ATOM     11  O   UNL     1     168.673 157.446 168.166  1.00  0.00    -0.392 OA
ATOM     12  H   UNL     1     168.568 158.123 167.449  1.00  0.00     0.211 HD
ENDBRANCH   8  11
TORSDOF 1
ENDMDL
MODEL 2
REMARK VINA RESULT:    -3.267     13.855     15.524
REMARK INTER + INTRA:          -3.362
REMARK INTER:                  -3.362
REMARK INTRA:                   0.000
REMARK UNBOUND:                 0.000
REMARK SMILES CC1(C)[C@@H]2CC[C@@](C)(C2)[C@H]1O
REMARK SMILES IDX 1 1 2 2 4 3 5 4 6 5 7 6 9 7 10 8 8 9 3 10 11 11
REMARK H PARENT 11 12
REMARK Flexibility Score: inf
ROOT
ATOM      1  C   UNL     1     160.671 174.390 169.455  1.00  0.00     0.014 C 
ATOM      2  C   UNL     1     161.796 173.599 170.174  1.00  0.00    -0.006 C 
ATOM      3  C   UNL     1     161.263 172.186 170.593  1.00  0.00    -0.002 C 
ATOM      4  C   UNL     1     162.241 171.482 171.558  1.00  0.00     0.005 C 
ATOM      5  C   UNL     1     163.455 171.195 170.662  1.00  0.00     0.010 C 
ATOM      6  C   UNL     1     162.973 171.669 169.271  1.00  0.00    -0.006 C 
ATOM      7  C   UNL     1     161.492 171.364 169.338  1.00  0.00     0.013 C 
ATOM      8  C   UNL     1     162.992 173.224 169.234  1.00  0.00     0.126 C 
ATOM      9  C   UNL     1     163.703 170.979 168.111  1.00  0.00     0.014 C 
ATOM     10  C   UNL     1     162.271 174.461 171.370  1.00  0.00     0.014 C 
ENDROOT
BRANCH   8  11
ATOM     11  O   UNL     1     162.793 173.702 167.924  1.00  0.00    -0.392 OA
ATOM     12  H   UNL     1     162.899 174.688 167.956  1.00  0.00     0.211 HD
ENDBRANCH   8  11
TORSDOF 1
ENDMDL
MODEL 3
REMARK VINA RESULT:    -3.246     14.022     15.472
REMARK INTER + INTRA:          -3.341
REMARK INTER:                  -3.341
REMARK INTRA:                   0.000
REMARK UNBOUND:                 0.000
REMARK SMILES CC1(C)[C@@H]2CC[C@@](C)(C2)[C@H]1O
REMARK SMILES IDX 1 1 2 2 4 3 5 4 6 5 7 6 9 7 10 8 8 9 3 10 11 11
REMARK H PARENT 11 12
REMARK Flexibility Score: inf
ROOT
ATOM      1  C   UNL     1     163.424 171.237 168.384  1.00  0.00     0.014 C 
ATOM      2  C   UNL     1     162.944 171.843 169.730  1.00  0.00    -0.006 C 
ATOM      3  C   UNL     1     163.206 173.388 169.737  1.00  0.00    -0.002 C 
ATOM      4  C   UNL     1     163.018 173.981 171.150  1.00  0.00     0.005 C 
ATOM      5  C   UNL     1     161.506 173.837 171.380  1.00  0.00     0.010 C 
ATOM      6  C   UNL     1     161.005 173.283 170.026  1.00  0.00    -0.006 C 
ATOM      7  C   UNL     1     161.965 173.933 169.053  1.00  0.00     0.013 C 
ATOM      8  C   UNL     1     161.391 171.780 169.922  1.00  0.00     0.126 C 
ATOM      9  C   UNL     1     159.528 173.599 169.753  1.00  0.00     0.014 C 
ATOM     10  C   UNL     1     163.680 171.085 170.862  1.00  0.00     0.014 C 
ENDROOT
BRANCH   8  11
ATOM     11  O   UNL     1     160.756 171.169 168.823  1.00  0.00    -0.392 OA
ATOM     12  H   UNL     1     160.369 170.316 169.149  1.00  0.00     0.211 HD
ENDBRANCH   8  11
TORSDOF 1
ENDMDL
MODEL 4
REMARK VINA RESULT:    -3.241      1.256      3.286
REMARK INTER + INTRA:          -3.336
REMARK INTER:                  -3.336
REMARK INTRA:                   0.000
REMARK UNBOUND:                 0.000
REMARK SMILES CC1(C)[C@@H]2CC[C@@](C)(C2)[C@H]1O
REMARK SMILES IDX 1 1 2 2 4 3 5 4 6 5 7 6 9 7 10 8 8 9 3 10 11 11
REMARK H PARENT 11 12
REMARK Flexibility Score: inf
ROOT
ATOM      1  C   UNL     1     167.774 159.977 168.363  1.00  0.00     0.014 C 
ATOM      2  C   UNL     1     168.249 159.416 169.730  1.00  0.00    -0.006 C 
ATOM      3  C   UNL     1     167.989 157.872 169.786  1.00  0.00    -0.002 C 
ATOM      4  C   UNL     1     168.173 157.324 171.218  1.00  0.00     0.005 C 
ATOM      5  C   UNL     1     169.684 157.478 171.449  1.00  0.00     0.010 C 
ATOM      6  C   UNL     1     170.189 157.988 170.079  1.00  0.00    -0.006 C 
ATOM      7  C   UNL     1     169.233 157.306 169.124  1.00  0.00     0.013 C 
ATOM      8  C   UNL     1     169.802 159.486 169.925  1.00  0.00     0.126 C 
ATOM      9  C   UNL     1     171.667 157.665 169.822  1.00  0.00     0.014 C 
ATOM     10  C   UNL     1     167.508 160.209 170.835  1.00  0.00     0.014 C 
ENDROOT
BRANCH   8  11
ATOM     11  O   UNL     1     170.440 160.063 168.810  1.00  0.00    -0.392 OA
ATOM     12  H   UNL     1     169.872 159.873 168.020  1.00  0.00     0.211 HD
ENDBRANCH   8  11
TORSDOF 1
ENDMDL
MODEL 5
REMARK VINA RESULT:    -3.197      1.392      3.068
REMARK INTER + INTRA:          -3.291
REMARK INTER:                  -3.291
REMARK INTRA:                   0.000
REMARK UNBOUND:                 0.000
REMARK SMILES CC1(C)[C@@H]2CC[C@@](C)(C2)[C@H]1O
REMARK SMILES IDX 1 1 2 2 4 3 5 4 6 5 7 6 9 7 10 8 8 9 3 10 11 11
REMARK H PARENT 11 12
REMARK Flexibility Score: inf
ROOT
ATOM      1  C   UNL     1     167.414 160.363 170.863  1.00  0.00     0.014 C 
ATOM      2  C   UNL     1     168.534 159.473 170.261  1.00  0.00    -0.006 C 
ATOM      3  C   UNL     1     168.490 158.051 170.917  1.00  0.00    -0.002 C 
ATOM      4  C   UNL     1     169.751 157.233 170.568  1.00  0.00     0.005 C 
ATOM      5  C   UNL     1     169.584 156.977 169.062  1.00  0.00     0.010 C 
ATOM      6  C   UNL     1     168.193 157.584 168.765  1.00  0.00    -0.006 C 
ATOM      7  C   UNL     1     167.461 157.329 170.065  1.00  0.00     0.013 C 
ATOM      8  C   UNL     1     168.313 159.134 168.747  1.00  0.00     0.126 C 
ATOM      9  C   UNL     1     167.516 156.967 167.534  1.00  0.00     0.014 C 
ATOM     10  C   UNL     1     169.877 160.214 170.479  1.00  0.00     0.014 C 
ENDROOT
BRANCH   8  11
ATOM     11  O   UNL     1     167.137 159.728 168.249  1.00  0.00    -0.392 OA
ATOM     12  H   UNL     1     167.032 159.422 167.311  1.00  0.00     0.211 HD
ENDBRANCH   8  11
TORSDOF 1
ENDMDL
MODEL 6
REMARK VINA RESULT:    -3.180     13.532     14.962
REMARK INTER + INTRA:          -3.273
REMARK INTER:                  -3.273
REMARK INTRA:                   0.000
REMARK UNBOUND:                 0.000
REMARK SMILES CC1(C)[C@@H]2CC[C@@](C)(C2)[C@H]1O
REMARK SMILES IDX 1 1 2 2 4 3 5 4 6 5 7 6 9 7 10 8 8 9 3 10 11 11
REMARK H PARENT 11 12
REMARK Flexibility Score: inf
ROOT
ATOM      1  C   UNL     1     164.024 170.599 170.937  1.00  0.00     0.014 C 
ATOM      2  C   UNL     1     162.788 171.402 170.454  1.00  0.00    -0.006 C 
ATOM      3  C   UNL     1     162.748 172.794 171.172  1.00  0.00    -0.002 C 
ATOM      4  C   UNL     1     161.395 173.503 170.948  1.00  0.00     0.005 C 
ATOM      5  C   UNL     1     161.431 173.834 169.448  1.00  0.00     0.010 C 
ATOM      6  C   UNL     1     162.847 173.375 169.029  1.00  0.00    -0.006 C 
ATOM      7  C   UNL     1     163.643 173.644 170.288  1.00  0.00     0.013 C 
ATOM      8  C   UNL     1     162.868 171.822 168.947  1.00  0.00     0.126 C 
ATOM      9  C   UNL     1     163.375 174.102 167.786  1.00  0.00     0.014 C 
ATOM     10  C   UNL     1     161.537 170.530 170.727  1.00  0.00     0.014 C 
ENDROOT
BRANCH   8  11
ATOM     11  O   UNL     1     164.055 171.363 168.343  1.00  0.00    -0.392 OA
ATOM     12  H   UNL     1     164.466 170.711 168.967  1.00  0.00     0.211 HD
ENDBRANCH   8  11
TORSDOF 1
ENDMDL
MODEL 7
REMARK VINA RESULT:    -3.085      9.805     11.181
REMARK INTER + INTRA:          -3.175
REMARK INTER:                  -3.175
REMARK INTRA:                   0.000
REMARK UNBOUND:                 0.000
REMARK SMILES CC1(C)[C@@H]2CC[C@@](C)(C2)[C@H]1O
REMARK SMILES IDX 1 1 2 2 4 3 5 4 6 5 7 6 9 7 10 8 8 9 3 10 11 11
REMARK H PARENT 11 12
REMARK Flexibility Score: inf
ROOT
ATOM      1  C   UNL     1     157.770 163.363 168.132  1.00  0.00     0.014 C 
ATOM      2  C   UNL     1     158.144 162.639 169.453  1.00  0.00    -0.006 C 
ATOM      3  C   UNL     1     159.647 162.199 169.408  1.00  0.00    -0.002 C 
ATOM      4  C   UNL     1     159.983 161.231 170.562  1.00  0.00     0.005 C 
ATOM      5  C   UNL     1     159.873 162.130 171.803  1.00  0.00     0.010 C 
ATOM      6  C   UNL     1     159.599 163.524 171.192  1.00  0.00    -0.006 C 
ATOM      7  C   UNL     1     160.367 163.446 169.891  1.00  0.00     0.013 C 
ATOM      8  C   UNL     1     158.123 163.580 170.706  1.00  0.00     0.126 C 
ATOM      9  C   UNL     1     160.030 164.679 172.106  1.00  0.00     0.014 C 
ATOM     10  C   UNL     1     157.159 161.457 169.624  1.00  0.00     0.014 C 
ENDROOT
BRANCH   8  11
ATOM     11  O   UNL     1     157.752 164.895 170.362  1.00  0.00    -0.392 OA
ATOM     12  H   UNL     1     158.565 165.457 170.443  1.00  0.00     0.211 HD
ENDBRANCH   8  11
TORSDOF 1
ENDMDL
MODEL 8
REMARK VINA RESULT:    -3.040      8.941     10.245
REMARK INTER + INTRA:          -3.129
REMARK INTER:                  -3.129
REMARK INTRA:                   0.000
REMARK UNBOUND:                 0.000
REMARK SMILES CC1(C)[C@@H]2CC[C@@](C)(C2)[C@H]1O
REMARK SMILES IDX 1 1 2 2 4 3 5 4 6 5 7 6 9 7 10 8 8 9 3 10 11 11
REMARK H PARENT 11 12
REMARK Flexibility Score: inf
ROOT
ATOM      1  C   UNL     1     173.250 167.857 168.226  1.00  0.00     0.014 C 
ATOM      2  C   UNL     1     172.933 168.510 169.597  1.00  0.00    -0.006 C 
ATOM      3  C   UNL     1     171.417 168.903 169.658  1.00  0.00    -0.002 C 
ATOM      4  C   UNL     1     171.121 169.809 170.872  1.00  0.00     0.005 C 
ATOM      5  C   UNL     1     171.329 168.860 172.062  1.00  0.00     0.010 C 
ATOM      6  C   UNL     1     171.608 167.504 171.374  1.00  0.00    -0.006 C 
ATOM      7  C   UNL     1     170.763 167.614 170.123  1.00  0.00     0.013 C 
ATOM      8  C   UNL     1     173.054 167.516 170.803  1.00  0.00     0.126 C 
ATOM      9  C   UNL     1     171.265 166.297 172.257  1.00  0.00     0.014 C 
ATOM     10  C   UNL     1     173.891 169.714 169.766  1.00  0.00     0.014 C 
ENDROOT
BRANCH   8  11
ATOM     11  O   UNL     1     173.442 166.230 170.379  1.00  0.00    -0.392 OA
ATOM     12  H   UNL     1     174.142 166.352 169.686  1.00  0.00     0.211 HD
ENDBRANCH   8  11
TORSDOF 1
ENDMDL
MODEL 9
REMARK VINA RESULT:    -2.963     14.185     15.710
REMARK INTER + INTRA:          -3.049
REMARK INTER:                  -3.049
REMARK INTRA:                   0.000
REMARK UNBOUND:                 0.000
REMARK SMILES CC1(C)[C@@H]2CC[C@@](C)(C2)[C@H]1O
REMARK SMILES IDX 1 1 2 2 4 3 5 4 6 5 7 6 9 7 10 8 8 9 3 10 11 11
REMARK H PARENT 11 12
REMARK Flexibility Score: inf
ROOT
ATOM      1  C   UNL     1     163.435 173.834 167.891  1.00  0.00     0.014 C 
ATOM      2  C   UNL     1     162.620 173.646 169.198  1.00  0.00    -0.006 C 
ATOM      3  C   UNL     1     162.201 172.143 169.348  1.00  0.00    -0.002 C 
ATOM      4  C   UNL     1     161.153 171.963 170.467  1.00  0.00     0.005 C 
ATOM      5  C   UNL     1     161.956 172.276 171.739  1.00  0.00     0.010 C 
ATOM      6  C   UNL     1     163.389 172.486 171.195  1.00  0.00    -0.006 C 
ATOM      7  C   UNL     1     163.416 171.531 170.022  1.00  0.00     0.013 C 
ATOM      8  C   UNL     1     163.465 173.874 170.498  1.00  0.00     0.126 C 
ATOM      9  C   UNL     1     164.477 172.222 172.243  1.00  0.00     0.014 C 
ATOM     10  C   UNL     1     161.417 174.620 169.134  1.00  0.00     0.014 C 
ENDROOT
BRANCH   8  11
ATOM     11  O   UNL     1     164.797 174.217 170.196  1.00  0.00    -0.392 OA
ATOM     12  H   UNL     1     164.811 174.533 169.256  1.00  0.00     0.211 HD
ENDBRANCH   8  11
TORSDOF 1
ENDMDL
