MODEL 1
REMARK VINA RESULT:    -5.557      0.000      0.000
REMARK INTER + INTRA:         -10.057
REMARK INTER:                  -8.155
REMARK INTRA:                  -1.902
REMARK UNBOUND:                -1.902
REMARK SMILES O=c1c(O[C@@H]2O[C@H](CO)[C@H](O)[C@H](O)[C@@H]2O)c(-c2ccc(O)c(O)c2)oc2cc(O)cc(O)c12
REMARK SMILES IDX 4 1 3 2 16 3 25 4 2 5 26 6 1 7 33 8 27 9 31 10 28 11 30 12
REMARK SMILES IDX 17 13 18 14 19 15 20 16 24 17 22 18 21 19 23 21 32 23 29 25
REMARK SMILES IDX 5 27 14 28 6 29 12 30 7 31 10 32 15 33 13 35 8 37 9 38 11 40
REMARK H PARENT 21 20 23 22 32 24 29 26 15 34 13 36 9 39 11 41
REMARK Flexibility Score: inf
ROOT
ATOM      1  O   UNL     1      14.139   4.563  38.506  1.00  0.00    -0.454 OA
ENDROOT
BRANCH   1   2
ATOM      2  C   UNL     1      14.951   4.563  37.366  1.00  0.00     0.214 A 
ATOM      3  C   UNL     1      14.918   3.490  36.462  1.00  0.00     0.180 A 
ATOM      4  O   UNL     1      15.686   3.510  35.377  1.00  0.00    -0.452 OA
ATOM      5  C   UNL     1      15.868   5.595  37.151  1.00  0.00     0.239 A 
ATOM      6  C   UNL     1      16.495   4.523  35.080  1.00  0.00     0.146 A 
ATOM      7  O   UNL     1      16.098   6.402  38.090  1.00  0.00    -0.285 OA
ATOM      8  C   UNL     1      16.585   5.655  35.935  1.00  0.00     0.111 A 
ATOM      9  C   UNL     1      17.265   4.449  33.916  1.00  0.00     0.094 A 
ATOM     10  C   UNL     1      17.417   6.744  35.539  1.00  0.00     0.134 A 
ATOM     11  C   UNL     1      18.131   5.491  33.575  1.00  0.00     0.123 A 
ATOM     12  C   UNL     1      18.186   6.636  34.374  1.00  0.00     0.093 A 
BRANCH   3  13
ATOM     13  C   UNL     1      14.146   2.273  36.755  1.00  0.00     0.025 A 
ATOM     14  C   UNL     1      12.958   1.992  36.064  1.00  0.00     0.016 A 
ATOM     15  C   UNL     1      12.257   0.812  36.325  1.00  0.00     0.051 A 
ATOM     16  C   UNL     1      12.744  -0.106  37.271  1.00  0.00     0.157 A 
ATOM     17  C   UNL     1      14.638   1.350  37.694  1.00  0.00     0.062 A 
ATOM     18  C   UNL     1      13.940   0.163  37.955  1.00  0.00     0.158 A 
BRANCH  16  19
ATOM     19  O   UNL     1      12.049  -1.286  37.530  1.00  0.00    -0.504 OA
ATOM     20  H   UNL     1      12.447  -2.188  37.299  1.00  0.00     0.293 HD
ENDBRANCH  16  19
BRANCH  18  21
ATOM     21  O   UNL     1      14.434  -0.753  38.884  1.00  0.00    -0.504 OA
ATOM     22  H   UNL     1      14.856  -1.630  38.592  1.00  0.00     0.293 HD
ENDBRANCH  18  21
ENDBRANCH   3  13
BRANCH  10  23
ATOM     23  O   UNL     1      17.483   7.963  36.226  1.00  0.00    -0.507 OA
ATOM     24  H   UNL     1      16.778   8.682  36.199  1.00  0.00     0.293 HD
ENDBRANCH  10  23
BRANCH  11  25
ATOM     25  O   UNL     1      18.931   5.407  32.436  1.00  0.00    -0.508 OA
ATOM     26  H   UNL     1      19.233   6.238  31.938  1.00  0.00     0.293 HD
ENDBRANCH  11  25
ENDBRANCH   1   2
BRANCH   1  27
ATOM     27  C   UNL     1      12.793   5.055  38.538  1.00  0.00     0.339 C 
ATOM     28  C   UNL     1      12.604   6.146  39.624  1.00  0.00     0.214 C 
ATOM     29  O   UNL     1      12.306   5.302  37.216  1.00  0.00    -0.332 OA
ATOM     30  C   UNL     1      12.612   7.561  39.060  1.00  0.00     0.180 C 
ATOM     31  C   UNL     1      11.823   6.592  36.831  1.00  0.00     0.179 C 
ATOM     32  C   UNL     1      11.582   7.644  37.950  1.00  0.00     0.177 C 
BRANCH  28  33
ATOM     33  O   UNL     1      13.598   6.013  40.614  1.00  0.00    -0.384 OA
ATOM     34  H   UNL     1      13.827   6.929  40.928  1.00  0.00     0.211 HD
ENDBRANCH  28  33
BRANCH  30  35
ATOM     35  O   UNL     1      13.892   7.910  38.610  1.00  0.00    -0.387 OA
ATOM     36  H   UNL     1      14.545   7.552  39.269  1.00  0.00     0.211 HD
ENDBRANCH  30  35
BRANCH  31  37
ATOM     37  C   UNL     1      12.654   7.116  35.636  1.00  0.00     0.191 C 
BRANCH  37  38
ATOM     38  O   UNL     1      11.858   7.832  34.737  1.00  0.00    -0.394 OA
ATOM     39  H   UNL     1      11.110   7.230  34.487  1.00  0.00     0.210 HD
ENDBRANCH  37  38
ENDBRANCH  31  37
BRANCH  32  40
ATOM     40  O   UNL     1      11.580   8.951  37.439  1.00  0.00    -0.387 OA
ATOM     41  H   UNL     1      10.693   9.100  37.012  1.00  0.00     0.211 HD
ENDBRANCH  32  40
ENDBRANCH   1  27
TORSDOF 12
ENDMDL
MODEL 2
REMARK VINA RESULT:    -5.271     11.057     13.609
REMARK INTER + INTRA:          -9.638
REMARK INTER:                  -7.775
REMARK INTRA:                  -1.863
REMARK UNBOUND:                -1.902
REMARK SMILES O=c1c(O[C@@H]2O[C@H](CO)[C@H](O)[C@H](O)[C@@H]2O)c(-c2ccc(O)c(O)c2)oc2cc(O)cc(O)c12
REMARK SMILES IDX 4 1 3 2 16 3 25 4 2 5 26 6 1 7 33 8 27 9 31 10 28 11 30 12
REMARK SMILES IDX 17 13 18 14 19 15 20 16 24 17 22 18 21 19 23 21 32 23 29 25
REMARK SMILES IDX 5 27 14 28 6 29 12 30 7 31 10 32 15 33 13 35 8 37 9 38 11 40
REMARK H PARENT 21 20 23 22 32 24 29 26 15 34 13 36 9 39 11 41
REMARK Flexibility Score: inf
ROOT
ATOM      1  O   UNL     1      11.124   4.527  23.375  1.00  0.00    -0.454 OA
ENDROOT
BRANCH   1   2
ATOM      2  C   UNL     1      10.281   4.456  24.490  1.00  0.00     0.214 A 
ATOM      3  C   UNL     1      10.291   3.330  25.327  1.00  0.00     0.180 A 
ATOM      4  O   UNL     1       9.493   3.282  26.389  1.00  0.00    -0.452 OA
ATOM      5  C   UNL     1       9.357   5.474  24.743  1.00  0.00     0.239 A 
ATOM      6  C   UNL     1       8.674   4.275  26.726  1.00  0.00     0.146 A 
ATOM      7  O   UNL     1       9.151   6.337  23.851  1.00  0.00    -0.285 OA
ATOM      8  C   UNL     1       8.607   5.458  25.941  1.00  0.00     0.111 A 
ATOM      9  C   UNL     1       7.873   4.129  27.862  1.00  0.00     0.094 A 
ATOM     10  C   UNL     1       7.762   6.520  26.380  1.00  0.00     0.134 A 
ATOM     11  C   UNL     1       6.996   5.147  28.242  1.00  0.00     0.123 A 
ATOM     12  C   UNL     1       6.962   6.340  27.515  1.00  0.00     0.093 A 
BRANCH   3  13
ATOM     13  C   UNL     1      11.072   2.133  24.980  1.00  0.00     0.025 A 
ATOM     14  C   UNL     1      12.176   1.746  25.755  1.00  0.00     0.016 A 
ATOM     15  C   UNL     1      12.884   0.585  25.436  1.00  0.00     0.051 A 
ATOM     16  C   UNL     1      12.488  -0.209  24.347  1.00  0.00     0.157 A 
ATOM     17  C   UNL     1      10.670   1.333  23.896  1.00  0.00     0.062 A 
ATOM     18  C   UNL     1      11.376   0.164  23.578  1.00  0.00     0.158 A 
BRANCH  16  19
ATOM     19  O   UNL     1      13.190  -1.372  24.031  1.00  0.00    -0.504 OA
ATOM     20  H   UNL     1      13.002  -1.879  23.175  1.00  0.00     0.293 HD
ENDBRANCH  16  19
BRANCH  18  21
ATOM     21  O   UNL     1      10.971  -0.630  22.504  1.00  0.00    -0.504 OA
ATOM     22  H   UNL     1      11.131  -0.345  21.543  1.00  0.00     0.293 HD
ENDBRANCH  18  21
ENDBRANCH   3  13
BRANCH  10  23
ATOM     23  O   UNL     1       7.713   7.779  25.769  1.00  0.00    -0.507 OA
ATOM     24  H   UNL     1       6.884   8.346  25.673  1.00  0.00     0.293 HD
ENDBRANCH  10  23
BRANCH  11  25
ATOM     25  O   UNL     1       6.165   4.993  29.351  1.00  0.00    -0.508 OA
ATOM     26  H   UNL     1       5.537   4.202  29.437  1.00  0.00     0.293 HD
ENDBRANCH  11  25
ENDBRANCH   1   2
BRANCH   1  27
ATOM     27  C   UNL     1      12.459   5.049  23.405  1.00  0.00     0.339 C 
ATOM     28  C   UNL     1      12.703   6.071  22.264  1.00  0.00     0.214 C 
ATOM     29  O   UNL     1      12.846   5.393  24.738  1.00  0.00    -0.332 OA
ATOM     30  C   UNL     1      12.627   7.520  22.730  1.00  0.00     0.180 C 
ATOM     31  C   UNL     1      13.274   6.718  25.069  1.00  0.00     0.179 C 
ATOM     32  C   UNL     1      13.573   7.700  23.902  1.00  0.00     0.177 C 
BRANCH  28  33
ATOM     33  O   UNL     1      11.786   5.850  21.218  1.00  0.00    -0.384 OA
ATOM     34  H   UNL     1      11.578   6.735  20.815  1.00  0.00     0.211 HD
ENDBRANCH  28  33
BRANCH  30  35
ATOM     35  O   UNL     1      11.312   7.865  23.066  1.00  0.00    -0.387 OA
ATOM     36  H   UNL     1      10.715   7.167  22.682  1.00  0.00     0.211 HD
ENDBRANCH  30  35
BRANCH  31  37
ATOM     37  C   UNL     1      12.349   7.297  26.166  1.00  0.00     0.191 C 
BRANCH  37  38
ATOM     38  O   UNL     1      11.925   6.303  27.051  1.00  0.00    -0.394 OA
ATOM     39  H   UNL     1      12.742   5.953  27.491  1.00  0.00     0.210 HD
ENDBRANCH  37  38
ENDBRANCH  31  37
BRANCH  32  40
ATOM     40  O   UNL     1      13.513   9.037  24.324  1.00  0.00    -0.387 OA
ATOM     41  H   UNL     1      12.711   9.446  23.895  1.00  0.00     0.211 HD
ENDBRANCH  32  40
ENDBRANCH   1  27
TORSDOF 12
ENDMDL
MODEL 3
REMARK VINA RESULT:    -5.264      2.984      4.788
REMARK INTER + INTRA:          -9.627
REMARK INTER:                  -7.564
REMARK INTRA:                  -2.064
REMARK UNBOUND:                -1.902
REMARK SMILES O=c1c(O[C@@H]2O[C@H](CO)[C@H](O)[C@H](O)[C@@H]2O)c(-c2ccc(O)c(O)c2)oc2cc(O)cc(O)c12
REMARK SMILES IDX 4 1 3 2 16 3 25 4 2 5 26 6 1 7 33 8 27 9 31 10 28 11 30 12
REMARK SMILES IDX 17 13 18 14 19 15 20 16 24 17 22 18 21 19 23 21 32 23 29 25
REMARK SMILES IDX 5 27 14 28 6 29 12 30 7 31 10 32 15 33 13 35 8 37 9 38 11 40
REMARK H PARENT 21 20 23 22 32 24 29 26 15 34 13 36 9 39 11 41
REMARK Flexibility Score: inf
ROOT
ATOM      1  O   UNL     1      10.713   5.745  38.499  1.00  0.00    -0.454 OA
ENDROOT
BRANCH   1   2
ATOM      2  C   UNL     1      11.853   5.629  37.694  1.00  0.00     0.214 A 
ATOM      3  C   UNL     1      11.739   5.508  36.301  1.00  0.00     0.180 A 
ATOM      4  O   UNL     1      12.832   5.410  35.550  1.00  0.00    -0.452 OA
ATOM      5  C   UNL     1      13.122   5.550  38.275  1.00  0.00     0.239 A 
ATOM      6  C   UNL     1      14.063   5.438  36.052  1.00  0.00     0.146 A 
ATOM      7  O   UNL     1      13.207   5.375  39.518  1.00  0.00    -0.285 OA
ATOM      8  C   UNL     1      14.272   5.567  37.452  1.00  0.00     0.111 A 
ATOM      9  C   UNL     1      15.148   5.327  35.179  1.00  0.00     0.094 A 
ATOM     10  C   UNL     1      15.610   5.658  37.937  1.00  0.00     0.134 A 
ATOM     11  C   UNL     1      16.455   5.344  35.672  1.00  0.00     0.123 A 
ATOM     12  C   UNL     1      16.677   5.531  37.039  1.00  0.00     0.093 A 
BRANCH   3  13
ATOM     13  C   UNL     1      10.426   5.352  35.657  1.00  0.00     0.025 A 
ATOM     14  C   UNL     1       9.813   4.093  35.575  1.00  0.00     0.016 A 
ATOM     15  C   UNL     1       8.547   3.967  34.995  1.00  0.00     0.051 A 
ATOM     16  C   UNL     1       7.877   5.100  34.504  1.00  0.00     0.157 A 
ATOM     17  C   UNL     1       9.752   6.486  35.175  1.00  0.00     0.062 A 
ATOM     18  C   UNL     1       8.480   6.363  34.598  1.00  0.00     0.158 A 
BRANCH  16  19
ATOM     19  O   UNL     1       6.612   4.977  33.930  1.00  0.00    -0.504 OA
ATOM     20  H   UNL     1       6.421   4.266  33.236  1.00  0.00     0.293 HD
ENDBRANCH  16  19
BRANCH  18  21
ATOM     21  O   UNL     1       7.810   7.493  34.125  1.00  0.00    -0.504 OA
ATOM     22  H   UNL     1       7.611   8.284  34.730  1.00  0.00     0.293 HD
ENDBRANCH  18  21
ENDBRANCH   3  13
BRANCH  10  23
ATOM     23  O   UNL     1      15.939   5.921  39.272  1.00  0.00    -0.507 OA
ATOM     24  H   UNL     1      15.901   5.248  40.022  1.00  0.00     0.293 HD
ENDBRANCH  10  23
BRANCH  11  25
ATOM     25  O   UNL     1      17.541   5.195  34.812  1.00  0.00    -0.508 OA
ATOM     26  H   UNL     1      18.491   5.133  35.163  1.00  0.00     0.293 HD
ENDBRANCH  11  25
ENDBRANCH   1   2
BRANCH   1  27
ATOM     27  C   UNL     1      10.109   6.993  38.866  1.00  0.00     0.339 C 
ATOM     28  C   UNL     1       9.868   7.087  40.395  1.00  0.00     0.214 C 
ATOM     29  O   UNL     1      10.742   8.086  38.196  1.00  0.00    -0.332 OA
ATOM     30  C   UNL     1      10.920   7.919  41.118  1.00  0.00     0.180 C 
ATOM     31  C   UNL     1      11.321   9.171  38.927  1.00  0.00     0.179 C 
ATOM     32  C   UNL     1      11.008   9.275  40.446  1.00  0.00     0.177 C 
BRANCH  28  33
ATOM     33  O   UNL     1       9.806   5.794  40.951  1.00  0.00    -0.384 OA
ATOM     34  H   UNL     1       9.039   5.781  41.585  1.00  0.00     0.211 HD
ENDBRANCH  28  33
BRANCH  30  35
ATOM     35  O   UNL     1      12.156   7.260  41.125  1.00  0.00    -0.387 OA
ATOM     36  H   UNL     1      12.444   7.163  40.178  1.00  0.00     0.211 HD
ENDBRANCH  30  35
BRANCH  31  37
ATOM     37  C   UNL     1      12.824   9.281  38.580  1.00  0.00     0.191 C 
BRANCH  37  38
ATOM     38  O   UNL     1      13.607   8.530  39.462  1.00  0.00    -0.394 OA
ATOM     39  H   UNL     1      14.080   9.182  40.040  1.00  0.00     0.210 HD
ENDBRANCH  37  38
ENDBRANCH  31  37
BRANCH  32  40
ATOM     40  O   UNL     1      11.968  10.046  41.120  1.00  0.00    -0.387 OA
ATOM     41  H   UNL     1      11.679  10.111  42.071  1.00  0.00     0.211 HD
ENDBRANCH  32  40
ENDBRANCH   1  27
TORSDOF 12
ENDMDL
MODEL 4
REMARK VINA RESULT:    -5.260      2.392      6.323
REMARK INTER + INTRA:          -9.622
REMARK INTER:                  -7.952
REMARK INTRA:                  -1.670
REMARK UNBOUND:                -1.902
REMARK SMILES O=c1c(O[C@@H]2O[C@H](CO)[C@H](O)[C@H](O)[C@@H]2O)c(-c2ccc(O)c(O)c2)oc2cc(O)cc(O)c12
REMARK SMILES IDX 4 1 3 2 16 3 25 4 2 5 26 6 1 7 33 8 27 9 31 10 28 11 30 12
REMARK SMILES IDX 17 13 18 14 19 15 20 16 24 17 22 18 21 19 23 21 32 23 29 25
REMARK SMILES IDX 5 27 14 28 6 29 12 30 7 31 10 32 15 33 13 35 8 37 9 38 11 40
REMARK H PARENT 21 20 23 22 32 24 29 26 15 34 13 36 9 39 11 41
REMARK Flexibility Score: inf
ROOT
ATOM      1  O   UNL     1      13.199   4.143  37.239  1.00  0.00    -0.454 OA
ENDROOT
BRANCH   1   2
ATOM      2  C   UNL     1      13.122   5.373  37.904  1.00  0.00     0.214 A 
ATOM      3  C   UNL     1      14.214   6.254  37.911  1.00  0.00     0.180 A 
ATOM      4  O   UNL     1      14.122   7.424  38.537  1.00  0.00    -0.452 OA
ATOM      5  C   UNL     1      11.983   5.708  38.640  1.00  0.00     0.239 A 
ATOM      6  C   UNL     1      13.019   7.828  39.160  1.00  0.00     0.146 A 
ATOM      7  O   UNL     1      11.126   4.814  38.867  1.00  0.00    -0.285 OA
ATOM      8  C   UNL     1      11.861   7.003  39.194  1.00  0.00     0.111 A 
ATOM      9  C   UNL     1      13.021   9.075  39.790  1.00  0.00     0.094 A 
ATOM     10  C   UNL     1      10.682   7.508  39.818  1.00  0.00     0.134 A 
ATOM     11  C   UNL     1      11.883   9.529  40.461  1.00  0.00     0.123 A 
ATOM     12  C   UNL     1      10.719   8.756  40.452  1.00  0.00     0.093 A 
BRANCH   3  13
ATOM     13  C   UNL     1      15.515   5.856  37.352  1.00  0.00     0.025 A 
ATOM     14  C   UNL     1      16.160   4.691  37.793  1.00  0.00     0.016 A 
ATOM     15  C   UNL     1      17.377   4.305  37.225  1.00  0.00     0.051 A 
ATOM     16  C   UNL     1      17.954   5.073  36.200  1.00  0.00     0.157 A 
ATOM     17  C   UNL     1      16.088   6.619  36.320  1.00  0.00     0.062 A 
ATOM     18  C   UNL     1      17.306   6.231  35.744  1.00  0.00     0.158 A 
BRANCH  16  19
ATOM     19  O   UNL     1      19.165   4.687  35.627  1.00  0.00    -0.504 OA
ATOM     20  H   UNL     1      19.599   5.239  34.899  1.00  0.00     0.293 HD
ENDBRANCH  16  19
BRANCH  18  21
ATOM     21  O   UNL     1      17.870   6.988  34.716  1.00  0.00    -0.504 OA
ATOM     22  H   UNL     1      18.642   7.625  34.888  1.00  0.00     0.293 HD
ENDBRANCH  18  21
ENDBRANCH   3  13
BRANCH  10  23
ATOM     23  O   UNL     1       9.447   6.848  39.798  1.00  0.00    -0.507 OA
ATOM     24  H   UNL     1       8.786   6.832  40.559  1.00  0.00     0.293 HD
ENDBRANCH  10  23
BRANCH  11  25
ATOM     25  O   UNL     1      11.890  10.754  41.125  1.00  0.00    -0.508 OA
ATOM     26  H   UNL     1      12.732  11.118  41.559  1.00  0.00     0.293 HD
ENDBRANCH  11  25
ENDBRANCH   1   2
BRANCH   1  27
ATOM     27  C   UNL     1      12.908   3.960  35.847  1.00  0.00     0.339 C 
ATOM     28  C   UNL     1      11.570   3.203  35.634  1.00  0.00     0.214 C 
ATOM     29  O   UNL     1      13.150   5.160  35.109  1.00  0.00    -0.332 OA
ATOM     30  C   UNL     1      10.411   4.124  35.275  1.00  0.00     0.180 C 
ATOM     31  C   UNL     1      12.119   5.774  34.330  1.00  0.00     0.179 C 
ATOM     32  C   UNL     1      10.816   4.965  34.079  1.00  0.00     0.177 C 
BRANCH  28  33
ATOM     33  O   UNL     1      11.256   2.454  36.784  1.00  0.00    -0.384 OA
ATOM     34  H   UNL     1      11.015   3.100  37.502  1.00  0.00     0.211 HD
ENDBRANCH  28  33
BRANCH  30  35
ATOM     35  O   UNL     1      10.050   4.918  36.370  1.00  0.00    -0.387 OA
ATOM     36  H   UNL     1      10.831   4.947  36.986  1.00  0.00     0.211 HD
ENDBRANCH  30  35
BRANCH  31  37
ATOM     37  C   UNL     1      11.884   7.217  34.834  1.00  0.00     0.191 C 
BRANCH  37  38
ATOM     38  O   UNL     1      11.542   8.074  33.784  1.00  0.00    -0.394 OA
ATOM     39  H   UNL     1      10.732   8.566  34.077  1.00  0.00     0.210 HD
ENDBRANCH  37  38
ENDBRANCH  31  37
BRANCH  32  40
ATOM     40  O   UNL     1       9.743   5.804  33.740  1.00  0.00    -0.387 OA
ATOM     41  H   UNL     1       9.345   5.449  32.898  1.00  0.00     0.211 HD
ENDBRANCH  32  40
ENDBRANCH   1  27
TORSDOF 12
ENDMDL
MODEL 5
REMARK VINA RESULT:    -5.249      2.923      4.553
REMARK INTER + INTRA:          -9.606
REMARK INTER:                  -7.841
REMARK INTRA:                  -1.764
REMARK UNBOUND:                -1.902
REMARK SMILES O=c1c(O[C@@H]2O[C@H](CO)[C@H](O)[C@H](O)[C@@H]2O)c(-c2ccc(O)c(O)c2)oc2cc(O)cc(O)c12
REMARK SMILES IDX 4 1 3 2 16 3 25 4 2 5 26 6 1 7 33 8 27 9 31 10 28 11 30 12
REMARK SMILES IDX 17 13 18 14 19 15 20 16 24 17 22 18 21 19 23 21 32 23 29 25
REMARK SMILES IDX 5 27 14 28 6 29 12 30 7 31 10 32 15 33 13 35 8 37 9 38 11 40
REMARK H PARENT 21 20 23 22 32 24 29 26 15 34 13 36 9 39 11 41
REMARK Flexibility Score: inf
ROOT
ATOM      1  O   UNL     1      13.761   5.820  37.323  1.00  0.00    -0.454 OA
ENDROOT
BRANCH   1   2
ATOM      2  C   UNL     1      14.174   4.728  36.550  1.00  0.00     0.214 A 
ATOM      3  C   UNL     1      13.487   4.377  35.379  1.00  0.00     0.180 A 
ATOM      4  O   UNL     1      13.899   3.345  34.649  1.00  0.00    -0.452 OA
ATOM      5  C   UNL     1      15.232   3.920  36.977  1.00  0.00     0.239 A 
ATOM      6  C   UNL     1      14.965   2.615  34.962  1.00  0.00     0.146 A 
ATOM      7  O   UNL     1      15.663   4.061  38.151  1.00  0.00    -0.285 OA
ATOM      8  C   UNL     1      15.727   2.906  36.126  1.00  0.00     0.111 A 
ATOM      9  C   UNL     1      15.317   1.548  34.131  1.00  0.00     0.094 A 
ATOM     10  C   UNL     1      16.899   2.135  36.384  1.00  0.00     0.134 A 
ATOM     11  C   UNL     1      16.426   0.755  34.433  1.00  0.00     0.123 A 
ATOM     12  C   UNL     1      17.219   1.065  35.540  1.00  0.00     0.093 A 
BRANCH   3  13
ATOM     13  C   UNL     1      12.231   5.046  35.006  1.00  0.00     0.025 A 
ATOM     14  C   UNL     1      10.993   4.526  35.412  1.00  0.00     0.016 A 
ATOM     15  C   UNL     1       9.810   5.194  35.083  1.00  0.00     0.051 A 
ATOM     16  C   UNL     1       9.855   6.396  34.357  1.00  0.00     0.157 A 
ATOM     17  C   UNL     1      12.275   6.253  34.288  1.00  0.00     0.062 A 
ATOM     18  C   UNL     1      11.091   6.929  33.962  1.00  0.00     0.158 A 
BRANCH  16  19
ATOM     19  O   UNL     1       8.676   7.067  34.033  1.00  0.00    -0.504 OA
ATOM     20  H   UNL     1       8.678   8.060  33.835  1.00  0.00     0.293 HD
ENDBRANCH  16  19
BRANCH  18  21
ATOM     21  O   UNL     1      11.139   8.130  33.253  1.00  0.00    -0.504 OA
ATOM     22  H   UNL     1      11.906   8.786  33.373  1.00  0.00     0.293 HD
ENDBRANCH  18  21
ENDBRANCH   3  13
BRANCH  10  23
ATOM     23  O   UNL     1      17.801   2.412  37.419  1.00  0.00    -0.507 OA
ATOM     24  H   UNL     1      18.748   2.734  37.293  1.00  0.00     0.293 HD
ENDBRANCH  10  23
BRANCH  11  25
ATOM     25  O   UNL     1      16.761  -0.335  33.630  1.00  0.00    -0.508 OA
ATOM     26  H   UNL     1      16.050  -0.890  33.165  1.00  0.00     0.293 HD
ENDBRANCH  11  25
ENDBRANCH   1   2
BRANCH   1  27
ATOM     27  C   UNL     1      12.926   5.716  38.485  1.00  0.00     0.339 C 
ATOM     28  C   UNL     1      13.616   6.304  39.743  1.00  0.00     0.214 C 
ATOM     29  O   UNL     1      11.583   6.102  38.186  1.00  0.00    -0.332 OA
ATOM     30  C   UNL     1      13.129   7.705  40.094  1.00  0.00     0.180 C 
ATOM     31  C   UNL     1      10.933   7.152  38.909  1.00  0.00     0.179 C 
ATOM     32  C   UNL     1      11.617   7.677  40.203  1.00  0.00     0.177 C 
BRANCH  28  33
ATOM     33  O   UNL     1      15.014   6.306  39.567  1.00  0.00    -0.384 OA
ATOM     34  H   UNL     1      15.315   5.358  39.580  1.00  0.00     0.211 HD
ENDBRANCH  28  33
BRANCH  30  35
ATOM     35  O   UNL     1      13.565   8.635  39.142  1.00  0.00    -0.387 OA
ATOM     36  H   UNL     1      14.207   8.167  38.543  1.00  0.00     0.211 HD
ENDBRANCH  30  35
BRANCH  31  37
ATOM     37  C   UNL     1      10.502   8.264  37.924  1.00  0.00     0.191 C 
BRANCH  37  38
ATOM     38  O   UNL     1      11.524   8.570  37.022  1.00  0.00    -0.394 OA
ATOM     39  H   UNL     1      12.266   7.940  37.217  1.00  0.00     0.210 HD
ENDBRANCH  37  38
ENDBRANCH  31  37
BRANCH  32  40
ATOM     40  O   UNL     1      11.170   8.964  40.539  1.00  0.00    -0.387 OA
ATOM     41  H   UNL     1      11.968   9.560  40.552  1.00  0.00     0.211 HD
ENDBRANCH  32  40
ENDBRANCH   1  27
TORSDOF 12
ENDMDL
MODEL 6
REMARK VINA RESULT:    -5.245      3.051      8.179
REMARK INTER + INTRA:          -9.599
REMARK INTER:                  -7.693
REMARK INTRA:                  -1.906
REMARK UNBOUND:                -1.902
REMARK SMILES O=c1c(O[C@@H]2O[C@H](CO)[C@H](O)[C@H](O)[C@@H]2O)c(-c2ccc(O)c(O)c2)oc2cc(O)cc(O)c12
REMARK SMILES IDX 4 1 3 2 16 3 25 4 2 5 26 6 1 7 33 8 27 9 31 10 28 11 30 12
REMARK SMILES IDX 17 13 18 14 19 15 20 16 24 17 22 18 21 19 23 21 32 23 29 25
REMARK SMILES IDX 5 27 14 28 6 29 12 30 7 31 10 32 15 33 13 35 8 37 9 38 11 40
REMARK H PARENT 21 20 23 22 32 24 29 26 15 34 13 36 9 39 11 41
REMARK Flexibility Score: inf
ROOT
ATOM      1  O   UNL     1      13.587   4.166  39.269  1.00  0.00    -0.454 OA
ENDROOT
BRANCH   1   2
ATOM      2  C   UNL     1      12.234   4.023  39.598  1.00  0.00     0.214 A 
ATOM      3  C   UNL     1      11.422   5.150  39.799  1.00  0.00     0.180 A 
ATOM      4  O   UNL     1      10.136   4.998  40.100  1.00  0.00    -0.452 OA
ATOM      5  C   UNL     1      11.688   2.754  39.810  1.00  0.00     0.239 A 
ATOM      6  C   UNL     1       9.551   3.809  40.206  1.00  0.00     0.146 A 
ATOM      7  O   UNL     1      12.468   1.771  39.906  1.00  0.00    -0.285 OA
ATOM      8  C   UNL     1      10.296   2.614  40.008  1.00  0.00     0.111 A 
ATOM      9  C   UNL     1       8.192   3.754  40.527  1.00  0.00     0.094 A 
ATOM     10  C   UNL     1       9.610   1.365  40.069  1.00  0.00     0.134 A 
ATOM     11  C   UNL     1       7.547   2.521  40.655  1.00  0.00     0.123 A 
ATOM     12  C   UNL     1       8.251   1.341  40.405  1.00  0.00     0.093 A 
BRANCH   3  13
ATOM     13  C   UNL     1      11.994   6.505  39.819  1.00  0.00     0.025 A 
ATOM     14  C   UNL     1      12.633   6.998  40.966  1.00  0.00     0.016 A 
ATOM     15  C   UNL     1      13.207   8.272  40.956  1.00  0.00     0.051 A 
ATOM     16  C   UNL     1      13.158   9.061  39.794  1.00  0.00     0.157 A 
ATOM     17  C   UNL     1      11.954   7.290  38.654  1.00  0.00     0.062 A 
ATOM     18  C   UNL     1      12.533   8.567  38.639  1.00  0.00     0.158 A 
BRANCH  16  19
ATOM     19  O   UNL     1      13.734  10.331  39.780  1.00  0.00    -0.504 OA
ATOM     20  H   UNL     1      14.731  10.451  39.654  1.00  0.00     0.293 HD
ENDBRANCH  16  19
BRANCH  18  21
ATOM     21  O   UNL     1      12.496   9.342  37.479  1.00  0.00    -0.504 OA
ATOM     22  H   UNL     1      13.311   9.857  37.159  1.00  0.00     0.293 HD
ENDBRANCH  18  21
ENDBRANCH   3  13
BRANCH  10  23
ATOM     23  O   UNL     1      10.203   0.134  39.760  1.00  0.00    -0.507 OA
ATOM     24  H   UNL     1      11.130   0.017  39.380  1.00  0.00     0.293 HD
ENDBRANCH  10  23
BRANCH  11  25
ATOM     25  O   UNL     1       6.201   2.458  41.013  1.00  0.00    -0.508 OA
ATOM     26  H   UNL     1       5.896   2.631  41.965  1.00  0.00     0.293 HD
ENDBRANCH  11  25
ENDBRANCH   1   2
BRANCH   1  27
ATOM     27  C   UNL     1      14.075   4.384  37.938  1.00  0.00     0.339 C 
ATOM     28  C   UNL     1      15.366   5.245  37.933  1.00  0.00     0.214 C 
ATOM     29  O   UNL     1      14.046   3.175  37.176  1.00  0.00    -0.332 OA
ATOM     30  C   UNL     1      16.636   4.421  37.762  1.00  0.00     0.180 C 
ATOM     31  C   UNL     1      15.231   2.650  36.569  1.00  0.00     0.179 C 
ATOM     32  C   UNL     1      16.489   3.562  36.520  1.00  0.00     0.177 C 
BRANCH  28  33
ATOM     33  O   UNL     1      15.438   6.007  39.116  1.00  0.00    -0.384 OA
ATOM     34  H   UNL     1      16.388   6.003  39.413  1.00  0.00     0.211 HD
ENDBRANCH  28  33
BRANCH  30  35
ATOM     35  O   UNL     1      16.884   3.648  38.903  1.00  0.00    -0.387 OA
ATOM     36  H   UNL     1      17.815   3.842  39.195  1.00  0.00     0.211 HD
ENDBRANCH  30  35
BRANCH  31  37
ATOM     37  C   UNL     1      15.498   1.226  37.109  1.00  0.00     0.191 C 
BRANCH  37  38
ATOM     38  O   UNL     1      15.188   1.130  38.468  1.00  0.00    -0.394 OA
ATOM     39  H   UNL     1      15.697   1.851  38.922  1.00  0.00     0.210 HD
ENDBRANCH  37  38
ENDBRANCH  31  37
BRANCH  32  40
ATOM     40  O   UNL     1      17.664   2.812  36.355  1.00  0.00    -0.387 OA
ATOM     41  H   UNL     1      18.241   2.988  37.148  1.00  0.00     0.211 HD
ENDBRANCH  32  40
ENDBRANCH   1  27
TORSDOF 12
ENDMDL
MODEL 7
REMARK VINA RESULT:    -5.179      3.156      6.577
REMARK INTER + INTRA:          -9.503
REMARK INTER:                  -7.521
REMARK INTRA:                  -1.982
REMARK UNBOUND:                -1.902
REMARK SMILES O=c1c(O[C@@H]2O[C@H](CO)[C@H](O)[C@H](O)[C@@H]2O)c(-c2ccc(O)c(O)c2)oc2cc(O)cc(O)c12
REMARK SMILES IDX 4 1 3 2 16 3 25 4 2 5 26 6 1 7 33 8 27 9 31 10 28 11 30 12
REMARK SMILES IDX 17 13 18 14 19 15 20 16 24 17 22 18 21 19 23 21 32 23 29 25
REMARK SMILES IDX 5 27 14 28 6 29 12 30 7 31 10 32 15 33 13 35 8 37 9 38 11 40
REMARK H PARENT 21 20 23 22 32 24 29 26 15 34 13 36 9 39 11 41
REMARK Flexibility Score: inf
ROOT
ATOM      1  O   UNL     1      17.076   3.782  36.027  1.00  0.00    -0.454 OA
ENDROOT
BRANCH   1   2
ATOM      2  C   UNL     1      17.736   4.979  35.722  1.00  0.00     0.214 A 
ATOM      3  C   UNL     1      17.181   6.216  36.083  1.00  0.00     0.180 A 
ATOM      4  O   UNL     1      17.825   7.344  35.797  1.00  0.00    -0.452 OA
ATOM      5  C   UNL     1      18.921   4.964  34.982  1.00  0.00     0.239 A 
ATOM      6  C   UNL     1      19.007   7.369  35.188  1.00  0.00     0.146 A 
ATOM      7  O   UNL     1      19.268   3.892  34.421  1.00  0.00    -0.285 OA
ATOM      8  C   UNL     1      19.647   6.162  34.796  1.00  0.00     0.111 A 
ATOM      9  C   UNL     1      19.604   8.606  34.930  1.00  0.00     0.094 A 
ATOM     10  C   UNL     1      20.943   6.238  34.205  1.00  0.00     0.134 A 
ATOM     11  C   UNL     1      20.841   8.672  34.285  1.00  0.00     0.123 A 
ATOM     12  C   UNL     1      21.510   7.493  33.948  1.00  0.00     0.093 A 
BRANCH   3  13
ATOM     13  C   UNL     1      15.829   6.304  36.655  1.00  0.00     0.025 A 
ATOM     14  C   UNL     1      14.698   6.331  35.825  1.00  0.00     0.016 A 
ATOM     15  C   UNL     1      13.418   6.375  36.384  1.00  0.00     0.051 A 
ATOM     16  C   UNL     1      13.256   6.379  37.780  1.00  0.00     0.157 A 
ATOM     17  C   UNL     1      15.665   6.299  38.051  1.00  0.00     0.062 A 
ATOM     18  C   UNL     1      14.382   6.337  38.615  1.00  0.00     0.158 A 
BRANCH  16  19
ATOM     19  O   UNL     1      11.980   6.418  38.340  1.00  0.00    -0.504 OA
ATOM     20  H   UNL     1      11.504   7.297  38.498  1.00  0.00     0.293 HD
ENDBRANCH  16  19
BRANCH  18  21
ATOM     21  O   UNL     1      14.224   6.327  40.001  1.00  0.00    -0.504 OA
ATOM     22  H   UNL     1      13.394   6.712  40.443  1.00  0.00     0.293 HD
ENDBRANCH  18  21
ENDBRANCH   3  13
BRANCH  10  23
ATOM     23  O   UNL     1      21.728   5.119  33.902  1.00  0.00    -0.507 OA
ATOM     24  H   UNL     1      21.414   4.162  33.944  1.00  0.00     0.293 HD
ENDBRANCH  10  23
BRANCH  11  25
ATOM     25  O   UNL     1      21.424   9.903  33.990  1.00  0.00    -0.508 OA
ATOM     26  H   UNL     1      22.181  10.280  34.551  1.00  0.00     0.293 HD
ENDBRANCH  11  25
ENDBRANCH   1   2
BRANCH   1  27
ATOM     27  C   UNL     1      17.274   3.038  37.236  1.00  0.00     0.339 C 
ATOM     28  C   UNL     1      17.329   1.511  36.968  1.00  0.00     0.214 C 
ATOM     29  O   UNL     1      18.288   3.636  38.047  1.00  0.00    -0.332 OA
ATOM     30  C   UNL     1      18.748   0.956  36.948  1.00  0.00     0.180 C 
ATOM     31  C   UNL     1      19.444   2.898  38.456  1.00  0.00     0.179 C 
ATOM     32  C   UNL     1      19.442   1.360  38.235  1.00  0.00     0.177 C 
BRANCH  28  33
ATOM     33  O   UNL     1      16.674   1.213  35.758  1.00  0.00    -0.384 OA
ATOM     34  H   UNL     1      16.095   0.420  35.922  1.00  0.00     0.211 HD
ENDBRANCH  28  33
BRANCH  30  35
ATOM     35  O   UNL     1      19.441   1.408  35.819  1.00  0.00    -0.387 OA
ATOM     36  H   UNL     1      18.910   1.145  35.020  1.00  0.00     0.211 HD
ENDBRANCH  30  35
BRANCH  31  37
ATOM     37  C   UNL     1      20.717   3.613  37.945  1.00  0.00     0.191 C 
BRANCH  37  38
ATOM     38  O   UNL     1      21.709   3.651  38.929  1.00  0.00    -0.394 OA
ATOM     39  H   UNL     1      22.193   2.787  38.871  1.00  0.00     0.210 HD
ENDBRANCH  37  38
ENDBRANCH  31  37
BRANCH  32  40
ATOM     40  O   UNL     1      20.745   0.838  38.221  1.00  0.00    -0.387 OA
ATOM     41  H   UNL     1      20.877   0.352  39.080  1.00  0.00     0.211 HD
ENDBRANCH  32  40
ENDBRANCH   1  27
TORSDOF 12
ENDMDL
MODEL 8
REMARK VINA RESULT:    -5.154      2.478      7.423
REMARK INTER + INTRA:          -9.467
REMARK INTER:                  -7.325
REMARK INTRA:                  -2.142
REMARK UNBOUND:                -1.902
REMARK SMILES O=c1c(O[C@@H]2O[C@H](CO)[C@H](O)[C@H](O)[C@@H]2O)c(-c2ccc(O)c(O)c2)oc2cc(O)cc(O)c12
REMARK SMILES IDX 4 1 3 2 16 3 25 4 2 5 26 6 1 7 33 8 27 9 31 10 28 11 30 12
REMARK SMILES IDX 17 13 18 14 19 15 20 16 24 17 22 18 21 19 23 21 32 23 29 25
REMARK SMILES IDX 5 27 14 28 6 29 12 30 7 31 10 32 15 33 13 35 8 37 9 38 11 40
REMARK H PARENT 21 20 23 22 32 24 29 26 15 34 13 36 9 39 11 41
REMARK Flexibility Score: inf
ROOT
ATOM      1  O   UNL     1      18.377   4.635  37.057  1.00  0.00    -0.454 OA
ENDROOT
BRANCH   1   2
ATOM      2  C   UNL     1      17.129   5.227  36.830  1.00  0.00     0.214 A 
ATOM      3  C   UNL     1      16.915   6.044  35.710  1.00  0.00     0.180 A 
ATOM      4  O   UNL     1      15.721   6.590  35.501  1.00  0.00    -0.452 OA
ATOM      5  C   UNL     1      16.096   5.078  37.760  1.00  0.00     0.239 A 
ATOM      6  C   UNL     1      14.681   6.387  36.305  1.00  0.00     0.146 A 
ATOM      7  O   UNL     1      16.366   4.588  38.888  1.00  0.00    -0.285 OA
ATOM      8  C   UNL     1      14.804   5.565  37.458  1.00  0.00     0.111 A 
ATOM      9  C   UNL     1      13.466   7.006  36.001  1.00  0.00     0.094 A 
ATOM     10  C   UNL     1      13.644   5.325  38.253  1.00  0.00     0.134 A 
ATOM     11  C   UNL     1      12.354   6.822  36.827  1.00  0.00     0.123 A 
ATOM     12  C   UNL     1      12.443   5.970  37.930  1.00  0.00     0.093 A 
BRANCH   3  13
ATOM     13  C   UNL     1      18.026   6.424  34.824  1.00  0.00     0.025 A 
ATOM     14  C   UNL     1      18.360   5.637  33.712  1.00  0.00     0.016 A 
ATOM     15  C   UNL     1      19.392   6.032  32.857  1.00  0.00     0.051 A 
ATOM     16  C   UNL     1      20.093   7.226  33.099  1.00  0.00     0.157 A 
ATOM     17  C   UNL     1      18.721   7.623  35.060  1.00  0.00     0.062 A 
ATOM     18  C   UNL     1      19.754   8.025  34.201  1.00  0.00     0.158 A 
BRANCH  16  19
ATOM     19  O   UNL     1      21.120   7.625  32.244  1.00  0.00    -0.504 OA
ATOM     20  H   UNL     1      22.070   7.722  32.579  1.00  0.00     0.293 HD
ENDBRANCH  16  19
BRANCH  18  21
ATOM     21  O   UNL     1      20.438   9.219  34.435  1.00  0.00    -0.504 OA
ATOM     22  H   UNL     1      21.390   9.224  34.790  1.00  0.00     0.293 HD
ENDBRANCH  18  21
ENDBRANCH   3  13
BRANCH  10  23
ATOM     23  O   UNL     1      13.608   4.430  39.329  1.00  0.00    -0.507 OA
ATOM     24  H   UNL     1      13.910   4.641  40.268  1.00  0.00     0.293 HD
ENDBRANCH  10  23
BRANCH  11  25
ATOM     25  O   UNL     1      11.149   7.468  36.552  1.00  0.00    -0.508 OA
ATOM     26  H   UNL     1      10.330   7.333  37.134  1.00  0.00     0.293 HD
ENDBRANCH  11  25
ENDBRANCH   1   2
BRANCH   1  27
ATOM     27  C   UNL     1      18.706   3.285  36.703  1.00  0.00     0.339 C 
ATOM     28  C   UNL     1      19.529   2.583  37.814  1.00  0.00     0.214 C 
ATOM     29  O   UNL     1      17.575   2.610  36.147  1.00  0.00    -0.332 OA
ATOM     30  C   UNL     1      18.691   1.654  38.685  1.00  0.00     0.180 C 
ATOM     31  C   UNL     1      17.079   1.396  36.718  1.00  0.00     0.179 C 
ATOM     32  C   UNL     1      17.957   0.680  37.783  1.00  0.00     0.177 C 
BRANCH  28  33
ATOM     33  O   UNL     1      20.174   3.546  38.614  1.00  0.00    -0.384 OA
ATOM     34  H   UNL     1      19.868   3.406  39.551  1.00  0.00     0.211 HD
ENDBRANCH  28  33
BRANCH  30  35
ATOM     35  O   UNL     1      17.808   2.388  39.486  1.00  0.00    -0.387 OA
ATOM     36  H   UNL     1      18.162   2.365  40.416  1.00  0.00     0.211 HD
ENDBRANCH  30  35
BRANCH  31  37
ATOM     37  C   UNL     1      15.603   1.592  37.139  1.00  0.00     0.191 C 
BRANCH  37  38
ATOM     38  O   UNL     1      15.499   1.927  38.491  1.00  0.00    -0.394 OA
ATOM     39  H   UNL     1      14.620   1.585  38.797  1.00  0.00     0.210 HD
ENDBRANCH  37  38
ENDBRANCH  31  37
BRANCH  32  40
ATOM     40  O   UNL     1      17.194  -0.183  38.585  1.00  0.00    -0.387 OA
ATOM     41  H   UNL     1      17.745  -0.407  39.384  1.00  0.00     0.211 HD
ENDBRANCH  32  40
ENDBRANCH   1  27
TORSDOF 12
ENDMDL
MODEL 9
REMARK VINA RESULT:    -5.149     12.402     14.968
REMARK INTER + INTRA:          -9.458
REMARK INTER:                  -7.318
REMARK INTRA:                  -2.140
REMARK UNBOUND:                -1.902
REMARK SMILES O=c1c(O[C@@H]2O[C@H](CO)[C@H](O)[C@H](O)[C@@H]2O)c(-c2ccc(O)c(O)c2)oc2cc(O)cc(O)c12
REMARK SMILES IDX 4 1 3 2 16 3 25 4 2 5 26 6 1 7 33 8 27 9 31 10 28 11 30 12
REMARK SMILES IDX 17 13 18 14 19 15 20 16 24 17 22 18 21 19 23 21 32 23 29 25
REMARK SMILES IDX 5 27 14 28 6 29 12 30 7 31 10 32 15 33 13 35 8 37 9 38 11 40
REMARK H PARENT 21 20 23 22 32 24 29 26 15 34 13 36 9 39 11 41
REMARK Flexibility Score: inf
ROOT
ATOM      1  O   UNL     1       8.900   3.642  25.539  1.00  0.00    -0.454 OA
ENDROOT
BRANCH   1   2
ATOM      2  C   UNL     1       8.132   4.764  25.874  1.00  0.00     0.214 A 
ATOM      3  C   UNL     1       8.548   6.053  25.509  1.00  0.00     0.180 A 
ATOM      4  O   UNL     1       7.801   7.108  25.824  1.00  0.00    -0.452 OA
ATOM      5  C   UNL     1       6.976   4.623  26.647  1.00  0.00     0.239 A 
ATOM      6  C   UNL     1       6.641   7.009  26.466  1.00  0.00     0.146 A 
ATOM      7  O   UNL     1       6.756   3.518  27.207  1.00  0.00    -0.285 OA
ATOM      8  C   UNL     1       6.138   5.740  26.865  1.00  0.00     0.111 A 
ATOM      9  C   UNL     1       5.930   8.177  26.753  1.00  0.00     0.094 A 
ATOM     10  C   UNL     1       4.859   5.681  27.493  1.00  0.00     0.134 A 
ATOM     11  C   UNL     1       4.711   8.112  27.433  1.00  0.00     0.123 A 
ATOM     12  C   UNL     1       4.175   6.869  27.778  1.00  0.00     0.093 A 
BRANCH   3  13
ATOM     13  C   UNL     1       9.867   6.282  24.900  1.00  0.00     0.025 A 
ATOM     14  C   UNL     1      10.984   6.578  25.696  1.00  0.00     0.016 A 
ATOM     15  C   UNL     1      12.238   6.754  25.106  1.00  0.00     0.051 A 
ATOM     16  C   UNL     1      12.391   6.623  23.716  1.00  0.00     0.157 A 
ATOM     17  C   UNL     1      10.023   6.141  23.511  1.00  0.00     0.062 A 
ATOM     18  C   UNL     1      11.281   6.311  22.917  1.00  0.00     0.158 A 
BRANCH  16  19
ATOM     19  O   UNL     1      13.643   6.792  23.126  1.00  0.00    -0.504 OA
ATOM     20  H   UNL     1      14.334   7.408  23.535  1.00  0.00     0.293 HD
ENDBRANCH  16  19
BRANCH  18  21
ATOM     21  O   UNL     1      11.433   6.165  21.537  1.00  0.00    -0.504 OA
ATOM     22  H   UNL     1      12.351   6.119  21.106  1.00  0.00     0.293 HD
ENDBRANCH  18  21
ENDBRANCH   3  13
BRANCH  10  23
ATOM     23  O   UNL     1       4.201   4.485  27.807  1.00  0.00    -0.507 OA
ATOM     24  H   UNL     1       4.525   3.803  28.475  1.00  0.00     0.293 HD
ENDBRANCH  10  23
BRANCH  11  25
ATOM     25  O   UNL     1       4.015   9.276  27.756  1.00  0.00    -0.508 OA
ATOM     26  H   UNL     1       3.591   9.857  27.040  1.00  0.00     0.293 HD
ENDBRANCH  11  25
ENDBRANCH   1   2
BRANCH   1  27
ATOM     27  C   UNL     1       8.683   2.833  24.376  1.00  0.00     0.339 C 
ATOM     28  C   UNL     1       8.808   1.321  24.696  1.00  0.00     0.214 C 
ATOM     29  O   UNL     1       7.550   3.294  23.635  1.00  0.00    -0.332 OA
ATOM     30  C   UNL     1       7.460   0.628  24.854  1.00  0.00     0.180 C 
ATOM     31  C   UNL     1       6.447   2.429  23.350  1.00  0.00     0.179 C 
ATOM     32  C   UNL     1       6.625   0.908  23.619  1.00  0.00     0.177 C 
BRANCH  28  33
ATOM     33  O   UNL     1       9.586   1.139  25.855  1.00  0.00    -0.384 OA
ATOM     34  H   UNL     1       9.820   2.043  26.199  1.00  0.00     0.211 HD
ENDBRANCH  28  33
BRANCH  30  35
ATOM     35  O   UNL     1       6.818   1.054  26.024  1.00  0.00    -0.387 OA
ATOM     36  H   UNL     1       6.736   2.044  25.973  1.00  0.00     0.211 HD
ENDBRANCH  30  35
BRANCH  31  37
ATOM     37  C   UNL     1       5.153   3.032  23.944  1.00  0.00     0.191 C 
BRANCH  37  38
ATOM     38  O   UNL     1       4.918   2.557  25.237  1.00  0.00    -0.394 OA
ATOM     39  H   UNL     1       5.128   1.588  25.221  1.00  0.00     0.210 HD
ENDBRANCH  37  38
ENDBRANCH  31  37
BRANCH  32  40
ATOM     40  O   UNL     1       5.388   0.260  23.760  1.00  0.00    -0.387 OA
ATOM     41  H   UNL     1       5.198   0.195  24.736  1.00  0.00     0.211 HD
ENDBRANCH  32  40
ENDBRANCH   1  27
TORSDOF 12
ENDMDL
