MODEL 1
REMARK VINA RESULT:    -5.064      0.000      0.000
REMARK INTER + INTRA:         -10.026
REMARK INTER:                  -9.208
REMARK INTRA:                  -0.819
REMARK UNBOUND:                -0.819
REMARK SMILES CCCCCCCCCCCCCCCC(=O)[O-]
REMARK SMILES IDX 9 1 10 2 11 3 12 4 13 5 14 6 15 7 16 8 17 9 18 10 8 11 7 12
REMARK SMILES IDX 6 13 5 14 4 15 3 16 2 17 1 18
REMARK H PARENT
REMARK Flexibility Score: inf
ROOT
ATOM      1  C   UNL     1    -129.082 113.115  43.801  1.00  0.00     0.000 C 
ENDROOT
BRANCH   1   2
ATOM      2  C   UNL     1    -129.342 111.625  44.085  1.00  0.00     0.000 C 
BRANCH   2   3
ATOM      3  C   UNL     1    -129.432 110.785  42.801  1.00  0.00     0.000 C 
BRANCH   3   4
ATOM      4  C   UNL     1    -129.306 109.276  43.073  1.00  0.00     0.000 C 
BRANCH   4   5
ATOM      5  C   UNL     1    -128.502 108.544  41.986  1.00  0.00     0.000 C 
BRANCH   5   6
ATOM      6  C   UNL     1    -129.360 107.548  41.185  1.00  0.00     0.006 C 
BRANCH   6   7
ATOM      7  C   UNL     1    -128.634 106.215  40.953  1.00  0.00     0.053 C 
BRANCH   7   8
ATOM      8  C   UNL     1    -129.113 105.527  39.712  1.00  0.00     0.041 C 
ATOM      9  O   UNL     1    -129.339 106.192  38.667  1.00  0.00    -0.550 OA
ATOM     10  O   UNL     1    -129.280 104.148  39.700  1.00  0.00    -0.550 OA
ENDBRANCH   7   8
ENDBRANCH   6   7
ENDBRANCH   5   6
ENDBRANCH   4   5
ENDBRANCH   3   4
ENDBRANCH   2   3
ENDBRANCH   1   2
BRANCH   1  11
ATOM     11  C   UNL     1    -129.983 113.670  42.686  1.00  0.00     0.000 C 
BRANCH  11  12
ATOM     12  C   UNL     1    -129.438 114.972  42.080  1.00  0.00    -0.000 C 
BRANCH  12  13
ATOM     13  C   UNL     1    -130.229 116.185  42.584  1.00  0.00    -0.000 C 
BRANCH  13  14
ATOM     14  C   UNL     1    -129.287 117.263  43.143  1.00  0.00    -0.000 C 
BRANCH  14  15
ATOM     15  C   UNL     1    -129.592 117.627  44.607  1.00  0.00    -0.000 C 
BRANCH  15  16
ATOM     16  C   UNL     1    -129.712 116.429  45.565  1.00  0.00    -0.000 C 
BRANCH  16  17
ATOM     17  C   UNL     1    -130.786 116.630  46.645  1.00  0.00    -0.003 C 
ATOM     18  C   UNL     1    -130.938 118.107  47.000  1.00  0.00     0.004 C 
ENDBRANCH  16  17
ENDBRANCH  15  16
ENDBRANCH  14  15
ENDBRANCH  13  14
ENDBRANCH  12  13
ENDBRANCH  11  12
ENDBRANCH   1  11
TORSDOF 14
ENDMDL
MODEL 2
REMARK VINA RESULT:    -4.978      4.887      9.421
REMARK INTER + INTRA:          -9.870
REMARK INTER:                  -8.881
REMARK INTRA:                  -0.990
REMARK UNBOUND:                -0.819
REMARK SMILES CCCCCCCCCCCCCCCC(=O)[O-]
REMARK SMILES IDX 9 1 10 2 11 3 12 4 13 5 14 6 15 7 16 8 17 9 18 10 8 11 7 12
REMARK SMILES IDX 6 13 5 14 4 15 3 16 2 17 1 18
REMARK H PARENT
REMARK Flexibility Score: inf
ROOT
ATOM      1  C   UNL     1    -129.074 113.210  43.855  1.00  0.00     0.000 C 
ENDROOT
BRANCH   1   2
ATOM      2  C   UNL     1    -129.883 113.619  42.611  1.00  0.00     0.000 C 
BRANCH   2   3
ATOM      3  C   UNL     1    -129.516 115.021  42.101  1.00  0.00     0.000 C 
BRANCH   3   4
ATOM      4  C   UNL     1    -130.240 116.138  42.873  1.00  0.00     0.000 C 
BRANCH   4   5
ATOM      5  C   UNL     1    -129.322 117.332  43.186  1.00  0.00     0.000 C 
BRANCH   5   6
ATOM      6  C   UNL     1    -129.265 117.656  44.690  1.00  0.00     0.006 C 
BRANCH   6   7
ATOM      7  C   UNL     1    -129.822 116.513  45.550  1.00  0.00     0.053 C 
BRANCH   7   8
ATOM      8  C   UNL     1    -130.747 117.016  46.615  1.00  0.00     0.041 C 
ATOM      9  O   UNL     1    -131.465 116.209  47.262  1.00  0.00    -0.550 OA
ATOM     10  O   UNL     1    -130.794 118.372  46.916  1.00  0.00    -0.550 OA
ENDBRANCH   7   8
ENDBRANCH   6   7
ENDBRANCH   5   6
ENDBRANCH   4   5
ENDBRANCH   3   4
ENDBRANCH   2   3
ENDBRANCH   1   2
BRANCH   1  11
ATOM     11  C   UNL     1    -129.386 111.777  44.317  1.00  0.00     0.000 C 
BRANCH  11  12
ATOM     12  C   UNL     1    -129.400 110.772  43.156  1.00  0.00    -0.000 C 
BRANCH  12  13
ATOM     13  C   UNL     1    -129.787 109.372  43.646  1.00  0.00    -0.000 C 
BRANCH  13  14
ATOM     14  C   UNL     1    -129.754 108.356  42.494  1.00  0.00    -0.000 C 
BRANCH  14  15
ATOM     15  C   UNL     1    -129.161 108.936  41.197  1.00  0.00    -0.000 C 
BRANCH  15  16
ATOM     16  C   UNL     1    -129.921 108.566  39.912  1.00  0.00    -0.000 C 
BRANCH  16  17
ATOM     17  C   UNL     1    -130.833 109.695  39.410  1.00  0.00    -0.003 C 
ATOM     18  C   UNL     1    -132.092 109.135  38.753  1.00  0.00     0.004 C 
ENDBRANCH  16  17
ENDBRANCH  15  16
ENDBRANCH  14  15
ENDBRANCH  13  14
ENDBRANCH  12  13
ENDBRANCH  11  12
ENDBRANCH   1  11
TORSDOF 14
ENDMDL
MODEL 3
REMARK VINA RESULT:    -4.946      1.271      2.313
REMARK INTER + INTRA:          -9.813
REMARK INTER:                  -9.096
REMARK INTRA:                  -0.717
REMARK UNBOUND:                -0.819
REMARK SMILES CCCCCCCCCCCCCCCC(=O)[O-]
REMARK SMILES IDX 9 1 10 2 11 3 12 4 13 5 14 6 15 7 16 8 17 9 18 10 8 11 7 12
REMARK SMILES IDX 6 13 5 14 4 15 3 16 2 17 1 18
REMARK H PARENT
REMARK Flexibility Score: inf
ROOT
ATOM      1  C   UNL     1    -129.074 110.729  43.249  1.00  0.00     0.000 C 
ENDROOT
BRANCH   1   2
ATOM      2  C   UNL     1    -129.882 109.601  43.914  1.00  0.00     0.000 C 
BRANCH   2   3
ATOM      3  C   UNL     1    -130.036 108.368  43.008  1.00  0.00     0.000 C 
BRANCH   3   4
ATOM      4  C   UNL     1    -128.891 108.238  41.989  1.00  0.00     0.000 C 
BRANCH   4   5
ATOM      5  C   UNL     1    -128.872 106.867  41.293  1.00  0.00     0.000 C 
BRANCH   5   6
ATOM      6  C   UNL     1    -129.356 106.937  39.833  1.00  0.00     0.006 C 
BRANCH   6   7
ATOM      7  C   UNL     1    -130.375 105.837  39.508  1.00  0.00     0.053 C 
BRANCH   7   8
ATOM      8  C   UNL     1    -129.762 104.723  38.716  1.00  0.00     0.041 C 
ATOM      9  O   UNL     1    -129.824 104.733  37.458  1.00  0.00    -0.550 OA
ATOM     10  O   UNL     1    -129.097 103.690  39.364  1.00  0.00    -0.550 OA
ENDBRANCH   7   8
ENDBRANCH   6   7
ENDBRANCH   5   6
ENDBRANCH   4   5
ENDBRANCH   3   4
ENDBRANCH   2   3
ENDBRANCH   1   2
BRANCH   1  11
ATOM     11  C   UNL     1    -129.348 112.103  43.881  1.00  0.00     0.000 C 
BRANCH  11  12
ATOM     12  C   UNL     1    -129.742 113.164  42.842  1.00  0.00    -0.000 C 
BRANCH  12  13
ATOM     13  C   UNL     1    -129.549 114.578  43.400  1.00  0.00    -0.000 C 
BRANCH  13  14
ATOM     14  C   UNL     1    -129.806 114.611  44.915  1.00  0.00    -0.000 C 
BRANCH  14  15
ATOM     15  C   UNL     1    -129.741 116.032  45.505  1.00  0.00    -0.000 C 
BRANCH  15  16
ATOM     16  C   UNL     1    -130.141 117.158  44.535  1.00  0.00    -0.000 C 
BRANCH  16  17
ATOM     17  C   UNL     1    -129.052 118.231  44.382  1.00  0.00    -0.003 C 
ATOM     18  C   UNL     1    -128.669 118.422  42.918  1.00  0.00     0.004 C 
ENDBRANCH  16  17
ENDBRANCH  15  16
ENDBRANCH  14  15
ENDBRANCH  13  14
ENDBRANCH  12  13
ENDBRANCH  11  12
ENDBRANCH   1  11
TORSDOF 14
ENDMDL
MODEL 4
REMARK VINA RESULT:    -4.940      1.755      1.964
REMARK INTER + INTRA:          -9.801
REMARK INTER:                  -8.702
REMARK INTRA:                  -1.099
REMARK UNBOUND:                -0.819
REMARK SMILES CCCCCCCCCCCCCCCC(=O)[O-]
REMARK SMILES IDX 9 1 10 2 11 3 12 4 13 5 14 6 15 7 16 8 17 9 18 10 8 11 7 12
REMARK SMILES IDX 6 13 5 14 4 15 3 16 2 17 1 18
REMARK H PARENT
REMARK Flexibility Score: inf
ROOT
ATOM      1  C   UNL     1    -129.058 113.369  43.774  1.00  0.00     0.000 C 
ENDROOT
BRANCH   1   2
ATOM      2  C   UNL     1    -129.354 111.902  44.129  1.00  0.00     0.000 C 
BRANCH   2   3
ATOM      3  C   UNL     1    -129.356 110.983  42.896  1.00  0.00     0.000 C 
BRANCH   3   4
ATOM      4  C   UNL     1    -129.528 109.500  43.266  1.00  0.00     0.000 C 
BRANCH   4   5
ATOM      5  C   UNL     1    -128.652 108.571  42.410  1.00  0.00     0.000 C 
BRANCH   5   6
ATOM      6  C   UNL     1    -129.478 107.554  41.602  1.00  0.00     0.006 C 
BRANCH   6   7
ATOM      7  C   UNL     1    -129.369 107.792  40.090  1.00  0.00     0.053 C 
BRANCH   7   8
ATOM      8  C   UNL     1    -129.934 109.120  39.691  1.00  0.00     0.041 C 
ATOM      9  O   UNL     1    -131.156 109.367  39.865  1.00  0.00    -0.550 OA
ATOM     10  O   UNL     1    -129.105 110.098  39.153  1.00  0.00    -0.550 OA
ENDBRANCH   7   8
ENDBRANCH   6   7
ENDBRANCH   5   6
ENDBRANCH   4   5
ENDBRANCH   3   4
ENDBRANCH   2   3
ENDBRANCH   1   2
BRANCH   1  11
ATOM     11  C   UNL     1    -130.090 113.961  42.799  1.00  0.00     0.000 C 
BRANCH  11  12
ATOM     12  C   UNL     1    -129.590 115.243  42.117  1.00  0.00    -0.000 C 
BRANCH  12  13
ATOM     13  C   UNL     1    -130.246 116.484  42.734  1.00  0.00    -0.000 C 
BRANCH  13  14
ATOM     14  C   UNL     1    -129.193 117.410  43.361  1.00  0.00    -0.000 C 
BRANCH  14  15
ATOM     15  C   UNL     1    -129.410 117.633  44.869  1.00  0.00    -0.000 C 
BRANCH  15  16
ATOM     16  C   UNL     1    -130.059 116.453  45.615  1.00  0.00    -0.000 C 
BRANCH  16  17
ATOM     17  C   UNL     1    -130.875 116.895  46.838  1.00  0.00    -0.003 C 
ATOM     18  C   UNL     1    -130.900 118.415  46.964  1.00  0.00     0.004 C 
ENDBRANCH  16  17
ENDBRANCH  15  16
ENDBRANCH  14  15
ENDBRANCH  13  14
ENDBRANCH  12  13
ENDBRANCH  11  12
ENDBRANCH   1  11
TORSDOF 14
ENDMDL
MODEL 5
REMARK VINA RESULT:    -4.918      1.890      2.398
REMARK INTER + INTRA:          -9.762
REMARK INTER:                  -8.888
REMARK INTRA:                  -0.875
REMARK UNBOUND:                -0.819
REMARK SMILES CCCCCCCCCCCCCCCC(=O)[O-]
REMARK SMILES IDX 9 1 10 2 11 3 12 4 13 5 14 6 15 7 16 8 17 9 18 10 8 11 7 12
REMARK SMILES IDX 6 13 5 14 4 15 3 16 2 17 1 18
REMARK H PARENT
REMARK Flexibility Score: inf
ROOT
ATOM      1  C   UNL     1    -129.340 111.986  43.710  1.00  0.00     0.000 C 
ENDROOT
BRANCH   1   2
ATOM      2  C   UNL     1    -129.258 110.647  42.957  1.00  0.00     0.000 C 
BRANCH   2   3
ATOM      3  C   UNL     1    -129.858 109.479  43.756  1.00  0.00     0.000 C 
BRANCH   3   4
ATOM      4  C   UNL     1    -129.960 108.187  42.928  1.00  0.00     0.000 C 
BRANCH   4   5
ATOM      5  C   UNL     1    -129.033 108.195  41.702  1.00  0.00     0.000 C 
BRANCH   5   6
ATOM      6  C   UNL     1    -129.558 107.311  40.557  1.00  0.00     0.006 C 
BRANCH   6   7
ATOM      7  C   UNL     1    -129.689 108.087  39.240  1.00  0.00     0.053 C 
BRANCH   7   8
ATOM      8  C   UNL     1    -130.345 109.419  39.438  1.00  0.00     0.041 C 
ATOM      9  O   UNL     1    -131.581 109.488  39.666  1.00  0.00    -0.550 OA
ATOM     10  O   UNL     1    -129.586 110.582  39.403  1.00  0.00    -0.550 OA
ENDBRANCH   7   8
ENDBRANCH   6   7
ENDBRANCH   5   6
ENDBRANCH   4   5
ENDBRANCH   3   4
ENDBRANCH   2   3
ENDBRANCH   1   2
BRANCH   1  11
ATOM     11  C   UNL     1    -129.708 113.160  42.787  1.00  0.00     0.000 C 
BRANCH  11  12
ATOM     12  C   UNL     1    -129.674 114.514  43.513  1.00  0.00    -0.000 C 
BRANCH  12  13
ATOM     13  C   UNL     1    -129.663 115.673  42.510  1.00  0.00    -0.000 C 
BRANCH  13  14
ATOM     14  C   UNL     1    -129.585 117.026  43.233  1.00  0.00    -0.000 C 
BRANCH  14  15
ATOM     15  C   UNL     1    -129.537 116.887  44.766  1.00  0.00    -0.000 C 
BRANCH  15  16
ATOM     16  C   UNL     1    -130.081 118.097  45.546  1.00  0.00    -0.000 C 
BRANCH  16  17
ATOM     17  C   UNL     1    -130.902 117.693  46.779  1.00  0.00    -0.003 C 
ATOM     18  C   UNL     1    -130.950 116.176  46.936  1.00  0.00     0.004 C 
ENDBRANCH  16  17
ENDBRANCH  15  16
ENDBRANCH  14  15
ENDBRANCH  13  14
ENDBRANCH  12  13
ENDBRANCH  11  12
ENDBRANCH   1  11
TORSDOF 14
ENDMDL
MODEL 6
REMARK VINA RESULT:    -4.873      4.825     10.035
REMARK INTER + INTRA:          -9.680
REMARK INTER:                  -8.908
REMARK INTRA:                  -0.772
REMARK UNBOUND:                -0.819
REMARK SMILES CCCCCCCCCCCCCCCC(=O)[O-]
REMARK SMILES IDX 9 1 10 2 11 3 12 4 13 5 14 6 15 7 16 8 17 9 18 10 8 11 7 12
REMARK SMILES IDX 6 13 5 14 4 15 3 16 2 17 1 18
REMARK H PARENT
REMARK Flexibility Score: inf
ROOT
ATOM      1  C   UNL     1    -129.405 111.484  44.028  1.00  0.00     0.000 C 
ENDROOT
BRANCH   1   2
ATOM      2  C   UNL     1    -128.868 112.891  43.717  1.00  0.00     0.000 C 
BRANCH   2   3
ATOM      3  C   UNL     1    -129.970 113.962  43.728  1.00  0.00     0.000 C 
BRANCH   3   4
ATOM      4  C   UNL     1    -129.837 114.959  42.564  1.00  0.00     0.000 C 
BRANCH   4   5
ATOM      5  C   UNL     1    -129.727 116.416  43.041  1.00  0.00     0.000 C 
BRANCH   5   6
ATOM      6  C   UNL     1    -129.501 116.527  44.559  1.00  0.00     0.006 C 
BRANCH   6   7
ATOM      7  C   UNL     1    -130.154 117.784  45.151  1.00  0.00     0.053 C 
BRANCH   7   8
ATOM      8  C   UNL     1    -130.681 117.542  46.533  1.00  0.00     0.041 C 
ATOM      9  O   UNL     1    -130.904 118.512  47.304  1.00  0.00    -0.550 OA
ATOM     10  O   UNL     1    -130.954 116.248  46.958  1.00  0.00    -0.550 OA
ENDBRANCH   7   8
ENDBRANCH   6   7
ENDBRANCH   5   6
ENDBRANCH   4   5
ENDBRANCH   3   4
ENDBRANCH   2   3
ENDBRANCH   1   2
BRANCH   1  11
ATOM     11  C   UNL     1    -129.372 110.554  42.804  1.00  0.00     0.000 C 
BRANCH  11  12
ATOM     12  C   UNL     1    -129.541 109.075  43.181  1.00  0.00    -0.000 C 
BRANCH  12  13
ATOM     13  C   UNL     1    -129.388 108.174  41.950  1.00  0.00    -0.000 C 
BRANCH  13  14
ATOM     14  C   UNL     1    -129.458 108.996  40.654  1.00  0.00    -0.000 C 
BRANCH  14  15
ATOM     15  C   UNL     1    -130.261 108.298  39.541  1.00  0.00    -0.000 C 
BRANCH  15  16
ATOM     16  C   UNL     1    -129.533 107.133  38.848  1.00  0.00    -0.000 C 
BRANCH  16  17
ATOM     17  C   UNL     1    -130.190 105.771  39.119  1.00  0.00    -0.003 C 
ATOM     18  C   UNL     1    -129.349 104.937  40.081  1.00  0.00     0.004 C 
ENDBRANCH  16  17
ENDBRANCH  15  16
ENDBRANCH  14  15
ENDBRANCH  13  14
ENDBRANCH  12  13
ENDBRANCH  11  12
ENDBRANCH   1  11
TORSDOF 14
ENDMDL
MODEL 7
REMARK VINA RESULT:    -4.807      5.331      7.557
REMARK INTER + INTRA:          -9.561
REMARK INTER:                  -8.549
REMARK INTRA:                  -1.011
REMARK UNBOUND:                -0.819
REMARK SMILES CCCCCCCCCCCCCCCC(=O)[O-]
REMARK SMILES IDX 9 1 10 2 11 3 12 4 13 5 14 6 15 7 16 8 17 9 18 10 8 11 7 12
REMARK SMILES IDX 6 13 5 14 4 15 3 16 2 17 1 18
REMARK H PARENT
REMARK Flexibility Score: inf
ROOT
ATOM      1  C   UNL     1    -129.330 104.967  39.193  1.00  0.00     0.000 C 
ENDROOT
BRANCH   1   2
ATOM      2  C   UNL     1    -128.280 105.676  40.066  1.00  0.00     0.000 C 
BRANCH   2   3
ATOM      3  C   UNL     1    -128.888 106.316  41.324  1.00  0.00     0.000 C 
BRANCH   3   4
ATOM      4  C   UNL     1    -127.875 107.177  42.097  1.00  0.00     0.000 C 
BRANCH   4   5
ATOM      5  C   UNL     1    -128.335 108.636  42.251  1.00  0.00     0.000 C 
BRANCH   5   6
ATOM      6  C   UNL     1    -129.789 108.751  42.742  1.00  0.00     0.006 C 
BRANCH   6   7
ATOM      7  C   UNL     1    -129.875 109.289  44.176  1.00  0.00     0.053 C 
BRANCH   7   8
ATOM      8  C   UNL     1    -130.947 108.604  44.967  1.00  0.00     0.041 C 
ATOM      9  O   UNL     1    -130.839 108.494  46.217  1.00  0.00    -0.550 OA
ATOM     10  O   UNL     1    -132.079 108.114  44.328  1.00  0.00    -0.550 OA
ENDBRANCH   7   8
ENDBRANCH   6   7
ENDBRANCH   5   6
ENDBRANCH   4   5
ENDBRANCH   3   4
ENDBRANCH   2   3
ENDBRANCH   1   2
BRANCH   1  11
ATOM     11  C   UNL     1    -130.520 105.876  38.846  1.00  0.00     0.000 C 
BRANCH  11  12
ATOM     12  C   UNL     1    -130.139 107.364  38.819  1.00  0.00    -0.000 C 
BRANCH  12  13
ATOM     13  C   UNL     1    -131.384 108.252  38.923  1.00  0.00    -0.000 C 
BRANCH  13  14
ATOM     14  C   UNL     1    -131.001 109.700  39.263  1.00  0.00    -0.000 C 
BRANCH  14  15
ATOM     15  C   UNL     1    -129.479 109.932  39.279  1.00  0.00    -0.000 C 
BRANCH  15  16
ATOM     16  C   UNL     1    -129.044 111.405  39.178  1.00  0.00    -0.000 C 
BRANCH  16  17
ATOM     17  C   UNL     1    -128.020 111.651  38.061  1.00  0.00    -0.003 C 
ATOM     18  C   UNL     1    -128.194 113.039  37.451  1.00  0.00     0.004 C 
ENDBRANCH  16  17
ENDBRANCH  15  16
ENDBRANCH  14  15
ENDBRANCH  13  14
ENDBRANCH  12  13
ENDBRANCH  11  12
ENDBRANCH   1  11
TORSDOF 14
ENDMDL
MODEL 8
REMARK VINA RESULT:    -4.679      1.396      2.273
REMARK INTER + INTRA:          -9.327
REMARK INTER:                  -8.429
REMARK INTRA:                  -0.897
REMARK UNBOUND:                -0.819
REMARK SMILES CCCCCCCCCCCCCCCC(=O)[O-]
REMARK SMILES IDX 9 1 10 2 11 3 12 4 13 5 14 6 15 7 16 8 17 9 18 10 8 11 7 12
REMARK SMILES IDX 6 13 5 14 4 15 3 16 2 17 1 18
REMARK H PARENT
REMARK Flexibility Score: inf
ROOT
ATOM      1  C   UNL     1    -130.151 111.970  41.429  1.00  0.00     0.000 C 
ENDROOT
BRANCH   1   2
ATOM      2  C   UNL     1    -129.726 111.210  40.161  1.00  0.00     0.000 C 
BRANCH   2   3
ATOM      3  C   UNL     1    -129.519 109.708  40.411  1.00  0.00     0.000 C 
BRANCH   3   4
ATOM      4  C   UNL     1    -129.618 109.338  41.901  1.00  0.00     0.000 C 
BRANCH   4   5
ATOM      5  C   UNL     1    -129.547 107.821  42.140  1.00  0.00     0.000 C 
BRANCH   5   6
ATOM      6  C   UNL     1    -128.729 107.088  41.062  1.00  0.00     0.006 C 
BRANCH   6   7
ATOM      7  C   UNL     1    -129.369 105.754  40.656  1.00  0.00     0.053 C 
BRANCH   7   8
ATOM      8  C   UNL     1    -129.877 105.784  39.247  1.00  0.00     0.041 C 
ATOM      9  O   UNL     1    -130.363 106.844  38.771  1.00  0.00    -0.550 OA
ATOM     10  O   UNL     1    -129.786 104.651  38.449  1.00  0.00    -0.550 OA
ENDBRANCH   7   8
ENDBRANCH   6   7
ENDBRANCH   5   6
ENDBRANCH   4   5
ENDBRANCH   3   4
ENDBRANCH   2   3
ENDBRANCH   1   2
BRANCH   1  11
ATOM     11  C   UNL     1    -129.774 113.460  41.380  1.00  0.00     0.000 C 
BRANCH  11  12
ATOM     12  C   UNL     1    -130.147 114.206  42.670  1.00  0.00    -0.000 C 
BRANCH  12  13
ATOM     13  C   UNL     1    -129.496 113.548  43.892  1.00  0.00    -0.000 C 
BRANCH  13  14
ATOM     14  C   UNL     1    -129.077 114.603  44.927  1.00  0.00    -0.000 C 
BRANCH  14  15
ATOM     15  C   UNL     1    -130.221 115.561  45.307  1.00  0.00    -0.000 C 
BRANCH  15  16
ATOM     16  C   UNL     1    -129.846 117.054  45.306  1.00  0.00    -0.000 C 
BRANCH  16  17
ATOM     17  C   UNL     1    -129.516 117.587  43.904  1.00  0.00    -0.003 C 
ATOM     18  C   UNL     1    -128.646 118.838  43.981  1.00  0.00     0.004 C 
ENDBRANCH  16  17
ENDBRANCH  15  16
ENDBRANCH  14  15
ENDBRANCH  13  14
ENDBRANCH  12  13
ENDBRANCH  11  12
ENDBRANCH   1  11
TORSDOF 14
ENDMDL
MODEL 9
REMARK VINA RESULT:    -4.669      1.696      2.120
REMARK INTER + INTRA:          -9.309
REMARK INTER:                  -8.697
REMARK INTRA:                  -0.612
REMARK UNBOUND:                -0.819
REMARK SMILES CCCCCCCCCCCCCCCC(=O)[O-]
REMARK SMILES IDX 9 1 10 2 11 3 12 4 13 5 14 6 15 7 16 8 17 9 18 10 8 11 7 12
REMARK SMILES IDX 6 13 5 14 4 15 3 16 2 17 1 18
REMARK H PARENT
REMARK Flexibility Score: inf
ROOT
ATOM      1  C   UNL     1    -129.950 113.109  41.410  1.00  0.00     0.000 C 
ENDROOT
BRANCH   1   2
ATOM      2  C   UNL     1    -130.185 111.749  40.730  1.00  0.00     0.000 C 
BRANCH   2   3
ATOM      3  C   UNL     1    -129.328 111.562  39.467  1.00  0.00     0.000 C 
BRANCH   3   4
ATOM      4  C   UNL     1    -128.996 110.086  39.192  1.00  0.00     0.000 C 
BRANCH   4   5
ATOM      5  C   UNL     1    -130.201 109.156  39.413  1.00  0.00     0.000 C 
BRANCH   5   6
ATOM      6  C   UNL     1    -129.787 107.756  39.899  1.00  0.00     0.006 C 
BRANCH   6   7
ATOM      7  C   UNL     1    -129.845 106.713  38.775  1.00  0.00     0.053 C 
BRANCH   7   8
ATOM      8  C   UNL     1    -129.380 105.366  39.238  1.00  0.00     0.041 C 
ATOM      9  O   UNL     1    -128.722 105.256  40.306  1.00  0.00    -0.550 OA
ATOM     10  O   UNL     1    -129.698 104.229  38.505  1.00  0.00    -0.550 OA
ENDBRANCH   7   8
ENDBRANCH   6   7
ENDBRANCH   5   6
ENDBRANCH   4   5
ENDBRANCH   3   4
ENDBRANCH   2   3
ENDBRANCH   1   2
BRANCH   1  11
ATOM     11  C   UNL     1    -129.675 112.976  42.917  1.00  0.00     0.000 C 
BRANCH  11  12
ATOM     12  C   UNL     1    -129.357 114.324  43.581  1.00  0.00    -0.000 C 
BRANCH  12  13
ATOM     13  C   UNL     1    -129.587 115.483  42.605  1.00  0.00    -0.000 C 
BRANCH  13  14
ATOM     14  C   UNL     1    -129.787 116.807  43.360  1.00  0.00    -0.000 C 
BRANCH  14  15
ATOM     15  C   UNL     1    -129.749 116.638  44.889  1.00  0.00    -0.000 C 
BRANCH  15  16
ATOM     16  C   UNL     1    -130.007 117.926  45.692  1.00  0.00    -0.000 C 
BRANCH  16  17
ATOM     17  C   UNL     1    -130.725 117.667  47.025  1.00  0.00    -0.003 C 
ATOM     18  C   UNL     1    -132.142 118.233  47.005  1.00  0.00     0.004 C 
ENDBRANCH  16  17
ENDBRANCH  15  16
ENDBRANCH  14  15
ENDBRANCH  13  14
ENDBRANCH  12  13
ENDBRANCH  11  12
ENDBRANCH   1  11
TORSDOF 14
ENDMDL
