MODEL 1
REMARK VINA RESULT:    -5.260      0.000      0.000
REMARK INTER + INTRA:          -6.638
REMARK INTER:                  -6.336
REMARK INTRA:                  -0.302
REMARK UNBOUND:                -0.302
REMARK SMILES O=c1c(O)c(-c2ccc(O)c(O)c2)oc2cc(O)cc(O)c12
REMARK SMILES IDX 5 1 3 2 2 3 1 4 22 5 20 6 19 7 17 8 16 9 15 10 14 11 6 12
REMARK SMILES IDX 7 13 8 14 9 15 13 16 11 17 10 18 12 20 4 22 21 24 18 26
REMARK H PARENT 10 19 12 21 4 23 21 25 18 27
REMARK Flexibility Score: inf
ROOT
ATOM      1  C   UNL     1     140.089 170.515 176.512  1.00  0.00     0.180 A 
ATOM      2  C   UNL     1     140.065 171.658 175.693  1.00  0.00     0.208 A 
ATOM      3  C   UNL     1     141.254 172.082 175.080  1.00  0.00     0.238 A 
ATOM      4  O   UNL     1     141.215 173.073 174.304  1.00  0.00    -0.285 OA
ATOM      5  C   UNL     1     142.457 171.370 175.307  1.00  0.00     0.111 A 
ATOM      6  C   UNL     1     143.728 171.733 174.770  1.00  0.00     0.134 A 
ATOM      7  C   UNL     1     144.824 170.883 174.954  1.00  0.00     0.093 A 
ATOM      8  C   UNL     1     144.710 169.714 175.711  1.00  0.00     0.123 A 
ATOM      9  C   UNL     1     143.488 169.381 176.289  1.00  0.00     0.094 A 
ATOM     10  C   UNL     1     142.367 170.191 176.092  1.00  0.00     0.146 A 
ATOM     11  O   UNL     1     141.218 169.831 176.652  1.00  0.00    -0.452 OA
ENDROOT
BRANCH   1  12
ATOM     12  C   UNL     1     138.881 170.021 177.211  1.00  0.00     0.025 A 
ATOM     13  C   UNL     1     138.094 168.988 176.672  1.00  0.00     0.016 A 
ATOM     14  C   UNL     1     136.944 168.556 177.338  1.00  0.00     0.051 A 
ATOM     15  C   UNL     1     136.556 169.156 178.542  1.00  0.00     0.157 A 
ATOM     16  C   UNL     1     138.476 170.634 178.407  1.00  0.00     0.062 A 
ATOM     17  C   UNL     1     137.325 170.203 179.078  1.00  0.00     0.158 A 
BRANCH  15  18
ATOM     18  O   UNL     1     135.409 168.721 179.205  1.00  0.00    -0.504 OA
ATOM     19  H   UNL     1     134.488 168.825 178.796  1.00  0.00     0.293 HD
ENDBRANCH  15  18
BRANCH  17  20
ATOM     20  O   UNL     1     136.962 170.827 180.271  1.00  0.00    -0.504 OA
ATOM     21  H   UNL     1     136.141 170.548 180.796  1.00  0.00     0.293 HD
ENDBRANCH  17  20
ENDBRANCH   1  12
BRANCH   2  22
ATOM     22  O   UNL     1     138.862 172.333 175.464  1.00  0.00    -0.502 OA
ATOM     23  H   UNL     1     138.821 173.225 174.985  1.00  0.00     0.293 HD
ENDBRANCH   2  22
BRANCH   6  24
ATOM     24  O   UNL     1     143.971 172.925 174.078  1.00  0.00    -0.507 OA
ATOM     25  H   UNL     1     143.288 173.415 173.523  1.00  0.00     0.293 HD
ENDBRANCH   6  24
BRANCH   8  26
ATOM     26  O   UNL     1     145.811 168.881 175.902  1.00  0.00    -0.508 OA
ATOM     27  H   UNL     1     146.587 169.155 176.492  1.00  0.00     0.293 HD
ENDBRANCH   8  26
TORSDOF 6
ENDMDL
MODEL 2
REMARK VINA RESULT:    -5.110      2.730      3.613
REMARK INTER + INTRA:          -6.458
REMARK INTER:                  -6.138
REMARK INTRA:                  -0.319
REMARK UNBOUND:                -0.302
REMARK SMILES O=c1c(O)c(-c2ccc(O)c(O)c2)oc2cc(O)cc(O)c12
REMARK SMILES IDX 5 1 3 2 2 3 1 4 22 5 20 6 19 7 17 8 16 9 15 10 14 11 6 12
REMARK SMILES IDX 7 13 8 14 9 15 13 16 11 17 10 18 12 20 4 22 21 24 18 26
REMARK H PARENT 10 19 12 21 4 23 21 25 18 27
REMARK Flexibility Score: inf
ROOT
ATOM      1  C   UNL     1     141.866 171.206 174.078  1.00  0.00     0.180 A 
ATOM      2  C   UNL     1     141.632 171.994 172.936  1.00  0.00     0.208 A 
ATOM      3  C   UNL     1     142.540 171.929 171.867  1.00  0.00     0.238 A 
ATOM      4  O   UNL     1     142.297 172.595 170.826  1.00  0.00    -0.285 OA
ATOM      5  C   UNL     1     143.678 171.093 171.958  1.00  0.00     0.111 A 
ATOM      6  C   UNL     1     144.685 170.980 170.953  1.00  0.00     0.134 A 
ATOM      7  C   UNL     1     145.698 170.024 171.093  1.00  0.00     0.093 A 
ATOM      8  C   UNL     1     145.777 169.222 172.234  1.00  0.00     0.123 A 
ATOM      9  C   UNL     1     144.835 169.365 173.248  1.00  0.00     0.094 A 
ATOM     10  C   UNL     1     143.790 170.285 173.120  1.00  0.00     0.146 A 
ATOM     11  O   UNL     1     142.907 170.382 174.106  1.00  0.00    -0.452 OA
ENDROOT
BRANCH   1  12
ATOM     12  C   UNL     1     140.968 171.239 175.254  1.00  0.00     0.025 A 
ATOM     13  C   UNL     1     139.822 170.427 175.323  1.00  0.00     0.016 A 
ATOM     14  C   UNL     1     138.975 170.494 176.433  1.00  0.00     0.051 A 
ATOM     15  C   UNL     1     139.252 171.380 177.482  1.00  0.00     0.157 A 
ATOM     16  C   UNL     1     141.229 172.140 176.298  1.00  0.00     0.062 A 
ATOM     17  C   UNL     1     140.385 172.209 177.412  1.00  0.00     0.158 A 
BRANCH  15  18
ATOM     18  O   UNL     1     138.406 171.441 178.589  1.00  0.00    -0.504 OA
ATOM     19  H   UNL     1     138.114 172.328 178.984  1.00  0.00     0.293 HD
ENDBRANCH  15  18
BRANCH  17  20
ATOM     20  O   UNL     1     140.684 173.107 178.436  1.00  0.00    -0.504 OA
ATOM     21  H   UNL     1     141.556 173.621 178.464  1.00  0.00     0.293 HD
ENDBRANCH  17  20
ENDBRANCH   1  12
BRANCH   2  22
ATOM     22  O   UNL     1     140.490 172.797 172.858  1.00  0.00    -0.502 OA
ATOM     23  H   UNL     1     139.791 172.678 172.135  1.00  0.00     0.293 HD
ENDBRANCH   2  22
BRANCH   6  24
ATOM     24  O   UNL     1     144.749 171.797 169.819  1.00  0.00    -0.507 OA
ATOM     25  H   UNL     1     145.435 172.521 169.671  1.00  0.00     0.293 HD
ENDBRANCH   6  24
BRANCH   8  26
ATOM     26  O   UNL     1     146.798 168.283 172.373  1.00  0.00    -0.508 OA
ATOM     27  H   UNL     1     147.757 168.504 172.134  1.00  0.00     0.293 HD
ENDBRANCH   8  26
TORSDOF 6
ENDMDL
MODEL 3
REMARK VINA RESULT:    -5.075      1.670      7.098
REMARK INTER + INTRA:          -6.415
REMARK INTER:                  -6.095
REMARK INTRA:                  -0.320
REMARK UNBOUND:                -0.302
REMARK SMILES O=c1c(O)c(-c2ccc(O)c(O)c2)oc2cc(O)cc(O)c12
REMARK SMILES IDX 5 1 3 2 2 3 1 4 22 5 20 6 19 7 17 8 16 9 15 10 14 11 6 12
REMARK SMILES IDX 7 13 8 14 9 15 13 16 11 17 10 18 12 20 4 22 21 24 18 26
REMARK H PARENT 10 19 12 21 4 23 21 25 18 27
REMARK Flexibility Score: inf
ROOT
ATOM      1  C   UNL     1     139.522 170.256 176.155  1.00  0.00     0.180 A 
ATOM      2  C   UNL     1     138.874 169.265 175.397  1.00  0.00     0.208 A 
ATOM      3  C   UNL     1     137.779 168.587 175.955  1.00  0.00     0.238 A 
ATOM      4  O   UNL     1     137.169 167.740 175.251  1.00  0.00    -0.285 OA
ATOM      5  C   UNL     1     137.356 168.895 177.270  1.00  0.00     0.111 A 
ATOM      6  C   UNL     1     136.284 168.243 177.951  1.00  0.00     0.134 A 
ATOM      7  C   UNL     1     135.868 168.718 179.200  1.00  0.00     0.093 A 
ATOM      8  C   UNL     1     136.528 169.781 179.823  1.00  0.00     0.123 A 
ATOM      9  C   UNL     1     137.613 170.385 179.194  1.00  0.00     0.094 A 
ATOM     10  C   UNL     1     138.028 169.957 177.929  1.00  0.00     0.146 A 
ATOM     11  O   UNL     1     139.060 170.568 177.360  1.00  0.00    -0.452 OA
ENDROOT
BRANCH   1  12
ATOM     12  C   UNL     1     140.697 170.996 175.644  1.00  0.00     0.025 A 
ATOM     13  C   UNL     1     140.555 172.218 174.963  1.00  0.00     0.016 A 
ATOM     14  C   UNL     1     141.677 172.886 174.468  1.00  0.00     0.051 A 
ATOM     15  C   UNL     1     142.956 172.339 174.632  1.00  0.00     0.157 A 
ATOM     16  C   UNL     1     141.979 170.442 175.788  1.00  0.00     0.062 A 
ATOM     17  C   UNL     1     143.107 171.109 175.294  1.00  0.00     0.158 A 
BRANCH  15  18
ATOM     18  O   UNL     1     144.075 173.010 174.139  1.00  0.00    -0.504 OA
ATOM     19  H   UNL     1     144.936 172.520 173.926  1.00  0.00     0.293 HD
ENDBRANCH  15  18
BRANCH  17  20
ATOM     20  O   UNL     1     144.365 170.534 175.468  1.00  0.00    -0.504 OA
ATOM     21  H   UNL     1     144.579 169.599 175.142  1.00  0.00     0.293 HD
ENDBRANCH  17  20
ENDBRANCH   1  12
BRANCH   2  22
ATOM     22  O   UNL     1     139.295 168.992 174.092  1.00  0.00    -0.502 OA
ATOM     23  H   UNL     1     138.892 169.450 173.283  1.00  0.00     0.293 HD
ENDBRANCH   2  22
BRANCH   6  24
ATOM     24  O   UNL     1     135.619 167.115 177.459  1.00  0.00    -0.507 OA
ATOM     25  H   UNL     1     134.722 167.132 177.001  1.00  0.00     0.293 HD
ENDBRANCH   6  24
BRANCH   8  26
ATOM     26  O   UNL     1     136.118 170.237 181.074  1.00  0.00    -0.508 OA
ATOM     27  H   UNL     1     135.932 169.598 181.837  1.00  0.00     0.293 HD
ENDBRANCH   8  26
TORSDOF 6
ENDMDL
MODEL 4
REMARK VINA RESULT:    -5.049      5.209      7.051
REMARK INTER + INTRA:          -6.384
REMARK INTER:                  -6.282
REMARK INTRA:                  -0.102
REMARK UNBOUND:                -0.302
REMARK SMILES O=c1c(O)c(-c2ccc(O)c(O)c2)oc2cc(O)cc(O)c12
REMARK SMILES IDX 5 1 3 2 2 3 1 4 22 5 20 6 19 7 17 8 16 9 15 10 14 11 6 12
REMARK SMILES IDX 7 13 8 14 9 15 13 16 11 17 10 18 12 20 4 22 21 24 18 26
REMARK H PARENT 10 19 12 21 4 23 21 25 18 27
REMARK Flexibility Score: inf
ROOT
ATOM      1  C   UNL     1     142.536 171.105 171.393  1.00  0.00     0.180 A 
ATOM      2  C   UNL     1     143.678 171.609 170.746  1.00  0.00     0.208 A 
ATOM      3  C   UNL     1     144.014 171.115 169.475  1.00  0.00     0.238 A 
ATOM      4  O   UNL     1     145.007 171.609 168.878  1.00  0.00    -0.285 OA
ATOM      5  C   UNL     1     143.215 170.113 168.875  1.00  0.00     0.111 A 
ATOM      6  C   UNL     1     143.484 169.512 167.609  1.00  0.00     0.134 A 
ATOM      7  C   UNL     1     142.554 168.625 167.053  1.00  0.00     0.093 A 
ATOM      8  C   UNL     1     141.396 168.268 167.748  1.00  0.00     0.123 A 
ATOM      9  C   UNL     1     141.153 168.803 169.010  1.00  0.00     0.094 A 
ATOM     10  C   UNL     1     142.044 169.720 169.575  1.00  0.00     0.146 A 
ATOM     11  O   UNL     1     141.770 170.214 170.776  1.00  0.00    -0.452 OA
ENDROOT
BRANCH   1  12
ATOM     12  C   UNL     1     142.132 171.558 172.743  1.00  0.00     0.025 A 
ATOM     13  C   UNL     1     143.008 171.467 173.839  1.00  0.00     0.016 A 
ATOM     14  C   UNL     1     142.596 171.878 175.110  1.00  0.00     0.051 A 
ATOM     15  C   UNL     1     141.301 172.373 175.307  1.00  0.00     0.157 A 
ATOM     16  C   UNL     1     140.828 172.036 172.951  1.00  0.00     0.062 A 
ATOM     17  C   UNL     1     140.411 172.450 174.222  1.00  0.00     0.158 A 
BRANCH  15  18
ATOM     18  O   UNL     1     140.893 172.785 176.576  1.00  0.00    -0.504 OA
ATOM     19  H   UNL     1     141.446 173.431 177.127  1.00  0.00     0.293 HD
ENDBRANCH  15  18
BRANCH  17  20
ATOM     20  O   UNL     1     139.113 172.931 174.387  1.00  0.00    -0.504 OA
ATOM     21  H   UNL     1     138.404 172.821 173.672  1.00  0.00     0.293 HD
ENDBRANCH  17  20
ENDBRANCH   1  12
BRANCH   2  22
ATOM     22  O   UNL     1     144.441 172.614 171.348  1.00  0.00    -0.502 OA
ATOM     23  H   UNL     1     145.404 172.471 171.628  1.00  0.00     0.293 HD
ENDBRANCH   2  22
BRANCH   6  24
ATOM     24  O   UNL     1     144.655 169.730 166.875  1.00  0.00    -0.507 OA
ATOM     25  H   UNL     1     145.064 169.066 166.237  1.00  0.00     0.293 HD
ENDBRANCH   6  24
BRANCH   8  26
ATOM     26  O   UNL     1     140.483 167.372 167.195  1.00  0.00    -0.508 OA
ATOM     27  H   UNL     1     140.609 166.370 167.274  1.00  0.00     0.293 HD
ENDBRANCH   8  26
TORSDOF 6
ENDMDL
MODEL 5
REMARK VINA RESULT:    -4.860      2.884      8.595
REMARK INTER + INTRA:          -6.156
REMARK INTER:                  -5.833
REMARK INTRA:                  -0.323
REMARK UNBOUND:                -0.302
REMARK SMILES O=c1c(O)c(-c2ccc(O)c(O)c2)oc2cc(O)cc(O)c12
REMARK SMILES IDX 5 1 3 2 2 3 1 4 22 5 20 6 19 7 17 8 16 9 15 10 14 11 6 12
REMARK SMILES IDX 7 13 8 14 9 15 13 16 11 17 10 18 12 20 4 22 21 24 18 26
REMARK H PARENT 10 19 12 21 4 23 21 25 18 27
REMARK Flexibility Score: inf
ROOT
ATOM      1  C   UNL     1     136.925 168.735 178.316  1.00  0.00     0.180 A 
ATOM      2  C   UNL     1     137.248 167.814 179.328  1.00  0.00     0.208 A 
ATOM      3  C   UNL     1     136.217 167.075 179.930  1.00  0.00     0.238 A 
ATOM      4  O   UNL     1     136.519 166.212 180.797  1.00  0.00    -0.285 OA
ATOM      5  C   UNL     1     134.876 167.277 179.526  1.00  0.00     0.111 A 
ATOM      6  C   UNL     1     133.748 166.613 180.095  1.00  0.00     0.134 A 
ATOM      7  C   UNL     1     132.481 166.794 179.529  1.00  0.00     0.093 A 
ATOM      8  C   UNL     1     132.291 167.666 178.454  1.00  0.00     0.123 A 
ATOM      9  C   UNL     1     133.375 168.365 177.930  1.00  0.00     0.094 A 
ATOM     10  C   UNL     1     134.658 168.177 178.450  1.00  0.00     0.146 A 
ATOM     11  O   UNL     1     135.666 168.854 177.913  1.00  0.00    -0.452 OA
ENDROOT
BRANCH   1  12
ATOM     12  C   UNL     1     137.953 169.568 177.652  1.00  0.00     0.025 A 
ATOM     13  C   UNL     1     138.622 169.124 176.498  1.00  0.00     0.016 A 
ATOM     14  C   UNL     1     139.607 169.917 175.903  1.00  0.00     0.051 A 
ATOM     15  C   UNL     1     139.947 171.157 176.458  1.00  0.00     0.157 A 
ATOM     16  C   UNL     1     138.312 170.802 178.216  1.00  0.00     0.062 A 
ATOM     17  C   UNL     1     139.297 171.601 177.623  1.00  0.00     0.158 A 
BRANCH  15  18
ATOM     18  O   UNL     1     140.928 171.948 175.861  1.00  0.00    -0.504 OA
ATOM     19  H   UNL     1     140.955 172.952 175.994  1.00  0.00     0.293 HD
ENDBRANCH  15  18
BRANCH  17  20
ATOM     20  O   UNL     1     139.618 172.827 178.204  1.00  0.00    -0.504 OA
ATOM     21  H   UNL     1     139.144 173.171 179.031  1.00  0.00     0.293 HD
ENDBRANCH  17  20
ENDBRANCH   1  12
BRANCH   2  22
ATOM     22  O   UNL     1     138.582 167.614 179.697  1.00  0.00    -0.502 OA
ATOM     23  H   UNL     1     139.052 168.199 180.377  1.00  0.00     0.293 HD
ENDBRANCH   2  22
BRANCH   6  24
ATOM     24  O   UNL     1     133.816 165.793 181.226  1.00  0.00    -0.507 OA
ATOM     25  H   UNL     1     133.999 164.802 181.207  1.00  0.00     0.293 HD
ENDBRANCH   6  24
BRANCH   8  26
ATOM     26  O   UNL     1     131.023 167.852 177.907  1.00  0.00    -0.508 OA
ATOM     27  H   UNL     1     130.563 168.754 177.929  1.00  0.00     0.293 HD
ENDBRANCH   8  26
TORSDOF 6
ENDMDL
MODEL 6
REMARK VINA RESULT:    -4.858      2.280      7.016
REMARK INTER + INTRA:          -6.154
REMARK INTER:                  -5.880
REMARK INTRA:                  -0.275
REMARK UNBOUND:                -0.302
REMARK SMILES O=c1c(O)c(-c2ccc(O)c(O)c2)oc2cc(O)cc(O)c12
REMARK SMILES IDX 5 1 3 2 2 3 1 4 22 5 20 6 19 7 17 8 16 9 15 10 14 11 6 12
REMARK SMILES IDX 7 13 8 14 9 15 13 16 11 17 10 18 12 20 4 22 21 24 18 26
REMARK H PARENT 10 19 12 21 4 23 21 25 18 27
REMARK Flexibility Score: inf
ROOT
ATOM      1  C   UNL     1     141.085 171.207 174.615  1.00  0.00     0.180 A 
ATOM      2  C   UNL     1     141.090 172.057 175.735  1.00  0.00     0.208 A 
ATOM      3  C   UNL     1     140.207 171.792 176.795  1.00  0.00     0.238 A 
ATOM      4  O   UNL     1     140.254 172.524 177.819  1.00  0.00    -0.285 OA
ATOM      5  C   UNL     1     139.320 170.692 176.714  1.00  0.00     0.111 A 
ATOM      6  C   UNL     1     138.355 170.353 177.710  1.00  0.00     0.134 A 
ATOM      7  C   UNL     1     137.620 169.168 177.585  1.00  0.00     0.093 A 
ATOM      8  C   UNL     1     137.768 168.343 176.468  1.00  0.00     0.123 A 
ATOM      9  C   UNL     1     138.663 168.695 175.461  1.00  0.00     0.094 A 
ATOM     10  C   UNL     1     139.438 169.853 175.575  1.00  0.00     0.146 A 
ATOM     11  O   UNL     1     140.288 170.146 174.598  1.00  0.00    -0.452 OA
ENDROOT
BRANCH   1  12
ATOM     12  C   UNL     1     141.969 171.437 173.449  1.00  0.00     0.025 A 
ATOM     13  C   UNL     1     141.472 171.972 172.248  1.00  0.00     0.016 A 
ATOM     14  C   UNL     1     142.320 172.156 171.153  1.00  0.00     0.051 A 
ATOM     15  C   UNL     1     143.671 171.798 171.236  1.00  0.00     0.157 A 
ATOM     16  C   UNL     1     143.319 171.061 173.521  1.00  0.00     0.062 A 
ATOM     17  C   UNL     1     144.173 171.245 172.427  1.00  0.00     0.158 A 
BRANCH  15  18
ATOM     18  O   UNL     1     144.516 171.986 170.143  1.00  0.00    -0.504 OA
ATOM     19  H   UNL     1     145.245 171.321 169.915  1.00  0.00     0.293 HD
ENDBRANCH  15  18
BRANCH  17  20
ATOM     20  O   UNL     1     145.511 170.871 172.540  1.00  0.00    -0.504 OA
ATOM     21  H   UNL     1     146.192 171.083 171.821  1.00  0.00     0.293 HD
ENDBRANCH  17  20
ENDBRANCH   1  12
BRANCH   2  22
ATOM     22  O   UNL     1     141.989 173.125 175.804  1.00  0.00    -0.502 OA
ATOM     23  H   UNL     1     141.786 174.034 175.406  1.00  0.00     0.293 HD
ENDBRANCH   2  22
BRANCH   6  24
ATOM     24  O   UNL     1     138.064 171.155 178.818  1.00  0.00    -0.507 OA
ATOM     25  H   UNL     1     137.270 171.773 178.887  1.00  0.00     0.293 HD
ENDBRANCH   6  24
BRANCH   8  26
ATOM     26  O   UNL     1     137.021 167.174 176.344  1.00  0.00    -0.508 OA
ATOM     27  H   UNL     1     136.396 167.024 175.561  1.00  0.00     0.293 HD
ENDBRANCH   8  26
TORSDOF 6
ENDMDL
MODEL 7
REMARK VINA RESULT:    -4.819      9.147     11.198
REMARK INTER + INTRA:          -6.107
REMARK INTER:                  -5.982
REMARK INTRA:                  -0.125
REMARK UNBOUND:                -0.302
REMARK SMILES O=c1c(O)c(-c2ccc(O)c(O)c2)oc2cc(O)cc(O)c12
REMARK SMILES IDX 5 1 3 2 2 3 1 4 22 5 20 6 19 7 17 8 16 9 15 10 14 11 6 12
REMARK SMILES IDX 7 13 8 14 9 15 13 16 11 17 10 18 12 20 4 22 21 24 18 26
REMARK H PARENT 10 19 12 21 4 23 21 25 18 27
REMARK Flexibility Score: inf
ROOT
ATOM      1  C   UNL     1     144.418 165.659 168.730  1.00  0.00     0.180 A 
ATOM      2  C   UNL     1     143.183 165.709 168.060  1.00  0.00     0.208 A 
ATOM      3  C   UNL     1     142.600 166.958 167.798  1.00  0.00     0.238 A 
ATOM      4  O   UNL     1     141.521 166.998 167.149  1.00  0.00    -0.285 OA
ATOM      5  C   UNL     1     143.249 168.142 168.223  1.00  0.00     0.111 A 
ATOM      6  C   UNL     1     142.730 169.460 168.047  1.00  0.00     0.134 A 
ATOM      7  C   UNL     1     143.518 170.564 168.390  1.00  0.00     0.093 A 
ATOM      8  C   UNL     1     144.781 170.397 168.964  1.00  0.00     0.123 A 
ATOM      9  C   UNL     1     145.272 169.116 169.195  1.00  0.00     0.094 A 
ATOM     10  C   UNL     1     144.524 167.993 168.829  1.00  0.00     0.146 A 
ATOM     11  O   UNL     1     145.034 166.789 169.057  1.00  0.00    -0.452 OA
ENDROOT
BRANCH   1  12
ATOM     12  C   UNL     1     145.082 164.379 169.063  1.00  0.00     0.025 A 
ATOM     13  C   UNL     1     145.345 164.016 170.396  1.00  0.00     0.016 A 
ATOM     14  C   UNL     1     145.996 162.813 170.685  1.00  0.00     0.051 A 
ATOM     15  C   UNL     1     146.405 161.963 169.649  1.00  0.00     0.157 A 
ATOM     16  C   UNL     1     145.512 163.534 168.028  1.00  0.00     0.062 A 
ATOM     17  C   UNL     1     146.163 162.328 168.313  1.00  0.00     0.158 A 
BRANCH  15  18
ATOM     18  O   UNL     1     147.052 160.763 169.941  1.00  0.00    -0.504 OA
ATOM     19  H   UNL     1     146.537 159.897 170.056  1.00  0.00     0.293 HD
ENDBRANCH  15  18
BRANCH  17  20
ATOM     20  O   UNL     1     146.564 161.507 167.259  1.00  0.00    -0.504 OA
ATOM     21  H   UNL     1     147.530 161.451 166.958  1.00  0.00     0.293 HD
ENDBRANCH  17  20
ENDBRANCH   1  12
BRANCH   2  22
ATOM     22  O   UNL     1     142.569 164.528 167.629  1.00  0.00    -0.502 OA
ATOM     23  H   UNL     1     141.568 164.453 167.497  1.00  0.00     0.293 HD
ENDBRANCH   2  22
BRANCH   6  24
ATOM     24  O   UNL     1     141.445 169.734 167.568  1.00  0.00    -0.507 OA
ATOM     25  H   UNL     1     141.234 170.390 166.832  1.00  0.00     0.293 HD
ENDBRANCH   6  24
BRANCH   8  26
ATOM     26  O   UNL     1     145.553 171.503 169.317  1.00  0.00    -0.508 OA
ATOM     27  H   UNL     1     145.828 172.197 168.634  1.00  0.00     0.293 HD
ENDBRANCH   8  26
TORSDOF 6
ENDMDL
MODEL 8
REMARK VINA RESULT:    -4.805      8.856     10.595
REMARK INTER + INTRA:          -6.090
REMARK INTER:                  -5.767
REMARK INTRA:                  -0.323
REMARK UNBOUND:                -0.302
REMARK SMILES O=c1c(O)c(-c2ccc(O)c(O)c2)oc2cc(O)cc(O)c12
REMARK SMILES IDX 5 1 3 2 2 3 1 4 22 5 20 6 19 7 17 8 16 9 15 10 14 11 6 12
REMARK SMILES IDX 7 13 8 14 9 15 13 16 11 17 10 18 12 20 4 22 21 24 18 26
REMARK H PARENT 10 19 12 21 4 23 21 25 18 27
REMARK Flexibility Score: inf
ROOT
ATOM      1  C   UNL     1     144.748 166.035 169.482  1.00  0.00     0.180 A 
ATOM      2  C   UNL     1     145.920 166.650 169.959  1.00  0.00     0.208 A 
ATOM      3  C   UNL     1     146.031 168.048 169.893  1.00  0.00     0.238 A 
ATOM      4  O   UNL     1     147.058 168.596 170.372  1.00  0.00    -0.285 OA
ATOM      5  C   UNL     1     144.979 168.813 169.335  1.00  0.00     0.111 A 
ATOM      6  C   UNL     1     145.000 170.231 169.181  1.00  0.00     0.134 A 
ATOM      7  C   UNL     1     143.851 170.896 168.737  1.00  0.00     0.093 A 
ATOM      8  C   UNL     1     142.702 170.187 168.380  1.00  0.00     0.123 A 
ATOM      9  C   UNL     1     142.690 168.797 168.470  1.00  0.00     0.094 A 
ATOM     10  C   UNL     1     143.809 168.108 168.945  1.00  0.00     0.146 A 
ATOM     11  O   UNL     1     143.752 166.785 169.025  1.00  0.00    -0.452 OA
ENDROOT
BRANCH   1  12
ATOM     12  C   UNL     1     144.568 164.566 169.496  1.00  0.00     0.025 A 
ATOM     13  C   UNL     1     144.031 163.904 170.614  1.00  0.00     0.016 A 
ATOM     14  C   UNL     1     143.894 162.514 170.614  1.00  0.00     0.051 A 
ATOM     15  C   UNL     1     144.303 161.763 169.504  1.00  0.00     0.157 A 
ATOM     16  C   UNL     1     144.996 163.807 168.394  1.00  0.00     0.062 A 
ATOM     17  C   UNL     1     144.859 162.414 168.389  1.00  0.00     0.158 A 
BRANCH  15  18
ATOM     18  O   UNL     1     144.162 160.375 169.506  1.00  0.00    -0.504 OA
ATOM     19  H   UNL     1     144.427 159.816 170.308  1.00  0.00     0.293 HD
ENDBRANCH  15  18
BRANCH  17  20
ATOM     20  O   UNL     1     145.282 161.695 167.272  1.00  0.00    -0.504 OA
ATOM     21  H   UNL     1     146.232 161.355 167.179  1.00  0.00     0.293 HD
ENDBRANCH  17  20
ENDBRANCH   1  12
BRANCH   2  22
ATOM     22  O   UNL     1     146.938 165.877 170.526  1.00  0.00    -0.502 OA
ATOM     23  H   UNL     1     146.839 165.424 171.427  1.00  0.00     0.293 HD
ENDBRANCH   2  22
BRANCH   6  24
ATOM     24  O   UNL     1     146.127 171.024 169.421  1.00  0.00    -0.507 OA
ATOM     25  H   UNL     1     146.894 170.766 170.023  1.00  0.00     0.293 HD
ENDBRANCH   6  24
BRANCH   8  26
ATOM     26  O   UNL     1     141.568 170.855 167.923  1.00  0.00    -0.508 OA
ATOM     27  H   UNL     1     141.158 171.621 168.444  1.00  0.00     0.293 HD
ENDBRANCH   8  26
TORSDOF 6
ENDMDL
