MODEL 1
REMARK VINA RESULT:    -7.465      0.000      0.000
REMARK INTER + INTRA:          -9.339
REMARK INTER:                  -8.992
REMARK INTRA:                  -0.347
REMARK UNBOUND:                -0.347
REMARK SMILES Oc1cc(O)c2cc(O)c(-c3ccc(O)c(O)c3)[o+]c2c1
REMARK SMILES IDX 10 1 19 2 20 3 21 4 2 5 3 6 4 7 6 8 7 9 8 10 11 11 12 12
REMARK SMILES IDX 13 13 14 14 18 15 16 16 15 17 17 19 9 21 1 23 5 25
REMARK H PARENT 15 18 17 20 9 22 1 24 5 26
REMARK Flexibility Score: inf
ROOT
ATOM      1  C   UNL     1      10.951  39.126  22.848  1.00  0.00     0.402 A 
ATOM      2  O   UNL     1      10.106  39.831  22.100  1.00  0.00    -0.202 OA
ATOM      3  C   UNL     1      10.460  40.433  20.969  1.00  0.00     0.368 A 
ATOM      4  C   UNL     1       9.502  41.155  20.254  1.00  0.00     0.162 A 
ATOM      5  C   UNL     1       9.846  41.798  19.065  1.00  0.00     0.128 A 
ATOM      6  C   UNL     1      11.157  41.721  18.585  1.00  0.00     0.093 A 
ATOM      7  C   UNL     1      12.137  41.004  19.284  1.00  0.00     0.136 A 
ATOM      8  C   UNL     1      11.790  40.346  20.492  1.00  0.00     0.125 A 
ATOM      9  C   UNL     1      12.702  39.593  21.251  1.00  0.00     0.078 A 
ATOM     10  C   UNL     1      12.285  38.968  22.430  1.00  0.00     0.223 A 
ENDROOT
BRANCH   1  11
ATOM     11  C   UNL     1      10.438  38.512  24.094  1.00  0.00     0.087 A 
ATOM     12  C   UNL     1       9.714  37.311  24.025  1.00  0.00     0.022 A 
ATOM     13  C   UNL     1       9.203  36.724  25.185  1.00  0.00     0.051 A 
ATOM     14  C   UNL     1       9.394  37.334  26.429  1.00  0.00     0.157 A 
ATOM     15  C   UNL     1      10.611  39.135  25.344  1.00  0.00     0.068 A 
ATOM     16  C   UNL     1      10.097  38.548  26.509  1.00  0.00     0.158 A 
BRANCH  14  17
ATOM     17  O   UNL     1       8.875  36.723  27.571  1.00  0.00    -0.504 OA
ATOM     18  H   UNL     1       9.471  36.306  28.275  1.00  0.00     0.293 HD
ENDBRANCH  14  17
BRANCH  16  19
ATOM     19  O   UNL     1      10.278  39.168  27.744  1.00  0.00    -0.504 OA
ATOM     20  H   UNL     1      11.088  38.973  28.322  1.00  0.00     0.293 HD
ENDBRANCH  16  19
ENDBRANCH   1  11
BRANCH  10  21
ATOM     21  O   UNL     1      13.178  38.180  23.157  1.00  0.00    -0.500 OA
ATOM     22  H   UNL     1      13.976  37.736  22.719  1.00  0.00     0.294 HD
ENDBRANCH  10  21
BRANCH   5  23
ATOM     23  O   UNL     1       8.875  42.514  18.366  1.00  0.00    -0.507 OA
ATOM     24  H   UNL     1       8.165  42.045  17.816  1.00  0.00     0.293 HD
ENDBRANCH   5  23
BRANCH   7  25
ATOM     25  O   UNL     1      13.425  40.977  18.740  1.00  0.00    -0.507 OA
ATOM     26  H   UNL     1      13.807  40.202  18.216  1.00  0.00     0.293 HD
ENDBRANCH   7  25
TORSDOF 6
ENDMDL
MODEL 2
REMARK VINA RESULT:    -7.305      1.780      2.149
REMARK INTER + INTRA:          -9.147
REMARK INTER:                  -8.928
REMARK INTRA:                  -0.219
REMARK UNBOUND:                -0.347
REMARK SMILES Oc1cc(O)c2cc(O)c(-c3ccc(O)c(O)c3)[o+]c2c1
REMARK SMILES IDX 10 1 19 2 20 3 21 4 2 5 3 6 4 7 6 8 7 9 8 10 11 11 12 12
REMARK SMILES IDX 13 13 14 14 18 15 16 16 15 17 17 19 9 21 1 23 5 25
REMARK H PARENT 15 18 17 20 9 22 1 24 5 26
REMARK Flexibility Score: inf
ROOT
ATOM      1  C   UNL     1      11.501  39.073  22.300  1.00  0.00     0.402 A 
ATOM      2  O   UNL     1      10.822  40.212  22.196  1.00  0.00    -0.202 OA
ATOM      3  C   UNL     1      10.580  40.815  21.037  1.00  0.00     0.368 A 
ATOM      4  C   UNL     1       9.861  42.012  21.030  1.00  0.00     0.162 A 
ATOM      5  C   UNL     1       9.595  42.668  19.828  1.00  0.00     0.128 A 
ATOM      6  C   UNL     1      10.050  42.124  18.621  1.00  0.00     0.093 A 
ATOM      7  C   UNL     1      10.775  40.926  18.602  1.00  0.00     0.136 A 
ATOM      8  C   UNL     1      11.045  40.255  19.822  1.00  0.00     0.125 A 
ATOM      9  C   UNL     1      11.750  39.042  19.898  1.00  0.00     0.078 A 
ATOM     10  C   UNL     1      11.974  38.437  21.138  1.00  0.00     0.223 A 
ENDROOT
BRANCH   1  11
ATOM     11  C   UNL     1      11.714  38.505  23.651  1.00  0.00     0.087 A 
ATOM     12  C   UNL     1      10.604  38.141  24.430  1.00  0.00     0.022 A 
ATOM     13  C   UNL     1      10.781  37.623  25.716  1.00  0.00     0.051 A 
ATOM     14  C   UNL     1      12.065  37.473  26.247  1.00  0.00     0.157 A 
ATOM     15  C   UNL     1      13.005  38.373  24.196  1.00  0.00     0.068 A 
ATOM     16  C   UNL     1      13.183  37.855  25.487  1.00  0.00     0.158 A 
BRANCH  14  17
ATOM     17  O   UNL     1      12.211  36.950  27.532  1.00  0.00    -0.504 OA
ATOM     18  H   UNL     1      13.100  36.611  27.877  1.00  0.00     0.293 HD
ENDBRANCH  14  17
BRANCH  16  19
ATOM     19  O   UNL     1      14.465  37.721  26.017  1.00  0.00    -0.504 OA
ATOM     20  H   UNL     1      15.155  38.459  25.931  1.00  0.00     0.293 HD
ENDBRANCH  16  19
ENDBRANCH   1  11
BRANCH  10  21
ATOM     21  O   UNL     1      12.631  37.208  21.208  1.00  0.00    -0.500 OA
ATOM     22  H   UNL     1      12.312  36.402  20.683  1.00  0.00     0.294 HD
ENDBRANCH  10  21
BRANCH   5  23
ATOM     23  O   UNL     1       8.875  43.861  19.841  1.00  0.00    -0.507 OA
ATOM     24  H   UNL     1       9.283  44.729  19.515  1.00  0.00     0.293 HD
ENDBRANCH   5  23
BRANCH   7  25
ATOM     25  O   UNL     1      11.198  40.450  17.357  1.00  0.00    -0.507 OA
ATOM     26  H   UNL     1      12.164  40.356  17.081  1.00  0.00     0.293 HD
ENDBRANCH   7  25
TORSDOF 6
ENDMDL
MODEL 3
REMARK VINA RESULT:    -7.031      5.032      7.630
REMARK INTER + INTRA:          -8.816
REMARK INTER:                  -8.678
REMARK INTRA:                  -0.138
REMARK UNBOUND:                -0.347
REMARK SMILES Oc1cc(O)c2cc(O)c(-c3ccc(O)c(O)c3)[o+]c2c1
REMARK SMILES IDX 10 1 19 2 20 3 21 4 2 5 3 6 4 7 6 8 7 9 8 10 11 11 12 12
REMARK SMILES IDX 13 13 14 14 18 15 16 16 15 17 17 19 9 21 1 23 5 25
REMARK H PARENT 15 18 17 20 9 22 1 24 5 26
REMARK Flexibility Score: inf
ROOT
ATOM      1  C   UNL     1      13.200  43.542  21.117  1.00  0.00     0.402 A 
ATOM      2  O   UNL     1      14.476  43.434  21.478  1.00  0.00    -0.202 OA
ATOM      3  C   UNL     1      15.161  44.424  22.042  1.00  0.00     0.368 A 
ATOM      4  C   UNL     1      16.500  44.217  22.383  1.00  0.00     0.162 A 
ATOM      5  C   UNL     1      17.243  45.238  22.975  1.00  0.00     0.128 A 
ATOM      6  C   UNL     1      16.646  46.478  23.228  1.00  0.00     0.093 A 
ATOM      7  C   UNL     1      15.306  46.711  22.894  1.00  0.00     0.136 A 
ATOM      8  C   UNL     1      14.546  45.674  22.296  1.00  0.00     0.125 A 
ATOM      9  C   UNL     1      13.194  45.813  21.941  1.00  0.00     0.078 A 
ATOM     10  C   UNL     1      12.508  44.743  21.359  1.00  0.00     0.223 A 
ENDROOT
BRANCH   1  11
ATOM     11  C   UNL     1      12.550  42.371  20.487  1.00  0.00     0.087 A 
ATOM     12  C   UNL     1      12.589  41.126  21.136  1.00  0.00     0.022 A 
ATOM     13  C   UNL     1      12.000  40.003  20.550  1.00  0.00     0.051 A 
ATOM     14  C   UNL     1      11.377  40.101  19.303  1.00  0.00     0.157 A 
ATOM     15  C   UNL     1      11.940  42.462  19.222  1.00  0.00     0.068 A 
ATOM     16  C   UNL     1      11.351  41.335  18.632  1.00  0.00     0.158 A 
BRANCH  14  17
ATOM     17  O   UNL     1      10.794  38.963  18.745  1.00  0.00    -0.504 OA
ATOM     18  H   UNL     1      10.376  38.971  17.822  1.00  0.00     0.293 HD
ENDBRANCH  14  17
BRANCH  16  19
ATOM     19  O   UNL     1      10.743  41.436  17.382  1.00  0.00    -0.504 OA
ATOM     20  H   UNL     1       9.774  41.716  17.284  1.00  0.00     0.293 HD
ENDBRANCH  16  19
ENDBRANCH   1  11
BRANCH  10  21
ATOM     21  O   UNL     1      11.152  44.864  21.052  1.00  0.00    -0.500 OA
ATOM     22  H   UNL     1      10.433  44.499  21.664  1.00  0.00     0.294 HD
ENDBRANCH  10  21
BRANCH   5  23
ATOM     23  O   UNL     1      18.577  45.012  23.308  1.00  0.00    -0.507 OA
ATOM     24  H   UNL     1      19.267  45.752  23.263  1.00  0.00     0.293 HD
ENDBRANCH   5  23
BRANCH   7  25
ATOM     25  O   UNL     1      14.784  47.977  23.177  1.00  0.00    -0.507 OA
ATOM     26  H   UNL     1      13.910  48.140  23.656  1.00  0.00     0.293 HD
ENDBRANCH   7  25
TORSDOF 6
ENDMDL
MODEL 4
REMARK VINA RESULT:    -6.987      2.203      7.108
REMARK INTER + INTRA:          -8.764
REMARK INTER:                  -8.415
REMARK INTRA:                  -0.349
REMARK UNBOUND:                -0.347
REMARK SMILES Oc1cc(O)c2cc(O)c(-c3ccc(O)c(O)c3)[o+]c2c1
REMARK SMILES IDX 10 1 19 2 20 3 21 4 2 5 3 6 4 7 6 8 7 9 8 10 11 11 12 12
REMARK SMILES IDX 13 13 14 14 18 15 16 16 15 17 17 19 9 21 1 23 5 25
REMARK H PARENT 15 18 17 20 9 22 1 24 5 26
REMARK Flexibility Score: inf
ROOT
ATOM      1  C   UNL     1      11.169  39.245  22.541  1.00  0.00     0.402 A 
ATOM      2  O   UNL     1      12.416  39.288  23.002  1.00  0.00    -0.202 OA
ATOM      3  C   UNL     1      12.786  38.746  24.158  1.00  0.00     0.368 A 
ATOM      4  C   UNL     1      14.120  38.846  24.561  1.00  0.00     0.162 A 
ATOM      5  C   UNL     1      14.536  38.288  25.770  1.00  0.00     0.128 A 
ATOM      6  C   UNL     1      13.613  37.625  26.585  1.00  0.00     0.093 A 
ATOM      7  C   UNL     1      12.269  37.512  26.205  1.00  0.00     0.136 A 
ATOM      8  C   UNL     1      11.844  38.075  24.974  1.00  0.00     0.125 A 
ATOM      9  C   UNL     1      10.521  37.998  24.506  1.00  0.00     0.078 A 
ATOM     10  C   UNL     1      10.177  38.574  23.279  1.00  0.00     0.223 A 
ENDROOT
BRANCH   1  11
ATOM     11  C   UNL     1      10.880  39.896  21.244  1.00  0.00     0.087 A 
ATOM     12  C   UNL     1      10.448  41.233  21.222  1.00  0.00     0.022 A 
ATOM     13  C   UNL     1      10.150  41.861  20.011  1.00  0.00     0.051 A 
ATOM     14  C   UNL     1      10.262  41.163  18.805  1.00  0.00     0.157 A 
ATOM     15  C   UNL     1      10.972  39.189  20.031  1.00  0.00     0.068 A 
ATOM     16  C   UNL     1      10.671  39.818  18.814  1.00  0.00     0.158 A 
BRANCH  14  17
ATOM     17  O   UNL     1       9.961  41.817  17.611  1.00  0.00    -0.504 OA
ATOM     18  H   UNL     1      10.073  41.370  16.709  1.00  0.00     0.293 HD
ENDBRANCH  14  17
BRANCH  16  19
ATOM     19  O   UNL     1      10.772  39.113  17.616  1.00  0.00    -0.504 OA
ATOM     20  H   UNL     1      11.149  39.540  16.779  1.00  0.00     0.293 HD
ENDBRANCH  16  19
ENDBRANCH   1  11
BRANCH  10  21
ATOM     21  O   UNL     1       8.876  38.455  22.791  1.00  0.00    -0.500 OA
ATOM     22  H   UNL     1       8.683  38.397  21.798  1.00  0.00     0.294 HD
ENDBRANCH  10  21
BRANCH   5  23
ATOM     23  O   UNL     1      15.871  38.398  26.153  1.00  0.00    -0.507 OA
ATOM     24  H   UNL     1      16.131  38.688  27.089  1.00  0.00     0.293 HD
ENDBRANCH   5  23
BRANCH   7  25
ATOM     25  O   UNL     1      11.408  36.837  27.076  1.00  0.00    -0.507 OA
ATOM     26  H   UNL     1      10.451  36.598  26.861  1.00  0.00     0.293 HD
ENDBRANCH   7  25
TORSDOF 6
ENDMDL
MODEL 5
REMARK VINA RESULT:    -6.777      4.452      7.262
REMARK INTER + INTRA:          -8.511
REMARK INTER:                  -8.913
REMARK INTRA:                   0.402
REMARK UNBOUND:                -0.347
REMARK SMILES Oc1cc(O)c2cc(O)c(-c3ccc(O)c(O)c3)[o+]c2c1
REMARK SMILES IDX 10 1 19 2 20 3 21 4 2 5 3 6 4 7 6 8 7 9 8 10 11 11 12 12
REMARK SMILES IDX 13 13 14 14 18 15 16 16 15 17 17 19 9 21 1 23 5 25
REMARK H PARENT 15 18 17 20 9 22 1 24 5 26
REMARK Flexibility Score: inf
ROOT
ATOM      1  C   UNL     1      13.094  43.460  21.154  1.00  0.00     0.402 A 
ATOM      2  O   UNL     1      13.334  42.157  21.280  1.00  0.00    -0.202 OA
ATOM      3  C   UNL     1      12.542  41.217  20.775  1.00  0.00     0.368 A 
ATOM      4  C   UNL     1      12.875  39.874  20.963  1.00  0.00     0.162 A 
ATOM      5  C   UNL     1      12.061  38.866  20.446  1.00  0.00     0.128 A 
ATOM      6  C   UNL     1      10.903  39.201  19.734  1.00  0.00     0.093 A 
ATOM      7  C   UNL     1      10.546  40.541  19.533  1.00  0.00     0.136 A 
ATOM      8  C   UNL     1      11.374  41.568  20.055  1.00  0.00     0.125 A 
ATOM      9  C   UNL     1      11.103  42.937  19.890  1.00  0.00     0.078 A 
ATOM     10  C   UNL     1      11.968  43.893  20.430  1.00  0.00     0.223 A 
ENDROOT
BRANCH   1  11
ATOM     11  C   UNL     1      14.046  44.410  21.772  1.00  0.00     0.087 A 
ATOM     12  C   UNL     1      13.662  45.747  21.964  1.00  0.00     0.022 A 
ATOM     13  C   UNL     1      14.551  46.666  22.527  1.00  0.00     0.051 A 
ATOM     14  C   UNL     1      15.841  46.269  22.891  1.00  0.00     0.157 A 
ATOM     15  C   UNL     1      15.352  44.018  22.120  1.00  0.00     0.068 A 
ATOM     16  C   UNL     1      16.247  44.940  22.682  1.00  0.00     0.158 A 
BRANCH  14  17
ATOM     17  O   UNL     1      16.707  47.208  23.452  1.00  0.00    -0.504 OA
ATOM     18  H   UNL     1      16.429  48.169  23.609  1.00  0.00     0.293 HD
ENDBRANCH  14  17
BRANCH  16  19
ATOM     19  O   UNL     1      17.537  44.542  23.030  1.00  0.00    -0.504 OA
ATOM     20  H   UNL     1      17.705  43.896  23.793  1.00  0.00     0.293 HD
ENDBRANCH  16  19
ENDBRANCH   1  11
BRANCH  10  21
ATOM     21  O   UNL     1      11.725  45.252  20.224  1.00  0.00    -0.500 OA
ATOM     22  H   UNL     1      10.821  45.590  19.918  1.00  0.00     0.294 HD
ENDBRANCH  10  21
BRANCH   5  23
ATOM     23  O   UNL     1      12.410  37.531  20.644  1.00  0.00    -0.507 OA
ATOM     24  H   UNL     1      13.022  37.044  20.000  1.00  0.00     0.293 HD
ENDBRANCH   5  23
BRANCH   7  25
ATOM     25  O   UNL     1       9.373  40.793  18.815  1.00  0.00    -0.507 OA
ATOM     26  H   UNL     1       9.329  40.888  17.811  1.00  0.00     0.293 HD
ENDBRANCH   7  25
TORSDOF 6
ENDMDL
MODEL 6
REMARK VINA RESULT:    -6.741      1.551      6.793
REMARK INTER + INTRA:          -8.468
REMARK INTER:                  -8.204
REMARK INTRA:                  -0.263
REMARK UNBOUND:                -0.347
REMARK SMILES Oc1cc(O)c2cc(O)c(-c3ccc(O)c(O)c3)[o+]c2c1
REMARK SMILES IDX 10 1 19 2 20 3 21 4 2 5 3 6 4 7 6 8 7 9 8 10 11 11 12 12
REMARK SMILES IDX 13 13 14 14 18 15 16 16 15 17 17 19 9 21 1 23 5 25
REMARK H PARENT 15 18 17 20 9 22 1 24 5 26
REMARK Flexibility Score: inf
ROOT
ATOM      1  C   UNL     1      11.099  39.657  22.427  1.00  0.00     0.402 A 
ATOM      2  O   UNL     1      10.256  39.268  23.380  1.00  0.00    -0.202 OA
ATOM      3  C   UNL     1      10.642  38.624  24.477  1.00  0.00     0.368 A 
ATOM      4  C   UNL     1       9.682  38.252  25.420  1.00  0.00     0.162 A 
ATOM      5  C   UNL     1      10.058  37.573  26.580  1.00  0.00     0.128 A 
ATOM      6  C   UNL     1      11.404  37.262  26.799  1.00  0.00     0.093 A 
ATOM      7  C   UNL     1      12.386  37.622  25.868  1.00  0.00     0.136 A 
ATOM      8  C   UNL     1      12.008  38.316  24.689  1.00  0.00     0.125 A 
ATOM      9  C   UNL     1      12.924  38.729  23.708  1.00  0.00     0.078 A 
ATOM     10  C   UNL     1      12.477  39.413  22.574  1.00  0.00     0.223 A 
ENDROOT
BRANCH   1  11
ATOM     11  C   UNL     1      10.545  40.358  21.246  1.00  0.00     0.087 A 
ATOM     12  C   UNL     1       9.958  41.624  21.407  1.00  0.00     0.022 A 
ATOM     13  C   UNL     1       9.411  42.295  20.310  1.00  0.00     0.051 A 
ATOM     14  C   UNL     1       9.427  41.708  19.042  1.00  0.00     0.157 A 
ATOM     15  C   UNL     1      10.541  39.760  19.973  1.00  0.00     0.068 A 
ATOM     16  C   UNL     1       9.990  40.432  18.872  1.00  0.00     0.158 A 
BRANCH  14  17
ATOM     17  O   UNL     1       8.875  42.403  17.966  1.00  0.00    -0.504 OA
ATOM     18  H   UNL     1       8.354  41.935  17.234  1.00  0.00     0.293 HD
ENDBRANCH  14  17
BRANCH  16  19
ATOM     19  O   UNL     1       9.996  39.835  17.612  1.00  0.00    -0.504 OA
ATOM     20  H   UNL     1      10.117  40.381  16.767  1.00  0.00     0.293 HD
ENDBRANCH  16  19
ENDBRANCH   1  11
BRANCH  10  21
ATOM     21  O   UNL     1      13.392  39.867  21.624  1.00  0.00    -0.500 OA
ATOM     22  H   UNL     1      13.137  40.554  20.925  1.00  0.00     0.294 HD
ENDBRANCH  10  21
BRANCH   5  23
ATOM     23  O   UNL     1       9.085  37.211  27.510  1.00  0.00    -0.507 OA
ATOM     24  H   UNL     1       8.690  36.278  27.526  1.00  0.00     0.293 HD
ENDBRANCH   5  23
BRANCH   7  25
ATOM     25  O   UNL     1      13.708  37.272  26.158  1.00  0.00    -0.507 OA
ATOM     26  H   UNL     1      14.102  36.355  26.005  1.00  0.00     0.293 HD
ENDBRANCH   7  25
TORSDOF 6
ENDMDL
MODEL 7
REMARK VINA RESULT:    -6.637      2.015      7.416
REMARK INTER + INTRA:          -8.343
REMARK INTER:                  -8.268
REMARK INTRA:                  -0.074
REMARK UNBOUND:                -0.347
REMARK SMILES Oc1cc(O)c2cc(O)c(-c3ccc(O)c(O)c3)[o+]c2c1
REMARK SMILES IDX 10 1 19 2 20 3 21 4 2 5 3 6 4 7 6 8 7 9 8 10 11 11 12 12
REMARK SMILES IDX 13 13 14 14 18 15 16 16 15 17 17 19 9 21 1 23 5 25
REMARK H PARENT 15 18 17 20 9 22 1 24 5 26
REMARK Flexibility Score: inf
ROOT
ATOM      1  C   UNL     1      11.375  38.958  22.758  1.00  0.00     0.402 A 
ATOM      2  O   UNL     1      12.392  38.549  23.511  1.00  0.00    -0.202 OA
ATOM      3  C   UNL     1      12.239  38.024  24.721  1.00  0.00     0.368 A 
ATOM      4  C   UNL     1      13.370  37.627  25.439  1.00  0.00     0.162 A 
ATOM      5  C   UNL     1      13.239  37.074  26.713  1.00  0.00     0.128 A 
ATOM      6  C   UNL     1      11.969  36.917  27.278  1.00  0.00     0.093 A 
ATOM      7  C   UNL     1      10.819  37.309  26.580  1.00  0.00     0.136 A 
ATOM      8  C   UNL     1      10.948  37.868  25.282  1.00  0.00     0.125 A 
ATOM      9  C   UNL     1       9.852  38.275  24.504  1.00  0.00     0.078 A 
ATOM     10  C   UNL     1      10.058  38.813  23.230  1.00  0.00     0.223 A 
ENDROOT
BRANCH   1  11
ATOM     11  C   UNL     1      11.675  39.537  21.428  1.00  0.00     0.087 A 
ATOM     12  C   UNL     1      12.519  40.656  21.337  1.00  0.00     0.022 A 
ATOM     13  C   UNL     1      12.800  41.231  20.095  1.00  0.00     0.051 A 
ATOM     14  C   UNL     1      12.233  40.708  18.929  1.00  0.00     0.157 A 
ATOM     15  C   UNL     1      11.089  39.026  20.256  1.00  0.00     0.068 A 
ATOM     16  C   UNL     1      11.369  39.603  19.009  1.00  0.00     0.158 A 
BRANCH  14  17
ATOM     17  O   UNL     1      12.535  41.301  17.703  1.00  0.00    -0.504 OA
ATOM     18  H   UNL     1      12.605  40.763  16.848  1.00  0.00     0.293 HD
ENDBRANCH  14  17
BRANCH  16  19
ATOM     19  O   UNL     1      10.789  39.087  17.851  1.00  0.00    -0.504 OA
ATOM     20  H   UNL     1      10.425  39.692  17.124  1.00  0.00     0.293 HD
ENDBRANCH  16  19
ENDBRANCH   1  11
BRANCH  10  21
ATOM     21  O   UNL     1       8.966  39.172  22.438  1.00  0.00    -0.500 OA
ATOM     22  H   UNL     1       8.095  39.490  22.844  1.00  0.00     0.294 HD
ENDBRANCH  10  21
BRANCH   5  23
ATOM     23  O   UNL     1      14.380  36.684  27.413  1.00  0.00    -0.507 OA
ATOM     24  H   UNL     1      14.460  36.820  28.413  1.00  0.00     0.293 HD
ENDBRANCH   5  23
BRANCH   7  25
ATOM     25  O   UNL     1       9.587  37.122  27.213  1.00  0.00    -0.507 OA
ATOM     26  H   UNL     1       9.365  36.337  27.808  1.00  0.00     0.293 HD
ENDBRANCH   7  25
TORSDOF 6
ENDMDL
MODEL 8
REMARK VINA RESULT:    -6.583      6.443     10.828
REMARK INTER + INTRA:          -8.277
REMARK INTER:                  -8.270
REMARK INTRA:                  -0.007
REMARK UNBOUND:                -0.347
REMARK SMILES Oc1cc(O)c2cc(O)c(-c3ccc(O)c(O)c3)[o+]c2c1
REMARK SMILES IDX 10 1 19 2 20 3 21 4 2 5 3 6 4 7 6 8 7 9 8 10 11 11 12 12
REMARK SMILES IDX 13 13 14 14 18 15 16 16 15 17 17 19 9 21 1 23 5 25
REMARK H PARENT 15 18 17 20 9 22 1 24 5 26
REMARK Flexibility Score: inf
ROOT
ATOM      1  C   UNL     1      12.968  34.311  28.646  1.00  0.00     0.402 A 
ATOM      2  O   UNL     1      13.632  33.292  28.107  1.00  0.00    -0.202 OA
ATOM      3  C   UNL     1      13.870  32.154  28.751  1.00  0.00     0.368 A 
ATOM      4  C   UNL     1      14.581  31.141  28.102  1.00  0.00     0.162 A 
ATOM      5  C   UNL     1      14.846  29.937  28.755  1.00  0.00     0.128 A 
ATOM      6  C   UNL     1      14.400  29.741  30.066  1.00  0.00     0.093 A 
ATOM      7  C   UNL     1      13.687  30.742  30.739  1.00  0.00     0.136 A 
ATOM      8  C   UNL     1      13.412  31.966  30.078  1.00  0.00     0.125 A 
ATOM      9  C   UNL     1      12.692  33.019  30.668  1.00  0.00     0.078 A 
ATOM     10  C   UNL     1      12.456  34.195  29.951  1.00  0.00     0.223 A 
ENDROOT
BRANCH   1  11
ATOM     11  C   UNL     1      12.777  35.532  27.830  1.00  0.00     0.087 A 
ATOM     12  C   UNL     1      11.486  36.061  27.672  1.00  0.00     0.022 A 
ATOM     13  C   UNL     1      11.279  37.201  26.890  1.00  0.00     0.051 A 
ATOM     14  C   UNL     1      12.353  37.818  26.242  1.00  0.00     0.157 A 
ATOM     15  C   UNL     1      13.853  36.143  27.161  1.00  0.00     0.068 A 
ATOM     16  C   UNL     1      13.646  37.285  26.373  1.00  0.00     0.158 A 
BRANCH  14  17
ATOM     17  O   UNL     1      12.116  38.956  25.471  1.00  0.00    -0.504 OA
ATOM     18  H   UNL     1      12.870  39.500  25.069  1.00  0.00     0.293 HD
ENDBRANCH  14  17
BRANCH  16  19
ATOM     19  O   UNL     1      14.719  37.888  25.719  1.00  0.00    -0.504 OA
ATOM     20  H   UNL     1      15.671  37.775  26.046  1.00  0.00     0.293 HD
ENDBRANCH  16  19
ENDBRANCH   1  11
BRANCH  10  21
ATOM     21  O   UNL     1      11.700  35.221  30.520  1.00  0.00    -0.500 OA
ATOM     22  H   UNL     1      11.987  35.684  31.373  1.00  0.00     0.294 HD
ENDBRANCH  10  21
BRANCH   5  23
ATOM     23  O   UNL     1      15.556  28.938  28.090  1.00  0.00    -0.507 OA
ATOM     24  H   UNL     1      16.088  29.136  27.251  1.00  0.00     0.293 HD
ENDBRANCH   5  23
BRANCH   7  25
ATOM     25  O   UNL     1      13.279  30.471  32.049  1.00  0.00    -0.507 OA
ATOM     26  H   UNL     1      12.375  30.095  32.298  1.00  0.00     0.293 HD
ENDBRANCH   7  25
TORSDOF 6
ENDMDL
MODEL 9
REMARK VINA RESULT:    -6.337      1.961      3.029
REMARK INTER + INTRA:          -7.981
REMARK INTER:                  -8.399
REMARK INTRA:                   0.418
REMARK UNBOUND:                -0.347
REMARK SMILES Oc1cc(O)c2cc(O)c(-c3ccc(O)c(O)c3)[o+]c2c1
REMARK SMILES IDX 10 1 19 2 20 3 21 4 2 5 3 6 4 7 6 8 7 9 8 10 11 11 12 12
REMARK SMILES IDX 13 13 14 14 18 15 16 16 15 17 17 19 9 21 1 23 5 25
REMARK H PARENT 15 18 17 20 9 22 1 24 5 26
REMARK Flexibility Score: inf
ROOT
ATOM      1  C   UNL     1      11.274  38.670  23.252  1.00  0.00     0.402 A 
ATOM      2  O   UNL     1      12.159  39.222  22.425  1.00  0.00    -0.202 OA
ATOM      3  C   UNL     1      11.832  39.736  21.244  1.00  0.00     0.368 A 
ATOM      4  C   UNL     1      12.834  40.290  20.443  1.00  0.00     0.162 A 
ATOM      5  C   UNL     1      12.520  40.835  19.197  1.00  0.00     0.128 A 
ATOM      6  C   UNL     1      11.195  40.826  18.747  1.00  0.00     0.093 A 
ATOM      7  C   UNL     1      10.173  40.276  19.531  1.00  0.00     0.136 A 
ATOM      8  C   UNL     1      10.488  39.723  20.799  1.00  0.00     0.125 A 
ATOM      9  C   UNL     1       9.528  39.164  21.658  1.00  0.00     0.078 A 
ATOM     10  C   UNL     1       9.913  38.643  22.896  1.00  0.00     0.223 A 
ENDROOT
BRANCH   1  11
ATOM     11  C   UNL     1      11.764  38.122  24.537  1.00  0.00     0.087 A 
ATOM     12  C   UNL     1      13.146  37.996  24.752  1.00  0.00     0.022 A 
ATOM     13  C   UNL     1      13.631  37.461  25.949  1.00  0.00     0.051 A 
ATOM     14  C   UNL     1      12.745  37.031  26.941  1.00  0.00     0.157 A 
ATOM     15  C   UNL     1      10.874  37.669  25.528  1.00  0.00     0.068 A 
ATOM     16  C   UNL     1      11.359  37.130  26.728  1.00  0.00     0.158 A 
BRANCH  14  17
ATOM     17  O   UNL     1      13.257  36.505  28.127  1.00  0.00    -0.504 OA
ATOM     18  H   UNL     1      13.216  37.012  29.002  1.00  0.00     0.293 HD
ENDBRANCH  14  17
BRANCH  16  19
ATOM     19  O   UNL     1      10.471  36.690  27.708  1.00  0.00    -0.504 OA
ATOM     20  H   UNL     1      10.188  35.719  27.771  1.00  0.00     0.293 HD
ENDBRANCH  16  19
ENDBRANCH   1  11
BRANCH  10  21
ATOM     21  O   UNL     1       8.953  38.131  23.770  1.00  0.00    -0.500 OA
ATOM     22  H   UNL     1       9.210  37.699  24.650  1.00  0.00     0.294 HD
ENDBRANCH  10  21
BRANCH   5  23
ATOM     23  O   UNL     1      13.533  41.383  18.413  1.00  0.00    -0.507 OA
ATOM     24  H   UNL     1      13.497  41.348  17.401  1.00  0.00     0.293 HD
ENDBRANCH   5  23
BRANCH   7  25
ATOM     25  O   UNL     1       8.877  40.303  19.008  1.00  0.00    -0.507 OA
ATOM     26  H   UNL     1       8.053  40.005  19.511  1.00  0.00     0.293 HD
ENDBRANCH   7  25
TORSDOF 6
ENDMDL
