MODEL 1
REMARK VINA RESULT:    -4.077      0.000      0.000
REMARK INTER + INTRA:         -15.021
REMARK INTER:                 -10.750
REMARK INTRA:                  -4.270
REMARK UNBOUND:                -4.270
REMARK SMILES CCCCCCCCCCCCCCCCCCCCCCCCCCCCCC(=O)[O-]
REMARK SMILES IDX 16 1 17 2 18 3 19 4 20 5 21 6 22 7 23 8 24 9 25 10 26 11
REMARK SMILES IDX 27 12 28 13 29 14 30 15 31 16 32 17 15 18 14 19 13 20 12 21
REMARK SMILES IDX 11 22 10 23 9 24 8 25 7 26 6 27 5 28 4 29 3 30 2 31 1 32
REMARK H PARENT
REMARK Flexibility Score: inf
ROOT
ATOM      1  C   UNL     1       3.217  -2.648   5.832  1.00  0.00     0.000 C 
ENDROOT
BRANCH   1   2
ATOM      2  C   UNL     1       3.801  -4.063   5.919  1.00  0.00     0.000 C 
BRANCH   2   3
ATOM      3  C   UNL     1       5.332  -4.025   6.040  1.00  0.00     0.000 C 
BRANCH   3   4
ATOM      4  C   UNL     1       6.026  -3.443   4.793  1.00  0.00     0.000 C 
BRANCH   4   5
ATOM      5  C   UNL     1       7.551  -3.651   4.734  1.00  0.00     0.000 C 
BRANCH   5   6
ATOM      6  C   UNL     1       7.980  -4.670   3.667  1.00  0.00     0.000 C 
BRANCH   6   7
ATOM      7  C   UNL     1       7.824  -6.106   4.185  1.00  0.00     0.000 C 
BRANCH   7   8
ATOM      8  C   UNL     1       6.687  -6.837   3.457  1.00  0.00     0.000 C 
BRANCH   8   9
ATOM      9  C   UNL     1       5.764  -7.612   4.413  1.00  0.00     0.000 C 
BRANCH   9  10
ATOM     10  C   UNL     1       4.752  -8.544   3.724  1.00  0.00     0.000 C 
BRANCH  10  11
ATOM     11  C   UNL     1       3.407  -8.617   4.461  1.00  0.00     0.000 C 
BRANCH  11  12
ATOM     12  C   UNL     1       2.847  -7.209   4.713  1.00  0.00     0.000 C 
BRANCH  12  13
ATOM     13  C   UNL     1       1.312  -7.189   4.844  1.00  0.00     0.006 C 
BRANCH  13  14
ATOM     14  C   UNL     1       0.616  -8.449   4.304  1.00  0.00     0.053 C 
BRANCH  14  15
ATOM     15  C   UNL     1      -0.873  -8.388   4.465  1.00  0.00     0.041 C 
ATOM     16  O   UNL     1      -1.432  -8.977   5.427  1.00  0.00    -0.550 OA
ATOM     17  O   UNL     1      -1.644  -7.686   3.546  1.00  0.00    -0.550 OA
ENDBRANCH  14  15
ENDBRANCH  13  14
ENDBRANCH  12  13
ENDBRANCH  11  12
ENDBRANCH  10  11
ENDBRANCH   9  10
ENDBRANCH   8   9
ENDBRANCH   7   8
ENDBRANCH   6   7
ENDBRANCH   5   6
ENDBRANCH   4   5
ENDBRANCH   3   4
ENDBRANCH   2   3
ENDBRANCH   1   2
BRANCH   1  18
ATOM     18  C   UNL     1       2.891  -2.100   7.227  1.00  0.00     0.000 C 
BRANCH  18  19
ATOM     19  C   UNL     1       3.278  -0.619   7.344  1.00  0.00     0.000 C 
BRANCH  19  20
ATOM     20  C   UNL     1       4.565  -0.278   6.575  1.00  0.00     0.000 C 
BRANCH  20  21
ATOM     21  C   UNL     1       5.868  -0.457   7.379  1.00  0.00     0.000 C 
BRANCH  21  22
ATOM     22  C   UNL     1       7.147  -0.301   6.529  1.00  0.00     0.000 C 
BRANCH  22  23
ATOM     23  C   UNL     1       6.866   0.271   5.130  1.00  0.00     0.000 C 
BRANCH  23  24
ATOM     24  C   UNL     1       7.840   1.393   4.728  1.00  0.00    -0.000 C 
BRANCH  24  25
ATOM     25  C   UNL     1       8.266   2.318   5.890  1.00  0.00    -0.000 C 
BRANCH  25  26
ATOM     26  C   UNL     1       7.399   3.581   6.086  1.00  0.00    -0.000 C 
BRANCH  26  27
ATOM     27  C   UNL     1       6.396   3.541   7.258  1.00  0.00    -0.000 C 
BRANCH  27  28
ATOM     28  C   UNL     1       4.925   3.342   6.857  1.00  0.00    -0.000 C 
BRANCH  28  29
ATOM     29  C   UNL     1       4.720   3.327   5.335  1.00  0.00    -0.000 C 
BRANCH  29  30
ATOM     30  C   UNL     1       4.038   4.618   4.862  1.00  0.00    -0.000 C 
BRANCH  30  31
ATOM     31  C   UNL     1       3.360   5.344   6.029  1.00  0.00    -0.003 C 
ATOM     32  C   UNL     1       3.646   6.844   5.986  1.00  0.00     0.004 C 
ENDBRANCH  30  31
ENDBRANCH  29  30
ENDBRANCH  28  29
ENDBRANCH  27  28
ENDBRANCH  26  27
ENDBRANCH  25  26
ENDBRANCH  24  25
ENDBRANCH  23  24
ENDBRANCH  22  23
ENDBRANCH  21  22
ENDBRANCH  20  21
ENDBRANCH  19  20
ENDBRANCH  18  19
ENDBRANCH   1  18
TORSDOF 28
ENDMDL
MODEL 2
REMARK VINA RESULT:    -3.927      3.652      9.675
REMARK INTER + INTRA:         -14.625
REMARK INTER:                  -9.328
REMARK INTRA:                  -5.298
REMARK UNBOUND:                -4.270
REMARK SMILES CCCCCCCCCCCCCCCCCCCCCCCCCCCCCC(=O)[O-]
REMARK SMILES IDX 16 1 17 2 18 3 19 4 20 5 21 6 22 7 23 8 24 9 25 10 26 11
REMARK SMILES IDX 27 12 28 13 29 14 30 15 31 16 32 17 15 18 14 19 13 20 12 21
REMARK SMILES IDX 11 22 10 23 9 24 8 25 7 26 6 27 5 28 4 29 3 30 2 31 1 32
REMARK H PARENT
REMARK Flexibility Score: inf
ROOT
ATOM      1  C   UNL     1       4.733  -2.299   4.788  1.00  0.00     0.000 C 
ENDROOT
BRANCH   1   2
ATOM      2  C   UNL     1       4.357  -2.046   6.253  1.00  0.00     0.000 C 
BRANCH   2   3
ATOM      3  C   UNL     1       3.857  -0.607   6.457  1.00  0.00     0.000 C 
BRANCH   3   4
ATOM      4  C   UNL     1       4.974   0.447   6.331  1.00  0.00     0.000 C 
BRANCH   4   5
ATOM      5  C   UNL     1       6.046   0.403   7.436  1.00  0.00     0.000 C 
BRANCH   5   6
ATOM      6  C   UNL     1       7.449   0.078   6.902  1.00  0.00     0.000 C 
BRANCH   6   7
ATOM      7  C   UNL     1       7.524   0.295   5.386  1.00  0.00     0.000 C 
BRANCH   7   8
ATOM      8  C   UNL     1       8.924   0.764   4.962  1.00  0.00     0.000 C 
BRANCH   8   9
ATOM      9  C   UNL     1       9.005   2.285   4.743  1.00  0.00     0.000 C 
BRANCH   9  10
ATOM     10  C   UNL     1       9.228   3.113   6.020  1.00  0.00     0.000 C 
BRANCH  10  11
ATOM     11  C   UNL     1       8.266   4.303   6.138  1.00  0.00     0.000 C 
BRANCH  11  12
ATOM     12  C   UNL     1       6.807   3.823   6.176  1.00  0.00     0.000 C 
BRANCH  12  13
ATOM     13  C   UNL     1       5.942   4.447   5.064  1.00  0.00     0.006 C 
BRANCH  13  14
ATOM     14  C   UNL     1       4.478   3.979   5.065  1.00  0.00     0.053 C 
BRANCH  14  15
ATOM     15  C   UNL     1       3.699   4.549   6.211  1.00  0.00     0.041 C 
ATOM     16  O   UNL     1       3.125   5.664   6.098  1.00  0.00    -0.550 OA
ATOM     17  O   UNL     1       3.615   3.850   7.410  1.00  0.00    -0.550 OA
ENDBRANCH  14  15
ENDBRANCH  13  14
ENDBRANCH  12  13
ENDBRANCH  11  12
ENDBRANCH  10  11
ENDBRANCH   9  10
ENDBRANCH   8   9
ENDBRANCH   7   8
ENDBRANCH   6   7
ENDBRANCH   5   6
ENDBRANCH   4   5
ENDBRANCH   3   4
ENDBRANCH   2   3
ENDBRANCH   1   2
BRANCH   1  18
ATOM     18  C   UNL     1       5.970  -3.200   4.685  1.00  0.00     0.000 C 
BRANCH  18  19
ATOM     19  C   UNL     1       6.602  -3.431   6.065  1.00  0.00     0.000 C 
BRANCH  19  20
ATOM     20  C   UNL     1       8.124  -3.642   5.995  1.00  0.00     0.000 C 
BRANCH  20  21
ATOM     21  C   UNL     1       8.820  -2.948   4.808  1.00  0.00     0.000 C 
BRANCH  21  22
ATOM     22  C   UNL     1       9.738  -3.885   3.994  1.00  0.00     0.000 C 
BRANCH  22  23
ATOM     23  C   UNL     1       9.252  -5.343   3.995  1.00  0.00     0.000 C 
BRANCH  23  24
ATOM     24  C   UNL     1       8.205  -5.633   2.905  1.00  0.00    -0.000 C 
BRANCH  24  25
ATOM     25  C   UNL     1       6.988  -6.453   3.388  1.00  0.00    -0.000 C 
BRANCH  25  26
ATOM     26  C   UNL     1       7.091  -7.010   4.825  1.00  0.00    -0.000 C 
BRANCH  26  27
ATOM     27  C   UNL     1       5.781  -7.029   5.642  1.00  0.00    -0.000 C 
BRANCH  27  28
ATOM     28  C   UNL     1       4.497  -6.791   4.830  1.00  0.00    -0.000 C 
BRANCH  28  29
ATOM     29  C   UNL     1       3.456  -5.959   5.593  1.00  0.00    -0.000 C 
BRANCH  29  30
ATOM     30  C   UNL     1       2.048  -6.537   5.405  1.00  0.00    -0.000 C 
BRANCH  30  31
ATOM     31  C   UNL     1       2.065  -7.734   4.449  1.00  0.00    -0.003 C 
ATOM     32  C   UNL     1       0.677  -8.357   4.320  1.00  0.00     0.004 C 
ENDBRANCH  30  31
ENDBRANCH  29  30
ENDBRANCH  28  29
ENDBRANCH  27  28
ENDBRANCH  26  27
ENDBRANCH  25  26
ENDBRANCH  24  25
ENDBRANCH  23  24
ENDBRANCH  22  23
ENDBRANCH  21  22
ENDBRANCH  20  21
ENDBRANCH  19  20
ENDBRANCH  18  19
ENDBRANCH   1  18
TORSDOF 28
ENDMDL
MODEL 3
REMARK VINA RESULT:    -3.893      4.025      9.953
REMARK INTER + INTRA:         -14.535
REMARK INTER:                 -10.231
REMARK INTRA:                  -4.304
REMARK UNBOUND:                -4.270
REMARK SMILES CCCCCCCCCCCCCCCCCCCCCCCCCCCCCC(=O)[O-]
REMARK SMILES IDX 16 1 17 2 18 3 19 4 20 5 21 6 22 7 23 8 24 9 25 10 26 11
REMARK SMILES IDX 27 12 28 13 29 14 30 15 31 16 32 17 15 18 14 19 13 20 12 21
REMARK SMILES IDX 11 22 10 23 9 24 8 25 7 26 6 27 5 28 4 29 3 30 2 31 1 32
REMARK H PARENT
REMARK Flexibility Score: inf
ROOT
ATOM      1  C   UNL     1       3.935  -3.460   5.926  1.00  0.00     0.000 C 
ENDROOT
BRANCH   1   2
ATOM      2  C   UNL     1       4.211  -2.438   4.817  1.00  0.00     0.000 C 
BRANCH   2   3
ATOM      3  C   UNL     1       5.395  -1.529   5.181  1.00  0.00     0.000 C 
BRANCH   3   4
ATOM      4  C   UNL     1       5.881  -1.716   6.631  1.00  0.00     0.000 C 
BRANCH   4   5
ATOM      5  C   UNL     1       7.408  -1.654   6.824  1.00  0.00     0.000 C 
BRANCH   5   6
ATOM      6  C   UNL     1       8.161  -1.241   5.551  1.00  0.00     0.000 C 
BRANCH   6   7
ATOM      7  C   UNL     1       8.804   0.142   5.717  1.00  0.00     0.000 C 
BRANCH   7   8
ATOM      8  C   UNL     1       8.289   1.124   4.654  1.00  0.00     0.000 C 
BRANCH   8   9
ATOM      9  C   UNL     1       7.009   1.859   5.088  1.00  0.00     0.000 C 
BRANCH   9  10
ATOM     10  C   UNL     1       7.070   2.493   6.489  1.00  0.00     0.000 C 
BRANCH  10  11
ATOM     11  C   UNL     1       5.848   2.151   7.353  1.00  0.00     0.000 C 
BRANCH  11  12
ATOM     12  C   UNL     1       4.657   1.738   6.475  1.00  0.00     0.000 C 
BRANCH  12  13
ATOM     13  C   UNL     1       3.593   2.844   6.350  1.00  0.00     0.006 C 
BRANCH  13  14
ATOM     14  C   UNL     1       3.556   3.533   4.977  1.00  0.00     0.053 C 
BRANCH  14  15
ATOM     15  C   UNL     1       4.199   4.887   5.003  1.00  0.00     0.041 C 
ATOM     16  O   UNL     1       3.537   5.899   5.354  1.00  0.00    -0.550 OA
ATOM     17  O   UNL     1       5.531   5.031   4.632  1.00  0.00    -0.550 OA
ENDBRANCH  14  15
ENDBRANCH  13  14
ENDBRANCH  12  13
ENDBRANCH  11  12
ENDBRANCH  10  11
ENDBRANCH   9  10
ENDBRANCH   8   9
ENDBRANCH   7   8
ENDBRANCH   6   7
ENDBRANCH   5   6
ENDBRANCH   4   5
ENDBRANCH   3   4
ENDBRANCH   2   3
ENDBRANCH   1   2
BRANCH   1  18
ATOM     18  C   UNL     1       2.494  -3.340   6.439  1.00  0.00     0.000 C 
BRANCH  18  19
ATOM     19  C   UNL     1       1.536  -4.201   5.604  1.00  0.00     0.000 C 
BRANCH  19  20
ATOM     20  C   UNL     1       1.212  -5.548   6.272  1.00  0.00     0.000 C 
BRANCH  20  21
ATOM     21  C   UNL     1       0.301  -6.478   5.447  1.00  0.00     0.000 C 
BRANCH  21  22
ATOM     22  C   UNL     1      -0.035  -7.807   6.156  1.00  0.00     0.000 C 
BRANCH  22  23
ATOM     23  C   UNL     1       0.516  -9.034   5.412  1.00  0.00     0.000 C 
BRANCH  23  24
ATOM     24  C   UNL     1       1.145  -8.684   4.051  1.00  0.00    -0.000 C 
BRANCH  24  25
ATOM     25  C   UNL     1       2.401  -9.511   3.695  1.00  0.00    -0.000 C 
BRANCH  25  26
ATOM     26  C   UNL     1       3.716  -9.034   4.348  1.00  0.00    -0.000 C 
BRANCH  26  27
ATOM     27  C   UNL     1       3.820  -7.522   4.642  1.00  0.00    -0.000 C 
BRANCH  27  28
ATOM     28  C   UNL     1       4.785  -7.138   5.777  1.00  0.00    -0.000 C 
BRANCH  28  29
ATOM     29  C   UNL     1       6.017  -6.371   5.276  1.00  0.00    -0.000 C 
BRANCH  29  30
ATOM     30  C   UNL     1       6.454  -6.879   3.896  1.00  0.00    -0.000 C 
BRANCH  30  31
ATOM     31  C   UNL     1       7.526  -5.969   3.286  1.00  0.00    -0.003 C 
ATOM     32  C   UNL     1       7.424  -4.549   3.839  1.00  0.00     0.004 C 
ENDBRANCH  30  31
ENDBRANCH  29  30
ENDBRANCH  28  29
ENDBRANCH  27  28
ENDBRANCH  26  27
ENDBRANCH  25  26
ENDBRANCH  24  25
ENDBRANCH  23  24
ENDBRANCH  22  23
ENDBRANCH  21  22
ENDBRANCH  20  21
ENDBRANCH  19  20
ENDBRANCH  18  19
ENDBRANCH   1  18
TORSDOF 28
ENDMDL
MODEL 4
REMARK VINA RESULT:    -3.876      4.127      9.040
REMARK INTER + INTRA:         -14.491
REMARK INTER:                  -9.690
REMARK INTRA:                  -4.801
REMARK UNBOUND:                -4.270
REMARK SMILES CCCCCCCCCCCCCCCCCCCCCCCCCCCCCC(=O)[O-]
REMARK SMILES IDX 16 1 17 2 18 3 19 4 20 5 21 6 22 7 23 8 24 9 25 10 26 11
REMARK SMILES IDX 27 12 28 13 29 14 30 15 31 16 32 17 15 18 14 19 13 20 12 21
REMARK SMILES IDX 11 22 10 23 9 24 8 25 7 26 6 27 5 28 4 29 3 30 2 31 1 32
REMARK H PARENT
REMARK Flexibility Score: inf
ROOT
ATOM      1  C   UNL     1       4.127  -1.634   5.114  1.00  0.00     0.000 C 
ENDROOT
BRANCH   1   2
ATOM      2  C   UNL     1       5.301  -2.381   4.469  1.00  0.00     0.000 C 
BRANCH   2   3
ATOM      3  C   UNL     1       5.813  -3.505   5.383  1.00  0.00     0.000 C 
BRANCH   3   4
ATOM      4  C   UNL     1       4.973  -4.793   5.289  1.00  0.00     0.000 C 
BRANCH   4   5
ATOM      5  C   UNL     1       5.678  -6.072   5.780  1.00  0.00     0.000 C 
BRANCH   5   6
ATOM      6  C   UNL     1       6.123  -6.993   4.634  1.00  0.00     0.000 C 
BRANCH   6   7
ATOM      7  C   UNL     1       7.561  -6.677   4.203  1.00  0.00     0.000 C 
BRANCH   7   8
ATOM      8  C   UNL     1       7.583  -5.878   2.891  1.00  0.00     0.000 C 
BRANCH   8   9
ATOM      9  C   UNL     1       8.649  -4.768   2.884  1.00  0.00     0.000 C 
BRANCH   9  10
ATOM     10  C   UNL     1       9.195  -4.385   4.270  1.00  0.00     0.000 C 
BRANCH  10  11
ATOM     11  C   UNL     1       9.571  -2.900   4.375  1.00  0.00     0.000 C 
BRANCH  11  12
ATOM     12  C   UNL     1       9.506  -2.422   5.833  1.00  0.00     0.000 C 
BRANCH  12  13
ATOM     13  C   UNL     1       8.561  -1.222   6.028  1.00  0.00     0.006 C 
BRANCH  13  14
ATOM     14  C   UNL     1       9.153   0.127   5.590  1.00  0.00     0.053 C 
BRANCH  14  15
ATOM     15  C   UNL     1       8.413   0.724   4.431  1.00  0.00     0.041 C 
ATOM     16  O   UNL     1       7.156   0.796   4.450  1.00  0.00    -0.550 OA
ATOM     17  O   UNL     1       9.113   1.192   3.327  1.00  0.00    -0.550 OA
ENDBRANCH  14  15
ENDBRANCH  13  14
ENDBRANCH  12  13
ENDBRANCH  11  12
ENDBRANCH  10  11
ENDBRANCH   9  10
ENDBRANCH   8   9
ENDBRANCH   7   8
ENDBRANCH   6   7
ENDBRANCH   5   6
ENDBRANCH   4   5
ENDBRANCH   3   4
ENDBRANCH   2   3
ENDBRANCH   1   2
BRANCH   1  18
ATOM     18  C   UNL     1       4.619  -0.676   6.207  1.00  0.00     0.000 C 
BRANCH  18  19
ATOM     19  C   UNL     1       3.994  -1.018   7.566  1.00  0.00     0.000 C 
BRANCH  19  20
ATOM     20  C   UNL     1       2.765  -1.934   7.441  1.00  0.00     0.000 C 
BRANCH  20  21
ATOM     21  C   UNL     1       2.960  -3.360   7.992  1.00  0.00     0.000 C 
BRANCH  21  22
ATOM     22  C   UNL     1       2.060  -4.416   7.315  1.00  0.00     0.000 C 
BRANCH  22  23
ATOM     23  C   UNL     1       1.343  -3.874   6.068  1.00  0.00     0.000 C 
BRANCH  23  24
ATOM     24  C   UNL     1      -0.184  -3.787   6.237  1.00  0.00    -0.000 C 
BRANCH  24  25
ATOM     25  C   UNL     1      -0.794  -4.894   7.126  1.00  0.00    -0.000 C 
BRANCH  25  26
ATOM     26  C   UNL     1      -1.658  -5.938   6.387  1.00  0.00    -0.000 C 
BRANCH  26  27
ATOM     27  C   UNL     1      -1.097  -7.375   6.342  1.00  0.00    -0.000 C 
BRANCH  27  28
ATOM     28  C   UNL     1      -1.212  -8.083   4.981  1.00  0.00    -0.000 C 
BRANCH  28  29
ATOM     29  C   UNL     1       0.153  -8.335   4.324  1.00  0.00    -0.000 C 
BRANCH  29  30
ATOM     30  C   UNL     1       1.204  -7.348   4.850  1.00  0.00    -0.000 C 
BRANCH  30  31
ATOM     31  C   UNL     1       2.516  -8.066   5.187  1.00  0.00    -0.003 C 
ATOM     32  C   UNL     1       3.075  -8.793   3.966  1.00  0.00     0.004 C 
ENDBRANCH  30  31
ENDBRANCH  29  30
ENDBRANCH  28  29
ENDBRANCH  27  28
ENDBRANCH  26  27
ENDBRANCH  25  26
ENDBRANCH  24  25
ENDBRANCH  23  24
ENDBRANCH  22  23
ENDBRANCH  21  22
ENDBRANCH  20  21
ENDBRANCH  19  20
ENDBRANCH  18  19
ENDBRANCH   1  18
TORSDOF 28
ENDMDL
MODEL 5
REMARK VINA RESULT:    -3.858      3.642      9.704
REMARK INTER + INTRA:         -14.442
REMARK INTER:                 -10.639
REMARK INTRA:                  -3.803
REMARK UNBOUND:                -4.270
REMARK SMILES CCCCCCCCCCCCCCCCCCCCCCCCCCCCCC(=O)[O-]
REMARK SMILES IDX 16 1 17 2 18 3 19 4 20 5 21 6 22 7 23 8 24 9 25 10 26 11
REMARK SMILES IDX 27 12 28 13 29 14 30 15 31 16 32 17 15 18 14 19 13 20 12 21
REMARK SMILES IDX 11 22 10 23 9 24 8 25 7 26 6 27 5 28 4 29 3 30 2 31 1 32
REMARK H PARENT
REMARK Flexibility Score: inf
ROOT
ATOM      1  C   UNL     1       2.698  -3.158   7.160  1.00  0.00     0.000 C 
ENDROOT
BRANCH   1   2
ATOM      2  C   UNL     1       3.078  -3.410   5.696  1.00  0.00     0.000 C 
BRANCH   2   3
ATOM      3  C   UNL     1       3.887  -2.236   5.123  1.00  0.00     0.000 C 
BRANCH   3   4
ATOM      4  C   UNL     1       4.211  -1.153   6.170  1.00  0.00     0.000 C 
BRANCH   4   5
ATOM      5  C   UNL     1       5.626  -1.226   6.774  1.00  0.00     0.000 C 
BRANCH   5   6
ATOM      6  C   UNL     1       6.707  -1.571   5.738  1.00  0.00     0.000 C 
BRANCH   6   7
ATOM      7  C   UNL     1       7.900  -2.270   6.401  1.00  0.00     0.000 C 
BRANCH   7   8
ATOM      8  C   UNL     1       9.223  -1.852   5.743  1.00  0.00     0.000 C 
BRANCH   8   9
ATOM      9  C   UNL     1       9.466  -0.333   5.800  1.00  0.00     0.000 C 
BRANCH   9  10
ATOM     10  C   UNL     1       9.751   0.328   4.440  1.00  0.00     0.000 C 
BRANCH  10  11
ATOM     11  C   UNL     1       8.879   1.566   4.183  1.00  0.00     0.000 C 
BRANCH  11  12
ATOM     12  C   UNL     1       7.805   1.712   5.272  1.00  0.00     0.000 C 
BRANCH  12  13
ATOM     13  C   UNL     1       6.965   2.994   5.116  1.00  0.00     0.006 C 
BRANCH  13  14
ATOM     14  C   UNL     1       5.554   2.902   5.717  1.00  0.00     0.053 C 
BRANCH  14  15
ATOM     15  C   UNL     1       4.555   3.713   4.949  1.00  0.00     0.041 C 
ATOM     16  O   UNL     1       4.782   4.925   4.694  1.00  0.00    -0.550 OA
ATOM     17  O   UNL     1       3.368   3.131   4.522  1.00  0.00    -0.550 OA
ENDBRANCH  14  15
ENDBRANCH  13  14
ENDBRANCH  12  13
ENDBRANCH  11  12
ENDBRANCH  10  11
ENDBRANCH   9  10
ENDBRANCH   8   9
ENDBRANCH   7   8
ENDBRANCH   6   7
ENDBRANCH   5   6
ENDBRANCH   4   5
ENDBRANCH   3   4
ENDBRANCH   2   3
ENDBRANCH   1   2
BRANCH   1  18
ATOM     18  C   UNL     1       1.178  -3.022   7.318  1.00  0.00     0.000 C 
BRANCH  18  19
ATOM     19  C   UNL     1       0.437  -3.747   6.186  1.00  0.00     0.000 C 
BRANCH  19  20
ATOM     20  C   UNL     1      -0.434  -4.909   6.692  1.00  0.00     0.000 C 
BRANCH  20  21
ATOM     21  C   UNL     1      -0.070  -6.291   6.115  1.00  0.00     0.000 C 
BRANCH  21  22
ATOM     22  C   UNL     1       1.396  -6.703   6.369  1.00  0.00     0.000 C 
BRANCH  22  23
ATOM     23  C   UNL     1       2.178  -6.947   5.068  1.00  0.00     0.000 C 
BRANCH  23  24
ATOM     24  C   UNL     1       1.740  -8.224   4.329  1.00  0.00    -0.000 C 
BRANCH  24  25
ATOM     25  C   UNL     1       2.745  -9.395   4.423  1.00  0.00    -0.000 C 
BRANCH  25  26
ATOM     26  C   UNL     1       3.501  -9.727   3.118  1.00  0.00    -0.000 C 
BRANCH  26  27
ATOM     27  C   UNL     1       5.022  -9.463   3.129  1.00  0.00    -0.000 C 
BRANCH  27  28
ATOM     28  C   UNL     1       5.549  -8.706   4.361  1.00  0.00    -0.000 C 
BRANCH  28  29
ATOM     29  C   UNL     1       6.301  -7.420   3.991  1.00  0.00    -0.000 C 
BRANCH  29  30
ATOM     30  C   UNL     1       5.868  -6.254   4.889  1.00  0.00    -0.000 C 
BRANCH  30  31
ATOM     31  C   UNL     1       6.450  -4.927   4.391  1.00  0.00    -0.003 C 
ATOM     32  C   UNL     1       7.629  -5.160   3.449  1.00  0.00     0.004 C 
ENDBRANCH  30  31
ENDBRANCH  29  30
ENDBRANCH  28  29
ENDBRANCH  27  28
ENDBRANCH  26  27
ENDBRANCH  25  26
ENDBRANCH  24  25
ENDBRANCH  23  24
ENDBRANCH  22  23
ENDBRANCH  21  22
ENDBRANCH  20  21
ENDBRANCH  19  20
ENDBRANCH  18  19
ENDBRANCH   1  18
TORSDOF 28
ENDMDL
MODEL 6
REMARK VINA RESULT:    -3.836      2.329      4.469
REMARK INTER + INTRA:         -14.386
REMARK INTER:                  -9.914
REMARK INTRA:                  -4.472
REMARK UNBOUND:                -4.270
REMARK SMILES CCCCCCCCCCCCCCCCCCCCCCCCCCCCCC(=O)[O-]
REMARK SMILES IDX 16 1 17 2 18 3 19 4 20 5 21 6 22 7 23 8 24 9 25 10 26 11
REMARK SMILES IDX 27 12 28 13 29 14 30 15 31 16 32 17 15 18 14 19 13 20 12 21
REMARK SMILES IDX 11 22 10 23 9 24 8 25 7 26 6 27 5 28 4 29 3 30 2 31 1 32
REMARK H PARENT
REMARK Flexibility Score: inf
ROOT
ATOM      1  C   UNL     1       5.547  -3.533   4.903  1.00  0.00     0.000 C 
ENDROOT
BRANCH   1   2
ATOM      2  C   UNL     1       7.072  -3.700   4.890  1.00  0.00     0.000 C 
BRANCH   2   3
ATOM      3  C   UNL     1       7.506  -4.756   3.863  1.00  0.00     0.000 C 
BRANCH   3   4
ATOM      4  C   UNL     1       7.393  -6.199   4.391  1.00  0.00     0.000 C 
BRANCH   4   5
ATOM      5  C   UNL     1       6.422  -7.108   3.612  1.00  0.00     0.000 C 
BRANCH   5   6
ATOM      6  C   UNL     1       5.500  -7.929   4.526  1.00  0.00     0.000 C 
BRANCH   6   7
ATOM      7  C   UNL     1       4.194  -7.174   4.809  1.00  0.00     0.000 C 
BRANCH   7   8
ATOM      8  C   UNL     1       4.189  -6.590   6.229  1.00  0.00     0.000 C 
BRANCH   8   9
ATOM      9  C   UNL     1       3.006  -5.638   6.481  1.00  0.00     0.000 C 
BRANCH   9  10
ATOM     10  C   UNL     1       1.628  -6.321   6.547  1.00  0.00     0.000 C 
BRANCH  10  11
ATOM     11  C   UNL     1       0.561  -5.595   5.716  1.00  0.00     0.000 C 
BRANCH  11  12
ATOM     12  C   UNL     1       0.786  -4.076   5.747  1.00  0.00     0.000 C 
BRANCH  12  13
ATOM     13  C   UNL     1      -0.225  -3.339   6.646  1.00  0.00     0.006 C 
BRANCH  13  14
ATOM     14  C   UNL     1      -1.478  -4.160   6.993  1.00  0.00     0.053 C 
BRANCH  14  15
ATOM     15  C   UNL     1      -2.694  -3.677   6.262  1.00  0.00     0.041 C 
ATOM     16  O   UNL     1      -3.409  -4.486   5.616  1.00  0.00    -0.550 OA
ATOM     17  O   UNL     1      -3.032  -2.329   6.290  1.00  0.00    -0.550 OA
ENDBRANCH  14  15
ENDBRANCH  13  14
ENDBRANCH  12  13
ENDBRANCH  11  12
ENDBRANCH  10  11
ENDBRANCH   9  10
ENDBRANCH   8   9
ENDBRANCH   7   8
ENDBRANCH   6   7
ENDBRANCH   5   6
ENDBRANCH   4   5
ENDBRANCH   3   4
ENDBRANCH   2   3
ENDBRANCH   1   2
BRANCH   1  18
ATOM     18  C   UNL     1       5.140  -2.158   4.357  1.00  0.00     0.000 C 
BRANCH  18  19
ATOM     19  C   UNL     1       4.665  -1.233   5.486  1.00  0.00     0.000 C 
BRANCH  19  20
ATOM     20  C   UNL     1       3.708  -1.933   6.466  1.00  0.00     0.000 C 
BRANCH  20  21
ATOM     21  C   UNL     1       3.170  -1.037   7.598  1.00  0.00     0.000 C 
BRANCH  21  22
ATOM     22  C   UNL     1       3.798   0.373   7.625  1.00  0.00     0.000 C 
BRANCH  22  23
ATOM     23  C   UNL     1       2.781   1.483   7.314  1.00  0.00     0.000 C 
BRANCH  23  24
ATOM     24  C   UNL     1       3.040   2.182   5.967  1.00  0.00    -0.000 C 
BRANCH  24  25
ATOM     25  C   UNL     1       3.586   3.622   6.087  1.00  0.00    -0.000 C 
BRANCH  25  26
ATOM     26  C   UNL     1       5.115   3.739   6.267  1.00  0.00    -0.000 C 
BRANCH  26  27
ATOM     27  C   UNL     1       5.979   2.897   5.305  1.00  0.00    -0.000 C 
BRANCH  27  28
ATOM     28  C   UNL     1       6.922   1.887   5.982  1.00  0.00    -0.000 C 
BRANCH  28  29
ATOM     29  C   UNL     1       7.655   0.990   4.974  1.00  0.00    -0.000 C 
BRANCH  29  30
ATOM     30  C   UNL     1       8.193  -0.274   5.656  1.00  0.00    -0.000 C 
BRANCH  30  31
ATOM     31  C   UNL     1       8.116  -0.155   7.182  1.00  0.00    -0.003 C 
ATOM     32  C   UNL     1       7.393  -1.353   7.793  1.00  0.00     0.004 C 
ENDBRANCH  30  31
ENDBRANCH  29  30
ENDBRANCH  28  29
ENDBRANCH  27  28
ENDBRANCH  26  27
ENDBRANCH  25  26
ENDBRANCH  24  25
ENDBRANCH  23  24
ENDBRANCH  22  23
ENDBRANCH  21  22
ENDBRANCH  20  21
ENDBRANCH  19  20
ENDBRANCH  18  19
ENDBRANCH   1  18
TORSDOF 28
ENDMDL
MODEL 7
REMARK VINA RESULT:    -3.813      3.564      9.127
REMARK INTER + INTRA:         -14.326
REMARK INTER:                  -9.708
REMARK INTRA:                  -4.618
REMARK UNBOUND:                -4.270
REMARK SMILES CCCCCCCCCCCCCCCCCCCCCCCCCCCCCC(=O)[O-]
REMARK SMILES IDX 16 1 17 2 18 3 19 4 20 5 21 6 22 7 23 8 24 9 25 10 26 11
REMARK SMILES IDX 27 12 28 13 29 14 30 15 31 16 32 17 15 18 14 19 13 20 12 21
REMARK SMILES IDX 11 22 10 23 9 24 8 25 7 26 6 27 5 28 4 29 3 30 2 31 1 32
REMARK H PARENT
REMARK Flexibility Score: inf
ROOT
ATOM      1  C   UNL     1      -0.587  -5.487   6.725  1.00  0.00     0.000 C 
ENDROOT
BRANCH   1   2
ATOM      2  C   UNL     1       0.003  -4.157   6.240  1.00  0.00     0.000 C 
BRANCH   2   3
ATOM      3  C   UNL     1       0.568  -3.340   7.412  1.00  0.00     0.000 C 
BRANCH   3   4
ATOM      4  C   UNL     1       2.106  -3.249   7.404  1.00  0.00     0.000 C 
BRANCH   4   5
ATOM      5  C   UNL     1       2.779  -3.643   6.075  1.00  0.00     0.000 C 
BRANCH   5   6
ATOM      6  C   UNL     1       3.666  -4.891   6.194  1.00  0.00     0.000 C 
BRANCH   6   7
ATOM      7  C   UNL     1       4.975  -4.712   5.415  1.00  0.00     0.000 C 
BRANCH   7   8
ATOM      8  C   UNL     1       5.967  -3.835   6.194  1.00  0.00     0.000 C 
BRANCH   8   9
ATOM      9  C   UNL     1       6.594  -2.727   5.329  1.00  0.00     0.000 C 
BRANCH   9  10
ATOM     10  C   UNL     1       5.600  -1.679   4.799  1.00  0.00     0.000 C 
BRANCH  10  11
ATOM     11  C   UNL     1       5.526  -0.426   5.682  1.00  0.00     0.000 C 
BRANCH  11  12
ATOM     12  C   UNL     1       4.120  -0.261   6.279  1.00  0.00     0.000 C 
BRANCH  12  13
ATOM     13  C   UNL     1       3.975   1.016   7.128  1.00  0.00     0.006 C 
BRANCH  13  14
ATOM     14  C   UNL     1       2.852   1.958   6.667  1.00  0.00     0.053 C 
BRANCH  14  15
ATOM     15  C   UNL     1       3.163   2.616   5.357  1.00  0.00     0.041 C 
ATOM     16  O   UNL     1       2.288   2.680   4.454  1.00  0.00    -0.550 OA
ATOM     17  O   UNL     1       4.425   3.153   5.132  1.00  0.00    -0.550 OA
ENDBRANCH  14  15
ENDBRANCH  13  14
ENDBRANCH  12  13
ENDBRANCH  11  12
ENDBRANCH  10  11
ENDBRANCH   9  10
ENDBRANCH   8   9
ENDBRANCH   7   8
ENDBRANCH   6   7
ENDBRANCH   5   6
ENDBRANCH   4   5
ENDBRANCH   3   4
ENDBRANCH   2   3
ENDBRANCH   1   2
BRANCH   1  18
ATOM     18  C   UNL     1       0.385  -6.646   6.468  1.00  0.00     0.000 C 
BRANCH  18  19
ATOM     19  C   UNL     1       0.719  -6.768   4.975  1.00  0.00     0.000 C 
BRANCH  19  20
ATOM     20  C   UNL     1       2.067  -7.463   4.722  1.00  0.00     0.000 C 
BRANCH  20  21
ATOM     21  C   UNL     1       1.963  -8.902   4.182  1.00  0.00     0.000 C 
BRANCH  21  22
ATOM     22  C   UNL     1       3.247  -9.397   3.483  1.00  0.00     0.000 C 
BRANCH  22  23
ATOM     23  C   UNL     1       4.504  -8.639   3.942  1.00  0.00     0.000 C 
BRANCH  23  24
ATOM     24  C   UNL     1       5.230  -9.324   5.114  1.00  0.00    -0.000 C 
BRANCH  24  25
ATOM     25  C   UNL     1       5.395  -8.439   6.370  1.00  0.00    -0.000 C 
BRANCH  25  26
ATOM     26  C   UNL     1       6.675  -7.576   6.409  1.00  0.00    -0.000 C 
BRANCH  26  27
ATOM     27  C   UNL     1       8.012  -8.338   6.298  1.00  0.00    -0.000 C 
BRANCH  27  28
ATOM     28  C   UNL     1       9.181  -7.531   5.708  1.00  0.00    -0.000 C 
BRANCH  28  29
ATOM     29  C   UNL     1       8.805  -6.073   5.406  1.00  0.00    -0.000 C 
BRANCH  29  30
ATOM     30  C   UNL     1       9.331  -5.646   4.030  1.00  0.00    -0.000 C 
BRANCH  30  31
ATOM     31  C   UNL     1       8.190  -5.175   3.122  1.00  0.00    -0.003 C 
ATOM     32  C   UNL     1       7.171  -6.290   2.894  1.00  0.00     0.004 C 
ENDBRANCH  30  31
ENDBRANCH  29  30
ENDBRANCH  28  29
ENDBRANCH  27  28
ENDBRANCH  26  27
ENDBRANCH  25  26
ENDBRANCH  24  25
ENDBRANCH  23  24
ENDBRANCH  22  23
ENDBRANCH  21  22
ENDBRANCH  20  21
ENDBRANCH  19  20
ENDBRANCH  18  19
ENDBRANCH   1  18
TORSDOF 28
ENDMDL
MODEL 8
REMARK VINA RESULT:    -3.801      3.882      9.332
REMARK INTER + INTRA:         -14.294
REMARK INTER:                 -10.145
REMARK INTRA:                  -4.149
REMARK UNBOUND:                -4.270
REMARK SMILES CCCCCCCCCCCCCCCCCCCCCCCCCCCCCC(=O)[O-]
REMARK SMILES IDX 16 1 17 2 18 3 19 4 20 5 21 6 22 7 23 8 24 9 25 10 26 11
REMARK SMILES IDX 27 12 28 13 29 14 30 15 31 16 32 17 15 18 14 19 13 20 12 21
REMARK SMILES IDX 11 22 10 23 9 24 8 25 7 26 6 27 5 28 4 29 3 30 2 31 1 32
REMARK H PARENT
REMARK Flexibility Score: inf
ROOT
ATOM      1  C   UNL     1      -1.967  -5.804   7.510  1.00  0.00     0.000 C 
ENDROOT
BRANCH   1   2
ATOM      2  C   UNL     1      -2.307  -4.798   6.404  1.00  0.00     0.000 C 
BRANCH   2   3
ATOM      3  C   UNL     1      -1.653  -3.434   6.674  1.00  0.00     0.000 C 
BRANCH   3   4
ATOM      4  C   UNL     1      -0.155  -3.536   7.021  1.00  0.00     0.000 C 
BRANCH   4   5
ATOM      5  C   UNL     1       0.780  -3.785   5.822  1.00  0.00     0.000 C 
BRANCH   5   6
ATOM      6  C   UNL     1       2.268  -3.743   6.199  1.00  0.00     0.000 C 
BRANCH   6   7
ATOM      7  C   UNL     1       2.566  -2.561   7.130  1.00  0.00     0.000 C 
BRANCH   7   8
ATOM      8  C   UNL     1       3.831  -1.811   6.687  1.00  0.00     0.000 C 
BRANCH   8   9
ATOM      9  C   UNL     1       4.060  -1.869   5.166  1.00  0.00     0.000 C 
BRANCH   9  10
ATOM     10  C   UNL     1       5.511  -1.618   4.720  1.00  0.00     0.000 C 
BRANCH  10  11
ATOM     11  C   UNL     1       6.344  -0.887   5.781  1.00  0.00     0.000 C 
BRANCH  11  12
ATOM     12  C   UNL     1       6.662   0.547   5.331  1.00  0.00     0.000 C 
BRANCH  12  13
ATOM     13  C   UNL     1       5.675   1.585   5.898  1.00  0.00     0.006 C 
BRANCH  13  14
ATOM     14  C   UNL     1       6.003   3.040   5.524  1.00  0.00     0.053 C 
BRANCH  14  15
ATOM     15  C   UNL     1       4.789   3.801   5.083  1.00  0.00     0.041 C 
ATOM     16  O   UNL     1       4.913   4.894   4.470  1.00  0.00    -0.550 OA
ATOM     17  O   UNL     1       3.521   3.306   5.358  1.00  0.00    -0.550 OA
ENDBRANCH  14  15
ENDBRANCH  13  14
ENDBRANCH  12  13
ENDBRANCH  11  12
ENDBRANCH  10  11
ENDBRANCH   9  10
ENDBRANCH   8   9
ENDBRANCH   7   8
ENDBRANCH   6   7
ENDBRANCH   5   6
ENDBRANCH   4   5
ENDBRANCH   3   4
ENDBRANCH   2   3
ENDBRANCH   1   2
BRANCH   1  18
ATOM     18  C   UNL     1      -1.586  -7.166   6.917  1.00  0.00     0.000 C 
BRANCH  18  19
ATOM     19  C   UNL     1      -1.033  -7.014   5.493  1.00  0.00     0.000 C 
BRANCH  19  20
ATOM     20  C   UNL     1       0.477  -7.289   5.408  1.00  0.00     0.000 C 
BRANCH  20  21
ATOM     21  C   UNL     1       0.877  -8.419   4.439  1.00  0.00     0.000 C 
BRANCH  21  22
ATOM     22  C   UNL     1       2.382  -8.440   4.098  1.00  0.00     0.000 C 
BRANCH  22  23
ATOM     23  C   UNL     1       3.150  -7.264   4.723  1.00  0.00     0.000 C 
BRANCH  23  24
ATOM     24  C   UNL     1       4.204  -7.707   5.753  1.00  0.00    -0.000 C 
BRANCH  24  25
ATOM     25  C   UNL     1       4.600  -6.616   6.773  1.00  0.00    -0.000 C 
BRANCH  25  26
ATOM     26  C   UNL     1       5.300  -5.374   6.178  1.00  0.00    -0.000 C 
BRANCH  26  27
ATOM     27  C   UNL     1       6.361  -4.699   7.073  1.00  0.00    -0.000 C 
BRANCH  27  28
ATOM     28  C   UNL     1       7.601  -4.167   6.333  1.00  0.00    -0.000 C 
BRANCH  28  29
ATOM     29  C   UNL     1       8.119  -5.140   5.265  1.00  0.00    -0.000 C 
BRANCH  29  30
ATOM     30  C   UNL     1       8.043  -4.512   3.868  1.00  0.00    -0.000 C 
BRANCH  30  31
ATOM     31  C   UNL     1       7.868  -5.585   2.788  1.00  0.00    -0.003 C 
ATOM     32  C   UNL     1       6.877  -6.659   3.233  1.00  0.00     0.004 C 
ENDBRANCH  30  31
ENDBRANCH  29  30
ENDBRANCH  28  29
ENDBRANCH  27  28
ENDBRANCH  26  27
ENDBRANCH  25  26
ENDBRANCH  24  25
ENDBRANCH  23  24
ENDBRANCH  22  23
ENDBRANCH  21  22
ENDBRANCH  20  21
ENDBRANCH  19  20
ENDBRANCH  18  19
ENDBRANCH   1  18
TORSDOF 28
ENDMDL
MODEL 9
REMARK VINA RESULT:    -3.778      4.384      8.371
REMARK INTER + INTRA:         -14.233
REMARK INTER:                  -9.872
REMARK INTRA:                  -4.362
REMARK UNBOUND:                -4.270
REMARK SMILES CCCCCCCCCCCCCCCCCCCCCCCCCCCCCC(=O)[O-]
REMARK SMILES IDX 16 1 17 2 18 3 19 4 20 5 21 6 22 7 23 8 24 9 25 10 26 11
REMARK SMILES IDX 27 12 28 13 29 14 30 15 31 16 32 17 15 18 14 19 13 20 12 21
REMARK SMILES IDX 11 22 10 23 9 24 8 25 7 26 6 27 5 28 4 29 3 30 2 31 1 32
REMARK H PARENT
REMARK Flexibility Score: inf
ROOT
ATOM      1  C   UNL     1      -1.054  -8.007   5.692  1.00  0.00     0.000 C 
ENDROOT
BRANCH   1   2
ATOM      2  C   UNL     1      -0.192  -8.272   4.452  1.00  0.00     0.000 C 
BRANCH   2   3
ATOM      3  C   UNL     1       0.580  -9.593   4.584  1.00  0.00     0.000 C 
BRANCH   3   4
ATOM      4  C   UNL     1       1.762  -9.707   3.602  1.00  0.00     0.000 C 
BRANCH   4   5
ATOM      5  C   UNL     1       3.118  -9.219   4.149  1.00  0.00     0.000 C 
BRANCH   5   6
ATOM      6  C   UNL     1       4.293  -9.528   3.210  1.00  0.00     0.000 C 
BRANCH   6   7
ATOM      7  C   UNL     1       5.490  -8.616   3.508  1.00  0.00     0.000 C 
BRANCH   7   8
ATOM      8  C   UNL     1       5.133  -7.564   4.569  1.00  0.00     0.000 C 
BRANCH   8   9
ATOM      9  C   UNL     1       6.140  -7.521   5.732  1.00  0.00     0.000 C 
BRANCH   9  10
ATOM     10  C   UNL     1       6.821  -6.159   5.949  1.00  0.00     0.000 C 
BRANCH  10  11
ATOM     11  C   UNL     1       7.258  -5.493   4.636  1.00  0.00     0.000 C 
BRANCH  11  12
ATOM     12  C   UNL     1       6.450  -4.213   4.379  1.00  0.00     0.000 C 
BRANCH  12  13
ATOM     13  C   UNL     1       5.261  -4.050   5.344  1.00  0.00     0.006 C 
BRANCH  13  14
ATOM     14  C   UNL     1       5.113  -2.638   5.933  1.00  0.00     0.053 C 
BRANCH  14  15
ATOM     15  C   UNL     1       4.983  -1.590   4.870  1.00  0.00     0.041 C 
ATOM     16  O   UNL     1       3.922  -1.494   4.198  1.00  0.00    -0.550 OA
ATOM     17  O   UNL     1       6.039  -0.723   4.615  1.00  0.00    -0.550 OA
ENDBRANCH  14  15
ENDBRANCH  13  14
ENDBRANCH  12  13
ENDBRANCH  11  12
ENDBRANCH  10  11
ENDBRANCH   9  10
ENDBRANCH   8   9
ENDBRANCH   7   8
ENDBRANCH   6   7
ENDBRANCH   5   6
ENDBRANCH   4   5
ENDBRANCH   3   4
ENDBRANCH   2   3
ENDBRANCH   1   2
BRANCH   1  18
ATOM     18  C   UNL     1      -0.383  -8.562   6.956  1.00  0.00     0.000 C 
BRANCH  18  19
ATOM     19  C   UNL     1       0.404  -7.467   7.691  1.00  0.00     0.000 C 
BRANCH  19  20
ATOM     20  C   UNL     1       1.910  -7.512   7.386  1.00  0.00     0.000 C 
BRANCH  20  21
ATOM     21  C   UNL     1       2.511  -6.183   6.887  1.00  0.00     0.000 C 
BRANCH  21  22
ATOM     22  C   UNL     1       1.982  -5.744   5.505  1.00  0.00     0.000 C 
BRANCH  22  23
ATOM     23  C   UNL     1       1.401  -4.320   5.516  1.00  0.00     0.000 C 
BRANCH  23  24
ATOM     24  C   UNL     1       0.985  -3.847   6.920  1.00  0.00    -0.000 C 
BRANCH  24  25
ATOM     25  C   UNL     1      -0.472  -3.343   7.021  1.00  0.00    -0.000 C 
BRANCH  25  26
ATOM     26  C   UNL     1      -1.554  -4.351   6.576  1.00  0.00    -0.000 C 
BRANCH  26  27
ATOM     27  C   UNL     1      -3.018  -3.886   6.728  1.00  0.00    -0.000 C 
BRANCH  27  28
ATOM     28  C   UNL     1      -3.380  -2.596   5.972  1.00  0.00    -0.000 C 
BRANCH  28  29
ATOM     29  C   UNL     1      -3.983  -1.520   6.887  1.00  0.00    -0.000 C 
BRANCH  29  30
ATOM     30  C   UNL     1      -5.003  -2.133   7.855  1.00  0.00    -0.000 C 
BRANCH  30  31
ATOM     31  C   UNL     1      -6.380  -2.267   7.195  1.00  0.00    -0.003 C 
ATOM     32  C   UNL     1      -7.250  -3.280   7.935  1.00  0.00     0.004 C 
ENDBRANCH  30  31
ENDBRANCH  29  30
ENDBRANCH  28  29
ENDBRANCH  27  28
ENDBRANCH  26  27
ENDBRANCH  25  26
ENDBRANCH  24  25
ENDBRANCH  23  24
ENDBRANCH  22  23
ENDBRANCH  21  22
ENDBRANCH  20  21
ENDBRANCH  19  20
ENDBRANCH  18  19
ENDBRANCH   1  18
TORSDOF 28
ENDMDL
