MODEL 1
REMARK VINA RESULT:    -4.228      0.000      0.000
REMARK INTER + INTRA:          -7.994
REMARK INTER:                  -6.700
REMARK INTRA:                  -1.293
REMARK UNBOUND:                -1.293
REMARK SMILES CCCCCCCCCCCC(=O)[O-]
REMARK SMILES IDX 7 1 8 2 9 3 10 4 11 5 12 6 13 7 14 8 6 9 5 10 4 11 3 12 2 13
REMARK SMILES IDX 1 14
REMARK H PARENT
REMARK Flexibility Score: inf
ROOT
ATOM      1  C   UNL     1       7.896  78.589  31.257  1.00  0.00     0.000 C 
ENDROOT
BRANCH   1   2
ATOM      2  C   UNL     1       7.776  79.490  32.496  1.00  0.00     0.000 C 
BRANCH   2   3
ATOM      3  C   UNL     1       8.864  80.574  32.490  1.00  0.00     0.000 C 
BRANCH   3   4
ATOM      4  C   UNL     1       9.660  80.621  33.804  1.00  0.00     0.006 C 
BRANCH   4   5
ATOM      5  C   UNL     1       9.114  79.652  34.860  1.00  0.00     0.053 C 
BRANCH   5   6
ATOM      6  C   UNL     1      10.230  78.875  35.483  1.00  0.00     0.041 C 
ATOM      7  O   UNL     1      10.081  77.654  35.751  1.00  0.00    -0.550 OA
ATOM      8  O   UNL     1      11.420  79.511  35.816  1.00  0.00    -0.550 OA
ENDBRANCH   5   6
ENDBRANCH   4   5
ENDBRANCH   3   4
ENDBRANCH   2   3
ENDBRANCH   1   2
BRANCH   1   9
ATOM      9  C   UNL     1       7.945  77.095  31.615  1.00  0.00     0.000 C 
BRANCH   9  10
ATOM     10  C   UNL     1       9.346  76.487  31.423  1.00  0.00    -0.000 C 
BRANCH  10  11
ATOM     11  C   UNL     1      10.437  77.257  32.184  1.00  0.00    -0.000 C 
BRANCH  11  12
ATOM     12  C   UNL     1      11.655  77.580  31.301  1.00  0.00    -0.000 C 
BRANCH  12  13
ATOM     13  C   UNL     1      11.440  78.832  30.437  1.00  0.00    -0.003 C 
ATOM     14  C   UNL     1      10.955  78.504  29.025  1.00  0.00     0.004 C 
ENDBRANCH  12  13
ENDBRANCH  11  12
ENDBRANCH  10  11
ENDBRANCH   9  10
ENDBRANCH   1   9
TORSDOF 10
ENDMDL
MODEL 2
REMARK VINA RESULT:    -4.225      2.834      4.928
REMARK INTER + INTRA:          -7.988
REMARK INTER:                  -6.918
REMARK INTRA:                  -1.070
REMARK UNBOUND:                -1.293
REMARK SMILES CCCCCCCCCCCC(=O)[O-]
REMARK SMILES IDX 7 1 8 2 9 3 10 4 11 5 12 6 13 7 14 8 6 9 5 10 4 11 3 12 2 13
REMARK SMILES IDX 1 14
REMARK H PARENT
REMARK Flexibility Score: inf
ROOT
ATOM      1  C   UNL     1       8.342  79.364  32.061  1.00  0.00     0.000 C 
ENDROOT
BRANCH   1   2
ATOM      2  C   UNL     1       7.960  77.974  31.527  1.00  0.00     0.000 C 
BRANCH   2   3
ATOM      3  C   UNL     1       9.211  77.109  31.310  1.00  0.00     0.000 C 
BRANCH   3   4
ATOM      4  C   UNL     1      10.507  77.831  31.711  1.00  0.00     0.006 C 
BRANCH   4   5
ATOM      5  C   UNL     1      11.449  78.057  30.522  1.00  0.00     0.053 C 
BRANCH   5   6
ATOM      6  C   UNL     1      10.664  78.290  29.271  1.00  0.00     0.041 C 
ATOM      7  O   UNL     1      10.543  77.371  28.418  1.00  0.00    -0.550 OA
ATOM      8  O   UNL     1      10.108  79.538  29.020  1.00  0.00    -0.550 OA
ENDBRANCH   5   6
ENDBRANCH   4   5
ENDBRANCH   3   4
ENDBRANCH   2   3
ENDBRANCH   1   2
BRANCH   1   9
ATOM      9  C   UNL     1       7.515  79.771  33.292  1.00  0.00     0.000 C 
BRANCH   9  10
ATOM     10  C   UNL     1       8.395  80.201  34.479  1.00  0.00    -0.000 C 
BRANCH  10  11
ATOM     11  C   UNL     1       9.791  80.675  34.043  1.00  0.00    -0.000 C 
BRANCH  11  12
ATOM     12  C   UNL     1      10.919  80.007  34.848  1.00  0.00    -0.000 C 
BRANCH  12  13
ATOM     13  C   UNL     1      10.530  78.610  35.358  1.00  0.00    -0.003 C 
ATOM     14  C   UNL     1      11.735  77.786  35.811  1.00  0.00     0.004 C 
ENDBRANCH  12  13
ENDBRANCH  11  12
ENDBRANCH  10  11
ENDBRANCH   9  10
ENDBRANCH   1   9
TORSDOF 10
ENDMDL
MODEL 3
REMARK VINA RESULT:    -4.146     12.665     14.407
REMARK INTER + INTRA:          -7.863
REMARK INTER:                  -6.823
REMARK INTRA:                  -1.040
REMARK UNBOUND:                -1.293
REMARK SMILES CCCCCCCCCCCC(=O)[O-]
REMARK SMILES IDX 7 1 8 2 9 3 10 4 11 5 12 6 13 7 14 8 6 9 5 10 4 11 3 12 2 13
REMARK SMILES IDX 1 14
REMARK H PARENT
REMARK Flexibility Score: inf
ROOT
ATOM      1  C   UNL     1      20.599  68.189  34.827  1.00  0.00     0.000 C 
ENDROOT
BRANCH   1   2
ATOM      2  C   UNL     1      20.628  69.702  35.097  1.00  0.00     0.000 C 
BRANCH   2   3
ATOM      3  C   UNL     1      19.556  70.095  36.125  1.00  0.00     0.000 C 
BRANCH   3   4
ATOM      4  C   UNL     1      18.359  70.817  35.486  1.00  0.00     0.006 C 
BRANCH   4   5
ATOM      5  C   UNL     1      17.273  69.848  35.005  1.00  0.00     0.053 C 
BRANCH   5   6
ATOM      6  C   UNL     1      17.268  69.770  33.511  1.00  0.00     0.041 C 
ATOM      7  O   UNL     1      17.979  70.556  32.833  1.00  0.00    -0.550 OA
ATOM      8  O   UNL     1      16.438  68.862  32.865  1.00  0.00    -0.550 OA
ENDBRANCH   5   6
ENDBRANCH   4   5
ENDBRANCH   3   4
ENDBRANCH   2   3
ENDBRANCH   1   2
BRANCH   1   9
ATOM      9  C   UNL     1      20.010  67.391  36.001  1.00  0.00     0.000 C 
BRANCH   9  10
ATOM     10  C   UNL     1      20.240  65.875  35.860  1.00  0.00    -0.000 C 
BRANCH  10  11
ATOM     11  C   UNL     1      18.945  65.105  35.557  1.00  0.00    -0.000 C 
BRANCH  11  12
ATOM     12  C   UNL     1      18.001  65.882  34.623  1.00  0.00    -0.000 C 
BRANCH  12  13
ATOM     13  C   UNL     1      18.213  65.525  33.143  1.00  0.00    -0.003 C 
ATOM     14  C   UNL     1      18.947  66.619  32.368  1.00  0.00     0.004 C 
ENDBRANCH  12  13
ENDBRANCH  11  12
ENDBRANCH  10  11
ENDBRANCH   9  10
ENDBRANCH   1   9
TORSDOF 10
ENDMDL
MODEL 4
REMARK VINA RESULT:    -4.051     16.824     18.146
REMARK INTER + INTRA:          -7.712
REMARK INTER:                  -7.089
REMARK INTRA:                  -0.623
REMARK UNBOUND:                -1.293
REMARK SMILES CCCCCCCCCCCC(=O)[O-]
REMARK SMILES IDX 7 1 8 2 9 3 10 4 11 5 12 6 13 7 14 8 6 9 5 10 4 11 3 12 2 13
REMARK SMILES IDX 1 14
REMARK H PARENT
REMARK Flexibility Score: inf
ROOT
ATOM      1  C   UNL     1      20.610  75.226  20.169  1.00  0.00     0.000 C 
ENDROOT
BRANCH   1   2
ATOM      2  C   UNL     1      21.114  76.411  19.330  1.00  0.00     0.000 C 
BRANCH   2   3
ATOM      3  C   UNL     1      20.723  76.242  17.854  1.00  0.00     0.000 C 
BRANCH   3   4
ATOM      4  C   UNL     1      19.981  77.466  17.295  1.00  0.00     0.006 C 
BRANCH   4   5
ATOM      5  C   UNL     1      19.883  78.612  18.310  1.00  0.00     0.053 C 
BRANCH   5   6
ATOM      6  C   UNL     1      20.331  79.898  17.690  1.00  0.00     0.041 C 
ATOM      7  O   UNL     1      20.286  80.050  16.442  1.00  0.00    -0.550 OA
ATOM      8  O   UNL     1      20.848  80.911  18.488  1.00  0.00    -0.550 OA
ENDBRANCH   5   6
ENDBRANCH   4   5
ENDBRANCH   3   4
ENDBRANCH   2   3
ENDBRANCH   1   2
BRANCH   1   9
ATOM      9  C   UNL     1      19.845  74.190  19.329  1.00  0.00     0.000 C 
BRANCH   9  10
ATOM     10  C   UNL     1      18.759  73.458  20.138  1.00  0.00    -0.000 C 
BRANCH  10  11
ATOM     11  C   UNL     1      17.877  72.553  19.263  1.00  0.00    -0.000 C 
BRANCH  11  12
ATOM     12  C   UNL     1      18.694  71.737  18.247  1.00  0.00    -0.000 C 
BRANCH  12  13
ATOM     13  C   UNL     1      18.850  70.266  18.663  1.00  0.00    -0.003 C 
ATOM     14  C   UNL     1      17.615  69.716  19.376  1.00  0.00     0.004 C 
ENDBRANCH  12  13
ENDBRANCH  11  12
ENDBRANCH  10  11
ENDBRANCH   9  10
ENDBRANCH   1   9
TORSDOF 10
ENDMDL
MODEL 5
REMARK VINA RESULT:    -4.047     16.670     17.935
REMARK INTER + INTRA:          -7.706
REMARK INTER:                  -7.205
REMARK INTRA:                  -0.501
REMARK UNBOUND:                -1.293
REMARK SMILES CCCCCCCCCCCC(=O)[O-]
REMARK SMILES IDX 7 1 8 2 9 3 10 4 11 5 12 6 13 7 14 8 6 9 5 10 4 11 3 12 2 13
REMARK SMILES IDX 1 14
REMARK H PARENT
REMARK Flexibility Score: inf
ROOT
ATOM      1  C   UNL     1      18.943  73.444  19.637  1.00  0.00     0.000 C 
ENDROOT
BRANCH   1   2
ATOM      2  C   UNL     1      19.112  73.158  18.137  1.00  0.00     0.000 C 
BRANCH   2   3
ATOM      3  C   UNL     1      18.423  71.841  17.750  1.00  0.00     0.000 C 
BRANCH   3   4
ATOM      4  C   UNL     1      18.867  70.661  18.629  1.00  0.00     0.006 C 
BRANCH   4   5
ATOM      5  C   UNL     1      17.983  69.421  18.444  1.00  0.00     0.053 C 
BRANCH   5   6
ATOM      6  C   UNL     1      17.026  69.287  19.585  1.00  0.00     0.041 C 
ATOM      7  O   UNL     1      15.993  68.577  19.466  1.00  0.00    -0.550 OA
ATOM      8  O   UNL     1      17.247  69.985  20.765  1.00  0.00    -0.550 OA
ENDBRANCH   5   6
ENDBRANCH   4   5
ENDBRANCH   3   4
ENDBRANCH   2   3
ENDBRANCH   1   2
BRANCH   1   9
ATOM      9  C   UNL     1      19.927  74.508  20.151  1.00  0.00     0.000 C 
BRANCH   9  10
ATOM     10  C   UNL     1      20.152  75.644  19.138  1.00  0.00    -0.000 C 
BRANCH  10  11
ATOM     11  C   UNL     1      19.115  76.771  19.270  1.00  0.00    -0.000 C 
BRANCH  11  12
ATOM     12  C   UNL     1      19.229  77.814  18.144  1.00  0.00    -0.000 C 
BRANCH  12  13
ATOM     13  C   UNL     1      20.561  78.579  18.184  1.00  0.00    -0.003 C 
ATOM     14  C   UNL     1      20.383  80.090  18.041  1.00  0.00     0.004 C 
ENDBRANCH  12  13
ENDBRANCH  11  12
ENDBRANCH  10  11
ENDBRANCH   9  10
ENDBRANCH   1   9
TORSDOF 10
ENDMDL
MODEL 6
REMARK VINA RESULT:    -4.041      2.870      5.135
REMARK INTER + INTRA:          -7.696
REMARK INTER:                  -6.352
REMARK INTRA:                  -1.345
REMARK UNBOUND:                -1.293
REMARK SMILES CCCCCCCCCCCC(=O)[O-]
REMARK SMILES IDX 7 1 8 2 9 3 10 4 11 5 12 6 13 7 14 8 6 9 5 10 4 11 3 12 2 13
REMARK SMILES IDX 1 14
REMARK H PARENT
REMARK Flexibility Score: inf
ROOT
ATOM      1  C   UNL     1      11.098  77.563  33.995  1.00  0.00     0.000 C 
ENDROOT
BRANCH   1   2
ATOM      2  C   UNL     1       9.909  77.281  33.063  1.00  0.00     0.000 C 
BRANCH   2   3
ATOM      3  C   UNL     1      10.391  76.975  31.637  1.00  0.00     0.000 C 
BRANCH   3   4
ATOM      4  C   UNL     1      11.646  77.774  31.252  1.00  0.00     0.006 C 
BRANCH   4   5
ATOM      5  C   UNL     1      11.318  79.032  30.439  1.00  0.00     0.053 C 
BRANCH   5   6
ATOM      6  C   UNL     1      10.439  78.689  29.278  1.00  0.00     0.041 C 
ATOM      7  O   UNL     1       9.252  79.105  29.236  1.00  0.00    -0.550 OA
ATOM      8  O   UNL     1      10.915  77.866  28.265  1.00  0.00    -0.550 OA
ENDBRANCH   5   6
ENDBRANCH   4   5
ENDBRANCH   3   4
ENDBRANCH   2   3
ENDBRANCH   1   2
BRANCH   1   9
ATOM      9  C   UNL     1      10.674  78.244  35.305  1.00  0.00     0.000 C 
BRANCH   9  10
ATOM     10  C   UNL     1      11.258  79.661  35.451  1.00  0.00    -0.000 C 
BRANCH  10  11
ATOM     11  C   UNL     1      10.298  80.753  34.953  1.00  0.00    -0.000 C 
BRANCH  11  12
ATOM     12  C   UNL     1      10.405  80.985  33.435  1.00  0.00    -0.000 C 
BRANCH  12  13
ATOM     13  C   UNL     1       9.045  80.886  32.727  1.00  0.00    -0.003 C 
ATOM     14  C   UNL     1       7.989  80.168  33.567  1.00  0.00     0.004 C 
ENDBRANCH  12  13
ENDBRANCH  11  12
ENDBRANCH  10  11
ENDBRANCH   9  10
ENDBRANCH   1   9
TORSDOF 10
ENDMDL
MODEL 7
REMARK VINA RESULT:    -4.013     17.015     18.165
REMARK INTER + INTRA:          -7.653
REMARK INTER:                  -7.321
REMARK INTRA:                  -0.332
REMARK UNBOUND:                -1.293
REMARK SMILES CCCCCCCCCCCC(=O)[O-]
REMARK SMILES IDX 7 1 8 2 9 3 10 4 11 5 12 6 13 7 14 8 6 9 5 10 4 11 3 12 2 13
REMARK SMILES IDX 1 14
REMARK H PARENT
REMARK Flexibility Score: inf
ROOT
ATOM      1  C   UNL     1      19.683  73.985  19.795  1.00  0.00     0.000 C 
ENDROOT
BRANCH   1   2
ATOM      2  C   UNL     1      18.467  73.076  19.556  1.00  0.00     0.000 C 
BRANCH   2   3
ATOM      3  C   UNL     1      18.741  72.083  18.417  1.00  0.00     0.000 C 
BRANCH   3   4
ATOM      4  C   UNL     1      18.980  70.652  18.924  1.00  0.00     0.006 C 
BRANCH   4   5
ATOM      5  C   UNL     1      18.109  69.617  18.202  1.00  0.00     0.053 C 
BRANCH   5   6
ATOM      6  C   UNL     1      16.875  69.327  18.996  1.00  0.00     0.041 C 
ATOM      7  O   UNL     1      16.962  69.021  20.214  1.00  0.00    -0.550 OA
ATOM      8  O   UNL     1      15.631  69.344  18.379  1.00  0.00    -0.550 OA
ENDBRANCH   5   6
ENDBRANCH   4   5
ENDBRANCH   3   4
ENDBRANCH   2   3
ENDBRANCH   1   2
BRANCH   1   9
ATOM      9  C   UNL     1      19.497  75.389  19.197  1.00  0.00     0.000 C 
BRANCH   9  10
ATOM     10  C   UNL     1      20.762  76.258  19.325  1.00  0.00    -0.000 C 
BRANCH  10  11
ATOM     11  C   UNL     1      20.907  77.267  18.175  1.00  0.00    -0.000 C 
BRANCH  11  12
ATOM     12  C   UNL     1      19.680  78.187  18.039  1.00  0.00    -0.000 C 
BRANCH  12  13
ATOM     13  C   UNL     1      20.008  79.501  17.313  1.00  0.00    -0.003 C 
ATOM     14  C   UNL     1      20.677  80.532  18.222  1.00  0.00     0.004 C 
ENDBRANCH  12  13
ENDBRANCH  11  12
ENDBRANCH  10  11
ENDBRANCH   9  10
ENDBRANCH   1   9
TORSDOF 10
ENDMDL
MODEL 8
REMARK VINA RESULT:    -3.979     17.206     18.299
REMARK INTER + INTRA:          -7.599
REMARK INTER:                  -6.519
REMARK INTRA:                  -1.080
REMARK UNBOUND:                -1.293
REMARK SMILES CCCCCCCCCCCC(=O)[O-]
REMARK SMILES IDX 7 1 8 2 9 3 10 4 11 5 12 6 13 7 14 8 6 9 5 10 4 11 3 12 2 13
REMARK SMILES IDX 1 14
REMARK H PARENT
REMARK Flexibility Score: inf
ROOT
ATOM      1  C   UNL     1      18.710  74.106  18.909  1.00  0.00     0.000 C 
ENDROOT
BRANCH   1   2
ATOM      2  C   UNL     1      19.571  73.980  20.175  1.00  0.00     0.000 C 
BRANCH   2   3
ATOM      3  C   UNL     1      20.377  75.264  20.419  1.00  0.00     0.000 C 
BRANCH   3   4
ATOM      4  C   UNL     1      20.078  76.357  19.381  1.00  0.00     0.006 C 
BRANCH   4   5
ATOM      5  C   UNL     1      21.335  76.832  18.643  1.00  0.00     0.053 C 
BRANCH   5   6
ATOM      6  C   UNL     1      21.221  76.543  17.179  1.00  0.00     0.041 C 
ATOM      7  O   UNL     1      21.458  75.387  16.741  1.00  0.00    -0.550 OA
ATOM      8  O   UNL     1      20.903  77.563  16.292  1.00  0.00    -0.550 OA
ENDBRANCH   5   6
ENDBRANCH   4   5
ENDBRANCH   3   4
ENDBRANCH   2   3
ENDBRANCH   1   2
BRANCH   1   9
ATOM      9  C   UNL     1      19.053  73.043  17.853  1.00  0.00     0.000 C 
BRANCH   9  10
ATOM     10  C   UNL     1      17.820  72.239  17.401  1.00  0.00    -0.000 C 
BRANCH  10  11
ATOM     11  C   UNL     1      17.999  70.724  17.586  1.00  0.00    -0.000 C 
BRANCH  11  12
ATOM     12  C   UNL     1      18.760  70.373  18.877  1.00  0.00    -0.000 C 
BRANCH  12  13
ATOM     13  C   UNL     1      17.841  70.333  20.108  1.00  0.00    -0.003 C 
ATOM     14  C   UNL     1      18.581  70.636  21.411  1.00  0.00     0.004 C 
ENDBRANCH  12  13
ENDBRANCH  11  12
ENDBRANCH  10  11
ENDBRANCH   9  10
ENDBRANCH   1   9
TORSDOF 10
ENDMDL
MODEL 9
REMARK VINA RESULT:    -3.879     16.083     17.493
REMARK INTER + INTRA:          -7.440
REMARK INTER:                  -6.950
REMARK INTRA:                  -0.489
REMARK UNBOUND:                -1.293
REMARK SMILES CCCCCCCCCCCC(=O)[O-]
REMARK SMILES IDX 7 1 8 2 9 3 10 4 11 5 12 6 13 7 14 8 6 9 5 10 4 11 3 12 2 13
REMARK SMILES IDX 1 14
REMARK H PARENT
REMARK Flexibility Score: inf
ROOT
ATOM      1  C   UNL     1      18.540  72.131  18.485  1.00  0.00     0.000 C 
ENDROOT
BRANCH   1   2
ATOM      2  C   UNL     1      19.109  70.763  18.893  1.00  0.00     0.000 C 
BRANCH   2   3
ATOM      3  C   UNL     1      18.244  69.622  18.334  1.00  0.00     0.000 C 
BRANCH   3   4
ATOM      4  C   UNL     1      16.778  69.716  18.784  1.00  0.00     0.006 C 
BRANCH   4   5
ATOM      5  C   UNL     1      16.497  68.906  20.055  1.00  0.00     0.053 C 
BRANCH   5   6
ATOM      6  C   UNL     1      16.502  69.799  21.255  1.00  0.00     0.041 C 
ATOM      7  O   UNL     1      16.182  71.012  21.144  1.00  0.00    -0.550 OA
ATOM      8  O   UNL     1      16.910  69.307  22.488  1.00  0.00    -0.550 OA
ENDBRANCH   5   6
ENDBRANCH   4   5
ENDBRANCH   3   4
ENDBRANCH   2   3
ENDBRANCH   1   2
BRANCH   1   9
ATOM      9  C   UNL     1      18.939  73.251  19.459  1.00  0.00     0.000 C 
BRANCH   9  10
ATOM     10  C   UNL     1      19.847  74.308  18.804  1.00  0.00    -0.000 C 
BRANCH  10  11
ATOM     11  C   UNL     1      20.078  75.532  19.705  1.00  0.00    -0.000 C 
BRANCH  11  12
ATOM     12  C   UNL     1      19.445  76.813  19.134  1.00  0.00    -0.000 C 
BRANCH  12  13
ATOM     13  C   UNL     1      20.391  77.563  18.183  1.00  0.00    -0.003 C 
ATOM     14  C   UNL     1      20.210  79.080  18.239  1.00  0.00     0.004 C 
ENDBRANCH  12  13
ENDBRANCH  11  12
ENDBRANCH  10  11
ENDBRANCH   9  10
ENDBRANCH   1   9
TORSDOF 10
ENDMDL
