MODEL 1
REMARK VINA RESULT:    -5.901      0.000      0.000
REMARK INTER + INTRA:          -8.840
REMARK INTER:                  -8.661
REMARK INTRA:                  -0.179
REMARK UNBOUND:                -0.179
REMARK SMILES O=c1c(O[C@@H]2O[C@@H](CO)[C@@H](O)[C@H](O)[C@H]2O)c(-c2ccc(O)c(O)c2)oc2cc(O)cc(O)c12
REMARK SMILES IDX 4 1 3 2 16 3 25 4 2 5 26 6 1 7 33 8 27 9 31 10 28 11 30 12
REMARK SMILES IDX 17 13 18 14 19 15 20 16 24 17 22 18 21 19 23 21 32 23 29 25
REMARK SMILES IDX 5 27 14 28 6 29 12 30 7 31 10 32 15 33 13 35 8 37 9 38 11 40
REMARK H PARENT 21 20 23 22 32 24 29 26 15 34 13 36 9 39 11 41
REMARK Flexibility Score: inf
ROOT
ATOM      1  O   UNL     1      34.638  25.990  20.345  1.00  0.00    -0.454 OA
ENDROOT
BRANCH   1   2
ATOM      2  C   UNL     1      34.382  24.678  19.914  1.00  0.00     0.214 A 
ATOM      3  C   UNL     1      33.874  24.477  18.616  1.00  0.00     0.180 A 
ATOM      4  O   UNL     1      33.678  23.247  18.160  1.00  0.00    -0.452 OA
ATOM      5  C   UNL     1      34.617  23.548  20.720  1.00  0.00     0.239 A 
ATOM      6  C   UNL     1      33.900  22.155  18.880  1.00  0.00     0.146 A 
ATOM      7  O   UNL     1      35.021  23.695  21.900  1.00  0.00    -0.285 OA
ATOM      8  C   UNL     1      34.373  22.257  20.206  1.00  0.00     0.111 A 
ATOM      9  C   UNL     1      33.649  20.904  18.318  1.00  0.00     0.094 A 
ATOM     10  C   UNL     1      34.575  21.072  20.955  1.00  0.00     0.134 A 
ATOM     11  C   UNL     1      33.848  19.738  19.061  1.00  0.00     0.123 A 
ATOM     12  C   UNL     1      34.308  19.825  20.375  1.00  0.00     0.093 A 
BRANCH   3  13
ATOM     13  C   UNL     1      33.575  25.611  17.719  1.00  0.00     0.025 A 
ATOM     14  C   UNL     1      33.746  25.464  16.335  1.00  0.00     0.016 A 
ATOM     15  C   UNL     1      33.468  26.529  15.474  1.00  0.00     0.051 A 
ATOM     16  C   UNL     1      33.001  27.748  15.983  1.00  0.00     0.157 A 
ATOM     17  C   UNL     1      33.081  26.825  18.228  1.00  0.00     0.062 A 
ATOM     18  C   UNL     1      32.803  27.896  17.367  1.00  0.00     0.158 A 
BRANCH  16  19
ATOM     19  O   UNL     1      32.737  28.799  15.104  1.00  0.00    -0.504 OA
ATOM     20  H   UNL     1      32.026  28.722  14.385  1.00  0.00     0.293 HD
ENDBRANCH  16  19
BRANCH  18  21
ATOM     21  O   UNL     1      32.336  29.108  17.882  1.00  0.00    -0.504 OA
ATOM     22  H   UNL     1      32.548  29.392  18.833  1.00  0.00     0.293 HD
ENDBRANCH  18  21
ENDBRANCH   3  13
BRANCH  10  23
ATOM     23  O   UNL     1      35.038  21.122  22.270  1.00  0.00    -0.507 OA
ATOM     24  H   UNL     1      34.504  21.569  23.009  1.00  0.00     0.293 HD
ENDBRANCH  10  23
BRANCH  11  25
ATOM     25  O   UNL     1      33.589  18.487  18.509  1.00  0.00    -0.508 OA
ATOM     26  H   UNL     1      32.925  18.369  17.758  1.00  0.00     0.293 HD
ENDBRANCH  11  25
ENDBRANCH   1   2
BRANCH   1  27
ATOM     27  C   UNL     1      34.066  26.607  21.506  1.00  0.00     0.339 C 
ATOM     28  C   UNL     1      35.035  26.484  22.704  1.00  0.00     0.214 C 
ATOM     29  O   UNL     1      33.701  27.956  21.265  1.00  0.00    -0.332 OA
ATOM     30  C   UNL     1      36.230  27.466  22.609  1.00  0.00     0.180 C 
ATOM     31  C   UNL     1      34.822  28.747  20.914  1.00  0.00     0.179 C 
ATOM     32  C   UNL     1      35.802  28.867  22.107  1.00  0.00     0.177 C 
BRANCH  28  33
ATOM     33  O   UNL     1      34.349  26.658  23.924  1.00  0.00    -0.384 OA
ATOM     34  H   UNL     1      34.486  25.845  24.470  1.00  0.00     0.211 HD
ENDBRANCH  28  33
BRANCH  30  35
ATOM     35  O   UNL     1      37.268  26.933  21.822  1.00  0.00    -0.387 OA
ATOM     36  H   UNL     1      37.345  27.475  20.997  1.00  0.00     0.211 HD
ENDBRANCH  30  35
BRANCH  31  37
ATOM     37  C   UNL     1      34.313  30.125  20.459  1.00  0.00     0.191 C 
BRANCH  37  38
ATOM     38  O   UNL     1      32.922  30.125  20.291  1.00  0.00    -0.394 OA
ATOM     39  H   UNL     1      32.545  29.508  20.979  1.00  0.00     0.210 HD
ENDBRANCH  37  38
ENDBRANCH  31  37
BRANCH  32  40
ATOM     40  O   UNL     1      35.199  29.588  23.150  1.00  0.00    -0.387 OA
ATOM     41  H   UNL     1      34.548  28.972  23.584  1.00  0.00     0.211 HD
ENDBRANCH  32  40
ENDBRANCH   1  27
TORSDOF 12
ENDMDL
MODEL 2
REMARK VINA RESULT:    -5.416      1.580      4.860
REMARK INTER + INTRA:          -8.128
REMARK INTER:                  -6.941
REMARK INTRA:                  -1.187
REMARK UNBOUND:                -0.179
REMARK SMILES O=c1c(O[C@@H]2O[C@@H](CO)[C@@H](O)[C@H](O)[C@H]2O)c(-c2ccc(O)c(O)c2)oc2cc(O)cc(O)c12
REMARK SMILES IDX 4 1 3 2 16 3 25 4 2 5 26 6 1 7 33 8 27 9 31 10 28 11 30 12
REMARK SMILES IDX 17 13 18 14 19 15 20 16 24 17 22 18 21 19 23 21 32 23 29 25
REMARK SMILES IDX 5 27 14 28 6 29 12 30 7 31 10 32 15 33 13 35 8 37 9 38 11 40
REMARK H PARENT 21 20 23 22 32 24 29 26 15 34 13 36 9 39 11 41
REMARK Flexibility Score: inf
ROOT
ATOM      1  O   UNL     1      33.790  26.453  19.013  1.00  0.00    -0.454 OA
ENDROOT
BRANCH   1   2
ATOM      2  C   UNL     1      34.044  25.204  19.604  1.00  0.00     0.214 A 
ATOM      3  C   UNL     1      34.596  25.167  20.899  1.00  0.00     0.180 A 
ATOM      4  O   UNL     1      34.792  24.003  21.506  1.00  0.00    -0.452 OA
ATOM      5  C   UNL     1      33.765  23.983  18.963  1.00  0.00     0.239 A 
ATOM      6  C   UNL     1      34.530  22.831  20.944  1.00  0.00     0.146 A 
ATOM      7  O   UNL     1      33.319  23.981  17.788  1.00  0.00    -0.285 OA
ATOM      8  C   UNL     1      34.010  22.766  19.634  1.00  0.00     0.111 A 
ATOM      9  C   UNL     1      34.785  21.660  21.658  1.00  0.00     0.094 A 
ATOM     10  C   UNL     1      33.765  21.497  19.056  1.00  0.00     0.134 A 
ATOM     11  C   UNL     1      34.543  20.410  21.082  1.00  0.00     0.123 A 
ATOM     12  C   UNL     1      34.036  20.333  19.785  1.00  0.00     0.093 A 
BRANCH   3  13
ATOM     13  C   UNL     1      34.943  26.403  21.628  1.00  0.00     0.025 A 
ATOM     14  C   UNL     1      33.933  27.141  22.261  1.00  0.00     0.016 A 
ATOM     15  C   UNL     1      34.246  28.314  22.954  1.00  0.00     0.051 A 
ATOM     16  C   UNL     1      35.575  28.754  23.035  1.00  0.00     0.157 A 
ATOM     17  C   UNL     1      36.279  26.830  21.733  1.00  0.00     0.062 A 
ATOM     18  C   UNL     1      36.596  28.006  22.425  1.00  0.00     0.158 A 
BRANCH  16  19
ATOM     19  O   UNL     1      35.862  29.932  23.727  1.00  0.00    -0.504 OA
ATOM     20  H   UNL     1      35.278  30.756  23.633  1.00  0.00     0.293 HD
ENDBRANCH  16  19
BRANCH  18  21
ATOM     21  O   UNL     1      37.922  28.438  22.504  1.00  0.00    -0.504 OA
ATOM     22  H   UNL     1      38.161  29.328  22.931  1.00  0.00     0.293 HD
ENDBRANCH  18  21
ENDBRANCH   3  13
BRANCH  10  23
ATOM     23  O   UNL     1      33.255  21.382  17.762  1.00  0.00    -0.507 OA
ATOM     24  H   UNL     1      33.257  20.498  17.261  1.00  0.00     0.293 HD
ENDBRANCH  10  23
BRANCH  11  25
ATOM     25  O   UNL     1      34.806  19.238  21.785  1.00  0.00    -0.508 OA
ATOM     26  H   UNL     1      34.412  19.072  22.699  1.00  0.00     0.293 HD
ENDBRANCH  11  25
ENDBRANCH   1   2
BRANCH   1  27
ATOM     27  C   UNL     1      32.489  26.998  18.758  1.00  0.00     0.339 C 
ATOM     28  C   UNL     1      32.258  28.253  19.632  1.00  0.00     0.214 C 
ATOM     29  O   UNL     1      32.291  27.277  17.381  1.00  0.00    -0.332 OA
ATOM     30  C   UNL     1      33.026  29.493  19.111  1.00  0.00     0.180 C 
ATOM     31  C   UNL     1      33.219  28.235  16.902  1.00  0.00     0.179 C 
ATOM     32  C   UNL     1      32.973  29.612  17.567  1.00  0.00     0.177 C 
BRANCH  28  33
ATOM     33  O   UNL     1      30.881  28.536  19.748  1.00  0.00    -0.384 OA
ATOM     34  H   UNL     1      30.396  27.677  19.809  1.00  0.00     0.211 HD
ENDBRANCH  28  33
BRANCH  30  35
ATOM     35  O   UNL     1      34.351  29.510  19.583  1.00  0.00    -0.387 OA
ATOM     36  H   UNL     1      34.665  30.449  19.599  1.00  0.00     0.211 HD
ENDBRANCH  30  35
BRANCH  31  37
ATOM     37  C   UNL     1      33.081  28.313  15.373  1.00  0.00     0.191 C 
BRANCH  37  38
ATOM     38  O   UNL     1      32.761  27.063  14.825  1.00  0.00    -0.394 OA
ATOM     39  H   UNL     1      32.278  26.550  15.532  1.00  0.00     0.210 HD
ENDBRANCH  37  38
ENDBRANCH  31  37
BRANCH  32  40
ATOM     40  O   UNL     1      31.729  30.123  17.165  1.00  0.00    -0.387 OA
ATOM     41  H   UNL     1      31.915  30.824  16.483  1.00  0.00     0.211 HD
ENDBRANCH  32  40
ENDBRANCH   1  27
TORSDOF 12
ENDMDL
MODEL 3
REMARK VINA RESULT:    -5.247      1.327      2.247
REMARK INTER + INTRA:          -7.881
REMARK INTER:                  -7.622
REMARK INTRA:                  -0.259
REMARK UNBOUND:                -0.179
REMARK SMILES O=c1c(O[C@@H]2O[C@@H](CO)[C@@H](O)[C@H](O)[C@H]2O)c(-c2ccc(O)c(O)c2)oc2cc(O)cc(O)c12
REMARK SMILES IDX 4 1 3 2 16 3 25 4 2 5 26 6 1 7 33 8 27 9 31 10 28 11 30 12
REMARK SMILES IDX 17 13 18 14 19 15 20 16 24 17 22 18 21 19 23 21 32 23 29 25
REMARK SMILES IDX 5 27 14 28 6 29 12 30 7 31 10 32 15 33 13 35 8 37 9 38 11 40
REMARK H PARENT 21 20 23 22 32 24 29 26 15 34 13 36 9 39 11 41
REMARK Flexibility Score: inf
ROOT
ATOM      1  O   UNL     1      34.531  26.899  20.820  1.00  0.00    -0.454 OA
ENDROOT
BRANCH   1   2
ATOM      2  C   UNL     1      34.313  25.626  20.267  1.00  0.00     0.214 A 
ATOM      3  C   UNL     1      33.726  25.533  18.991  1.00  0.00     0.180 A 
ATOM      4  O   UNL     1      33.563  24.348  18.417  1.00  0.00    -0.452 OA
ATOM      5  C   UNL     1      34.664  24.434  20.928  1.00  0.00     0.239 A 
ATOM      6  C   UNL     1      33.892  23.202  18.998  1.00  0.00     0.146 A 
ATOM      7  O   UNL     1      35.143  24.480  22.088  1.00  0.00    -0.285 OA
ATOM      8  C   UNL     1      34.452  23.191  20.293  1.00  0.00     0.111 A 
ATOM      9  C   UNL     1      33.668  22.004  18.320  1.00  0.00     0.094 A 
ATOM     10  C   UNL     1      34.769  21.949  20.893  1.00  0.00     0.134 A 
ATOM     11  C   UNL     1      33.980  20.780  18.917  1.00  0.00     0.123 A 
ATOM     12  C   UNL     1      34.527  20.756  20.200  1.00  0.00     0.093 A 
BRANCH   3  13
ATOM     13  C   UNL     1      33.305  26.735  18.243  1.00  0.00     0.025 A 
ATOM     14  C   UNL     1      33.375  26.740  16.843  1.00  0.00     0.016 A 
ATOM     15  C   UNL     1      32.981  27.872  16.123  1.00  0.00     0.051 A 
ATOM     16  C   UNL     1      32.498  29.005  16.792  1.00  0.00     0.157 A 
ATOM     17  C   UNL     1      32.796  27.861  18.914  1.00  0.00     0.062 A 
ATOM     18  C   UNL     1      32.402  28.998  18.195  1.00  0.00     0.158 A 
BRANCH  16  19
ATOM     19  O   UNL     1      32.118  30.125  16.052  1.00  0.00    -0.504 OA
ATOM     20  H   UNL     1      32.793  30.826  15.768  1.00  0.00     0.293 HD
ENDBRANCH  16  19
BRANCH  18  21
ATOM     21  O   UNL     1      31.920  30.123  18.868  1.00  0.00    -0.504 OA
ATOM     22  H   UNL     1      32.182  30.312  19.831  1.00  0.00     0.293 HD
ENDBRANCH  18  21
ENDBRANCH   3  13
BRANCH  10  23
ATOM     23  O   UNL     1      35.320  21.887  22.173  1.00  0.00    -0.507 OA
ATOM     24  H   UNL     1      35.174  22.625  22.856  1.00  0.00     0.293 HD
ENDBRANCH  10  23
BRANCH  11  25
ATOM     25  O   UNL     1      33.748  19.581  18.250  1.00  0.00    -0.508 OA
ATOM     26  H   UNL     1      34.229  19.352  17.394  1.00  0.00     0.293 HD
ENDBRANCH  11  25
ENDBRANCH   1   2
BRANCH   1  27
ATOM     27  C   UNL     1      35.671  27.278  21.601  1.00  0.00     0.339 C 
ATOM     28  C   UNL     1      36.100  28.721  21.249  1.00  0.00     0.214 C 
ATOM     29  O   UNL     1      35.437  27.127  22.992  1.00  0.00    -0.332 OA
ATOM     30  C   UNL     1      35.160  29.790  21.861  1.00  0.00     0.180 C 
ATOM     31  C   UNL     1      34.369  27.947  23.434  1.00  0.00     0.179 C 
ATOM     32  C   UNL     1      34.743  29.444  23.312  1.00  0.00     0.177 C 
BRANCH  28  33
ATOM     33  O   UNL     1      37.435  28.957  21.637  1.00  0.00    -0.384 OA
ATOM     34  H   UNL     1      37.895  28.084  21.697  1.00  0.00     0.211 HD
ENDBRANCH  28  33
BRANCH  30  35
ATOM     35  O   UNL     1      34.037  30.012  21.043  1.00  0.00    -0.387 OA
ATOM     36  H   UNL     1      33.353  29.330  21.258  1.00  0.00     0.211 HD
ENDBRANCH  30  35
BRANCH  31  37
ATOM     37  C   UNL     1      34.040  27.562  24.886  1.00  0.00     0.191 C 
BRANCH  37  38
ATOM     38  O   UNL     1      33.717  28.691  25.652  1.00  0.00    -0.394 OA
ATOM     39  H   UNL     1      33.327  29.365  25.029  1.00  0.00     0.210 HD
ENDBRANCH  37  38
ENDBRANCH  31  37
BRANCH  32  40
ATOM     40  O   UNL     1      35.788  29.750  24.199  1.00  0.00    -0.387 OA
ATOM     41  H   UNL     1      36.461  30.269  23.680  1.00  0.00     0.211 HD
ENDBRANCH  32  40
ENDBRANCH   1  27
TORSDOF 12
ENDMDL
MODEL 4
REMARK VINA RESULT:    -3.450      1.584      5.789
REMARK INTER + INTRA:          -5.243
REMARK INTER:                  -6.421
REMARK INTRA:                   1.178
REMARK UNBOUND:                -0.179
REMARK SMILES O=c1c(O[C@@H]2O[C@@H](CO)[C@@H](O)[C@H](O)[C@H]2O)c(-c2ccc(O)c(O)c2)oc2cc(O)cc(O)c12
REMARK SMILES IDX 4 1 3 2 16 3 25 4 2 5 26 6 1 7 33 8 27 9 31 10 28 11 30 12
REMARK SMILES IDX 17 13 18 14 19 15 20 16 24 17 22 18 21 19 23 21 32 23 29 25
REMARK SMILES IDX 5 27 14 28 6 29 12 30 7 31 10 32 15 33 13 35 8 37 9 38 11 40
REMARK H PARENT 21 20 23 22 32 24 29 26 15 34 13 36 9 39 11 41
REMARK Flexibility Score: inf
ROOT
ATOM      1  O   UNL     1      34.351  26.823  21.129  1.00  0.00    -0.454 OA
ENDROOT
BRANCH   1   2
ATOM      2  C   UNL     1      33.981  26.729  19.776  1.00  0.00     0.214 A 
ATOM      3  C   UNL     1      33.931  25.458  19.174  1.00  0.00     0.180 A 
ATOM      4  O   UNL     1      33.529  25.332  17.916  1.00  0.00    -0.452 OA
ATOM      5  C   UNL     1      33.651  27.851  18.994  1.00  0.00     0.239 A 
ATOM      6  C   UNL     1      33.195  26.361  17.148  1.00  0.00     0.146 A 
ATOM      7  O   UNL     1      33.734  29.004  19.487  1.00  0.00    -0.285 OA
ATOM      8  C   UNL     1      33.251  27.678  17.652  1.00  0.00     0.111 A 
ATOM      9  C   UNL     1      32.799  26.128  15.831  1.00  0.00     0.094 A 
ATOM     10  C   UNL     1      32.911  28.754  16.797  1.00  0.00     0.134 A 
ATOM     11  C   UNL     1      32.467  27.194  14.991  1.00  0.00     0.123 A 
ATOM     12  C   UNL     1      32.525  28.501  15.475  1.00  0.00     0.093 A 
BRANCH   3  13
ATOM     13  C   UNL     1      34.289  24.234  19.919  1.00  0.00     0.025 A 
ATOM     14  C   UNL     1      34.657  24.327  21.269  1.00  0.00     0.016 A 
ATOM     15  C   UNL     1      35.000  23.177  21.986  1.00  0.00     0.051 A 
ATOM     16  C   UNL     1      34.964  21.920  21.367  1.00  0.00     0.157 A 
ATOM     17  C   UNL     1      34.227  22.970  19.305  1.00  0.00     0.062 A 
ATOM     18  C   UNL     1      34.572  21.816  20.021  1.00  0.00     0.158 A 
BRANCH  16  19
ATOM     19  O   UNL     1      35.318  20.787  22.101  1.00  0.00    -0.504 OA
ATOM     20  H   UNL     1      35.659  19.946  21.647  1.00  0.00     0.293 HD
ENDBRANCH  16  19
BRANCH  18  21
ATOM     21  O   UNL     1      34.533  20.566  19.398  1.00  0.00    -0.504 OA
ATOM     22  H   UNL     1      35.383  20.044  19.211  1.00  0.00     0.293 HD
ENDBRANCH  18  21
ENDBRANCH   3  13
BRANCH  10  23
ATOM     23  O   UNL     1      32.954  30.073  17.249  1.00  0.00    -0.507 OA
ATOM     24  H   UNL     1      32.660  30.328  18.187  1.00  0.00     0.293 HD
ENDBRANCH  10  23
BRANCH  11  25
ATOM     25  O   UNL     1      32.081  26.970  13.672  1.00  0.00    -0.508 OA
ATOM     26  H   UNL     1      31.413  27.566  13.209  1.00  0.00     0.293 HD
ENDBRANCH  11  25
ENDBRANCH   1   2
BRANCH   1  27
ATOM     27  C   UNL     1      34.049  27.925  21.994  1.00  0.00     0.339 C 
ATOM     28  C   UNL     1      34.282  27.522  23.469  1.00  0.00     0.214 C 
ATOM     29  O   UNL     1      34.784  29.088  21.648  1.00  0.00    -0.332 OA
ATOM     30  C   UNL     1      35.784  27.467  23.843  1.00  0.00     0.180 C 
ATOM     31  C   UNL     1      36.181  28.876  21.756  1.00  0.00     0.179 C 
ATOM     32  C   UNL     1      36.586  28.643  23.232  1.00  0.00     0.177 C 
BRANCH  28  33
ATOM     33  O   UNL     1      33.587  28.385  24.341  1.00  0.00    -0.384 OA
ATOM     34  H   UNL     1      34.031  28.353  25.223  1.00  0.00     0.211 HD
ENDBRANCH  28  33
BRANCH  30  35
ATOM     35  O   UNL     1      36.352  26.226  23.501  1.00  0.00    -0.387 OA
ATOM     36  H   UNL     1      35.881  25.875  22.704  1.00  0.00     0.211 HD
ENDBRANCH  30  35
BRANCH  31  37
ATOM     37  C   UNL     1      36.898  30.097  21.158  1.00  0.00     0.191 C 
BRANCH  37  38
ATOM     38  O   UNL     1      38.251  30.123  21.523  1.00  0.00    -0.394 OA
ATOM     39  H   UNL     1      38.535  29.176  21.658  1.00  0.00     0.210 HD
ENDBRANCH  37  38
ENDBRANCH  31  37
BRANCH  32  40
ATOM     40  O   UNL     1      36.368  29.813  23.978  1.00  0.00    -0.387 OA
ATOM     41  H   UNL     1      35.396  29.837  24.194  1.00  0.00     0.211 HD
ENDBRANCH  32  40
ENDBRANCH   1  27
TORSDOF 12
ENDMDL
