MODEL 1
REMARK VINA RESULT:    -6.186      0.000      0.000
REMARK INTER + INTRA:          -7.066
REMARK INTER:                  -6.728
REMARK INTRA:                  -0.338
REMARK UNBOUND:                -0.338
REMARK SMILES C[C@@H]1[C@@H](C)CC[C@]2(C(=O)[O-])CC[C@]3(C)C(=CC[C@H]4[C@]5(C)CC[C@H](O)C(C)(C)[C@H]5CC[C@@]43C)[C@@H]12
REMARK SMILES IDX 7 1 6 2 11 3 33 4 5 5 12 6 15 7 2 8 3 9 13 10 16 11 1 12
REMARK SMILES IDX 4 13 14 14 31 15 17 16 18 17 30 18 32 19 19 20 29 21 28 22
REMARK SMILES IDX 21 23 20 24 25 25 22 26 23 27 26 28 27 29 8 30 9 31 10 32
REMARK SMILES IDX 24 33
REMARK H PARENT 24 34
REMARK Flexibility Score: inf
ROOT
ATOM      1  C   UNL     1      22.795  -0.086 -25.306  1.00  0.00     0.017 C 
ATOM      2  C   UNL     1      23.936  -0.504 -24.317  1.00  0.00     0.014 C 
ATOM      3  C   UNL     1      22.760   1.481 -25.466  1.00  0.00     0.014 C 
ATOM      4  C   UNL     1      21.382  -0.528 -24.789  1.00  0.00     0.030 C 
ATOM      5  C   UNL     1      23.421  -0.887 -22.930  1.00  0.00     0.004 C 
ATOM      6  C   UNL     1      21.345   2.128 -25.603  1.00  0.00     0.013 C 
ATOM      7  C   UNL     1      20.387  -0.219 -25.909  1.00  0.00    -0.063 C 
ATOM      8  C   UNL     1      21.349  -1.938 -24.120  1.00  0.00    -0.003 C 
ATOM      9  C   UNL     1      22.435  -2.076 -22.992  1.00  0.00    -0.011 C 
ATOM     10  C   UNL     1      20.210   1.270 -26.301  1.00  0.00    -0.006 C 
ATOM     11  C   UNL     1      19.809  -1.198 -26.646  1.00  0.00    -0.027 C 
ATOM     12  C   UNL     1      19.959  -2.231 -23.514  1.00  0.00     0.008 C 
ATOM     13  C   UNL     1      23.181  -3.415 -23.109  1.00  0.00     0.008 C 
ATOM     14  C   UNL     1      18.890   1.650 -25.552  1.00  0.00     0.017 C 
ATOM     15  C   UNL     1      20.106   1.510 -27.936  1.00  0.00    -0.020 C 
ATOM     16  C   UNL     1      19.216  -0.888 -27.987  1.00  0.00     0.032 C 
ATOM     17  C   UNL     1      20.172   0.110 -28.677  1.00  0.00     0.006 C 
ATOM     18  C   UNL     1      21.274   2.372 -28.520  1.00  0.00     0.008 C 
ATOM     19  C   UNL     1      18.796   2.298 -28.278  1.00  0.00     0.012 C 
ATOM     20  C   UNL     1      20.210   0.099 -30.266  1.00  0.00    -0.025 C 
ATOM     21  C   UNL     1      21.337   2.426 -30.064  1.00  0.00     0.005 C 
ATOM     22  C   UNL     1      21.430   1.012 -30.684  1.00  0.00     0.003 C 
ATOM     23  C   UNL     1      20.517  -1.352 -30.767  1.00  0.00     0.010 C 
ATOM     24  C   UNL     1      18.836   0.540 -30.858  1.00  0.00     0.012 C 
ATOM     25  C   UNL     1      21.844   0.968 -32.210  1.00  0.00    -0.006 C 
ATOM     26  C   UNL     1      20.886  -1.445 -32.260  1.00  0.00     0.033 C 
ATOM     27  C   UNL     1      22.044  -0.518 -32.666  1.00  0.00     0.120 C 
ATOM     28  C   UNL     1      20.806   1.654 -33.135  1.00  0.00     0.014 C 
ATOM     29  C   UNL     1      23.188   1.719 -32.425  1.00  0.00     0.014 C 
ENDROOT
BRANCH   1  30
ATOM     30  C   UNL     1      23.128  -0.749 -26.647  1.00  0.00     0.048 C 
ATOM     31  O   UNL     1      23.229  -2.004 -26.726  1.00  0.00    -0.550 OA
ATOM     32  O   UNL     1      23.450   0.007 -27.770  1.00  0.00    -0.550 OA
ENDBRANCH   1  30
BRANCH  27  33
ATOM     33  O   UNL     1      23.275  -1.056 -32.237  1.00  0.00    -0.393 OA
ATOM     34  H   UNL     1      23.646  -1.618 -32.963  1.00  0.00     0.210 HD
ENDBRANCH  27  33
TORSDOF 2
ENDMDL
MODEL 2
REMARK VINA RESULT:    -5.786      2.535      6.982
REMARK INTER + INTRA:          -6.631
REMARK INTER:                  -6.295
REMARK INTRA:                  -0.336
REMARK UNBOUND:                -0.338
REMARK SMILES C[C@@H]1[C@@H](C)CC[C@]2(C(=O)[O-])CC[C@]3(C)C(=CC[C@H]4[C@]5(C)CC[C@H](O)C(C)(C)[C@H]5CC[C@@]43C)[C@@H]12
REMARK SMILES IDX 7 1 6 2 11 3 33 4 5 5 12 6 15 7 2 8 3 9 13 10 16 11 1 12
REMARK SMILES IDX 4 13 14 14 31 15 17 16 18 17 30 18 32 19 19 20 29 21 28 22
REMARK SMILES IDX 21 23 20 24 25 25 22 26 23 27 26 28 27 29 8 30 9 31 10 32
REMARK SMILES IDX 24 33
REMARK H PARENT 24 34
REMARK Flexibility Score: inf
ROOT
ATOM      1  C   UNL     1      22.553  -3.399 -31.575  1.00  0.00     0.017 C 
ATOM      2  C   UNL     1      22.795  -4.886 -32.004  1.00  0.00     0.014 C 
ATOM      3  C   UNL     1      21.036  -3.016 -31.766  1.00  0.00     0.014 C 
ATOM      4  C   UNL     1      23.393  -2.396 -32.440  1.00  0.00     0.030 C 
ATOM      5  C   UNL     1      23.464  -5.017 -33.372  1.00  0.00     0.004 C 
ATOM      6  C   UNL     1      20.749  -1.562 -32.259  1.00  0.00     0.013 C 
ATOM      7  C   UNL     1      23.203  -1.011 -31.819  1.00  0.00    -0.063 C 
ATOM      8  C   UNL     1      24.840  -2.881 -32.772  1.00  0.00    -0.003 C 
ATOM      9  C   UNL     1      24.844  -4.319 -33.406  1.00  0.00    -0.011 C 
ATOM     10  C   UNL     1      21.768  -0.427 -31.830  1.00  0.00    -0.006 C 
ATOM     11  C   UNL     1      24.195  -0.388 -31.138  1.00  0.00    -0.027 C 
ATOM     12  C   UNL     1      25.542  -1.906 -33.742  1.00  0.00     0.008 C 
ATOM     13  C   UNL     1      25.930  -5.199 -32.765  1.00  0.00     0.008 C 
ATOM     14  C   UNL     1      21.825   0.555 -33.047  1.00  0.00     0.017 C 
ATOM     15  C   UNL     1      21.359   0.334 -30.416  1.00  0.00    -0.020 C 
ATOM     16  C   UNL     1      23.877   0.717 -30.176  1.00  0.00     0.032 C 
ATOM     17  C   UNL     1      22.595   0.297 -29.424  1.00  0.00     0.006 C 
ATOM     18  C   UNL     1      20.167  -0.344 -29.661  1.00  0.00     0.008 C 
ATOM     19  C   UNL     1      20.884   1.797 -30.715  1.00  0.00     0.012 C 
ATOM     20  C   UNL     1      22.397   0.865 -27.953  1.00  0.00    -0.025 C 
ATOM     21  C   UNL     1      19.907   0.196 -28.236  1.00  0.00     0.005 C 
ATOM     22  C   UNL     1      21.164   0.086 -27.342  1.00  0.00     0.003 C 
ATOM     23  C   UNL     1      23.651   0.509 -27.086  1.00  0.00     0.010 C 
ATOM     24  C   UNL     1      22.240   2.416 -27.972  1.00  0.00     0.012 C 
ATOM     25  C   UNL     1      20.912   0.284 -25.793  1.00  0.00    -0.006 C 
ATOM     26  C   UNL     1      23.462   0.725 -25.573  1.00  0.00     0.033 C 
ATOM     27  C   UNL     1      22.234   0.001 -24.998  1.00  0.00     0.120 C 
ATOM     28  C   UNL     1      20.396   1.703 -25.443  1.00  0.00     0.014 C 
ATOM     29  C   UNL     1      19.831  -0.715 -25.292  1.00  0.00     0.014 C 
ENDROOT
BRANCH   1  30
ATOM     30  C   UNL     1      22.940  -3.313 -30.094  1.00  0.00     0.048 C 
ATOM     31  O   UNL     1      24.113  -3.598 -29.728  1.00  0.00    -0.550 OA
ATOM     32  O   UNL     1      21.991  -3.047 -29.112  1.00  0.00    -0.550 OA
ENDBRANCH   1  30
BRANCH  27  33
ATOM     33  O   UNL     1      22.498  -1.378 -24.858  1.00  0.00    -0.393 OA
ATOM     34  H   UNL     1      21.839  -1.765 -24.229  1.00  0.00     0.210 HD
ENDBRANCH  27  33
TORSDOF 2
ENDMDL
MODEL 3
REMARK VINA RESULT:    -5.672      3.239      5.591
REMARK INTER + INTRA:          -6.506
REMARK INTER:                  -6.169
REMARK INTRA:                  -0.338
REMARK UNBOUND:                -0.338
REMARK SMILES C[C@@H]1[C@@H](C)CC[C@]2(C(=O)[O-])CC[C@]3(C)C(=CC[C@H]4[C@]5(C)CC[C@H](O)C(C)(C)[C@H]5CC[C@@]43C)[C@@H]12
REMARK SMILES IDX 7 1 6 2 11 3 33 4 5 5 12 6 15 7 2 8 3 9 13 10 16 11 1 12
REMARK SMILES IDX 4 13 14 14 31 15 17 16 18 17 30 18 32 19 19 20 29 21 28 22
REMARK SMILES IDX 21 23 20 24 25 25 22 26 23 27 26 28 27 29 8 30 9 31 10 32
REMARK SMILES IDX 24 33
REMARK H PARENT 24 34
REMARK Flexibility Score: inf
ROOT
ATOM      1  C   UNL     1      21.250  -1.351 -26.877  1.00  0.00     0.017 C 
ATOM      2  C   UNL     1      19.834  -1.224 -26.218  1.00  0.00     0.014 C 
ATOM      3  C   UNL     1      22.108  -2.435 -26.121  1.00  0.00     0.014 C 
ATOM      4  C   UNL     1      22.049  -0.003 -26.809  1.00  0.00     0.030 C 
ATOM      5  C   UNL     1      19.689   0.016 -25.336  1.00  0.00     0.004 C 
ATOM      6  C   UNL     1      23.632  -2.127 -25.971  1.00  0.00     0.013 C 
ATOM      7  C   UNL     1      23.327  -0.207 -27.626  1.00  0.00    -0.063 C 
ATOM      8  C   UNL     1      21.188   1.274 -27.064  1.00  0.00    -0.003 C 
ATOM      9  C   UNL     1      19.920   1.319 -26.135  1.00  0.00    -0.011 C 
ATOM     10  C   UNL     1      24.324  -1.277 -27.116  1.00  0.00    -0.006 C 
ATOM     11  C   UNL     1      23.511   0.388 -28.829  1.00  0.00    -0.027 C 
ATOM     12  C   UNL     1      22.019   2.557 -26.836  1.00  0.00     0.008 C 
ATOM     13  C   UNL     1      18.668   1.714 -26.936  1.00  0.00     0.008 C 
ATOM     14  C   UNL     1      25.395  -0.402 -26.384  1.00  0.00     0.017 C 
ATOM     15  C   UNL     1      24.975  -2.198 -28.328  1.00  0.00    -0.020 C 
ATOM     16  C   UNL     1      24.519  -0.154 -29.797  1.00  0.00     0.032 C 
ATOM     17  C   UNL     1      24.421  -1.694 -29.726  1.00  0.00     0.006 C 
ATOM     18  C   UNL     1      24.605  -3.716 -28.230  1.00  0.00     0.008 C 
ATOM     19  C   UNL     1      26.539  -2.146 -28.259  1.00  0.00     0.012 C 
ATOM     20  C   UNL     1      24.816  -2.509 -31.031  1.00  0.00    -0.025 C 
ATOM     21  C   UNL     1      25.001  -4.565 -29.460  1.00  0.00     0.005 C 
ATOM     22  C   UNL     1      24.385  -4.006 -30.765  1.00  0.00     0.003 C 
ATOM     23  C   UNL     1      23.973  -1.987 -32.243  1.00  0.00     0.010 C 
ATOM     24  C   UNL     1      26.327  -2.320 -31.368  1.00  0.00     0.012 C 
ATOM     25  C   UNL     1      24.438  -4.980 -32.010  1.00  0.00    -0.006 C 
ATOM     26  C   UNL     1      24.030  -2.887 -33.492  1.00  0.00     0.033 C 
ATOM     27  C   UNL     1      23.653  -4.351 -33.212  1.00  0.00     0.120 C 
ATOM     28  C   UNL     1      25.886  -5.307 -32.457  1.00  0.00     0.014 C 
ATOM     29  C   UNL     1      23.767  -6.338 -31.660  1.00  0.00     0.014 C 
ENDROOT
BRANCH   1  30
ATOM     30  C   UNL     1      21.009  -1.781 -28.328  1.00  0.00     0.048 C 
ATOM     31  O   UNL     1      20.318  -1.058 -29.097  1.00  0.00    -0.550 OA
ATOM     32  O   UNL     1      21.430  -3.022 -28.795  1.00  0.00    -0.550 OA
ENDBRANCH   1  30
BRANCH  27  33
ATOM     33  O   UNL     1      22.255  -4.480 -33.074  1.00  0.00    -0.393 OA
ATOM     34  H   UNL     1      22.066  -5.174 -32.394  1.00  0.00     0.210 HD
ENDBRANCH  27  33
TORSDOF 2
ENDMDL
MODEL 4
REMARK VINA RESULT:    -5.662      2.836      7.071
REMARK INTER + INTRA:          -6.496
REMARK INTER:                  -6.158
REMARK INTRA:                  -0.338
REMARK UNBOUND:                -0.338
REMARK SMILES C[C@@H]1[C@@H](C)CC[C@]2(C(=O)[O-])CC[C@]3(C)C(=CC[C@H]4[C@]5(C)CC[C@H](O)C(C)(C)[C@H]5CC[C@@]43C)[C@@H]12
REMARK SMILES IDX 7 1 6 2 11 3 33 4 5 5 12 6 15 7 2 8 3 9 13 10 16 11 1 12
REMARK SMILES IDX 4 13 14 14 31 15 17 16 18 17 30 18 32 19 19 20 29 21 28 22
REMARK SMILES IDX 21 23 20 24 25 25 22 26 23 27 26 28 27 29 8 30 9 31 10 32
REMARK SMILES IDX 24 33
REMARK H PARENT 24 34
REMARK Flexibility Score: inf
ROOT
ATOM      1  C   UNL     1      21.077  -1.133 -25.957  1.00  0.00     0.017 C 
ATOM      2  C   UNL     1      19.770  -0.934 -26.798  1.00  0.00     0.014 C 
ATOM      3  C   UNL     1      20.845  -2.217 -24.837  1.00  0.00     0.014 C 
ATOM      4  C   UNL     1      21.514   0.189 -25.235  1.00  0.00     0.030 C 
ATOM      5  C   UNL     1      19.010   0.342 -26.438  1.00  0.00     0.004 C 
ATOM      6  C   UNL     1      21.549  -1.955 -23.468  1.00  0.00     0.013 C 
ATOM      7  C   UNL     1      22.876  -0.088 -24.596  1.00  0.00    -0.063 C 
ATOM      8  C   UNL     1      21.331   1.484 -26.086  1.00  0.00    -0.003 C 
ATOM      9  C   UNL     1      19.872   1.606 -26.659  1.00  0.00    -0.011 C 
ATOM     10  C   UNL     1      22.927  -1.171 -23.489  1.00  0.00    -0.006 C 
ATOM     11  C   UNL     1      24.019   0.456 -25.080  1.00  0.00    -0.027 C 
ATOM     12  C   UNL     1      21.646   2.746 -25.252  1.00  0.00     0.008 C 
ATOM     13  C   UNL     1      19.896   2.013 -28.142  1.00  0.00     0.008 C 
ATOM     14  C   UNL     1      22.926  -0.307 -22.185  1.00  0.00     0.017 C 
ATOM     15  C   UNL     1      24.252  -2.158 -23.598  1.00  0.00    -0.020 C 
ATOM     16  C   UNL     1      25.348  -0.156 -24.752  1.00  0.00     0.032 C 
ATOM     17  C   UNL     1      25.159  -1.688 -24.810  1.00  0.00     0.006 C 
ATOM     18  C   UNL     1      23.897  -3.658 -23.871  1.00  0.00     0.008 C 
ATOM     19  C   UNL     1      25.033  -2.156 -22.240  1.00  0.00     0.012 C 
ATOM     20  C   UNL     1      26.432  -2.563 -25.183  1.00  0.00    -0.025 C 
ATOM     21  C   UNL     1      25.105  -4.564 -24.204  1.00  0.00     0.005 C 
ATOM     22  C   UNL     1      25.903  -4.033 -25.418  1.00  0.00     0.003 C 
ATOM     23  C   UNL     1      27.029  -2.058 -26.540  1.00  0.00     0.010 C 
ATOM     24  C   UNL     1      27.534  -2.437 -24.087  1.00  0.00     0.012 C 
ATOM     25  C   UNL     1      26.933  -5.054 -26.049  1.00  0.00    -0.006 C 
ATOM     26  C   UNL     1      28.068  -3.004 -27.169  1.00  0.00     0.033 C 
ATOM     27  C   UNL     1      27.558  -4.444 -27.351  1.00  0.00     0.120 C 
ATOM     28  C   UNL     1      28.069  -5.446 -25.069  1.00  0.00     0.014 C 
ATOM     29  C   UNL     1      26.213  -6.375 -26.440  1.00  0.00     0.014 C 
ENDROOT
BRANCH   1  30
ATOM     30  C   UNL     1      22.151  -1.607 -26.942  1.00  0.00     0.048 C 
ATOM     31  O   UNL     1      22.464  -0.891 -27.932  1.00  0.00    -0.550 OA
ATOM     32  O   UNL     1      22.710  -2.878 -26.847  1.00  0.00    -0.550 OA
ENDBRANCH   1  30
BRANCH  27  33
ATOM     33  O   UNL     1      26.688  -4.520 -28.458  1.00  0.00    -0.393 OA
ATOM     34  H   UNL     1      25.811  -4.860 -28.149  1.00  0.00     0.210 HD
ENDBRANCH  27  33
TORSDOF 2
ENDMDL
MODEL 5
REMARK VINA RESULT:    -5.618      2.263      7.301
REMARK INTER + INTRA:          -6.448
REMARK INTER:                  -6.112
REMARK INTRA:                  -0.336
REMARK UNBOUND:                -0.338
REMARK SMILES C[C@@H]1[C@@H](C)CC[C@]2(C(=O)[O-])CC[C@]3(C)C(=CC[C@H]4[C@]5(C)CC[C@H](O)C(C)(C)[C@H]5CC[C@@]43C)[C@@H]12
REMARK SMILES IDX 7 1 6 2 11 3 33 4 5 5 12 6 15 7 2 8 3 9 13 10 16 11 1 12
REMARK SMILES IDX 4 13 14 14 31 15 17 16 18 17 30 18 32 19 19 20 29 21 28 22
REMARK SMILES IDX 21 23 20 24 25 25 22 26 23 27 26 28 27 29 8 30 9 31 10 32
REMARK SMILES IDX 24 33
REMARK H PARENT 24 34
REMARK Flexibility Score: inf
ROOT
ATOM      1  C   UNL     1      20.183   0.637 -26.326  1.00  0.00     0.017 C 
ATOM      2  C   UNL     1      18.711   1.078 -26.635  1.00  0.00     0.014 C 
ATOM      3  C   UNL     1      20.798   1.547 -25.196  1.00  0.00     0.014 C 
ATOM      4  C   UNL     1      21.110   0.775 -27.584  1.00  0.00     0.030 C 
ATOM      5  C   UNL     1      18.582   1.886 -27.926  1.00  0.00     0.004 C 
ATOM      6  C   UNL     1      22.310   1.906 -25.348  1.00  0.00     0.013 C 
ATOM      7  C   UNL     1      22.459   0.160 -27.205  1.00  0.00    -0.063 C 
ATOM      8  C   UNL     1      20.442   0.354 -28.931  1.00  0.00    -0.003 C 
ATOM      9  C   UNL     1      19.069   1.085 -29.156  1.00  0.00    -0.011 C 
ATOM     10  C   UNL     1      23.249   0.847 -26.062  1.00  0.00    -0.006 C 
ATOM     11  C   UNL     1      22.877  -1.023 -27.716  1.00  0.00    -0.027 C 
ATOM     12  C   UNL     1      21.371   0.656 -30.128  1.00  0.00     0.008 C 
ATOM     13  C   UNL     1      17.994   0.098 -29.640  1.00  0.00     0.008 C 
ATOM     14  C   UNL     1      24.297   1.696 -26.854  1.00  0.00     0.017 C 
ATOM     15  C   UNL     1      23.956  -0.226 -25.018  1.00  0.00    -0.020 C 
ATOM     16  C   UNL     1      23.944  -1.814 -27.022  1.00  0.00     0.032 C 
ATOM     17  C   UNL     1      23.665  -1.706 -25.507  1.00  0.00     0.006 C 
ATOM     18  C   UNL     1      23.409  -0.131 -23.554  1.00  0.00     0.008 C 
ATOM     19  C   UNL     1      25.491   0.069 -24.908  1.00  0.00     0.012 C 
ATOM     20  C   UNL     1      24.147  -2.911 -24.591  1.00  0.00    -0.025 C 
ATOM     21  C   UNL     1      23.876  -1.261 -22.608  1.00  0.00     0.005 C 
ATOM     22  C   UNL     1      23.517  -2.659 -23.163  1.00  0.00     0.003 C 
ATOM     23  C   UNL     1      23.547  -4.250 -25.138  1.00  0.00     0.010 C 
ATOM     24  C   UNL     1      25.701  -3.031 -24.602  1.00  0.00     0.012 C 
ATOM     25  C   UNL     1      23.636  -3.849 -22.128  1.00  0.00    -0.006 C 
ATOM     26  C   UNL     1      23.678  -5.446 -24.176  1.00  0.00     0.033 C 
ATOM     27  C   UNL     1      23.104  -5.174 -22.776  1.00  0.00     0.120 C 
ATOM     28  C   UNL     1      25.087  -4.069 -21.627  1.00  0.00     0.014 C 
ATOM     29  C   UNL     1      22.775  -3.555 -20.868  1.00  0.00     0.014 C 
ENDROOT
BRANCH   1  30
ATOM     30  C   UNL     1      20.102  -0.818 -25.852  1.00  0.00     0.048 C 
ATOM     31  O   UNL     1      19.609  -1.703 -26.604  1.00  0.00    -0.550 OA
ATOM     32  O   UNL     1      20.447  -1.177 -24.552  1.00  0.00    -0.550 OA
ENDBRANCH   1  30
BRANCH  27  33
ATOM     33  O   UNL     1      21.695  -5.237 -22.803  1.00  0.00    -0.393 OA
ATOM     34  H   UNL     1      21.335  -4.317 -22.738  1.00  0.00     0.210 HD
ENDBRANCH  27  33
TORSDOF 2
ENDMDL
MODEL 6
REMARK VINA RESULT:    -5.531      2.325      7.044
REMARK INTER + INTRA:          -6.354
REMARK INTER:                  -6.016
REMARK INTRA:                  -0.338
REMARK UNBOUND:                -0.338
REMARK SMILES C[C@@H]1[C@@H](C)CC[C@]2(C(=O)[O-])CC[C@]3(C)C(=CC[C@H]4[C@]5(C)CC[C@H](O)C(C)(C)[C@H]5CC[C@@]43C)[C@@H]12
REMARK SMILES IDX 7 1 6 2 11 3 33 4 5 5 12 6 15 7 2 8 3 9 13 10 16 11 1 12
REMARK SMILES IDX 4 13 14 14 31 15 17 16 18 17 30 18 32 19 19 20 29 21 28 22
REMARK SMILES IDX 21 23 20 24 25 25 22 26 23 27 26 28 27 29 8 30 9 31 10 32
REMARK SMILES IDX 24 33
REMARK H PARENT 24 34
REMARK Flexibility Score: inf
ROOT
ATOM      1  C   UNL     1      20.591  -1.503 -27.428  1.00  0.00     0.017 C 
ATOM      2  C   UNL     1      19.886  -1.209 -28.796  1.00  0.00     0.014 C 
ATOM      3  C   UNL     1      20.369  -3.006 -27.011  1.00  0.00     0.014 C 
ATOM      4  C   UNL     1      20.014  -0.614 -26.271  1.00  0.00     0.030 C 
ATOM      5  C   UNL     1      18.575  -0.440 -28.646  1.00  0.00     0.004 C 
ATOM      6  C   UNL     1      20.163  -3.275 -25.487  1.00  0.00     0.013 C 
ATOM      7  C   UNL     1      20.889  -0.868 -25.042  1.00  0.00    -0.063 C 
ATOM      8  C   UNL     1      19.700   0.859 -26.680  1.00  0.00    -0.003 C 
ATOM      9  C   UNL     1      18.787   0.929 -27.958  1.00  0.00    -0.011 C 
ATOM     10  C   UNL     1      20.890  -2.307 -24.465  1.00  0.00    -0.006 C 
ATOM     11  C   UNL     1      21.755   0.062 -24.574  1.00  0.00    -0.027 C 
ATOM     12  C   UNL     1      19.004   1.618 -25.528  1.00  0.00     0.008 C 
ATOM     13  C   UNL     1      19.314   1.977 -28.952  1.00  0.00     0.008 C 
ATOM     14  C   UNL     1      19.907  -2.174 -23.255  1.00  0.00     0.017 C 
ATOM     15  C   UNL     1      22.394  -2.829 -24.009  1.00  0.00    -0.020 C 
ATOM     16  C   UNL     1      22.895  -0.341 -23.688  1.00  0.00     0.032 C 
ATOM     17  C   UNL     1      23.448  -1.669 -24.251  1.00  0.00     0.006 C 
ATOM     18  C   UNL     1      22.904  -4.064 -24.825  1.00  0.00     0.008 C 
ATOM     19  C   UNL     1      22.366  -3.300 -22.515  1.00  0.00     0.012 C 
ATOM     20  C   UNL     1      24.985  -1.983 -23.995  1.00  0.00    -0.025 C 
ATOM     21  C   UNL     1      24.385  -4.436 -24.587  1.00  0.00     0.005 C 
ATOM     22  C   UNL     1      25.330  -3.246 -24.880  1.00  0.00     0.003 C 
ATOM     23  C   UNL     1      25.852  -0.791 -24.524  1.00  0.00     0.010 C 
ATOM     24  C   UNL     1      25.271  -2.159 -22.473  1.00  0.00     0.012 C 
ATOM     25  C   UNL     1      26.864  -3.614 -25.004  1.00  0.00    -0.006 C 
ATOM     26  C   UNL     1      27.359  -1.094 -24.621  1.00  0.00     0.033 C 
ATOM     27  C   UNL     1      27.680  -2.351 -25.446  1.00  0.00     0.120 C 
ATOM     28  C   UNL     1      27.456  -4.174 -23.685  1.00  0.00     0.014 C 
ATOM     29  C   UNL     1      27.068  -4.716 -26.081  1.00  0.00     0.014 C 
ENDROOT
BRANCH   1  30
ATOM     30  C   UNL     1      22.082  -1.227 -27.647  1.00  0.00     0.048 C 
ATOM     31  O   UNL     1      22.469  -0.083 -28.012  1.00  0.00    -0.550 OA
ATOM     32  O   UNL     1      23.026  -2.247 -27.577  1.00  0.00    -0.550 OA
ENDBRANCH   1  30
BRANCH  27  33
ATOM     33  O   UNL     1      27.556  -2.079 -26.824  1.00  0.00    -0.393 OA
ATOM     34  H   UNL     1      28.430  -1.764 -27.165  1.00  0.00     0.210 HD
ENDBRANCH  27  33
TORSDOF 2
ENDMDL
MODEL 7
REMARK VINA RESULT:    -5.494      3.143      6.802
REMARK INTER + INTRA:          -6.314
REMARK INTER:                  -5.978
REMARK INTRA:                  -0.336
REMARK UNBOUND:                -0.338
REMARK SMILES C[C@@H]1[C@@H](C)CC[C@]2(C(=O)[O-])CC[C@]3(C)C(=CC[C@H]4[C@]5(C)CC[C@H](O)C(C)(C)[C@H]5CC[C@@]43C)[C@@H]12
REMARK SMILES IDX 7 1 6 2 11 3 33 4 5 5 12 6 15 7 2 8 3 9 13 10 16 11 1 12
REMARK SMILES IDX 4 13 14 14 31 15 17 16 18 17 30 18 32 19 19 20 29 21 28 22
REMARK SMILES IDX 21 23 20 24 25 25 22 26 23 27 26 28 27 29 8 30 9 31 10 32
REMARK SMILES IDX 24 33
REMARK H PARENT 24 34
REMARK Flexibility Score: inf
ROOT
ATOM      1  C   UNL     1      24.392  -2.524 -31.362  1.00  0.00     0.017 C 
ATOM      2  C   UNL     1      24.537  -2.630 -32.918  1.00  0.00     0.014 C 
ATOM      3  C   UNL     1      25.626  -1.758 -30.750  1.00  0.00     0.014 C 
ATOM      4  C   UNL     1      24.344  -3.936 -30.682  1.00  0.00     0.030 C 
ATOM      5  C   UNL     1      24.979  -4.015 -33.389  1.00  0.00     0.004 C 
ATOM      6  C   UNL     1      26.142  -2.273 -29.370  1.00  0.00     0.013 C 
ATOM      7  C   UNL     1      24.032  -3.702 -29.202  1.00  0.00    -0.063 C 
ATOM      8  C   UNL     1      23.519  -5.005 -31.465  1.00  0.00    -0.003 C 
ATOM      9  C   UNL     1      23.977  -5.113 -32.965  1.00  0.00    -0.011 C 
ATOM     10  C   UNL     1      25.079  -2.909 -28.380  1.00  0.00    -0.006 C 
ATOM     11  C   UNL     1      22.829  -4.016 -28.664  1.00  0.00    -0.027 C 
ATOM     12  C   UNL     1      23.644  -6.395 -30.803  1.00  0.00     0.008 C 
ATOM     13  C   UNL     1      22.763  -5.156 -33.908  1.00  0.00     0.008 C 
ATOM     14  C   UNL     1      25.845  -4.053 -27.637  1.00  0.00     0.017 C 
ATOM     15  C   UNL     1      24.402  -1.814 -27.338  1.00  0.00    -0.020 C 
ATOM     16  C   UNL     1      22.386  -3.387 -27.378  1.00  0.00     0.032 C 
ATOM     17  C   UNL     1      22.823  -1.907 -27.432  1.00  0.00     0.006 C 
ATOM     18  C   UNL     1      24.776  -0.328 -27.659  1.00  0.00     0.008 C 
ATOM     19  C   UNL     1      24.924  -2.069 -25.882  1.00  0.00     0.012 C 
ATOM     20  C   UNL     1      21.956  -0.863 -26.606  1.00  0.00    -0.025 C 
ATOM     21  C   UNL     1      23.987   0.731 -26.855  1.00  0.00     0.005 C 
ATOM     22  C   UNL     1      22.460   0.571 -27.040  1.00  0.00     0.003 C 
ATOM     23  C   UNL     1      20.455  -0.981 -27.034  1.00  0.00     0.010 C 
ATOM     24  C   UNL     1      22.052  -1.148 -25.076  1.00  0.00     0.012 C 
ATOM     25  C   UNL     1      21.587   1.796 -26.550  1.00  0.00    -0.006 C 
ATOM     26  C   UNL     1      19.560   0.173 -26.542  1.00  0.00     0.033 C 
ATOM     27  C   UNL     1      20.084   1.565 -26.931  1.00  0.00     0.120 C 
ATOM     28  C   UNL     1      21.698   2.042 -25.023  1.00  0.00     0.014 C 
ATOM     29  C   UNL     1      22.059   3.105 -27.243  1.00  0.00     0.014 C 
ENDROOT
BRANCH   1  30
ATOM     30  C   UNL     1      23.100  -1.740 -31.106  1.00  0.00     0.048 C 
ATOM     31  O   UNL     1      21.997  -2.179 -31.533  1.00  0.00    -0.550 OA
ATOM     32  O   UNL     1      23.122  -0.479 -30.517  1.00  0.00    -0.550 OA
ENDBRANCH   1  30
BRANCH  27  33
ATOM     33  O   UNL     1      19.823   1.825 -28.293  1.00  0.00    -0.393 OA
ATOM     34  H   UNL     1      20.610   2.280 -28.685  1.00  0.00     0.210 HD
ENDBRANCH  27  33
TORSDOF 2
ENDMDL
MODEL 8
REMARK VINA RESULT:    -5.490      3.893      6.797
REMARK INTER + INTRA:          -6.309
REMARK INTER:                  -5.969
REMARK INTRA:                  -0.339
REMARK UNBOUND:                -0.338
REMARK SMILES C[C@@H]1[C@@H](C)CC[C@]2(C(=O)[O-])CC[C@]3(C)C(=CC[C@H]4[C@]5(C)CC[C@H](O)C(C)(C)[C@H]5CC[C@@]43C)[C@@H]12
REMARK SMILES IDX 7 1 6 2 11 3 33 4 5 5 12 6 15 7 2 8 3 9 13 10 16 11 1 12
REMARK SMILES IDX 4 13 14 14 31 15 17 16 18 17 30 18 32 19 19 20 29 21 28 22
REMARK SMILES IDX 21 23 20 24 25 25 22 26 23 27 26 28 27 29 8 30 9 31 10 32
REMARK SMILES IDX 24 33
REMARK H PARENT 24 34
REMARK Flexibility Score: inf
ROOT
ATOM      1  C   UNL     1      23.651  -4.381 -31.841  1.00  0.00     0.017 C 
ATOM      2  C   UNL     1      23.548  -5.925 -31.599  1.00  0.00     0.014 C 
ATOM      3  C   UNL     1      23.335  -4.042 -33.347  1.00  0.00     0.014 C 
ATOM      4  C   UNL     1      25.090  -3.836 -31.538  1.00  0.00     0.030 C 
ATOM      5  C   UNL     1      24.910  -6.612 -31.505  1.00  0.00     0.004 C 
ATOM      6  C   UNL     1      24.175  -2.890 -33.985  1.00  0.00     0.013 C 
ATOM      7  C   UNL     1      25.015  -2.311 -31.644  1.00  0.00    -0.063 C 
ATOM      8  C   UNL     1      25.773  -4.470 -30.286  1.00  0.00    -0.003 C 
ATOM      9  C   UNL     1      25.763  -6.041 -30.348  1.00  0.00    -0.011 C 
ATOM     10  C   UNL     1      24.658  -1.720 -33.032  1.00  0.00    -0.006 C 
ATOM     11  C   UNL     1      25.086  -1.512 -30.553  1.00  0.00    -0.027 C 
ATOM     12  C   UNL     1      27.233  -3.986 -30.147  1.00  0.00     0.008 C 
ATOM     13  C   UNL     1      25.342  -6.641 -28.996  1.00  0.00     0.008 C 
ATOM     14  C   UNL     1      26.063  -1.300 -33.579  1.00  0.00     0.017 C 
ATOM     15  C   UNL     1      23.601  -0.448 -32.950  1.00  0.00    -0.020 C 
ATOM     16  C   UNL     1      24.571  -0.105 -30.609  1.00  0.00     0.032 C 
ATOM     17  C   UNL     1      23.264  -0.142 -31.432  1.00  0.00     0.006 C 
ATOM     18  C   UNL     1      22.232  -0.724 -33.658  1.00  0.00     0.008 C 
ATOM     19  C   UNL     1      24.205   0.797 -33.685  1.00  0.00     0.012 C 
ATOM     20  C   UNL     1      22.172   0.967 -31.112  1.00  0.00    -0.025 C 
ATOM     21  C   UNL     1      21.142   0.344 -33.409  1.00  0.00     0.005 C 
ATOM     22  C   UNL     1      20.869   0.544 -31.899  1.00  0.00     0.003 C 
ATOM     23  C   UNL     1      21.828   0.930 -29.584  1.00  0.00     0.010 C 
ATOM     24  C   UNL     1      22.706   2.390 -31.458  1.00  0.00     0.012 C 
ATOM     25  C   UNL     1      19.551   1.346 -31.550  1.00  0.00    -0.006 C 
ATOM     26  C   UNL     1      20.573   1.733 -29.195  1.00  0.00     0.033 C 
ATOM     27  C   UNL     1      19.321   1.345 -30.000  1.00  0.00     0.120 C 
ATOM     28  C   UNL     1      19.582   2.808 -32.064  1.00  0.00     0.014 C 
ATOM     29  C   UNL     1      18.318   0.671 -32.215  1.00  0.00     0.014 C 
ENDROOT
BRANCH   1  30
ATOM     30  C   UNL     1      22.608  -3.734 -30.922  1.00  0.00     0.048 C 
ATOM     31  O   UNL     1      22.668  -3.908 -29.674  1.00  0.00    -0.550 OA
ATOM     32  O   UNL     1      21.508  -3.055 -31.439  1.00  0.00    -0.550 OA
ENDBRANCH   1  30
BRANCH  27  33
ATOM     33  O   UNL     1      18.795   0.124 -29.530  1.00  0.00    -0.393 OA
ATOM     34  H   UNL     1      17.826   0.240 -29.362  1.00  0.00     0.210 HD
ENDBRANCH  27  33
TORSDOF 2
ENDMDL
MODEL 9
REMARK VINA RESULT:    -5.446      2.311      4.795
REMARK INTER + INTRA:          -6.262
REMARK INTER:                  -5.924
REMARK INTRA:                  -0.338
REMARK UNBOUND:                -0.338
REMARK SMILES C[C@@H]1[C@@H](C)CC[C@]2(C(=O)[O-])CC[C@]3(C)C(=CC[C@H]4[C@]5(C)CC[C@H](O)C(C)(C)[C@H]5CC[C@@]43C)[C@@H]12
REMARK SMILES IDX 7 1 6 2 11 3 33 4 5 5 12 6 15 7 2 8 3 9 13 10 16 11 1 12
REMARK SMILES IDX 4 13 14 14 31 15 17 16 18 17 30 18 32 19 19 20 29 21 28 22
REMARK SMILES IDX 21 23 20 24 25 25 22 26 23 27 26 28 27 29 8 30 9 31 10 32
REMARK SMILES IDX 24 33
REMARK H PARENT 24 34
REMARK Flexibility Score: inf
ROOT
ATOM      1  C   UNL     1      23.299  -3.845 -24.837  1.00  0.00     0.017 C 
ATOM      2  C   UNL     1      23.213  -5.386 -24.572  1.00  0.00     0.014 C 
ATOM      3  C   UNL     1      24.258  -3.552 -26.052  1.00  0.00     0.014 C 
ATOM      4  C   UNL     1      23.873  -3.070 -23.600  1.00  0.00     0.030 C 
ATOM      5  C   UNL     1      24.039  -5.838 -23.368  1.00  0.00     0.004 C 
ATOM      6  C   UNL     1      25.145  -2.272 -25.938  1.00  0.00     0.013 C 
ATOM      7  C   UNL     1      23.746  -1.578 -23.917  1.00  0.00    -0.063 C 
ATOM      8  C   UNL     1      23.370  -3.591 -22.217  1.00  0.00    -0.003 C 
ATOM      9  C   UNL     1      23.582  -5.142 -22.064  1.00  0.00    -0.011 C 
ATOM     10  C   UNL     1      24.560  -1.044 -25.123  1.00  0.00    -0.006 C 
ATOM     11  C   UNL     1      22.843  -0.787 -23.291  1.00  0.00    -0.027 C 
ATOM     12  C   UNL     1      24.092  -2.872 -21.057  1.00  0.00     0.008 C 
ATOM     13  C   UNL     1      22.327  -5.813 -21.484  1.00  0.00     0.008 C 
ATOM     14  C   UNL     1      25.797  -0.393 -24.420  1.00  0.00     0.017 C 
ATOM     15  C   UNL     1      23.717   0.033 -26.056  1.00  0.00    -0.020 C 
ATOM     16  C   UNL     1      22.422   0.515 -23.904  1.00  0.00     0.032 C 
ATOM     17  C   UNL     1      22.283   0.268 -25.422  1.00  0.00     0.006 C 
ATOM     18  C   UNL     1      23.475  -0.462 -27.522  1.00  0.00     0.008 C 
ATOM     19  C   UNL     1      24.527   1.367 -26.196  1.00  0.00     0.012 C 
ATOM     20  C   UNL     1      21.249   1.177 -26.214  1.00  0.00    -0.025 C 
ATOM     21  C   UNL     1      22.502   0.408 -28.351  1.00  0.00     0.005 C 
ATOM     22  C   UNL     1      21.126   0.549 -27.659  1.00  0.00     0.003 C 
ATOM     23  C   UNL     1      19.841   1.072 -25.537  1.00  0.00     0.010 C 
ATOM     24  C   UNL     1      21.692   2.672 -26.193  1.00  0.00     0.012 C 
ATOM     25  C   UNL     1      19.965   1.117 -28.571  1.00  0.00    -0.006 C 
ATOM     26  C   UNL     1      18.686   1.652 -26.376  1.00  0.00     0.033 C 
ATOM     27  C   UNL     1      18.604   1.067 -27.795  1.00  0.00     0.120 C 
ATOM     28  C   UNL     1      20.231   2.568 -29.049  1.00  0.00     0.014 C 
ATOM     29  C   UNL     1      19.815   0.252 -29.854  1.00  0.00     0.014 C 
ENDROOT
BRANCH   1  30
ATOM     30  C   UNL     1      21.872  -3.388 -25.164  1.00  0.00     0.048 C 
ATOM     31  O   UNL     1      20.945  -3.554 -24.325  1.00  0.00    -0.550 OA
ATOM     32  O   UNL     1      21.539  -2.902 -26.424  1.00  0.00    -0.550 OA
ENDBRANCH   1  30
BRANCH  27  33
ATOM     33  O   UNL     1      18.047  -0.228 -27.761  1.00  0.00    -0.393 OA
ATOM     34  H   UNL     1      18.728  -0.858 -27.414  1.00  0.00     0.210 HD
ENDBRANCH  27  33
TORSDOF 2
ENDMDL
