MODEL 1
REMARK VINA RESULT:    -4.352      0.000      0.000
REMARK INTER + INTRA:          -5.576
REMARK INTER:                  -5.242
REMARK INTRA:                  -0.334
REMARK UNBOUND:                -0.334
REMARK SMILES O=c1c(O)c(-c2ccc(O)c(O)c2)oc2cc(O)cc(O)c12
REMARK SMILES IDX 5 1 3 2 2 3 1 4 22 5 20 6 19 7 17 8 16 9 15 10 14 11 6 12
REMARK SMILES IDX 7 13 8 14 9 15 13 16 11 17 10 18 12 20 4 22 21 24 18 26
REMARK H PARENT 10 19 12 21 4 23 21 25 18 27
REMARK Flexibility Score: inf
ROOT
ATOM      1  C   UNL     1      25.002  33.094  40.237  1.00  0.00     0.180 A 
ATOM      2  C   UNL     1      24.652  33.859  39.111  1.00  0.00     0.208 A 
ATOM      3  C   UNL     1      24.670  35.259  39.208  1.00  0.00     0.238 A 
ATOM      4  O   UNL     1      24.304  35.938  38.212  1.00  0.00    -0.285 OA
ATOM      5  C   UNL     1      25.053  35.877  40.421  1.00  0.00     0.111 A 
ATOM      6  C   UNL     1      25.145  37.288  40.620  1.00  0.00     0.134 A 
ATOM      7  C   UNL     1      25.408  37.790  41.900  1.00  0.00     0.093 A 
ATOM      8  C   UNL     1      25.646  36.933  42.975  1.00  0.00     0.123 A 
ATOM      9  C   UNL     1      25.617  35.553  42.780  1.00  0.00     0.094 A 
ATOM     10  C   UNL     1      25.322  35.022  41.522  1.00  0.00     0.146 A 
ATOM     11  O   UNL     1      25.293  33.702  41.381  1.00  0.00    -0.452 OA
ENDROOT
BRANCH   1  12
ATOM     12  C   UNL     1      25.031  31.614  40.205  1.00  0.00     0.025 A 
ATOM     13  C   UNL     1      23.909  30.892  40.638  1.00  0.00     0.016 A 
ATOM     14  C   UNL     1      23.923  29.496  40.635  1.00  0.00     0.051 A 
ATOM     15  C   UNL     1      25.058  28.794  40.217  1.00  0.00     0.157 A 
ATOM     16  C   UNL     1      26.181  30.912  39.806  1.00  0.00     0.062 A 
ATOM     17  C   UNL     1      26.205  29.511  39.803  1.00  0.00     0.158 A 
BRANCH  15  18
ATOM     18  O   UNL     1      25.005  27.398  40.232  1.00  0.00    -0.504 OA
ATOM     19  H   UNL     1      25.625  26.804  39.700  1.00  0.00     0.293 HD
ENDBRANCH  15  18
BRANCH  17  20
ATOM     20  O   UNL     1      27.381  28.880  39.392  1.00  0.00    -0.504 OA
ATOM     21  H   UNL     1      27.614  27.922  39.610  1.00  0.00     0.293 HD
ENDBRANCH  17  20
ENDBRANCH   1  12
BRANCH   2  22
ATOM     22  O   UNL     1      24.256  33.228  37.928  1.00  0.00    -0.502 OA
ATOM     23  H   UNL     1      23.675  33.686  37.237  1.00  0.00     0.293 HD
ENDBRANCH   2  22
BRANCH   6  24
ATOM     24  O   UNL     1      25.016  38.230  39.594  1.00  0.00    -0.507 OA
ATOM     25  H   UNL     1      24.863  38.005  38.623  1.00  0.00     0.293 HD
ENDBRANCH   6  24
BRANCH   8  26
ATOM     26  O   UNL     1      25.920  37.468  44.232  1.00  0.00    -0.508 OA
ATOM     27  H   UNL     1      25.874  38.466  44.404  1.00  0.00     0.293 HD
ENDBRANCH   8  26
TORSDOF 6
ENDMDL
MODEL 2
REMARK VINA RESULT:    -4.132     14.733     16.206
REMARK INTER + INTRA:          -5.312
REMARK INTER:                  -5.004
REMARK INTRA:                  -0.308
REMARK UNBOUND:                -0.334
REMARK SMILES O=c1c(O)c(-c2ccc(O)c(O)c2)oc2cc(O)cc(O)c12
REMARK SMILES IDX 5 1 3 2 2 3 1 4 22 5 20 6 19 7 17 8 16 9 15 10 14 11 6 12
REMARK SMILES IDX 7 13 8 14 9 15 13 16 11 17 10 18 12 20 4 22 21 24 18 26
REMARK H PARENT 10 19 12 21 4 23 21 25 18 27
REMARK Flexibility Score: inf
ROOT
ATOM      1  C   UNL     1      17.855  30.866  54.609  1.00  0.00     0.180 A 
ATOM      2  C   UNL     1      17.203  31.007  55.845  1.00  0.00     0.208 A 
ATOM      3  C   UNL     1      16.770  32.282  56.245  1.00  0.00     0.238 A 
ATOM      4  O   UNL     1      16.236  32.411  57.377  1.00  0.00    -0.285 OA
ATOM      5  C   UNL     1      16.978  33.395  55.396  1.00  0.00     0.111 A 
ATOM      6  C   UNL     1      16.545  34.725  55.682  1.00  0.00     0.134 A 
ATOM      7  C   UNL     1      16.920  35.771  54.830  1.00  0.00     0.093 A 
ATOM      8  C   UNL     1      17.656  35.528  53.671  1.00  0.00     0.123 A 
ATOM      9  C   UNL     1      18.034  34.224  53.350  1.00  0.00     0.094 A 
ATOM     10  C   UNL     1      17.706  33.164  54.199  1.00  0.00     0.146 A 
ATOM     11  O   UNL     1      18.094  31.939  53.864  1.00  0.00    -0.452 OA
ENDROOT
BRANCH   1  12
ATOM     12  C   UNL     1      18.319  29.551  54.108  1.00  0.00     0.025 A 
ATOM     13  C   UNL     1      17.407  28.691  53.480  1.00  0.00     0.016 A 
ATOM     14  C   UNL     1      17.820  27.439  53.019  1.00  0.00     0.051 A 
ATOM     15  C   UNL     1      19.141  27.015  53.190  1.00  0.00     0.157 A 
ATOM     16  C   UNL     1      19.642  29.120  54.302  1.00  0.00     0.062 A 
ATOM     17  C   UNL     1      20.064  27.864  53.846  1.00  0.00     0.158 A 
BRANCH  15  18
ATOM     18  O   UNL     1      19.492  25.755  52.701  1.00  0.00    -0.504 OA
ATOM     19  H   UNL     1      19.688  24.956  53.287  1.00  0.00     0.293 HD
ENDBRANCH  15  18
BRANCH  17  20
ATOM     20  O   UNL     1      21.394  27.503  54.071  1.00  0.00    -0.504 OA
ATOM     21  H   UNL     1      21.923  27.777  54.886  1.00  0.00     0.293 HD
ENDBRANCH  17  20
ENDBRANCH   1  12
BRANCH   2  22
ATOM     22  O   UNL     1      17.028  29.899  56.678  1.00  0.00    -0.502 OA
ATOM     23  H   UNL     1      16.632  29.027  56.347  1.00  0.00     0.293 HD
ENDBRANCH   2  22
BRANCH   6  24
ATOM     24  O   UNL     1      15.728  35.064  56.764  1.00  0.00    -0.507 OA
ATOM     25  H   UNL     1      15.540  34.463  57.553  1.00  0.00     0.293 HD
ENDBRANCH   6  24
BRANCH   8  26
ATOM     26  O   UNL     1      17.998  36.592  52.839  1.00  0.00    -0.508 OA
ATOM     27  H   UNL     1      18.306  37.481  53.215  1.00  0.00     0.293 HD
ENDBRANCH   8  26
TORSDOF 6
ENDMDL
MODEL 3
REMARK VINA RESULT:    -4.109      1.597      7.097
REMARK INTER + INTRA:          -5.284
REMARK INTER:                  -5.007
REMARK INTRA:                  -0.277
REMARK UNBOUND:                -0.334
REMARK SMILES O=c1c(O)c(-c2ccc(O)c(O)c2)oc2cc(O)cc(O)c12
REMARK SMILES IDX 5 1 3 2 2 3 1 4 22 5 20 6 19 7 17 8 16 9 15 10 14 11 6 12
REMARK SMILES IDX 7 13 8 14 9 15 13 16 11 17 10 18 12 20 4 22 21 24 18 26
REMARK H PARENT 10 19 12 21 4 23 21 25 18 27
REMARK Flexibility Score: inf
ROOT
ATOM      1  C   UNL     1      25.915  32.623  39.800  1.00  0.00     0.180 A 
ATOM      2  C   UNL     1      27.187  32.131  39.463  1.00  0.00     0.208 A 
ATOM      3  C   UNL     1      27.406  30.744  39.478  1.00  0.00     0.238 A 
ATOM      4  O   UNL     1      28.561  30.312  39.228  1.00  0.00    -0.285 OA
ATOM      5  C   UNL     1      26.347  29.867  39.814  1.00  0.00     0.111 A 
ATOM      6  C   UNL     1      26.445  28.443  39.823  1.00  0.00     0.134 A 
ATOM      7  C   UNL     1      25.371  27.680  40.297  1.00  0.00     0.093 A 
ATOM      8  C   UNL     1      24.181  28.284  40.702  1.00  0.00     0.123 A 
ATOM      9  C   UNL     1      24.053  29.671  40.642  1.00  0.00     0.094 A 
ATOM     10  C   UNL     1      25.119  30.462  40.207  1.00  0.00     0.146 A 
ATOM     11  O   UNL     1      24.961  31.780  40.175  1.00  0.00    -0.452 OA
ENDROOT
BRANCH   1  12
ATOM     12  C   UNL     1      25.602  34.071  39.783  1.00  0.00     0.025 A 
ATOM     13  C   UNL     1      24.918  34.616  38.687  1.00  0.00     0.016 A 
ATOM     14  C   UNL     1      24.630  35.981  38.642  1.00  0.00     0.051 A 
ATOM     15  C   UNL     1      25.032  36.830  39.679  1.00  0.00     0.157 A 
ATOM     16  C   UNL     1      26.026  34.924  40.816  1.00  0.00     0.062 A 
ATOM     17  C   UNL     1      25.745  36.296  40.778  1.00  0.00     0.158 A 
BRANCH  15  18
ATOM     18  O   UNL     1      24.707  38.185  39.577  1.00  0.00    -0.504 OA
ATOM     19  H   UNL     1      25.161  38.916  40.105  1.00  0.00     0.293 HD
ENDBRANCH  15  18
BRANCH  17  20
ATOM     20  O   UNL     1      26.195  37.083  41.841  1.00  0.00    -0.504 OA
ATOM     21  H   UNL     1      25.605  37.399  42.597  1.00  0.00     0.293 HD
ENDBRANCH  17  20
ENDBRANCH   1  12
BRANCH   2  22
ATOM     22  O   UNL     1      28.225  33.015  39.155  1.00  0.00    -0.502 OA
ATOM     23  H   UNL     1      28.764  33.490  39.869  1.00  0.00     0.293 HD
ENDBRANCH   2  22
BRANCH   6  24
ATOM     24  O   UNL     1      27.555  27.734  39.353  1.00  0.00    -0.507 OA
ATOM     25  H   UNL     1      28.473  27.761  39.771  1.00  0.00     0.293 HD
ENDBRANCH   6  24
BRANCH   8  26
ATOM     26  O   UNL     1      23.128  27.491  41.154  1.00  0.00    -0.508 OA
ATOM     27  H   UNL     1      22.877  27.455  42.135  1.00  0.00     0.293 HD
ENDBRANCH   8  26
TORSDOF 6
ENDMDL
MODEL 4
REMARK VINA RESULT:    -3.952      1.515      7.060
REMARK INTER + INTRA:          -5.094
REMARK INTER:                  -4.759
REMARK INTRA:                  -0.335
REMARK UNBOUND:                -0.334
REMARK SMILES O=c1c(O)c(-c2ccc(O)c(O)c2)oc2cc(O)cc(O)c12
REMARK SMILES IDX 5 1 3 2 2 3 1 4 22 5 20 6 19 7 17 8 16 9 15 10 14 11 6 12
REMARK SMILES IDX 7 13 8 14 9 15 13 16 11 17 10 18 12 20 4 22 21 24 18 26
REMARK H PARENT 10 19 12 21 4 23 21 25 18 27
REMARK Flexibility Score: inf
ROOT
ATOM      1  C   UNL     1      24.990  32.540  40.215  1.00  0.00     0.180 A 
ATOM      2  C   UNL     1      23.867  31.769  40.557  1.00  0.00     0.208 A 
ATOM      3  C   UNL     1      24.012  30.379  40.696  1.00  0.00     0.238 A 
ATOM      4  O   UNL     1      22.990  29.688  40.949  1.00  0.00    -0.285 OA
ATOM      5  C   UNL     1      25.280  29.781  40.509  1.00  0.00     0.111 A 
ATOM      6  C   UNL     1      25.551  28.388  40.665  1.00  0.00     0.134 A 
ATOM      7  C   UNL     1      26.814  27.888  40.327  1.00  0.00     0.093 A 
ATOM      8  C   UNL     1      27.835  28.738  39.903  1.00  0.00     0.123 A 
ATOM      9  C   UNL     1      27.600  30.109  39.804  1.00  0.00     0.094 A 
ATOM     10  C   UNL     1      26.339  30.633  40.099  1.00  0.00     0.146 A 
ATOM     11  O   UNL     1      26.153  31.942  39.982  1.00  0.00    -0.452 OA
ENDROOT
BRANCH   1  12
ATOM     12  C   UNL     1      24.921  34.013  40.074  1.00  0.00     0.025 A 
ATOM     13  C   UNL     1      24.692  34.576  38.810  1.00  0.00     0.016 A 
ATOM     14  C   UNL     1      24.643  35.962  38.652  1.00  0.00     0.051 A 
ATOM     15  C   UNL     1      24.838  36.812  39.745  1.00  0.00     0.157 A 
ATOM     16  C   UNL     1      25.141  34.864  41.170  1.00  0.00     0.062 A 
ATOM     17  C   UNL     1      25.097  36.257  41.020  1.00  0.00     0.158 A 
BRANCH  15  18
ATOM     18  O   UNL     1      24.771  38.189  39.522  1.00  0.00    -0.504 OA
ATOM     19  H   UNL     1      24.912  38.623  38.621  1.00  0.00     0.293 HD
ENDBRANCH  15  18
BRANCH  17  20
ATOM     20  O   UNL     1      25.321  37.042  42.154  1.00  0.00    -0.504 OA
ATOM     21  H   UNL     1      24.586  37.472  42.696  1.00  0.00     0.293 HD
ENDBRANCH  17  20
ENDBRANCH   1  12
BRANCH   2  22
ATOM     22  O   UNL     1      22.618  32.378  40.715  1.00  0.00    -0.502 OA
ATOM     23  H   UNL     1      21.825  32.151  40.128  1.00  0.00     0.293 HD
ENDBRANCH   2  22
BRANCH   6  24
ATOM     24  O   UNL     1      24.629  27.466  41.169  1.00  0.00    -0.507 OA
ATOM     25  H   UNL     1      23.757  27.709  41.614  1.00  0.00     0.293 HD
ENDBRANCH   6  24
BRANCH   8  26
ATOM     26  O   UNL     1      29.085  28.207  39.590  1.00  0.00    -0.508 OA
ATOM     27  H   UNL     1      29.676  28.626  38.881  1.00  0.00     0.293 HD
ENDBRANCH   8  26
TORSDOF 6
ENDMDL
MODEL 5
REMARK VINA RESULT:    -3.931     15.643     18.077
REMARK INTER + INTRA:          -5.069
REMARK INTER:                  -4.747
REMARK INTRA:                  -0.322
REMARK UNBOUND:                -0.334
REMARK SMILES O=c1c(O)c(-c2ccc(O)c(O)c2)oc2cc(O)cc(O)c12
REMARK SMILES IDX 5 1 3 2 2 3 1 4 22 5 20 6 19 7 17 8 16 9 15 10 14 11 6 12
REMARK SMILES IDX 7 13 8 14 9 15 13 16 11 17 10 18 12 20 4 22 21 24 18 26
REMARK H PARENT 10 19 12 21 4 23 21 25 18 27
REMARK Flexibility Score: inf
ROOT
ATOM      1  C   UNL     1      16.854  31.392  55.265  1.00  0.00     0.180 A 
ATOM      2  C   UNL     1      15.755  30.688  54.745  1.00  0.00     0.208 A 
ATOM      3  C   UNL     1      15.974  29.451  54.119  1.00  0.00     0.238 A 
ATOM      4  O   UNL     1      14.993  28.851  53.607  1.00  0.00    -0.285 OA
ATOM      5  C   UNL     1      17.285  28.926  54.036  1.00  0.00     0.111 A 
ATOM      6  C   UNL     1      17.618  27.662  53.459  1.00  0.00     0.134 A 
ATOM      7  C   UNL     1      18.963  27.302  53.314  1.00  0.00     0.093 A 
ATOM      8  C   UNL     1      19.984  28.128  53.782  1.00  0.00     0.123 A 
ATOM      9  C   UNL     1      19.669  29.337  54.401  1.00  0.00     0.094 A 
ATOM     10  C   UNL     1      18.337  29.741  54.528  1.00  0.00     0.146 A 
ATOM     11  O   UNL     1      18.080  30.904  55.114  1.00  0.00    -0.452 OA
ENDROOT
BRANCH   1  12
ATOM     12  C   UNL     1      16.700  32.691  55.960  1.00  0.00     0.025 A 
ATOM     13  C   UNL     1      16.488  32.712  57.346  1.00  0.00     0.016 A 
ATOM     14  C   UNL     1      16.321  33.924  58.018  1.00  0.00     0.051 A 
ATOM     15  C   UNL     1      16.345  35.136  57.320  1.00  0.00     0.157 A 
ATOM     16  C   UNL     1      16.702  33.905  55.253  1.00  0.00     0.062 A 
ATOM     17  C   UNL     1      16.532  35.126  55.917  1.00  0.00     0.158 A 
BRANCH  15  18
ATOM     18  O   UNL     1      16.178  36.314  58.051  1.00  0.00    -0.504 OA
ATOM     19  H   UNL     1      15.368  36.913  57.980  1.00  0.00     0.293 HD
ENDBRANCH  15  18
BRANCH  17  20
ATOM     20  O   UNL     1      16.548  36.294  55.150  1.00  0.00    -0.504 OA
ATOM     21  H   UNL     1      15.909  37.064  55.282  1.00  0.00     0.293 HD
ENDBRANCH  17  20
ENDBRANCH   1  12
BRANCH   2  22
ATOM     22  O   UNL     1      14.471  31.236  54.819  1.00  0.00    -0.502 OA
ATOM     23  H   UNL     1      13.903  31.178  55.655  1.00  0.00     0.293 HD
ENDBRANCH   2  22
BRANCH   6  24
ATOM     24  O   UNL     1      16.671  26.721  53.042  1.00  0.00    -0.507 OA
ATOM     25  H   UNL     1      15.865  26.930  52.474  1.00  0.00     0.293 HD
ENDBRANCH   6  24
BRANCH   8  26
ATOM     26  O   UNL     1      21.312  27.730  53.635  1.00  0.00    -0.508 OA
ATOM     27  H   UNL     1      21.586  26.759  53.724  1.00  0.00     0.293 HD
ENDBRANCH   8  26
TORSDOF 6
ENDMDL
MODEL 6
REMARK VINA RESULT:    -3.877      5.224      7.595
REMARK INTER + INTRA:          -5.004
REMARK INTER:                  -4.750
REMARK INTRA:                  -0.254
REMARK UNBOUND:                -0.334
REMARK SMILES O=c1c(O)c(-c2ccc(O)c(O)c2)oc2cc(O)cc(O)c12
REMARK SMILES IDX 5 1 3 2 2 3 1 4 22 5 20 6 19 7 17 8 16 9 15 10 14 11 6 12
REMARK SMILES IDX 7 13 8 14 9 15 13 16 11 17 10 18 12 20 4 22 21 24 18 26
REMARK H PARENT 10 19 12 21 4 23 21 25 18 27
REMARK Flexibility Score: inf
ROOT
ATOM      1  C   UNL     1      20.050  33.545  39.847  1.00  0.00     0.180 A 
ATOM      2  C   UNL     1      20.133  32.695  40.963  1.00  0.00     0.208 A 
ATOM      3  C   UNL     1      21.393  32.237  41.378  1.00  0.00     0.238 A 
ATOM      4  O   UNL     1      21.456  31.433  42.345  1.00  0.00    -0.285 OA
ATOM      5  C   UNL     1      22.555  32.647  40.683  1.00  0.00     0.111 A 
ATOM      6  C   UNL     1      23.888  32.276  41.041  1.00  0.00     0.134 A 
ATOM      7  C   UNL     1      24.952  32.634  40.204  1.00  0.00     0.093 A 
ATOM      8  C   UNL     1      24.742  33.403  39.060  1.00  0.00     0.123 A 
ATOM      9  C   UNL     1      23.452  33.821  38.733  1.00  0.00     0.094 A 
ATOM     10  C   UNL     1      22.365  33.450  39.528  1.00  0.00     0.146 A 
ATOM     11  O   UNL     1      21.152  33.859  39.176  1.00  0.00    -0.452 OA
ENDROOT
BRANCH   1  12
ATOM     12  C   UNL     1      18.760  34.088  39.364  1.00  0.00     0.025 A 
ATOM     13  C   UNL     1      17.887  33.260  38.645  1.00  0.00     0.016 A 
ATOM     14  C   UNL     1      16.675  33.758  38.164  1.00  0.00     0.051 A 
ATOM     15  C   UNL     1      16.317  35.093  38.376  1.00  0.00     0.157 A 
ATOM     16  C   UNL     1      18.414  35.436  39.560  1.00  0.00     0.062 A 
ATOM     17  C   UNL     1      17.201  35.946  39.078  1.00  0.00     0.158 A 
BRANCH  15  18
ATOM     18  O   UNL     1      15.088  35.528  37.875  1.00  0.00    -0.504 OA
ATOM     19  H   UNL     1      14.865  36.494  37.687  1.00  0.00     0.293 HD
ENDBRANCH  15  18
BRANCH  17  20
ATOM     20  O   UNL     1      16.922  37.295  39.312  1.00  0.00    -0.504 OA
ATOM     21  H   UNL     1      16.042  37.735  39.088  1.00  0.00     0.293 HD
ENDBRANCH  17  20
ENDBRANCH   1  12
BRANCH   2  22
ATOM     22  O   UNL     1      18.970  32.285  41.622  1.00  0.00    -0.502 OA
ATOM     23  H   UNL     1      18.954  32.067  42.610  1.00  0.00     0.293 HD
ENDBRANCH   2  22
BRANCH   6  24
ATOM     24  O   UNL     1      24.218  31.587  42.211  1.00  0.00    -0.507 OA
ATOM     25  H   UNL     1      25.011  30.972  42.312  1.00  0.00     0.293 HD
ENDBRANCH   6  24
BRANCH   8  26
ATOM     26  O   UNL     1      25.827  33.754  38.259  1.00  0.00    -0.508 OA
ATOM     27  H   UNL     1      25.699  34.209  37.363  1.00  0.00     0.293 HD
ENDBRANCH   8  26
TORSDOF 6
ENDMDL
MODEL 7
REMARK VINA RESULT:    -3.838     14.330     16.275
REMARK INTER + INTRA:          -4.957
REMARK INTER:                  -4.746
REMARK INTRA:                  -0.211
REMARK UNBOUND:                -0.334
REMARK SMILES O=c1c(O)c(-c2ccc(O)c(O)c2)oc2cc(O)cc(O)c12
REMARK SMILES IDX 5 1 3 2 2 3 1 4 22 5 20 6 19 7 17 8 16 9 15 10 14 11 6 12
REMARK SMILES IDX 7 13 8 14 9 15 13 16 11 17 10 18 12 20 4 22 21 24 18 26
REMARK H PARENT 10 19 12 21 4 23 21 25 18 27
REMARK Flexibility Score: inf
ROOT
ATOM      1  C   UNL     1      19.855  29.238  53.916  1.00  0.00     0.180 A 
ATOM      2  C   UNL     1      19.428  27.950  53.551  1.00  0.00     0.208 A 
ATOM      3  C   UNL     1      20.392  26.971  53.260  1.00  0.00     0.238 A 
ATOM      4  O   UNL     1      20.003  25.835  52.881  1.00  0.00    -0.285 OA
ATOM      5  C   UNL     1      21.767  27.287  53.355  1.00  0.00     0.111 A 
ATOM      6  C   UNL     1      22.830  26.361  53.123  1.00  0.00     0.134 A 
ATOM      7  C   UNL     1      24.154  26.817  53.118  1.00  0.00     0.093 A 
ATOM      8  C   UNL     1      24.459  28.148  53.400  1.00  0.00     0.123 A 
ATOM      9  C   UNL     1      23.433  29.048  53.688  1.00  0.00     0.094 A 
ATOM     10  C   UNL     1      22.099  28.632  53.665  1.00  0.00     0.146 A 
ATOM     11  O   UNL     1      21.152  29.522  53.933  1.00  0.00    -0.452 OA
ENDROOT
BRANCH   1  12
ATOM     12  C   UNL     1      18.899  30.316  54.260  1.00  0.00     0.025 A 
ATOM     13  C   UNL     1      18.838  31.466  53.460  1.00  0.00     0.016 A 
ATOM     14  C   UNL     1      17.959  32.502  53.778  1.00  0.00     0.051 A 
ATOM     15  C   UNL     1      17.137  32.420  54.907  1.00  0.00     0.157 A 
ATOM     16  C   UNL     1      18.092  30.240  55.408  1.00  0.00     0.062 A 
ATOM     17  C   UNL     1      17.209  31.277  55.737  1.00  0.00     0.158 A 
BRANCH  15  18
ATOM     18  O   UNL     1      16.275  33.488  55.167  1.00  0.00    -0.504 OA
ATOM     19  H   UNL     1      15.387  33.395  55.639  1.00  0.00     0.293 HD
ENDBRANCH  15  18
BRANCH  17  20
ATOM     20  O   UNL     1      16.434  31.131  56.890  1.00  0.00    -0.504 OA
ATOM     21  H   UNL     1      15.750  31.807  57.199  1.00  0.00     0.293 HD
ENDBRANCH  17  20
ENDBRANCH   1  12
BRANCH   2  22
ATOM     22  O   UNL     1      18.064  27.666  53.442  1.00  0.00    -0.502 OA
ATOM     23  H   UNL     1      17.587  27.037  54.076  1.00  0.00     0.293 HD
ENDBRANCH   2  22
BRANCH   6  24
ATOM     24  O   UNL     1      22.640  24.990  52.922  1.00  0.00    -0.507 OA
ATOM     25  H   UNL     1      22.632  24.537  52.021  1.00  0.00     0.293 HD
ENDBRANCH   6  24
BRANCH   8  26
ATOM     26  O   UNL     1      25.789  28.562  53.402  1.00  0.00    -0.508 OA
ATOM     27  H   UNL     1      26.546  27.913  53.220  1.00  0.00     0.293 HD
ENDBRANCH   8  26
TORSDOF 6
ENDMDL
MODEL 8
REMARK VINA RESULT:    -3.790      4.851      6.528
REMARK INTER + INTRA:          -4.899
REMARK INTER:                  -4.698
REMARK INTRA:                  -0.201
REMARK UNBOUND:                -0.334
REMARK SMILES O=c1c(O)c(-c2ccc(O)c(O)c2)oc2cc(O)cc(O)c12
REMARK SMILES IDX 5 1 3 2 2 3 1 4 22 5 20 6 19 7 17 8 16 9 15 10 14 11 6 12
REMARK SMILES IDX 7 13 8 14 9 15 13 16 11 17 10 18 12 20 4 22 21 24 18 26
REMARK H PARENT 10 19 12 21 4 23 21 25 18 27
REMARK Flexibility Score: inf
ROOT
ATOM      1  C   UNL     1      21.794  33.600  40.224  1.00  0.00     0.180 A 
ATOM      2  C   UNL     1      21.484  33.860  41.570  1.00  0.00     0.208 A 
ATOM      3  C   UNL     1      20.137  33.958  41.951  1.00  0.00     0.238 A 
ATOM      4  O   UNL     1      19.867  34.246  43.147  1.00  0.00    -0.285 OA
ATOM      5  C   UNL     1      19.117  33.778  40.987  1.00  0.00     0.111 A 
ATOM      6  C   UNL     1      17.718  33.816  41.270  1.00  0.00     0.134 A 
ATOM      7  C   UNL     1      16.799  33.754  40.215  1.00  0.00     0.093 A 
ATOM      8  C   UNL     1      17.224  33.591  38.897  1.00  0.00     0.123 A 
ATOM      9  C   UNL     1      18.586  33.493  38.615  1.00  0.00     0.094 A 
ATOM     10  C   UNL     1      19.529  33.587  39.642  1.00  0.00     0.146 A 
ATOM     11  O   UNL     1      20.817  33.501  39.331  1.00  0.00    -0.452 OA
ENDROOT
BRANCH   1  12
ATOM     12  C   UNL     1      23.191  33.458  39.751  1.00  0.00     0.025 A 
ATOM     13  C   UNL     1      23.697  34.368  38.812  1.00  0.00     0.016 A 
ATOM     14  C   UNL     1      25.004  34.241  38.338  1.00  0.00     0.051 A 
ATOM     15  C   UNL     1      25.824  33.196  38.777  1.00  0.00     0.157 A 
ATOM     16  C   UNL     1      24.004  32.394  40.177  1.00  0.00     0.062 A 
ATOM     17  C   UNL     1      25.315  32.256  39.704  1.00  0.00     0.158 A 
BRANCH  15  18
ATOM     18  O   UNL     1      27.123  33.128  38.269  1.00  0.00    -0.504 OA
ATOM     19  H   UNL     1      27.499  33.774  37.590  1.00  0.00     0.293 HD
ENDBRANCH  15  18
BRANCH  17  20
ATOM     20  O   UNL     1      26.067  31.177  40.173  1.00  0.00    -0.504 OA
ATOM     21  H   UNL     1      26.176  30.306  39.674  1.00  0.00     0.293 HD
ENDBRANCH  17  20
ENDBRANCH   1  12
BRANCH   2  22
ATOM     22  O   UNL     1      22.508  34.057  42.502  1.00  0.00    -0.502 OA
ATOM     23  H   UNL     1      22.458  34.767  43.221  1.00  0.00     0.293 HD
ENDBRANCH   2  22
BRANCH   6  24
ATOM     24  O   UNL     1      17.184  33.884  42.560  1.00  0.00    -0.507 OA
ATOM     25  H   UNL     1      16.421  33.317  42.898  1.00  0.00     0.293 HD
ENDBRANCH   6  24
BRANCH   8  26
ATOM     26  O   UNL     1      16.279  33.518  37.875  1.00  0.00    -0.508 OA
ATOM     27  H   UNL     1      15.340  33.877  37.996  1.00  0.00     0.293 HD
ENDBRANCH   8  26
TORSDOF 6
ENDMDL
MODEL 9
REMARK VINA RESULT:    -3.696     14.581     16.948
REMARK INTER + INTRA:          -4.786
REMARK INTER:                  -4.510
REMARK INTRA:                  -0.276
REMARK UNBOUND:                -0.334
REMARK SMILES O=c1c(O)c(-c2ccc(O)c(O)c2)oc2cc(O)cc(O)c12
REMARK SMILES IDX 5 1 3 2 2 3 1 4 22 5 20 6 19 7 17 8 16 9 15 10 14 11 6 12
REMARK SMILES IDX 7 13 8 14 9 15 13 16 11 17 10 18 12 20 4 22 21 24 18 26
REMARK H PARENT 10 19 12 21 4 23 21 25 18 27
REMARK Flexibility Score: inf
ROOT
ATOM      1  C   UNL     1      18.329  30.470  54.348  1.00  0.00     0.180 A 
ATOM      2  C   UNL     1      17.644  29.269  54.100  1.00  0.00     0.208 A 
ATOM      3  C   UNL     1      18.379  28.127  53.746  1.00  0.00     0.238 A 
ATOM      4  O   UNL     1      17.756  27.068  53.472  1.00  0.00    -0.285 OA
ATOM      5  C   UNL     1      19.790  28.195  53.662  1.00  0.00     0.111 A 
ATOM      6  C   UNL     1      20.639  27.089  53.352  1.00  0.00     0.134 A 
ATOM      7  C   UNL     1      22.010  27.302  53.169  1.00  0.00     0.093 A 
ATOM      8  C   UNL     1      22.574  28.565  53.347  1.00  0.00     0.123 A 
ATOM      9  C   UNL     1      21.764  29.641  53.708  1.00  0.00     0.094 A 
ATOM     10  C   UNL     1      20.386  29.468  53.864  1.00  0.00     0.146 A 
ATOM     11  O   UNL     1      19.648  30.519  54.197  1.00  0.00    -0.452 OA
ENDROOT
BRANCH   1  12
ATOM     12  C   UNL     1      17.625  31.710  54.749  1.00  0.00     0.025 A 
ATOM     13  C   UNL     1      17.518  32.770  53.836  1.00  0.00     0.016 A 
ATOM     14  C   UNL     1      16.877  33.954  54.201  1.00  0.00     0.051 A 
ATOM     15  C   UNL     1      16.345  34.112  55.485  1.00  0.00     0.157 A 
ATOM     16  C   UNL     1      17.112  31.874  56.047  1.00  0.00     0.062 A 
ATOM     17  C   UNL     1      16.469  33.061  56.423  1.00  0.00     0.158 A 
BRANCH  15  18
ATOM     18  O   UNL     1      15.709  35.319  55.785  1.00  0.00    -0.504 OA
ATOM     19  H   UNL     1      14.772  35.553  55.490  1.00  0.00     0.293 HD
ENDBRANCH  15  18
BRANCH  17  20
ATOM     20  O   UNL     1      15.981  33.152  57.728  1.00  0.00    -0.504 OA
ATOM     21  H   UNL     1      15.520  32.395  58.212  1.00  0.00     0.293 HD
ENDBRANCH  17  20
ENDBRANCH   1  12
BRANCH   2  22
ATOM     22  O   UNL     1      16.248  29.229  54.167  1.00  0.00    -0.502 OA
ATOM     23  H   UNL     1      15.691  28.643  53.558  1.00  0.00     0.293 HD
ENDBRANCH   2  22
BRANCH   6  24
ATOM     24  O   UNL     1      20.191  25.769  53.243  1.00  0.00    -0.507 OA
ATOM     25  H   UNL     1      19.264  25.498  52.952  1.00  0.00     0.293 HD
ENDBRANCH   6  24
BRANCH   8  26
ATOM     26  O   UNL     1      23.945  28.736  53.171  1.00  0.00    -0.508 OA
ATOM     27  H   UNL     1      24.581  27.947  53.168  1.00  0.00     0.293 HD
ENDBRANCH   8  26
TORSDOF 6
ENDMDL
