MODEL 1
REMARK VINA RESULT:    -7.238      0.000      0.000
REMARK INTER + INTRA:         -13.529
REMARK INTER:                 -11.893
REMARK INTRA:                  -1.636
REMARK UNBOUND:                -1.636
REMARK SMILES C[C@H]1O[C@H](OC[C@@H]2O[C@@H](Oc3c(-c4ccc(O)c(O)c4)oc4cc(O)cc(O)c4c3=O)[C@@H](O)[C@@H](O)[C@H]2O)[C@@H](O)[C@@H](O)[C@H]1O
REMARK SMILES IDX 7 1 36 2 34 3 32 4 9 5 8 6 6 7 5 8 4 9 1 10 2 11 42 12 3 13
REMARK SMILES IDX 40 14 38 15 43 16 41 18 39 20 37 22 35 24 10 26 11 27 12 28
REMARK SMILES IDX 30 29 21 30 29 31 31 32 22 33 27 34 23 35 26 36 24 37 13 38
REMARK SMILES IDX 20 39 14 40 18 41 15 42 16 43 19 44 17 46 28 48 25 50 33 52
REMARK H PARENT 43 17 41 19 39 21 37 23 35 25 19 45 17 47 28 49 25 51 33 53
REMARK Flexibility Score: inf
ROOT
ATOM      1  C   UNL     1     -38.723   4.665  80.156  1.00  0.00     0.180 C 
ATOM      2  C   UNL     1     -39.148   3.167  80.124  1.00  0.00     0.177 C 
ATOM      3  C   UNL     1     -39.544   2.718  78.701  1.00  0.00     0.180 C 
ATOM      4  C   UNL     1     -40.489   3.759  78.059  1.00  0.00     0.214 C 
ATOM      5  C   UNL     1     -39.976   5.207  78.237  1.00  0.00     0.339 C 
ATOM      6  O   UNL     1     -39.745   5.488  79.607  1.00  0.00    -0.332 OA
ENDROOT
BRANCH   1   7
ATOM      7  C   UNL     1     -38.473   5.129  81.600  1.00  0.00     0.198 C 
BRANCH   7   8
ATOM      8  O   UNL     1     -37.336   4.477  82.132  1.00  0.00    -0.347 OA
BRANCH   8   9
ATOM      9  C   UNL     1     -36.151   4.964  81.516  1.00  0.00     0.281 C 
ATOM     10  C   UNL     1     -35.815   8.110  83.410  1.00  0.00     0.041 C 
ATOM     11  C   UNL     1     -35.810   6.598  83.173  1.00  0.00     0.150 C 
ATOM     12  C   UNL     1     -34.515   5.953  83.709  1.00  0.00     0.174 C 
ATOM     13  O   UNL     1     -35.967   6.349  81.784  1.00  0.00    -0.344 OA
ATOM     14  C   UNL     1     -34.557   4.435  83.445  1.00  0.00     0.179 C 
ATOM     15  C   UNL     1     -34.935   4.126  81.980  1.00  0.00     0.202 C 
BRANCH  12  16
ATOM     16  O   UNL     1     -33.393   6.538  83.096  1.00  0.00    -0.388 OA
ATOM     17  H   UNL     1     -33.642   6.733  82.155  1.00  0.00     0.211 HD
ENDBRANCH  12  16
BRANCH  14  18
ATOM     18  O   UNL     1     -33.320   3.856  83.776  1.00  0.00    -0.387 OA
ATOM     19  H   UNL     1     -33.518   3.063  84.337  1.00  0.00     0.211 HD
ENDBRANCH  14  18
BRANCH  15  20
ATOM     20  O   UNL     1     -33.831   4.298  81.124  1.00  0.00    -0.385 OA
ATOM     21  H   UNL     1     -34.101   4.893  80.375  1.00  0.00     0.211 HD
ENDBRANCH  15  20
ENDBRANCH   8   9
ENDBRANCH   7   8
ENDBRANCH   1   7
BRANCH   2  22
ATOM     22  O   UNL     1     -38.156   2.319  80.648  1.00  0.00    -0.387 OA
ATOM     23  H   UNL     1     -37.415   2.270  79.989  1.00  0.00     0.211 HD
ENDBRANCH   2  22
BRANCH   3  24
ATOM     24  O   UNL     1     -38.420   2.446  77.896  1.00  0.00    -0.387 OA
ATOM     25  H   UNL     1     -38.206   3.260  77.375  1.00  0.00     0.211 HD
ENDBRANCH   3  24
BRANCH   5  26
ATOM     26  O   UNL     1     -38.802   5.489  77.457  1.00  0.00    -0.454 OA
BRANCH  26  27
ATOM     27  C   UNL     1     -37.857   6.478  77.776  1.00  0.00     0.214 A 
ATOM     28  C   UNL     1     -38.168   7.858  77.786  1.00  0.00     0.180 A 
ATOM     29  C   UNL     1     -36.551   6.085  78.094  1.00  0.00     0.239 A 
ATOM     30  O   UNL     1     -37.193   8.751  77.944  1.00  0.00    -0.452 OA
ATOM     31  C   UNL     1     -35.550   7.061  78.277  1.00  0.00     0.111 A 
ATOM     32  O   UNL     1     -36.284   4.858  78.191  1.00  0.00    -0.285 OA
ATOM     33  C   UNL     1     -35.926   8.418  78.161  1.00  0.00     0.146 A 
ATOM     34  C   UNL     1     -34.196   6.739  78.538  1.00  0.00     0.134 A 
ATOM     35  C   UNL     1     -34.966   9.428  78.288  1.00  0.00     0.094 A 
ATOM     36  C   UNL     1     -33.248   7.765  78.664  1.00  0.00     0.093 A 
ATOM     37  C   UNL     1     -33.629   9.105  78.534  1.00  0.00     0.123 A 
BRANCH  28  38
ATOM     38  C   UNL     1     -39.553   8.367  77.664  1.00  0.00     0.025 A 
ATOM     39  C   UNL     1     -39.972   8.964  76.467  1.00  0.00     0.062 A 
ATOM     40  C   UNL     1     -40.442   8.321  78.750  1.00  0.00     0.016 A 
ATOM     41  C   UNL     1     -41.268   9.480  76.332  1.00  0.00     0.158 A 
ATOM     42  C   UNL     1     -41.736   8.826  78.626  1.00  0.00     0.051 A 
ATOM     43  C   UNL     1     -42.162   9.410  77.427  1.00  0.00     0.157 A 
BRANCH  41  44
ATOM     44  O   UNL     1     -41.622  10.048  75.106  1.00  0.00    -0.504 OA
ATOM     45  H   UNL     1     -42.564  10.077  74.745  1.00  0.00     0.293 HD
ENDBRANCH  41  44
BRANCH  43  46
ATOM     46  O   UNL     1     -43.467   9.902  77.368  1.00  0.00    -0.504 OA
ATOM     47  H   UNL     1     -44.187   9.523  76.769  1.00  0.00     0.293 HD
ENDBRANCH  43  46
ENDBRANCH  28  38
BRANCH  34  48
ATOM     48  O   UNL     1     -33.784   5.412  78.671  1.00  0.00    -0.507 OA
ATOM     49  H   UNL     1     -34.079   4.692  78.020  1.00  0.00     0.293 HD
ENDBRANCH  34  48
BRANCH  37  50
ATOM     50  O   UNL     1     -32.686  10.124  78.645  1.00  0.00    -0.508 OA
ATOM     51  H   UNL     1     -32.181  10.468  77.837  1.00  0.00     0.293 HD
ENDBRANCH  37  50
ENDBRANCH  26  27
ENDBRANCH   5  26
BRANCH   4  52
ATOM     52  O   UNL     1     -40.789   3.466  76.717  1.00  0.00    -0.384 OA
ATOM     53  H   UNL     1     -41.634   2.950  76.696  1.00  0.00     0.211 HD
ENDBRANCH   4  52
TORSDOF 16
ENDMDL
MODEL 2
REMARK VINA RESULT:    -6.613     10.211     15.132
REMARK INTER + INTRA:         -12.502
REMARK INTER:                 -11.991
REMARK INTRA:                  -0.511
REMARK UNBOUND:                -1.636
REMARK SMILES C[C@H]1O[C@H](OC[C@@H]2O[C@@H](Oc3c(-c4ccc(O)c(O)c4)oc4cc(O)cc(O)c4c3=O)[C@@H](O)[C@@H](O)[C@H]2O)[C@@H](O)[C@@H](O)[C@H]1O
REMARK SMILES IDX 7 1 36 2 34 3 32 4 9 5 8 6 6 7 5 8 4 9 1 10 2 11 42 12 3 13
REMARK SMILES IDX 40 14 38 15 43 16 41 18 39 20 37 22 35 24 10 26 11 27 12 28
REMARK SMILES IDX 30 29 21 30 29 31 31 32 22 33 27 34 23 35 26 36 24 37 13 38
REMARK SMILES IDX 20 39 14 40 18 41 15 42 16 43 19 44 17 46 28 48 25 50 33 52
REMARK H PARENT 43 17 41 19 39 21 37 23 35 25 19 45 17 47 28 49 25 51 33 53
REMARK Flexibility Score: inf
ROOT
ATOM      1  C   UNL     1     -41.036  -8.028  80.893  1.00  0.00     0.180 C 
ATOM      2  C   UNL     1     -41.410  -9.523  81.130  1.00  0.00     0.177 C 
ATOM      3  C   UNL     1     -40.677 -10.104  82.357  1.00  0.00     0.180 C 
ATOM      4  C   UNL     1     -39.179  -9.724  82.311  1.00  0.00     0.214 C 
ATOM      5  C   UNL     1     -38.963  -8.226  81.991  1.00  0.00     0.339 C 
ATOM      6  O   UNL     1     -39.627  -7.874  80.790  1.00  0.00    -0.332 OA
ENDROOT
BRANCH   1   7
ATOM      7  C   UNL     1     -41.662  -7.511  79.587  1.00  0.00     0.198 C 
BRANCH   7   8
ATOM      8  O   UNL     1     -43.063  -7.384  79.735  1.00  0.00    -0.347 OA
BRANCH   8   9
ATOM      9  C   UNL     1     -43.441  -6.014  79.717  1.00  0.00     0.281 C 
ATOM     10  C   UNL     1     -44.525  -5.800  76.199  1.00  0.00     0.041 C 
ATOM     11  C   UNL     1     -44.579  -6.223  77.669  1.00  0.00     0.150 C 
ATOM     12  C   UNL     1     -45.969  -5.949  78.279  1.00  0.00     0.174 C 
ATOM     13  O   UNL     1     -43.564  -5.533  78.384  1.00  0.00    -0.344 OA
ATOM     14  C   UNL     1     -45.971  -6.388  79.756  1.00  0.00     0.179 C 
ATOM     15  C   UNL     1     -44.753  -5.820  80.516  1.00  0.00     0.202 C 
BRANCH  12  16
ATOM     16  O   UNL     1     -46.290  -4.585  78.160  1.00  0.00    -0.388 OA
ATOM     17  H   UNL     1     -45.444  -4.075  78.257  1.00  0.00     0.211 HD
ENDBRANCH  12  16
BRANCH  14  18
ATOM     18  O   UNL     1     -47.173  -5.997  80.371  1.00  0.00    -0.387 OA
ATOM     19  H   UNL     1     -47.776  -5.688  79.648  1.00  0.00     0.211 HD
ENDBRANCH  14  18
BRANCH  15  20
ATOM     20  O   UNL     1     -44.955  -4.471  80.862  1.00  0.00    -0.385 OA
ATOM     21  H   UNL     1     -45.280  -4.431  81.800  1.00  0.00     0.211 HD
ENDBRANCH  15  20
ENDBRANCH   8   9
ENDBRANCH   7   8
ENDBRANCH   1   7
BRANCH   2  22
ATOM     22  O   UNL     1     -42.798  -9.714  81.250  1.00  0.00    -0.387 OA
ATOM     23  H   UNL     1     -42.977 -10.690  81.216  1.00  0.00     0.211 HD
ENDBRANCH   2  22
BRANCH   3  24
ATOM     24  O   UNL     1     -41.288  -9.730  83.571  1.00  0.00    -0.387 OA
ATOM     25  H   UNL     1     -42.267  -9.690  83.427  1.00  0.00     0.211 HD
ENDBRANCH   3  24
BRANCH   5  26
ATOM     26  O   UNL     1     -39.361  -7.357  83.064  1.00  0.00    -0.454 OA
BRANCH  26  27
ATOM     27  C   UNL     1     -39.187  -5.963  83.061  1.00  0.00     0.214 A 
ATOM     28  C   UNL     1     -37.929  -5.349  83.260  1.00  0.00     0.180 A 
ATOM     29  C   UNL     1     -40.305  -5.144  82.856  1.00  0.00     0.239 A 
ATOM     30  O   UNL     1     -37.856  -4.028  83.401  1.00  0.00    -0.452 OA
ATOM     31  C   UNL     1     -40.184  -3.746  82.991  1.00  0.00     0.111 A 
ATOM     32  O   UNL     1     -41.413  -5.674  82.575  1.00  0.00    -0.285 OA
ATOM     33  C   UNL     1     -38.908  -3.224  83.300  1.00  0.00     0.146 A 
ATOM     34  C   UNL     1     -41.281  -2.860  82.861  1.00  0.00     0.134 A 
ATOM     35  C   UNL     1     -38.738  -1.848  83.490  1.00  0.00     0.094 A 
ATOM     36  C   UNL     1     -41.090  -1.484  83.054  1.00  0.00     0.093 A 
ATOM     37  C   UNL     1     -39.825  -0.979  83.373  1.00  0.00     0.123 A 
BRANCH  28  38
ATOM     38  C   UNL     1     -36.661  -6.114  83.284  1.00  0.00     0.025 A 
ATOM     39  C   UNL     1     -36.544  -7.294  82.537  1.00  0.00     0.062 A 
ATOM     40  C   UNL     1     -35.587  -5.713  84.095  1.00  0.00     0.016 A 
ATOM     41  C   UNL     1     -35.367  -8.053  82.563  1.00  0.00     0.158 A 
ATOM     42  C   UNL     1     -34.407  -6.457  84.125  1.00  0.00     0.051 A 
ATOM     43  C   UNL     1     -34.283  -7.628  83.368  1.00  0.00     0.157 A 
BRANCH  41  44
ATOM     44  O   UNL     1     -35.317  -9.210  81.782  1.00  0.00    -0.504 OA
ATOM     45  H   UNL     1     -36.073  -9.532  81.195  1.00  0.00     0.293 HD
ENDBRANCH  41  44
BRANCH  43  46
ATOM     46  O   UNL     1     -33.079  -8.331  83.445  1.00  0.00    -0.504 OA
ATOM     47  H   UNL     1     -32.327  -8.097  84.077  1.00  0.00     0.293 HD
ENDBRANCH  43  46
ENDBRANCH  28  38
BRANCH  34  48
ATOM     48  O   UNL     1     -42.555  -3.333  82.546  1.00  0.00    -0.507 OA
ATOM     49  H   UNL     1     -43.313  -2.707  82.296  1.00  0.00     0.293 HD
ENDBRANCH  34  48
BRANCH  37  50
ATOM     50  O   UNL     1     -39.638   0.386  83.577  1.00  0.00    -0.508 OA
ATOM     51  H   UNL     1     -39.169   0.738  84.403  1.00  0.00     0.293 HD
ENDBRANCH  37  50
ENDBRANCH  26  27
ENDBRANCH   5  26
BRANCH   4  52
ATOM     52  O   UNL     1     -38.482 -10.124  83.465  1.00  0.00    -0.384 OA
ATOM     53  H   UNL     1     -37.538  -9.842  83.368  1.00  0.00     0.211 HD
ENDBRANCH   4  52
TORSDOF 16
ENDMDL
MODEL 3
REMARK VINA RESULT:    -6.580      2.016      5.828
REMARK INTER + INTRA:         -12.447
REMARK INTER:                 -10.610
REMARK INTRA:                  -1.837
REMARK UNBOUND:                -1.636
REMARK SMILES C[C@H]1O[C@H](OC[C@@H]2O[C@@H](Oc3c(-c4ccc(O)c(O)c4)oc4cc(O)cc(O)c4c3=O)[C@@H](O)[C@@H](O)[C@H]2O)[C@@H](O)[C@@H](O)[C@H]1O
REMARK SMILES IDX 7 1 36 2 34 3 32 4 9 5 8 6 6 7 5 8 4 9 1 10 2 11 42 12 3 13
REMARK SMILES IDX 40 14 38 15 43 16 41 18 39 20 37 22 35 24 10 26 11 27 12 28
REMARK SMILES IDX 30 29 21 30 29 31 31 32 22 33 27 34 23 35 26 36 24 37 13 38
REMARK SMILES IDX 20 39 14 40 18 41 15 42 16 43 19 44 17 46 28 48 25 50 33 52
REMARK H PARENT 43 17 41 19 39 21 37 23 35 25 19 45 17 47 28 49 25 51 33 53
REMARK Flexibility Score: inf
ROOT
ATOM      1  C   UNL     1     -39.234   5.314  79.125  1.00  0.00     0.180 C 
ATOM      2  C   UNL     1     -40.347   4.260  78.843  1.00  0.00     0.177 C 
ATOM      3  C   UNL     1     -39.761   2.839  78.700  1.00  0.00     0.180 C 
ATOM      4  C   UNL     1     -38.526   2.865  77.771  1.00  0.00     0.214 C 
ATOM      5  C   UNL     1     -37.548   4.010  78.124  1.00  0.00     0.339 C 
ATOM      6  O   UNL     1     -38.223   5.256  78.127  1.00  0.00    -0.332 OA
ENDROOT
BRANCH   1   7
ATOM      7  C   UNL     1     -39.817   6.736  79.120  1.00  0.00     0.198 C 
BRANCH   7   8
ATOM      8  O   UNL     1     -38.823   7.673  79.489  1.00  0.00    -0.347 OA
BRANCH   8   9
ATOM      9  C   UNL     1     -39.032   8.908  78.816  1.00  0.00     0.281 C 
ATOM     10  C   UNL     1     -35.504   9.795  78.214  1.00  0.00     0.041 C 
ATOM     11  C   UNL     1     -36.810   9.013  78.053  1.00  0.00     0.150 C 
ATOM     12  C   UNL     1     -37.189   8.860  76.565  1.00  0.00     0.174 C 
ATOM     13  O   UNL     1     -37.836   9.678  78.775  1.00  0.00    -0.344 OA
ATOM     14  C   UNL     1     -38.508   8.070  76.457  1.00  0.00     0.179 C 
ATOM     15  C   UNL     1     -39.590   8.645  77.397  1.00  0.00     0.202 C 
BRANCH  12  16
ATOM     16  O   UNL     1     -37.310  10.125  75.964  1.00  0.00    -0.388 OA
ATOM     17  H   UNL     1     -36.440  10.588  76.078  1.00  0.00     0.211 HD
ENDBRANCH  12  16
BRANCH  14  18
ATOM     18  O   UNL     1     -38.954   8.061  75.124  1.00  0.00    -0.387 OA
ATOM     19  H   UNL     1     -38.686   7.187  74.740  1.00  0.00     0.211 HD
ENDBRANCH  14  18
BRANCH  15  20
ATOM     20  O   UNL     1     -40.175   9.801  76.848  1.00  0.00    -0.385 OA
ATOM     21  H   UNL     1     -40.741  10.230  77.544  1.00  0.00     0.211 HD
ENDBRANCH  15  20
ENDBRANCH   8   9
ENDBRANCH   7   8
ENDBRANCH   1   7
BRANCH   2  22
ATOM     22  O   UNL     1     -41.359   4.278  79.818  1.00  0.00    -0.387 OA
ATOM     23  H   UNL     1     -41.855   3.419  79.762  1.00  0.00     0.211 HD
ENDBRANCH   2  22
BRANCH   3  24
ATOM     24  O   UNL     1     -39.480   2.250  79.949  1.00  0.00    -0.387 OA
ATOM     25  H   UNL     1     -39.099   1.350  79.791  1.00  0.00     0.211 HD
ENDBRANCH   3  24
BRANCH   5  26
ATOM     26  O   UNL     1     -36.862   3.803  79.369  1.00  0.00    -0.454 OA
BRANCH  26  27
ATOM     27  C   UNL     1     -36.216   4.815  80.097  1.00  0.00     0.214 A 
ATOM     28  C   UNL     1     -36.686   5.276  81.349  1.00  0.00     0.180 A 
ATOM     29  C   UNL     1     -35.060   5.398  79.562  1.00  0.00     0.239 A 
ATOM     30  O   UNL     1     -36.121   6.341  81.913  1.00  0.00    -0.452 OA
ATOM     31  C   UNL     1     -34.476   6.511  80.201  1.00  0.00     0.111 A 
ATOM     32  O   UNL     1     -34.569   4.930  78.500  1.00  0.00    -0.285 OA
ATOM     33  C   UNL     1     -35.076   6.975  81.392  1.00  0.00     0.146 A 
ATOM     34  C   UNL     1     -33.345   7.191  79.686  1.00  0.00     0.134 A 
ATOM     35  C   UNL     1     -34.567   8.103  82.045  1.00  0.00     0.094 A 
ATOM     36  C   UNL     1     -32.847   8.319  80.356  1.00  0.00     0.093 A 
ATOM     37  C   UNL     1     -33.459   8.777  81.527  1.00  0.00     0.123 A 
BRANCH  28  38
ATOM     38  C   UNL     1     -37.772   4.599  82.094  1.00  0.00     0.025 A 
ATOM     39  C   UNL     1     -37.624   3.258  82.475  1.00  0.00     0.062 A 
ATOM     40  C   UNL     1     -38.981   5.257  82.373  1.00  0.00     0.016 A 
ATOM     41  C   UNL     1     -38.646   2.583  83.156  1.00  0.00     0.158 A 
ATOM     42  C   UNL     1     -40.003   4.597  83.055  1.00  0.00     0.051 A 
ATOM     43  C   UNL     1     -39.853   3.263  83.450  1.00  0.00     0.157 A 
BRANCH  41  44
ATOM     44  O   UNL     1     -38.423   1.252  83.518  1.00  0.00    -0.504 OA
ATOM     45  H   UNL     1     -38.773   0.829  84.366  1.00  0.00     0.293 HD
ENDBRANCH  41  44
BRANCH  43  46
ATOM     46  O   UNL     1     -40.914   2.657  84.125  1.00  0.00    -0.504 OA
ATOM     47  H   UNL     1     -40.801   1.952  84.839  1.00  0.00     0.293 HD
ENDBRANCH  43  46
ENDBRANCH  28  38
BRANCH  34  48
ATOM     48  O   UNL     1     -32.715   6.759  78.519  1.00  0.00    -0.507 OA
ATOM     49  H   UNL     1     -32.036   7.334  78.032  1.00  0.00     0.293 HD
ENDBRANCH  34  48
BRANCH  37  50
ATOM     50  O   UNL     1     -32.973   9.905  82.185  1.00  0.00    -0.508 OA
ATOM     51  H   UNL     1     -32.274  10.504  81.762  1.00  0.00     0.293 HD
ENDBRANCH  37  50
ENDBRANCH  26  27
ENDBRANCH   5  26
BRANCH   4  52
ATOM     52  O   UNL     1     -37.876   1.620  77.697  1.00  0.00    -0.384 OA
ATOM     53  H   UNL     1     -37.660   1.330  78.619  1.00  0.00     0.211 HD
ENDBRANCH   4  52
TORSDOF 16
ENDMDL
MODEL 4
REMARK VINA RESULT:    -6.481      1.739      5.685
REMARK INTER + INTRA:         -12.285
REMARK INTER:                 -10.289
REMARK INTRA:                  -1.996
REMARK UNBOUND:                -1.636
REMARK SMILES C[C@H]1O[C@H](OC[C@@H]2O[C@@H](Oc3c(-c4ccc(O)c(O)c4)oc4cc(O)cc(O)c4c3=O)[C@@H](O)[C@@H](O)[C@H]2O)[C@@H](O)[C@@H](O)[C@H]1O
REMARK SMILES IDX 7 1 36 2 34 3 32 4 9 5 8 6 6 7 5 8 4 9 1 10 2 11 42 12 3 13
REMARK SMILES IDX 40 14 38 15 43 16 41 18 39 20 37 22 35 24 10 26 11 27 12 28
REMARK SMILES IDX 30 29 21 30 29 31 31 32 22 33 27 34 23 35 26 36 24 37 13 38
REMARK SMILES IDX 20 39 14 40 18 41 15 42 16 43 19 44 17 46 28 48 25 50 33 52
REMARK H PARENT 43 17 41 19 39 21 37 23 35 25 19 45 17 47 28 49 25 51 33 53
REMARK Flexibility Score: inf
ROOT
ATOM      1  C   UNL     1     -38.359   7.663  77.792  1.00  0.00     0.180 C 
ATOM      2  C   UNL     1     -38.810   9.039  77.216  1.00  0.00     0.177 C 
ATOM      3  C   UNL     1     -40.099   9.546  77.897  1.00  0.00     0.180 C 
ATOM      4  C   UNL     1     -41.143   8.407  77.974  1.00  0.00     0.214 C 
ATOM      5  C   UNL     1     -40.532   7.084  78.491  1.00  0.00     0.339 C 
ATOM      6  O   UNL     1     -39.413   6.713  77.705  1.00  0.00    -0.332 OA
ENDROOT
BRANCH   1   7
ATOM      7  C   UNL     1     -37.161   7.110  77.004  1.00  0.00     0.198 C 
BRANCH   7   8
ATOM      8  O   UNL     1     -35.981   7.807  77.356  1.00  0.00    -0.347 OA
BRANCH   8   9
ATOM      9  C   UNL     1     -35.858   7.888  78.770  1.00  0.00     0.281 C 
ATOM     10  C   UNL     1     -33.500   5.096  79.266  1.00  0.00     0.041 C 
ATOM     11  C   UNL     1     -33.974   6.480  78.814  1.00  0.00     0.150 C 
ATOM     12  C   UNL     1     -33.012   7.585  79.296  1.00  0.00     0.174 C 
ATOM     13  O   UNL     1     -35.289   6.699  79.305  1.00  0.00    -0.344 OA
ATOM     14  C   UNL     1     -33.533   8.954  78.819  1.00  0.00     0.179 C 
ATOM     15  C   UNL     1     -35.029   9.139  79.154  1.00  0.00     0.202 C 
BRANCH  12  16
ATOM     16  O   UNL     1     -32.898   7.551  80.697  1.00  0.00    -0.388 OA
ATOM     17  H   UNL     1     -31.930   7.508  80.911  1.00  0.00     0.211 HD
ENDBRANCH  12  16
BRANCH  14  18
ATOM     18  O   UNL     1     -32.762   9.985  79.384  1.00  0.00    -0.387 OA
ATOM     19  H   UNL     1     -32.661  10.681  78.685  1.00  0.00     0.211 HD
ENDBRANCH  14  18
BRANCH  15  20
ATOM     20  O   UNL     1     -35.207   9.483  80.507  1.00  0.00    -0.385 OA
ATOM     21  H   UNL     1     -35.002   8.686  81.065  1.00  0.00     0.211 HD
ENDBRANCH  15  20
ENDBRANCH   8   9
ENDBRANCH   7   8
ENDBRANCH   1   7
BRANCH   2  22
ATOM     22  O   UNL     1     -37.797  10.011  77.297  1.00  0.00    -0.387 OA
ATOM     23  H   UNL     1     -37.146   9.836  76.567  1.00  0.00     0.211 HD
ENDBRANCH   2  22
BRANCH   3  24
ATOM     24  O   UNL     1     -39.845  10.125  79.156  1.00  0.00    -0.387 OA
ATOM     25  H   UNL     1     -39.472  11.031  79.013  1.00  0.00     0.211 HD
ENDBRANCH   3  24
BRANCH   5  26
ATOM     26  O   UNL     1     -40.180   7.131  79.883  1.00  0.00    -0.454 OA
BRANCH  26  27
ATOM     27  C   UNL     1     -39.169   6.354  80.472  1.00  0.00     0.214 A 
ATOM     28  C   UNL     1     -39.146   4.942  80.390  1.00  0.00     0.180 A 
ATOM     29  C   UNL     1     -38.143   6.999  81.174  1.00  0.00     0.239 A 
ATOM     30  O   UNL     1     -38.251   4.256  81.099  1.00  0.00    -0.452 OA
ATOM     31  C   UNL     1     -37.200   6.238  81.894  1.00  0.00     0.111 A 
ATOM     32  O   UNL     1     -38.092   8.258  81.170  1.00  0.00    -0.285 OA
ATOM     33  C   UNL     1     -37.316   4.831  81.846  1.00  0.00     0.146 A 
ATOM     34  C   UNL     1     -36.174   6.820  82.677  1.00  0.00     0.134 A 
ATOM     35  C   UNL     1     -36.435   4.026  82.577  1.00  0.00     0.094 A 
ATOM     36  C   UNL     1     -35.299   5.997  83.402  1.00  0.00     0.093 A 
ATOM     37  C   UNL     1     -35.432   4.605  83.357  1.00  0.00     0.123 A 
BRANCH  28  38
ATOM     38  C   UNL     1     -40.060   4.176  79.512  1.00  0.00     0.025 A 
ATOM     39  C   UNL     1     -41.376   3.927  79.925  1.00  0.00     0.062 A 
ATOM     40  C   UNL     1     -39.614   3.637  78.294  1.00  0.00     0.016 A 
ATOM     41  C   UNL     1     -42.255   3.182  79.127  1.00  0.00     0.158 A 
ATOM     42  C   UNL     1     -40.481   2.897  77.489  1.00  0.00     0.051 A 
ATOM     43  C   UNL     1     -41.801   2.660  77.892  1.00  0.00     0.157 A 
BRANCH  41  44
ATOM     44  O   UNL     1     -43.556   2.985  79.595  1.00  0.00    -0.504 OA
ATOM     45  H   UNL     1     -44.053   3.639  80.182  1.00  0.00     0.293 HD
ENDBRANCH  41  44
BRANCH  43  46
ATOM     46  O   UNL     1     -42.617   1.909  77.045  1.00  0.00    -0.504 OA
ATOM     47  H   UNL     1     -43.228   2.309  76.348  1.00  0.00     0.293 HD
ENDBRANCH  43  46
ENDBRANCH  28  38
BRANCH  34  48
ATOM     48  O   UNL     1     -36.017   8.205  82.743  1.00  0.00    -0.507 OA
ATOM     49  H   UNL     1     -35.353   8.640  83.375  1.00  0.00     0.293 HD
ENDBRANCH  34  48
BRANCH  37  50
ATOM     50  O   UNL     1     -34.572   3.788  84.088  1.00  0.00    -0.508 OA
ATOM     51  H   UNL     1     -33.661   4.113  84.388  1.00  0.00     0.293 HD
ENDBRANCH  37  50
ENDBRANCH  26  27
ENDBRANCH   5  26
BRANCH   4  52
ATOM     52  O   UNL     1     -42.294   8.774  78.692  1.00  0.00    -0.384 OA
ATOM     53  H   UNL     1     -42.628   9.630  78.323  1.00  0.00     0.211 HD
ENDBRANCH   4  52
TORSDOF 16
ENDMDL
MODEL 5
REMARK VINA RESULT:    -6.350      1.779      6.721
REMARK INTER + INTRA:         -12.069
REMARK INTER:                  -9.954
REMARK INTRA:                  -2.115
REMARK UNBOUND:                -1.636
REMARK SMILES C[C@H]1O[C@H](OC[C@@H]2O[C@@H](Oc3c(-c4ccc(O)c(O)c4)oc4cc(O)cc(O)c4c3=O)[C@@H](O)[C@@H](O)[C@H]2O)[C@@H](O)[C@@H](O)[C@H]1O
REMARK SMILES IDX 7 1 36 2 34 3 32 4 9 5 8 6 6 7 5 8 4 9 1 10 2 11 42 12 3 13
REMARK SMILES IDX 40 14 38 15 43 16 41 18 39 20 37 22 35 24 10 26 11 27 12 28
REMARK SMILES IDX 30 29 21 30 29 31 31 32 22 33 27 34 23 35 26 36 24 37 13 38
REMARK SMILES IDX 20 39 14 40 18 41 15 42 16 43 19 44 17 46 28 48 25 50 33 52
REMARK H PARENT 43 17 41 19 39 21 37 23 35 25 19 45 17 47 28 49 25 51 33 53
REMARK Flexibility Score: inf
ROOT
ATOM      1  C   UNL     1     -35.582   5.770  78.853  1.00  0.00     0.180 C 
ATOM      2  C   UNL     1     -34.025   5.752  78.792  1.00  0.00     0.177 C 
ATOM      3  C   UNL     1     -33.465   7.057  78.187  1.00  0.00     0.180 C 
ATOM      4  C   UNL     1     -34.243   7.423  76.901  1.00  0.00     0.214 C 
ATOM      5  C   UNL     1     -35.774   7.321  77.092  1.00  0.00     0.339 C 
ATOM      6  O   UNL     1     -36.131   6.036  77.568  1.00  0.00    -0.332 OA
ENDROOT
BRANCH   1   7
ATOM      7  C   UNL     1     -36.124   4.410  79.322  1.00  0.00     0.198 C 
BRANCH   7   8
ATOM      8  O   UNL     1     -37.526   4.478  79.499  1.00  0.00    -0.347 OA
BRANCH   8   9
ATOM      9  C   UNL     1     -38.096   3.177  79.447  1.00  0.00     0.281 C 
ATOM     10  C   UNL     1     -40.854   3.702  81.838  1.00  0.00     0.041 C 
ATOM     11  C   UNL     1     -40.068   3.859  80.534  1.00  0.00     0.150 C 
ATOM     12  C   UNL     1     -40.969   3.619  79.305  1.00  0.00     0.174 C 
ATOM     13  O   UNL     1     -38.972   2.956  80.547  1.00  0.00    -0.344 OA
ATOM     14  C   UNL     1     -40.132   3.785  78.022  1.00  0.00     0.179 C 
ATOM     15  C   UNL     1     -38.820   2.975  78.093  1.00  0.00     0.202 C 
BRANCH  12  16
ATOM     16  O   UNL     1     -41.542   2.336  79.368  1.00  0.00    -0.388 OA
ATOM     17  H   UNL     1     -41.465   1.937  78.463  1.00  0.00     0.211 HD
ENDBRANCH  12  16
BRANCH  14  18
ATOM     18  O   UNL     1     -40.892   3.412  76.901  1.00  0.00    -0.387 OA
ATOM     19  H   UNL     1     -40.293   2.887  76.311  1.00  0.00     0.211 HD
ENDBRANCH  14  18
BRANCH  15  20
ATOM     20  O   UNL     1     -39.052   1.612  77.828  1.00  0.00    -0.385 OA
ATOM     21  H   UNL     1     -38.268   1.090  78.147  1.00  0.00     0.211 HD
ENDBRANCH  15  20
ENDBRANCH   8   9
ENDBRANCH   7   8
ENDBRANCH   1   7
BRANCH   2  22
ATOM     22  O   UNL     1     -33.445   5.505  80.048  1.00  0.00    -0.387 OA
ATOM     23  H   UNL     1     -33.105   4.571  80.051  1.00  0.00     0.211 HD
ENDBRANCH   2  22
BRANCH   3  24
ATOM     24  O   UNL     1     -33.445   8.112  79.120  1.00  0.00    -0.387 OA
ATOM     25  H   UNL     1     -34.313   8.123  79.597  1.00  0.00     0.211 HD
ENDBRANCH   3  24
BRANCH   5  26
ATOM     26  O   UNL     1     -36.304   8.345  77.949  1.00  0.00    -0.454 OA
BRANCH  26  27
ATOM     27  C   UNL     1     -37.673   8.624  78.098  1.00  0.00     0.214 A 
ATOM     28  C   UNL     1     -38.371   8.400  79.307  1.00  0.00     0.180 A 
ATOM     29  C   UNL     1     -38.379   9.142  77.005  1.00  0.00     0.239 A 
ATOM     30  O   UNL     1     -39.695   8.537  79.338  1.00  0.00    -0.452 OA
ATOM     31  C   UNL     1     -39.778   9.296  77.083  1.00  0.00     0.111 A 
ATOM     32  O   UNL     1     -37.752   9.445  75.955  1.00  0.00    -0.285 OA
ATOM     33  C   UNL     1     -40.411   8.944  78.296  1.00  0.00     0.146 A 
ATOM     34  C   UNL     1     -40.567   9.753  75.999  1.00  0.00     0.134 A 
ATOM     35  C   UNL     1     -41.803   9.032  78.416  1.00  0.00     0.094 A 
ATOM     36  C   UNL     1     -41.960   9.837  76.139  1.00  0.00     0.093 A 
ATOM     37  C   UNL     1     -42.577   9.473  77.340  1.00  0.00     0.123 A 
BRANCH  28  38
ATOM     38  C   UNL     1     -37.688   8.049  80.573  1.00  0.00     0.025 A 
ATOM     39  C   UNL     1     -36.643   8.855  81.048  1.00  0.00     0.062 A 
ATOM     40  C   UNL     1     -38.023   6.882  81.280  1.00  0.00     0.016 A 
ATOM     41  C   UNL     1     -35.960   8.532  82.227  1.00  0.00     0.158 A 
ATOM     42  C   UNL     1     -37.353   6.553  82.458  1.00  0.00     0.051 A 
ATOM     43  C   UNL     1     -36.320   7.364  82.943  1.00  0.00     0.157 A 
BRANCH  41  44
ATOM     44  O   UNL     1     -34.940   9.389  82.648  1.00  0.00    -0.504 OA
ATOM     45  H   UNL     1     -35.096  10.282  83.091  1.00  0.00     0.293 HD
ENDBRANCH  41  44
BRANCH  43  46
ATOM     46  O   UNL     1     -35.685   6.978  84.124  1.00  0.00    -0.504 OA
ATOM     47  H   UNL     1     -35.345   6.044  84.303  1.00  0.00     0.293 HD
ENDBRANCH  43  46
ENDBRANCH  28  38
BRANCH  34  48
ATOM     48  O   UNL     1     -39.980  10.122  74.788  1.00  0.00    -0.507 OA
ATOM     49  H   UNL     1     -39.980   9.505  73.983  1.00  0.00     0.293 HD
ENDBRANCH  34  48
BRANCH  37  50
ATOM     50  O   UNL     1     -43.962   9.544  77.475  1.00  0.00    -0.508 OA
ATOM     51  H   UNL     1     -44.426  10.410  77.720  1.00  0.00     0.293 HD
ENDBRANCH  37  50
ENDBRANCH  26  27
ENDBRANCH   5  26
BRANCH   4  52
ATOM     52  O   UNL     1     -33.857   8.666  76.369  1.00  0.00    -0.384 OA
ATOM     53  H   UNL     1     -34.597   9.002  75.805  1.00  0.00     0.211 HD
ENDBRANCH   4  52
TORSDOF 16
ENDMDL
MODEL 6
REMARK VINA RESULT:    -6.224      1.995      5.530
REMARK INTER + INTRA:         -11.862
REMARK INTER:                 -10.662
REMARK INTRA:                  -1.200
REMARK UNBOUND:                -1.636
REMARK SMILES C[C@H]1O[C@H](OC[C@@H]2O[C@@H](Oc3c(-c4ccc(O)c(O)c4)oc4cc(O)cc(O)c4c3=O)[C@@H](O)[C@@H](O)[C@H]2O)[C@@H](O)[C@@H](O)[C@H]1O
REMARK SMILES IDX 7 1 36 2 34 3 32 4 9 5 8 6 6 7 5 8 4 9 1 10 2 11 42 12 3 13
REMARK SMILES IDX 40 14 38 15 43 16 41 18 39 20 37 22 35 24 10 26 11 27 12 28
REMARK SMILES IDX 30 29 21 30 29 31 31 32 22 33 27 34 23 35 26 36 24 37 13 38
REMARK SMILES IDX 20 39 14 40 18 41 15 42 16 43 19 44 17 46 28 48 25 50 33 52
REMARK H PARENT 43 17 41 19 39 21 37 23 35 25 19 45 17 47 28 49 25 51 33 53
REMARK Flexibility Score: inf
ROOT
ATOM      1  C   UNL     1     -38.248   6.023  82.022  1.00  0.00     0.180 C 
ATOM      2  C   UNL     1     -38.225   5.997  83.580  1.00  0.00     0.177 C 
ATOM      3  C   UNL     1     -37.530   4.728  84.117  1.00  0.00     0.180 C 
ATOM      4  C   UNL     1     -38.057   3.479  83.373  1.00  0.00     0.214 C 
ATOM      5  C   UNL     1     -38.095   3.681  81.840  1.00  0.00     0.339 C 
ATOM      6  O   UNL     1     -38.843   4.838  81.509  1.00  0.00    -0.332 OA
ENDROOT
BRANCH   1   7
ATOM      7  C   UNL     1     -39.068   7.219  81.510  1.00  0.00     0.198 C 
BRANCH   7   8
ATOM      8  O   UNL     1     -39.430   7.018  80.157  1.00  0.00    -0.347 OA
BRANCH   8   9
ATOM      9  C   UNL     1     -39.889   8.235  79.582  1.00  0.00     0.281 C 
ATOM     10  C   UNL     1     -36.651   9.988  79.380  1.00  0.00     0.041 C 
ATOM     11  C   UNL     1     -37.714   8.943  79.033  1.00  0.00     0.150 C 
ATOM     12  C   UNL     1     -37.946   8.866  77.510  1.00  0.00     0.174 C 
ATOM     13  O   UNL     1     -38.916   9.264  79.716  1.00  0.00    -0.344 OA
ATOM     14  C   UNL     1     -39.022   7.804  77.213  1.00  0.00     0.179 C 
ATOM     15  C   UNL     1     -40.272   8.003  78.099  1.00  0.00     0.202 C 
BRANCH  12  16
ATOM     16  O   UNL     1     -38.331  10.124  77.015  1.00  0.00    -0.388 OA
ATOM     17  H   UNL     1     -39.238  10.020  76.625  1.00  0.00     0.211 HD
ENDBRANCH  12  16
BRANCH  14  18
ATOM     18  O   UNL     1     -39.364   7.834  75.851  1.00  0.00    -0.387 OA
ATOM     19  H   UNL     1     -39.552   8.781  75.624  1.00  0.00     0.211 HD
ENDBRANCH  14  18
BRANCH  15  20
ATOM     20  O   UNL     1     -41.083   9.041  77.605  1.00  0.00    -0.385 OA
ATOM     21  H   UNL     1     -41.774   8.645  77.010  1.00  0.00     0.211 HD
ENDBRANCH  15  20
ENDBRANCH   8   9
ENDBRANCH   7   8
ENDBRANCH   1   7
BRANCH   2  22
ATOM     22  O   UNL     1     -37.630   7.150  84.124  1.00  0.00    -0.387 OA
ATOM     23  H   UNL     1     -36.907   6.859  84.741  1.00  0.00     0.211 HD
ENDBRANCH   2  22
BRANCH   3  24
ATOM     24  O   UNL     1     -36.125   4.827  84.069  1.00  0.00    -0.387 OA
ATOM     25  H   UNL     1     -35.759   3.943  83.815  1.00  0.00     0.211 HD
ENDBRANCH   3  24
BRANCH   5  26
ATOM     26  O   UNL     1     -36.788   3.735  81.246  1.00  0.00    -0.454 OA
BRANCH  26  27
ATOM     27  C   UNL     1     -36.399   4.668  80.270  1.00  0.00     0.214 A 
ATOM     28  C   UNL     1     -36.970   4.705  78.977  1.00  0.00     0.180 A 
ATOM     29  C   UNL     1     -35.402   5.600  80.587  1.00  0.00     0.239 A 
ATOM     30  O   UNL     1     -36.450   5.508  78.050  1.00  0.00    -0.452 OA
ATOM     31  C   UNL     1     -34.893   6.451  79.585  1.00  0.00     0.111 A 
ATOM     32  O   UNL     1     -34.957   5.649  81.765  1.00  0.00    -0.285 OA
ATOM     33  C   UNL     1     -35.447   6.344  78.289  1.00  0.00     0.146 A 
ATOM     34  C   UNL     1     -33.843   7.373  79.814  1.00  0.00     0.134 A 
ATOM     35  C   UNL     1     -34.950   7.131  77.244  1.00  0.00     0.094 A 
ATOM     36  C   UNL     1     -33.360   8.155  78.754  1.00  0.00     0.093 A 
ATOM     37  C   UNL     1     -33.907   8.031  77.473  1.00  0.00     0.123 A 
BRANCH  28  38
ATOM     38  C   UNL     1     -38.160   3.906  78.605  1.00  0.00     0.025 A 
ATOM     39  C   UNL     1     -39.437   4.479  78.686  1.00  0.00     0.062 A 
ATOM     40  C   UNL     1     -38.041   2.558  78.229  1.00  0.00     0.016 A 
ATOM     41  C   UNL     1     -40.583   3.738  78.367  1.00  0.00     0.158 A 
ATOM     42  C   UNL     1     -39.174   1.812  77.905  1.00  0.00     0.051 A 
ATOM     43  C   UNL     1     -40.449   2.386  77.971  1.00  0.00     0.157 A 
BRANCH  41  44
ATOM     44  O   UNL     1     -41.821   4.378  78.458  1.00  0.00    -0.504 OA
ATOM     45  H   UNL     1     -42.064   5.218  77.953  1.00  0.00     0.293 HD
ENDBRANCH  41  44
BRANCH  43  46
ATOM     46  O   UNL     1     -41.544   1.586  77.638  1.00  0.00    -0.504 OA
ATOM     47  H   UNL     1     -41.874   0.816  78.204  1.00  0.00     0.293 HD
ENDBRANCH  43  46
ENDBRANCH  28  38
BRANCH  34  48
ATOM     48  O   UNL     1     -33.277   7.518  81.081  1.00  0.00    -0.507 OA
ATOM     49  H   UNL     1     -32.401   8.010  81.223  1.00  0.00     0.293 HD
ENDBRANCH  34  48
BRANCH  37  50
ATOM     50  O   UNL     1     -33.418   8.798  76.417  1.00  0.00    -0.508 OA
ATOM     51  H   UNL     1     -33.215   9.784  76.529  1.00  0.00     0.293 HD
ENDBRANCH  37  50
ENDBRANCH  26  27
ENDBRANCH   5  26
BRANCH   4  52
ATOM     52  O   UNL     1     -37.375   2.304  83.735  1.00  0.00    -0.384 OA
ATOM     53  H   UNL     1     -37.037   1.877  82.908  1.00  0.00     0.211 HD
ENDBRANCH   4  52
TORSDOF 16
ENDMDL
MODEL 7
REMARK VINA RESULT:    -5.927      2.865      6.675
REMARK INTER + INTRA:         -11.373
REMARK INTER:                  -8.625
REMARK INTRA:                  -2.749
REMARK UNBOUND:                -1.636
REMARK SMILES C[C@H]1O[C@H](OC[C@@H]2O[C@@H](Oc3c(-c4ccc(O)c(O)c4)oc4cc(O)cc(O)c4c3=O)[C@@H](O)[C@@H](O)[C@H]2O)[C@@H](O)[C@@H](O)[C@H]1O
REMARK SMILES IDX 7 1 36 2 34 3 32 4 9 5 8 6 6 7 5 8 4 9 1 10 2 11 42 12 3 13
REMARK SMILES IDX 40 14 38 15 43 16 41 18 39 20 37 22 35 24 10 26 11 27 12 28
REMARK SMILES IDX 30 29 21 30 29 31 31 32 22 33 27 34 23 35 26 36 24 37 13 38
REMARK SMILES IDX 20 39 14 40 18 41 15 42 16 43 19 44 17 46 28 48 25 50 33 52
REMARK H PARENT 43 17 41 19 39 21 37 23 35 25 19 45 17 47 28 49 25 51 33 53
REMARK Flexibility Score: inf
ROOT
ATOM      1  C   UNL     1     -36.435   7.575  81.872  1.00  0.00     0.180 C 
ATOM      2  C   UNL     1     -36.286   7.554  83.423  1.00  0.00     0.177 C 
ATOM      3  C   UNL     1     -37.168   6.460  84.064  1.00  0.00     0.180 C 
ATOM      4  C   UNL     1     -38.593   6.509  83.466  1.00  0.00     0.214 C 
ATOM      5  C   UNL     1     -38.580   6.607  81.923  1.00  0.00     0.339 C 
ATOM      6  O   UNL     1     -37.800   7.712  81.501  1.00  0.00    -0.332 OA
ENDROOT
BRANCH   1   7
ATOM      7  C   UNL     1     -35.663   8.761  81.269  1.00  0.00     0.198 C 
BRANCH   7   8
ATOM      8  O   UNL     1     -34.839   9.357  82.251  1.00  0.00    -0.347 OA
BRANCH   8   9
ATOM      9  C   UNL     1     -33.735  10.013  81.640  1.00  0.00     0.281 C 
ATOM     10  C   UNL     1     -31.126   9.039  84.058  1.00  0.00     0.041 C 
ATOM     11  C   UNL     1     -32.160   8.851  82.945  1.00  0.00     0.150 C 
ATOM     12  C   UNL     1     -31.560   8.083  81.749  1.00  0.00     0.174 C 
ATOM     13  O   UNL     1     -32.642  10.125  82.543  1.00  0.00    -0.344 OA
ATOM     14  C   UNL     1     -32.636   7.922  80.658  1.00  0.00     0.179 C 
ATOM     15  C   UNL     1     -33.331   9.265  80.346  1.00  0.00     0.202 C 
BRANCH  12  16
ATOM     16  O   UNL     1     -30.437   8.766  81.249  1.00  0.00    -0.388 OA
ATOM     17  H   UNL     1     -29.694   8.110  81.198  1.00  0.00     0.211 HD
ENDBRANCH  12  16
BRANCH  14  18
ATOM     18  O   UNL     1     -32.065   7.371  79.498  1.00  0.00    -0.387 OA
ATOM     19  H   UNL     1     -31.083   7.394  79.625  1.00  0.00     0.211 HD
ENDBRANCH  14  18
BRANCH  15  20
ATOM     20  O   UNL     1     -32.531  10.068  79.513  1.00  0.00    -0.385 OA
ATOM     21  H   UNL     1     -32.752  11.022  79.686  1.00  0.00     0.211 HD
ENDBRANCH  15  20
ENDBRANCH   8   9
ENDBRANCH   7   8
ENDBRANCH   1   7
BRANCH   2  22
ATOM     22  O   UNL     1     -34.948   7.406  83.830  1.00  0.00    -0.387 OA
ATOM     23  H   UNL     1     -34.453   8.222  83.555  1.00  0.00     0.211 HD
ENDBRANCH   2  22
BRANCH   3  24
ATOM     24  O   UNL     1     -36.588   5.180  83.961  1.00  0.00    -0.387 OA
ATOM     25  H   UNL     1     -36.805   4.809  83.069  1.00  0.00     0.211 HD
ENDBRANCH   3  24
BRANCH   5  26
ATOM     26  O   UNL     1     -38.134   5.399  81.285  1.00  0.00    -0.454 OA
BRANCH  26  27
ATOM     27  C   UNL     1     -38.819   4.753  80.243  1.00  0.00     0.214 A 
ATOM     28  C   UNL     1     -38.452   4.894  78.884  1.00  0.00     0.180 A 
ATOM     29  C   UNL     1     -39.912   3.936  80.558  1.00  0.00     0.239 A 
ATOM     30  O   UNL     1     -39.234   4.382  77.935  1.00  0.00    -0.452 OA
ATOM     31  C   UNL     1     -40.703   3.392  79.526  1.00  0.00     0.111 A 
ATOM     32  O   UNL     1     -40.188   3.716  81.768  1.00  0.00    -0.285 OA
ATOM     33  C   UNL     1     -40.328   3.675  78.193  1.00  0.00     0.146 A 
ATOM     34  C   UNL     1     -41.859   2.611  79.767  1.00  0.00     0.134 A 
ATOM     35  C   UNL     1     -41.101   3.200  77.127  1.00  0.00     0.094 A 
ATOM     36  C   UNL     1     -42.620   2.142  78.686  1.00  0.00     0.093 A 
ATOM     37  C   UNL     1     -42.246   2.439  77.372  1.00  0.00     0.123 A 
BRANCH  28  38
ATOM     38  C   UNL     1     -37.203   5.564  78.458  1.00  0.00     0.025 A 
ATOM     39  C   UNL     1     -35.965   4.954  78.708  1.00  0.00     0.062 A 
ATOM     40  C   UNL     1     -37.227   6.835  77.862  1.00  0.00     0.016 A 
ATOM     41  C   UNL     1     -34.765   5.577  78.341  1.00  0.00     0.158 A 
ATOM     42  C   UNL     1     -36.039   7.463  77.488  1.00  0.00     0.051 A 
ATOM     43  C   UNL     1     -34.803   6.850  77.722  1.00  0.00     0.157 A 
BRANCH  41  44
ATOM     44  O   UNL     1     -33.570   4.904  78.608  1.00  0.00    -0.504 OA
ATOM     45  H   UNL     1     -33.321   4.011  78.209  1.00  0.00     0.293 HD
ENDBRANCH  41  44
BRANCH  43  46
ATOM     46  O   UNL     1     -33.650   7.532  77.330  1.00  0.00    -0.504 OA
ATOM     47  H   UNL     1     -33.509   8.524  77.459  1.00  0.00     0.293 HD
ENDBRANCH  43  46
ENDBRANCH  28  38
BRANCH  34  48
ATOM     48  O   UNL     1     -42.257   2.299  81.067  1.00  0.00    -0.507 OA
ATOM     49  H   UNL     1     -41.670   1.757  81.692  1.00  0.00     0.293 HD
ENDBRANCH  34  48
BRANCH  37  50
ATOM     50  O   UNL     1     -43.010   1.985  76.298  1.00  0.00    -0.508 OA
ATOM     51  H   UNL     1     -43.492   2.628  75.682  1.00  0.00     0.293 HD
ENDBRANCH  37  50
ENDBRANCH  26  27
ENDBRANCH   5  26
BRANCH   4  52
ATOM     52  O   UNL     1     -39.409   5.459  83.923  1.00  0.00    -0.384 OA
ATOM     53  H   UNL     1     -39.341   5.423  84.910  1.00  0.00     0.211 HD
ENDBRANCH   4  52
TORSDOF 16
ENDMDL
MODEL 8
REMARK VINA RESULT:    -5.760      2.368      6.951
REMARK INTER + INTRA:         -11.100
REMARK INTER:                  -8.982
REMARK INTRA:                  -2.118
REMARK UNBOUND:                -1.636
REMARK SMILES C[C@H]1O[C@H](OC[C@@H]2O[C@@H](Oc3c(-c4ccc(O)c(O)c4)oc4cc(O)cc(O)c4c3=O)[C@@H](O)[C@@H](O)[C@H]2O)[C@@H](O)[C@@H](O)[C@H]1O
REMARK SMILES IDX 7 1 36 2 34 3 32 4 9 5 8 6 6 7 5 8 4 9 1 10 2 11 42 12 3 13
REMARK SMILES IDX 40 14 38 15 43 16 41 18 39 20 37 22 35 24 10 26 11 27 12 28
REMARK SMILES IDX 30 29 21 30 29 31 31 32 22 33 27 34 23 35 26 36 24 37 13 38
REMARK SMILES IDX 20 39 14 40 18 41 15 42 16 43 19 44 17 46 28 48 25 50 33 52
REMARK H PARENT 43 17 41 19 39 21 37 23 35 25 19 45 17 47 28 49 25 51 33 53
REMARK Flexibility Score: inf
ROOT
ATOM      1  C   UNL     1     -37.985   6.805  78.099  1.00  0.00     0.180 C 
ATOM      2  C   UNL     1     -38.166   8.158  77.346  1.00  0.00     0.177 C 
ATOM      3  C   UNL     1     -37.184   9.232  77.863  1.00  0.00     0.180 C 
ATOM      4  C   UNL     1     -37.183   9.249  79.409  1.00  0.00     0.214 C 
ATOM      5  C   UNL     1     -37.076   7.830  80.014  1.00  0.00     0.339 C 
ATOM      6  O   UNL     1     -38.099   6.994  79.503  1.00  0.00    -0.332 OA
ENDROOT
BRANCH   1   7
ATOM      7  C   UNL     1     -39.064   5.797  77.671  1.00  0.00     0.198 C 
BRANCH   7   8
ATOM      8  O   UNL     1     -39.792   5.354  78.800  1.00  0.00    -0.347 OA
BRANCH   8   9
ATOM      9  C   UNL     1     -39.655   3.948  78.958  1.00  0.00     0.281 C 
ATOM     10  C   UNL     1     -42.138   3.462  81.641  1.00  0.00     0.041 C 
ATOM     11  C   UNL     1     -41.624   3.770  80.232  1.00  0.00     0.150 C 
ATOM     12  C   UNL     1     -42.377   2.944  79.169  1.00  0.00     0.174 C 
ATOM     13  O   UNL     1     -40.229   3.511  80.185  1.00  0.00    -0.344 OA
ATOM     14  C   UNL     1     -41.823   3.287  77.773  1.00  0.00     0.179 C 
ATOM     15  C   UNL     1     -40.281   3.219  77.744  1.00  0.00     0.202 C 
BRANCH  12  16
ATOM     16  O   UNL     1     -42.243   1.570  79.439  1.00  0.00    -0.388 OA
ATOM     17  H   UNL     1     -41.393   1.452  79.937  1.00  0.00     0.211 HD
ENDBRANCH  12  16
BRANCH  14  18
ATOM     18  O   UNL     1     -42.382   2.429  76.811  1.00  0.00    -0.387 OA
ATOM     19  H   UNL     1     -42.809   3.006  76.127  1.00  0.00     0.211 HD
ENDBRANCH  14  18
BRANCH  15  20
ATOM     20  O   UNL     1     -39.834   1.888  77.652  1.00  0.00    -0.385 OA
ATOM     21  H   UNL     1     -39.303   1.676  78.465  1.00  0.00     0.211 HD
ENDBRANCH  15  20
ENDBRANCH   8   9
ENDBRANCH   7   8
ENDBRANCH   1   7
BRANCH   2  22
ATOM     22  O   UNL     1     -38.046   8.014  75.953  1.00  0.00    -0.387 OA
ATOM     23  H   UNL     1     -37.827   7.064  75.760  1.00  0.00     0.211 HD
ENDBRANCH   2  22
BRANCH   3  24
ATOM     24  O   UNL     1     -35.890   9.073  77.328  1.00  0.00    -0.387 OA
ATOM     25  H   UNL     1     -35.237   9.427  77.983  1.00  0.00     0.211 HD
ENDBRANCH   3  24
BRANCH   5  26
ATOM     26  O   UNL     1     -35.785   7.229  79.816  1.00  0.00    -0.454 OA
BRANCH  26  27
ATOM     27  C   UNL     1     -34.691   7.398  80.681  1.00  0.00     0.214 A 
ATOM     28  C   UNL     1     -34.587   6.727  81.921  1.00  0.00     0.180 A 
ATOM     29  C   UNL     1     -33.661   8.268  80.303  1.00  0.00     0.239 A 
ATOM     30  O   UNL     1     -33.605   7.047  82.762  1.00  0.00    -0.452 OA
ATOM     31  C   UNL     1     -32.625   8.565  81.212  1.00  0.00     0.111 A 
ATOM     32  O   UNL     1     -33.687   8.794  79.158  1.00  0.00    -0.285 OA
ATOM     33  C   UNL     1     -32.657   7.932  82.475  1.00  0.00     0.146 A 
ATOM     34  C   UNL     1     -31.585   9.483  80.926  1.00  0.00     0.134 A 
ATOM     35  C   UNL     1     -31.681   8.223  83.434  1.00  0.00     0.094 A 
ATOM     36  C   UNL     1     -30.614   9.760  81.900  1.00  0.00     0.093 A 
ATOM     37  C   UNL     1     -30.664   9.137  83.151  1.00  0.00     0.123 A 
BRANCH  28  38
ATOM     38  C   UNL     1     -35.510   5.642  82.324  1.00  0.00     0.025 A 
ATOM     39  C   UNL     1     -36.795   5.957  82.789  1.00  0.00     0.062 A 
ATOM     40  C   UNL     1     -35.102   4.299  82.311  1.00  0.00     0.016 A 
ATOM     41  C   UNL     1     -37.680   4.953  83.203  1.00  0.00     0.158 A 
ATOM     42  C   UNL     1     -35.976   3.290  82.717  1.00  0.00     0.051 A 
ATOM     43  C   UNL     1     -37.265   3.601  83.166  1.00  0.00     0.157 A 
BRANCH  41  44
ATOM     44  O   UNL     1     -38.950   5.340  83.640  1.00  0.00    -0.504 OA
ATOM     45  H   UNL     1     -39.756   5.422  83.038  1.00  0.00     0.293 HD
ENDBRANCH  41  44
BRANCH  43  46
ATOM     46  O   UNL     1     -38.090   2.547  83.563  1.00  0.00    -0.504 OA
ATOM     47  H   UNL     1     -38.912   2.659  84.138  1.00  0.00     0.293 HD
ENDBRANCH  43  46
ENDBRANCH  28  38
BRANCH  34  48
ATOM     48  O   UNL     1     -31.510  10.121  79.687  1.00  0.00    -0.507 OA
ATOM     49  H   UNL     1     -30.745   9.951  79.043  1.00  0.00     0.293 HD
ENDBRANCH  34  48
BRANCH  37  50
ATOM     50  O   UNL     1     -29.707   9.422  84.123  1.00  0.00    -0.508 OA
ATOM     51  H   UNL     1     -29.101   8.702  84.496  1.00  0.00     0.293 HD
ENDBRANCH  37  50
ENDBRANCH  26  27
ENDBRANCH   5  26
BRANCH   4  52
ATOM     52  O   UNL     1     -36.220  10.125  79.941  1.00  0.00    -0.384 OA
ATOM     53  H   UNL     1     -35.395  10.040  79.401  1.00  0.00     0.211 HD
ENDBRANCH   4  52
TORSDOF 16
ENDMDL
MODEL 9
REMARK VINA RESULT:    -5.197      2.332      6.329
REMARK INTER + INTRA:         -10.174
REMARK INTER:                  -8.775
REMARK INTRA:                  -1.398
REMARK UNBOUND:                -1.636
REMARK SMILES C[C@H]1O[C@H](OC[C@@H]2O[C@@H](Oc3c(-c4ccc(O)c(O)c4)oc4cc(O)cc(O)c4c3=O)[C@@H](O)[C@@H](O)[C@H]2O)[C@@H](O)[C@@H](O)[C@H]1O
REMARK SMILES IDX 7 1 36 2 34 3 32 4 9 5 8 6 6 7 5 8 4 9 1 10 2 11 42 12 3 13
REMARK SMILES IDX 40 14 38 15 43 16 41 18 39 20 37 22 35 24 10 26 11 27 12 28
REMARK SMILES IDX 30 29 21 30 29 31 31 32 22 33 27 34 23 35 26 36 24 37 13 38
REMARK SMILES IDX 20 39 14 40 18 41 15 42 16 43 19 44 17 46 28 48 25 50 33 52
REMARK H PARENT 43 17 41 19 39 21 37 23 35 25 19 45 17 47 28 49 25 51 33 53
REMARK Flexibility Score: inf
ROOT
ATOM      1  C   UNL     1     -38.556   6.466  77.773  1.00  0.00     0.180 C 
ATOM      2  C   UNL     1     -38.688   7.803  76.985  1.00  0.00     0.177 C 
ATOM      3  C   UNL     1     -37.834   8.923  77.617  1.00  0.00     0.180 C 
ATOM      4  C   UNL     1     -38.047   8.953  79.148  1.00  0.00     0.214 C 
ATOM      5  C   UNL     1     -37.964   7.544  79.781  1.00  0.00     0.339 C 
ATOM      6  O   UNL     1     -38.871   6.659  79.146  1.00  0.00    -0.332 OA
ENDROOT
BRANCH   1   7
ATOM      7  C   UNL     1     -39.521   5.407  77.215  1.00  0.00     0.198 C 
BRANCH   7   8
ATOM      8  O   UNL     1     -40.582   5.187  78.124  1.00  0.00    -0.347 OA
BRANCH   8   9
ATOM      9  C   UNL     1     -40.751   3.796  78.362  1.00  0.00     0.281 C 
ATOM     10  C   UNL     1     -37.382   3.061  79.668  1.00  0.00     0.041 C 
ATOM     11  C   UNL     1     -38.794   3.651  79.659  1.00  0.00     0.150 C 
ATOM     12  C   UNL     1     -39.544   3.325  80.967  1.00  0.00     0.174 C 
ATOM     13  O   UNL     1     -39.495   3.149  78.531  1.00  0.00    -0.344 OA
ATOM     14  C   UNL     1     -40.957   3.937  80.907  1.00  0.00     0.179 C 
ATOM     15  C   UNL     1     -41.673   3.580  79.587  1.00  0.00     0.202 C 
BRANCH  12  16
ATOM     16  O   UNL     1     -39.607   1.933  81.156  1.00  0.00    -0.388 OA
ATOM     17  H   UNL     1     -38.897   1.529  80.591  1.00  0.00     0.211 HD
ENDBRANCH  12  16
BRANCH  14  18
ATOM     18  O   UNL     1     -41.710   3.515  82.016  1.00  0.00    -0.387 OA
ATOM     19  H   UNL     1     -41.532   2.546  82.129  1.00  0.00     0.211 HD
ENDBRANCH  14  18
BRANCH  15  20
ATOM     20  O   UNL     1     -42.184   2.270  79.626  1.00  0.00    -0.385 OA
ATOM     21  H   UNL     1     -42.546   2.099  80.536  1.00  0.00     0.211 HD
ENDBRANCH  15  20
ENDBRANCH   8   9
ENDBRANCH   7   8
ENDBRANCH   1   7
BRANCH   2  22
ATOM     22  O   UNL     1     -38.371   7.654  75.623  1.00  0.00    -0.387 OA
ATOM     23  H   UNL     1     -38.845   6.849  75.284  1.00  0.00     0.211 HD
ENDBRANCH   2  22
BRANCH   3  24
ATOM     24  O   UNL     1     -36.473   8.819  77.267  1.00  0.00    -0.387 OA
ATOM     25  H   UNL     1     -36.343   9.255  76.388  1.00  0.00     0.211 HD
ENDBRANCH   3  24
BRANCH   5  26
ATOM     26  O   UNL     1     -36.634   7.000  79.771  1.00  0.00    -0.454 OA
BRANCH  26  27
ATOM     27  C   UNL     1     -35.620   7.366  80.672  1.00  0.00     0.214 A 
ATOM     28  C   UNL     1     -35.658   7.026  82.044  1.00  0.00     0.180 A 
ATOM     29  C   UNL     1     -34.527   8.100  80.195  1.00  0.00     0.239 A 
ATOM     30  O   UNL     1     -34.749   7.534  82.873  1.00  0.00    -0.452 OA
ATOM     31  C   UNL     1     -33.571   8.602  81.101  1.00  0.00     0.111 A 
ATOM     32  O   UNL     1     -34.426   8.321  78.959  1.00  0.00    -0.285 OA
ATOM     33  C   UNL     1     -33.746   8.306  82.472  1.00  0.00     0.146 A 
ATOM     34  C   UNL     1     -32.474   9.404  80.702  1.00  0.00     0.134 A 
ATOM     35  C   UNL     1     -32.853   8.815  83.422  1.00  0.00     0.094 A 
ATOM     36  C   UNL     1     -31.589   9.904  81.669  1.00  0.00     0.093 A 
ATOM     37  C   UNL     1     -31.780   9.616  83.024  1.00  0.00     0.123 A 
BRANCH  28  38
ATOM     38  C   UNL     1     -36.656   6.089  82.609  1.00  0.00     0.025 A 
ATOM     39  C   UNL     1     -36.333   4.732  82.756  1.00  0.00     0.062 A 
ATOM     40  C   UNL     1     -37.949   6.521  82.945  1.00  0.00     0.016 A 
ATOM     41  C   UNL     1     -37.266   3.818  83.262  1.00  0.00     0.158 A 
ATOM     42  C   UNL     1     -38.885   5.620  83.454  1.00  0.00     0.051 A 
ATOM     43  C   UNL     1     -38.561   4.269  83.615  1.00  0.00     0.157 A 
BRANCH  41  44
ATOM     44  O   UNL     1     -36.870   2.485  83.394  1.00  0.00    -0.504 OA
ATOM     45  H   UNL     1     -36.705   2.027  84.279  1.00  0.00     0.293 HD
ENDBRANCH  41  44
BRANCH  43  46
ATOM     46  O   UNL     1     -39.543   3.417  84.125  1.00  0.00    -0.504 OA
ATOM     47  H   UNL     1     -40.326   3.728  84.681  1.00  0.00     0.293 HD
ENDBRANCH  43  46
ENDBRANCH  28  38
BRANCH  34  48
ATOM     48  O   UNL     1     -32.259   9.710  79.358  1.00  0.00    -0.507 OA
ATOM     49  H   UNL     1     -31.671  10.486  79.073  1.00  0.00     0.293 HD
ENDBRANCH  34  48
BRANCH  37  50
ATOM     50  O   UNL     1     -30.909  10.123  83.986  1.00  0.00    -0.508 OA
ATOM     51  H   UNL     1     -30.166  10.766  83.739  1.00  0.00     0.293 HD
ENDBRANCH  37  50
ENDBRANCH  26  27
ENDBRANCH   5  26
BRANCH   4  52
ATOM     52  O   UNL     1     -37.205   9.874  79.795  1.00  0.00    -0.384 OA
ATOM     53  H   UNL     1     -36.295   9.778  79.417  1.00  0.00     0.211 HD
ENDBRANCH   4  52
TORSDOF 16
ENDMDL
