MODEL 1
REMARK VINA RESULT:     3.621      0.000      0.000
REMARK INTER + INTRA:           4.760
REMARK INTER:                   4.257
REMARK INTRA:                   0.504
REMARK UNBOUND:                 0.504
REMARK SMILES O=c1c(O)c(-c2ccc(O)cc2)oc2cc(O)cc(O)c12
REMARK SMILES IDX 5 1 3 2 2 3 1 4 21 5 19 6 18 7 16 8 15 9 14 10 13 11 6 12
REMARK SMILES IDX 7 13 8 14 9 15 12 16 11 17 10 18 4 20 20 22 17 24
REMARK H PARENT 10 19 4 21 20 23 17 25
REMARK Flexibility Score: inf
ROOT
ATOM      1  C   UNL     1     -34.979 -36.065 -35.070  1.00  0.00     0.180 A 
ATOM      2  C   UNL     1     -36.261 -36.039 -34.496  1.00  0.00     0.208 A 
ATOM      3  C   UNL     1     -37.383 -35.979 -35.337  1.00  0.00     0.238 A 
ATOM      4  O   UNL     1     -38.530 -36.011 -34.819  1.00  0.00    -0.285 OA
ATOM      5  C   UNL     1     -37.209 -35.930 -36.742  1.00  0.00     0.111 A 
ATOM      6  C   UNL     1     -38.274 -35.828 -37.686  1.00  0.00     0.134 A 
ATOM      7  C   UNL     1     -37.992 -35.919 -39.056  1.00  0.00     0.093 A 
ATOM      8  C   UNL     1     -36.679 -36.044 -39.515  1.00  0.00     0.123 A 
ATOM      9  C   UNL     1     -35.628 -36.084 -38.601  1.00  0.00     0.094 A 
ATOM     10  C   UNL     1     -35.880 -36.032 -37.228  1.00  0.00     0.146 A 
ATOM     11  O   UNL     1     -34.850 -36.085 -36.391  1.00  0.00    -0.452 OA
ENDROOT
BRANCH   1  12
ATOM     12  C   UNL     1     -33.747 -36.102 -34.248  1.00  0.00     0.021 A 
ATOM     13  C   UNL     1     -33.805 -36.111 -32.842  1.00  0.00     0.016 A 
ATOM     14  C   UNL     1     -32.628 -36.122 -32.087  1.00  0.00     0.047 A 
ATOM     15  C   UNL     1     -31.381 -36.110 -32.726  1.00  0.00     0.115 A 
ATOM     16  C   UNL     1     -32.492 -36.069 -34.880  1.00  0.00     0.016 A 
ATOM     17  C   UNL     1     -31.317 -36.081 -34.122  1.00  0.00     0.047 A 
BRANCH  15  18
ATOM     18  O   UNL     1     -30.202 -36.122 -31.984  1.00  0.00    -0.508 OA
ATOM     19  H   UNL     1     -29.310 -35.888 -32.403  1.00  0.00     0.293 HD
ENDBRANCH  15  18
ENDBRANCH   1  12
BRANCH   2  20
ATOM     20  O   UNL     1     -36.411 -36.110 -33.107  1.00  0.00    -0.502 OA
ATOM     21  H   UNL     1     -36.383 -36.986 -32.601  1.00  0.00     0.293 HD
ENDBRANCH   2  20
BRANCH   6  22
ATOM     22  O   UNL     1     -39.609 -35.610 -37.338  1.00  0.00    -0.507 OA
ATOM     23  H   UNL     1     -40.201 -34.901 -37.743  1.00  0.00     0.293 HD
ENDBRANCH   6  22
BRANCH   8  24
ATOM     24  O   UNL     1     -36.406 -36.118 -40.879  1.00  0.00    -0.508 OA
ATOM     25  H   UNL     1     -35.509 -36.436 -41.224  1.00  0.00     0.293 HD
ENDBRANCH   8  24
TORSDOF 5
ENDMDL
MODEL 2
REMARK VINA RESULT:     4.177     21.753     24.339
REMARK INTER + INTRA:           5.414
REMARK INTER:                   4.878
REMARK INTRA:                   0.535
REMARK UNBOUND:                 0.504
REMARK SMILES O=c1c(O)c(-c2ccc(O)cc2)oc2cc(O)cc(O)c12
REMARK SMILES IDX 5 1 3 2 2 3 1 4 21 5 19 6 18 7 16 8 15 9 14 10 13 11 6 12
REMARK SMILES IDX 7 13 8 14 9 15 12 16 11 17 10 18 4 20 20 22 17 24
REMARK H PARENT 10 19 4 21 20 23 17 25
REMARK Flexibility Score: inf
ROOT
ATOM      1  C   UNL     1     -20.226 -20.728 -26.986  1.00  0.00     0.180 A 
ATOM      2  C   UNL     1     -20.122 -21.933 -26.270  1.00  0.00     0.208 A 
ATOM      3  C   UNL     1     -20.211 -21.900 -24.869  1.00  0.00     0.238 A 
ATOM      4  O   UNL     1     -20.172 -22.988 -24.236  1.00  0.00    -0.285 OA
ATOM      5  C   UNL     1     -20.385 -20.664 -24.202  1.00  0.00     0.111 A 
ATOM      6  C   UNL     1     -20.448 -20.510 -22.784  1.00  0.00     0.134 A 
ATOM      7  C   UNL     1     -20.754 -19.257 -22.239  1.00  0.00     0.093 A 
ATOM      8  C   UNL     1     -20.936 -18.140 -23.058  1.00  0.00     0.123 A 
ATOM      9  C   UNL     1     -20.818 -18.269 -24.440  1.00  0.00     0.094 A 
ATOM     10  C   UNL     1     -20.549 -19.513 -25.015  1.00  0.00     0.146 A 
ATOM     11  O   UNL     1     -20.455 -19.594 -26.337  1.00  0.00    -0.452 OA
ENDROOT
BRANCH   1  12
ATOM     12  C   UNL     1     -20.117 -20.678 -28.463  1.00  0.00     0.021 A 
ATOM     13  C   UNL     1     -19.986 -19.455 -29.147  1.00  0.00     0.016 A 
ATOM     14  C   UNL     1     -19.909 -19.431 -30.542  1.00  0.00     0.047 A 
ATOM     15  C   UNL     1     -19.975 -20.625 -31.273  1.00  0.00     0.115 A 
ATOM     16  C   UNL     1     -20.203 -21.869 -29.204  1.00  0.00     0.016 A 
ATOM     17  C   UNL     1     -20.125 -21.841 -30.600  1.00  0.00     0.047 A 
BRANCH  15  18
ATOM     18  O   UNL     1     -19.898 -20.613 -32.664  1.00  0.00    -0.508 OA
ATOM     19  H   UNL     1     -19.131 -21.056 -33.156  1.00  0.00     0.293 HD
ENDBRANCH  15  18
ENDBRANCH   1  12
BRANCH   2  20
ATOM     20  O   UNL     1     -19.971 -23.145 -26.949  1.00  0.00    -0.502 OA
ATOM     21  H   UNL     1     -20.742 -23.605 -27.418  1.00  0.00     0.293 HD
ENDBRANCH   2  20
BRANCH   6  22
ATOM     22  O   UNL     1     -20.191 -21.540 -21.875  1.00  0.00    -0.507 OA
ATOM     23  H   UNL     1     -20.034 -21.409 -20.888  1.00  0.00     0.293 HD
ENDBRANCH   6  22
BRANCH   8  24
ATOM     24  O   UNL     1     -21.224 -16.893 -22.506  1.00  0.00    -0.508 OA
ATOM     25  H   UNL     1     -21.188 -16.735 -21.506  1.00  0.00     0.293 HD
ENDBRANCH   8  24
TORSDOF 5
ENDMDL
MODEL 3
REMARK VINA RESULT:     5.618     21.373     23.816
REMARK INTER + INTRA:           7.107
REMARK INTER:                   7.229
REMARK INTRA:                  -0.122
REMARK UNBOUND:                 0.504
REMARK SMILES O=c1c(O)c(-c2ccc(O)cc2)oc2cc(O)cc(O)c12
REMARK SMILES IDX 5 1 3 2 2 3 1 4 21 5 19 6 18 7 16 8 15 9 14 10 13 11 6 12
REMARK SMILES IDX 7 13 8 14 9 15 12 16 11 17 10 18 4 20 20 22 17 24
REMARK H PARENT 10 19 4 21 20 23 17 25
REMARK Flexibility Score: inf
ROOT
ATOM      1  C   UNL     1     -20.683 -20.132 -25.528  1.00  0.00     0.180 A 
ATOM      2  C   UNL     1     -20.427 -21.434 -25.066  1.00  0.00     0.208 A 
ATOM      3  C   UNL     1     -20.167 -22.448 -26.001  1.00  0.00     0.238 A 
ATOM      4  O   UNL     1     -19.884 -23.601 -25.580  1.00  0.00    -0.285 OA
ATOM      5  C   UNL     1     -20.181 -22.152 -27.386  1.00  0.00     0.111 A 
ATOM      6  C   UNL     1     -19.971 -23.111 -28.421  1.00  0.00     0.134 A 
ATOM      7  C   UNL     1     -19.878 -22.681 -29.751  1.00  0.00     0.093 A 
ATOM      8  C   UNL     1     -20.052 -21.337 -30.088  1.00  0.00     0.123 A 
ATOM      9  C   UNL     1     -20.317 -20.403 -29.089  1.00  0.00     0.094 A 
ATOM     10  C   UNL     1     -20.379 -20.795 -27.750  1.00  0.00     0.146 A 
ATOM     11  O   UNL     1     -20.624 -19.871 -26.828  1.00  0.00    -0.452 OA
ENDROOT
BRANCH   1  12
ATOM     12  C   UNL     1     -20.990 -19.015 -24.606  1.00  0.00     0.021 A 
ATOM     13  C   UNL     1     -20.045 -18.556 -23.669  1.00  0.00     0.016 A 
ATOM     14  C   UNL     1     -20.367 -17.516 -22.792  1.00  0.00     0.047 A 
ATOM     15  C   UNL     1     -21.640 -16.930 -22.830  1.00  0.00     0.115 A 
ATOM     16  C   UNL     1     -22.271 -18.435 -24.623  1.00  0.00     0.016 A 
ATOM     17  C   UNL     1     -22.589 -17.394 -23.745  1.00  0.00     0.047 A 
BRANCH  15  18
ATOM     18  O   UNL     1     -21.971 -15.892 -21.962  1.00  0.00    -0.508 OA
ATOM     19  H   UNL     1     -21.257 -15.342 -21.498  1.00  0.00     0.293 HD
ENDBRANCH  15  18
ENDBRANCH   1  12
BRANCH   2  20
ATOM     20  O   UNL     1     -20.396 -21.701 -23.694  1.00  0.00    -0.502 OA
ATOM     21  H   UNL     1     -19.549 -21.624 -23.144  1.00  0.00     0.293 HD
ENDBRANCH   2  20
BRANCH   6  22
ATOM     22  O   UNL     1     -19.876 -24.488 -28.203  1.00  0.00    -0.507 OA
ATOM     23  H   UNL     1     -19.075 -25.054 -28.441  1.00  0.00     0.293 HD
ENDBRANCH   6  22
BRANCH   8  24
ATOM     24  O   UNL     1     -19.974 -20.920 -31.415  1.00  0.00    -0.508 OA
ATOM     25  H   UNL     1     -19.491 -20.069 -31.676  1.00  0.00     0.293 HD
ENDBRANCH   8  24
TORSDOF 5
ENDMDL
