MODEL 1
REMARK VINA RESULT:    -4.518      0.000      0.000
REMARK INTER + INTRA:          -9.891
REMARK INTER:                  -8.480
REMARK INTRA:                  -1.411
REMARK UNBOUND:                -1.411
REMARK SMILES CCCCCCCCC=CCCCCCCCC(=O)[O-]
REMARK SMILES IDX 10 1 9 2 11 3 12 4 13 5 14 6 15 7 16 8 17 9 18 10 19 11
REMARK SMILES IDX 20 12 8 13 7 14 6 15 5 16 4 17 3 18 2 19 1 20
REMARK H PARENT
REMARK Flexibility Score: inf
ROOT
ATOM      1  C   UNL     1      99.036 -68.666   4.076  1.00  0.00    -0.031 C 
ATOM      2  C   UNL     1      99.559 -69.010   5.263  1.00  0.00    -0.031 C 
ENDROOT
BRANCH   1   3
ATOM      3  C   UNL     1      97.998 -67.583   3.957  1.00  0.00     0.027 C 
BRANCH   3   4
ATOM      4  C   UNL     1      98.637 -66.190   4.064  1.00  0.00     0.004 C 
BRANCH   4   5
ATOM      5  C   UNL     1      98.194 -65.248   2.933  1.00  0.00     0.000 C 
BRANCH   5   6
ATOM      6  C   UNL     1      99.101 -65.339   1.697  1.00  0.00     0.000 C 
BRANCH   6   7
ATOM      7  C   UNL     1      98.317 -65.843   0.479  1.00  0.00     0.000 C 
BRANCH   7   8
ATOM      8  C   UNL     1      99.167 -66.807  -0.364  1.00  0.00     0.006 C 
BRANCH   8   9
ATOM      9  C   UNL     1      99.456 -68.122   0.371  1.00  0.00     0.053 C 
BRANCH   9  10
ATOM     10  C   UNL     1      98.715 -69.274  -0.238  1.00  0.00     0.041 C 
ATOM     11  O   UNL     1      98.343 -69.224  -1.439  1.00  0.00    -0.550 OA
ATOM     12  O   UNL     1      98.469 -70.417   0.513  1.00  0.00    -0.550 OA
ENDBRANCH   9  10
ENDBRANCH   8   9
ENDBRANCH   7   8
ENDBRANCH   6   7
ENDBRANCH   5   6
ENDBRANCH   4   5
ENDBRANCH   3   4
ENDBRANCH   1   3
BRANCH   2  13
ATOM     13  C   UNL     1     100.596 -70.093   5.381  1.00  0.00     0.027 C 
BRANCH  13  14
ATOM     14  C   UNL     1     101.966 -69.509   5.758  1.00  0.00     0.004 C 
BRANCH  14  15
ATOM     15  C   UNL     1     101.861 -68.399   6.816  1.00  0.00     0.000 C 
BRANCH  15  16
ATOM     16  C   UNL     1     101.924 -68.945   8.253  1.00  0.00     0.000 C 
BRANCH  16  17
ATOM     17  C   UNL     1     100.658 -68.627   9.069  1.00  0.00    -0.000 C 
BRANCH  17  18
ATOM     18  C   UNL     1     100.843 -68.679  10.596  1.00  0.00    -0.000 C 
BRANCH  18  19
ATOM     19  C   UNL     1     100.070 -67.574  11.331  1.00  0.00    -0.003 C 
ATOM     20  C   UNL     1     100.071 -66.276  10.529  1.00  0.00     0.004 C 
ENDBRANCH  18  19
ENDBRANCH  17  18
ENDBRANCH  16  17
ENDBRANCH  15  16
ENDBRANCH  14  15
ENDBRANCH  13  14
ENDBRANCH   2  13
TORSDOF 15
ENDMDL
MODEL 2
REMARK VINA RESULT:    -4.311      0.806      1.853
REMARK INTER + INTRA:          -9.502
REMARK INTER:                  -8.066
REMARK INTRA:                  -1.436
REMARK UNBOUND:                -1.411
REMARK SMILES CCCCCCCCC=CCCCCCCCC(=O)[O-]
REMARK SMILES IDX 10 1 9 2 11 3 12 4 13 5 14 6 15 7 16 8 17 9 18 10 19 11
REMARK SMILES IDX 20 12 8 13 7 14 6 15 5 16 4 17 3 18 2 19 1 20
REMARK H PARENT
REMARK Flexibility Score: inf
ROOT
ATOM      1  C   UNL     1      99.823 -67.855   4.846  1.00  0.00    -0.031 C 
ATOM      2  C   UNL     1     100.544 -68.597   5.701  1.00  0.00    -0.031 C 
ENDROOT
BRANCH   1   3
ATOM      3  C   UNL     1      98.826 -68.481   3.908  1.00  0.00     0.027 C 
BRANCH   3   4
ATOM      4  C   UNL     1      97.500 -67.705   3.912  1.00  0.00     0.004 C 
BRANCH   4   5
ATOM      5  C   UNL     1      97.706 -66.183   3.943  1.00  0.00     0.000 C 
BRANCH   5   6
ATOM      6  C   UNL     1      97.564 -65.537   2.556  1.00  0.00     0.000 C 
BRANCH   6   7
ATOM      7  C   UNL     1      98.860 -65.678   1.750  1.00  0.00     0.000 C 
BRANCH   7   8
ATOM      8  C   UNL     1      98.638 -66.534   0.492  1.00  0.00     0.006 C 
BRANCH   8   9
ATOM      9  C   UNL     1      99.662 -67.670   0.375  1.00  0.00     0.053 C 
BRANCH   9  10
ATOM     10  C   UNL     1      99.050 -68.913  -0.197  1.00  0.00     0.041 C 
ATOM     11  O   UNL     1      98.742 -69.873   0.557  1.00  0.00    -0.550 OA
ATOM     12  O   UNL     1      98.786 -68.996  -1.558  1.00  0.00    -0.550 OA
ENDBRANCH   9  10
ENDBRANCH   8   9
ENDBRANCH   7   8
ENDBRANCH   6   7
ENDBRANCH   5   6
ENDBRANCH   4   5
ENDBRANCH   3   4
ENDBRANCH   1   3
BRANCH   2  13
ATOM     13  C   UNL     1     101.541 -67.971   6.638  1.00  0.00     0.027 C 
BRANCH  13  14
ATOM     14  C   UNL     1     101.786 -68.866   7.863  1.00  0.00     0.004 C 
BRANCH  14  15
ATOM     15  C   UNL     1     100.650 -68.775   8.894  1.00  0.00     0.000 C 
BRANCH  15  16
ATOM     16  C   UNL     1     101.158 -68.882  10.343  1.00  0.00     0.000 C 
BRANCH  16  17
ATOM     17  C   UNL     1     100.346 -68.019  11.325  1.00  0.00    -0.000 C 
BRANCH  17  18
ATOM     18  C   UNL     1     100.814 -66.557  11.440  1.00  0.00    -0.000 C 
BRANCH  18  19
ATOM     19  C   UNL     1      99.854 -65.567  10.764  1.00  0.00    -0.003 C 
ATOM     20  C   UNL     1     100.398 -65.108   9.413  1.00  0.00     0.004 C 
ENDBRANCH  18  19
ENDBRANCH  17  18
ENDBRANCH  16  17
ENDBRANCH  15  16
ENDBRANCH  14  15
ENDBRANCH  13  14
ENDBRANCH   2  13
TORSDOF 15
ENDMDL
MODEL 3
REMARK VINA RESULT:    -4.300      1.405      1.792
REMARK INTER + INTRA:          -9.481
REMARK INTER:                  -8.214
REMARK INTRA:                  -1.268
REMARK UNBOUND:                -1.411
REMARK SMILES CCCCCCCCC=CCCCCCCCC(=O)[O-]
REMARK SMILES IDX 10 1 9 2 11 3 12 4 13 5 14 6 15 7 16 8 17 9 18 10 19 11
REMARK SMILES IDX 20 12 8 13 7 14 6 15 5 16 4 17 3 18 2 19 1 20
REMARK H PARENT
REMARK Flexibility Score: inf
ROOT
ATOM      1  C   UNL     1      98.941 -68.699   3.943  1.00  0.00    -0.031 C 
ATOM      2  C   UNL     1      99.500 -68.900   5.146  1.00  0.00    -0.031 C 
ENDROOT
BRANCH   1   3
ATOM      3  C   UNL     1      98.031 -67.530   3.683  1.00  0.00     0.027 C 
BRANCH   3   4
ATOM      4  C   UNL     1      98.766 -66.415   2.924  1.00  0.00     0.004 C 
BRANCH   4   5
ATOM      5  C   UNL     1      99.976 -66.936   2.134  1.00  0.00     0.000 C 
BRANCH   5   6
ATOM      6  C   UNL     1      99.852 -66.684   0.624  1.00  0.00     0.000 C 
BRANCH   6   7
ATOM      7  C   UNL     1     100.072 -67.978  -0.167  1.00  0.00     0.000 C 
BRANCH   7   8
ATOM      8  C   UNL     1      98.874 -68.929  -0.014  1.00  0.00     0.006 C 
BRANCH   8   9
ATOM      9  C   UNL     1      98.230 -69.275  -1.362  1.00  0.00     0.053 C 
BRANCH   9  10
ATOM     10  C   UNL     1      98.228 -68.102  -2.295  1.00  0.00     0.041 C 
ATOM     11  O   UNL     1      99.022 -68.066  -3.271  1.00  0.00    -0.550 OA
ATOM     12  O   UNL     1      97.323 -67.065  -2.106  1.00  0.00    -0.550 OA
ENDBRANCH   9  10
ENDBRANCH   8   9
ENDBRANCH   7   8
ENDBRANCH   6   7
ENDBRANCH   5   6
ENDBRANCH   4   5
ENDBRANCH   3   4
ENDBRANCH   1   3
BRANCH   2  13
ATOM     13  C   UNL     1     100.410 -70.069   5.407  1.00  0.00     0.027 C 
BRANCH  13  14
ATOM     14  C   UNL     1     101.723 -69.614   6.063  1.00  0.00     0.004 C 
BRANCH  14  15
ATOM     15  C   UNL     1     101.749 -68.102   6.338  1.00  0.00     0.000 C 
BRANCH  15  16
ATOM     16  C   UNL     1     101.857 -67.776   7.837  1.00  0.00     0.000 C 
BRANCH  16  17
ATOM     17  C   UNL     1     100.822 -68.531   8.689  1.00  0.00    -0.000 C 
BRANCH  17  18
ATOM     18  C   UNL     1     101.219 -68.733  10.162  1.00  0.00    -0.000 C 
BRANCH  18  19
ATOM     19  C   UNL     1     100.155 -68.223  11.145  1.00  0.00    -0.003 C 
ATOM     20  C   UNL     1     100.013 -66.706  11.064  1.00  0.00     0.004 C 
ENDBRANCH  18  19
ENDBRANCH  17  18
ENDBRANCH  16  17
ENDBRANCH  15  16
ENDBRANCH  14  15
ENDBRANCH  13  14
ENDBRANCH   2  13
TORSDOF 15
ENDMDL
MODEL 4
REMARK VINA RESULT:    -4.046      4.262      8.907
REMARK INTER + INTRA:          -9.004
REMARK INTER:                  -7.596
REMARK INTRA:                  -1.408
REMARK UNBOUND:                -1.411
REMARK SMILES CCCCCCCCC=CCCCCCCCC(=O)[O-]
REMARK SMILES IDX 10 1 9 2 11 3 12 4 13 5 14 6 15 7 16 8 17 9 18 10 19 11
REMARK SMILES IDX 20 12 8 13 7 14 6 15 5 16 4 17 3 18 2 19 1 20
REMARK H PARENT
REMARK Flexibility Score: inf
ROOT
ATOM      1  C   UNL     1      99.917 -68.786   4.585  1.00  0.00    -0.031 C 
ATOM      2  C   UNL     1      98.658 -68.401   4.326  1.00  0.00    -0.031 C 
ENDROOT
BRANCH   1   3
ATOM      3  C   UNL     1     100.233 -69.745   5.701  1.00  0.00     0.027 C 
BRANCH   3   4
ATOM      4  C   UNL     1     101.714 -69.661   6.100  1.00  0.00     0.004 C 
BRANCH   4   5
ATOM      5  C   UNL     1     102.005 -68.490   7.051  1.00  0.00     0.000 C 
BRANCH   5   6
ATOM      6  C   UNL     1     101.128 -68.520   8.313  1.00  0.00     0.000 C 
BRANCH   6   7
ATOM      7  C   UNL     1     100.807 -67.099   8.790  1.00  0.00     0.000 C 
BRANCH   7   8
ATOM      8  C   UNL     1     100.256 -67.110  10.225  1.00  0.00     0.006 C 
BRANCH   8   9
ATOM      9  C   UNL     1     100.230 -68.522  10.826  1.00  0.00     0.053 C 
BRANCH   9  10
ATOM     10  C   UNL     1     101.290 -68.701  11.870  1.00  0.00     0.041 C 
ATOM     11  O   UNL     1     101.815 -67.698  12.419  1.00  0.00    -0.550 OA
ATOM     12  O   UNL     1     101.671 -69.979  12.261  1.00  0.00    -0.550 OA
ENDBRANCH   9  10
ENDBRANCH   8   9
ENDBRANCH   7   8
ENDBRANCH   6   7
ENDBRANCH   5   6
ENDBRANCH   4   5
ENDBRANCH   3   4
ENDBRANCH   1   3
BRANCH   2  13
ATOM     13  C   UNL     1      98.342 -67.443   3.210  1.00  0.00     0.027 C 
BRANCH  13  14
ATOM     14  C   UNL     1      99.554 -66.559   2.880  1.00  0.00     0.004 C 
BRANCH  14  15
ATOM     15  C   UNL     1      99.224 -65.472   1.845  1.00  0.00     0.000 C 
BRANCH  15  16
ATOM     16  C   UNL     1      99.350 -65.977   0.397  1.00  0.00     0.000 C 
BRANCH  16  17
ATOM     17  C   UNL     1     100.619 -66.817   0.166  1.00  0.00    -0.000 C 
BRANCH  17  18
ATOM     18  C   UNL     1     100.388 -68.150  -0.568  1.00  0.00    -0.000 C 
BRANCH  18  19
ATOM     19  C   UNL     1      98.900 -68.488  -0.740  1.00  0.00    -0.003 C 
ATOM     20  C   UNL     1      98.522 -69.730   0.064  1.00  0.00     0.004 C 
ENDBRANCH  18  19
ENDBRANCH  17  18
ENDBRANCH  16  17
ENDBRANCH  15  16
ENDBRANCH  14  15
ENDBRANCH  13  14
ENDBRANCH   2  13
TORSDOF 15
ENDMDL
MODEL 5
REMARK VINA RESULT:    -4.003      4.095      9.376
REMARK INTER + INTRA:          -8.923
REMARK INTER:                  -7.554
REMARK INTRA:                  -1.370
REMARK UNBOUND:                -1.411
REMARK SMILES CCCCCCCCC=CCCCCCCCC(=O)[O-]
REMARK SMILES IDX 10 1 9 2 11 3 12 4 13 5 14 6 15 7 16 8 17 9 18 10 19 11
REMARK SMILES IDX 20 12 8 13 7 14 6 15 5 16 4 17 3 18 2 19 1 20
REMARK H PARENT
REMARK Flexibility Score: inf
ROOT
ATOM      1  C   UNL     1      98.723 -68.303   2.506  1.00  0.00    -0.031 C 
ATOM      2  C   UNL     1      99.911 -67.857   2.069  1.00  0.00    -0.031 C 
ENDROOT
BRANCH   1   3
ATOM      3  C   UNL     1      98.356 -68.265   3.964  1.00  0.00     0.027 C 
BRANCH   3   4
ATOM      4  C   UNL     1      99.592 -68.014   4.840  1.00  0.00     0.004 C 
BRANCH   4   5
ATOM      5  C   UNL     1     100.132 -69.301   5.483  1.00  0.00     0.000 C 
BRANCH   5   6
ATOM      6  C   UNL     1     101.133 -69.024   6.616  1.00  0.00     0.000 C 
BRANCH   6   7
ATOM      7  C   UNL     1     100.989 -67.587   7.133  1.00  0.00     0.000 C 
BRANCH   7   8
ATOM      8  C   UNL     1     101.229 -67.521   8.650  1.00  0.00     0.006 C 
BRANCH   8   9
ATOM      9  C   UNL     1     100.744 -68.785   9.370  1.00  0.00     0.053 C 
BRANCH   9  10
ATOM     10  C   UNL     1     100.570 -68.555  10.841  1.00  0.00     0.041 C 
ATOM     11  O   UNL     1      99.926 -67.556  11.254  1.00  0.00    -0.550 OA
ATOM     12  O   UNL     1     101.089 -69.465  11.753  1.00  0.00    -0.550 OA
ENDBRANCH   9  10
ENDBRANCH   8   9
ENDBRANCH   7   8
ENDBRANCH   6   7
ENDBRANCH   5   6
ENDBRANCH   4   5
ENDBRANCH   3   4
ENDBRANCH   1   3
BRANCH   2  13
ATOM     13  C   UNL     1     100.279 -67.895   0.611  1.00  0.00     0.027 C 
BRANCH  13  14
ATOM     14  C   UNL     1      99.074 -67.539  -0.273  1.00  0.00     0.004 C 
BRANCH  14  15
ATOM     15  C   UNL     1      98.735 -68.649  -1.280  1.00  0.00     0.000 C 
BRANCH  15  16
ATOM     16  C   UNL     1      98.380 -68.097  -2.671  1.00  0.00     0.000 C 
BRANCH  16  17
ATOM     17  C   UNL     1      99.576 -67.425  -3.370  1.00  0.00    -0.000 C 
BRANCH  17  18
ATOM     18  C   UNL     1     100.844 -68.293  -3.458  1.00  0.00    -0.000 C 
BRANCH  18  19
ATOM     19  C   UNL     1     102.104 -67.562  -2.974  1.00  0.00    -0.003 C 
ATOM     20  C   UNL     1     101.763 -66.174  -2.437  1.00  0.00     0.004 C 
ENDBRANCH  18  19
ENDBRANCH  17  18
ENDBRANCH  16  17
ENDBRANCH  15  16
ENDBRANCH  14  15
ENDBRANCH  13  14
ENDBRANCH   2  13
TORSDOF 15
ENDMDL
MODEL 6
REMARK VINA RESULT:    -3.923      3.838      9.111
REMARK INTER + INTRA:          -8.774
REMARK INTER:                  -7.309
REMARK INTRA:                  -1.465
REMARK UNBOUND:                -1.411
REMARK SMILES CCCCCCCCC=CCCCCCCCC(=O)[O-]
REMARK SMILES IDX 10 1 9 2 11 3 12 4 13 5 14 6 15 7 16 8 17 9 18 10 19 11
REMARK SMILES IDX 20 12 8 13 7 14 6 15 5 16 4 17 3 18 2 19 1 20
REMARK H PARENT
REMARK Flexibility Score: inf
ROOT
ATOM      1  C   UNL     1      99.241 -67.555   2.213  1.00  0.00    -0.031 C 
ATOM      2  C   UNL     1     100.287 -67.945   1.469  1.00  0.00    -0.031 C 
ENDROOT
BRANCH   1   3
ATOM      3  C   UNL     1      98.575 -68.490   3.186  1.00  0.00     0.027 C 
BRANCH   3   4
ATOM      4  C   UNL     1      99.021 -68.200   4.627  1.00  0.00     0.004 C 
BRANCH   4   5
ATOM      5  C   UNL     1      99.782 -69.376   5.258  1.00  0.00     0.000 C 
BRANCH   5   6
ATOM      6  C   UNL     1     101.307 -69.207   5.177  1.00  0.00     0.000 C 
BRANCH   6   7
ATOM      7  C   UNL     1     101.926 -69.148   6.578  1.00  0.00     0.000 C 
BRANCH   7   8
ATOM      8  C   UNL     1     100.861 -68.831   7.640  1.00  0.00     0.006 C 
BRANCH   8   9
ATOM      9  C   UNL     1     101.431 -68.866   9.064  1.00  0.00     0.053 C 
BRANCH   9  10
ATOM     10  C   UNL     1     100.481 -68.270  10.058  1.00  0.00     0.041 C 
ATOM     11  O   UNL     1     100.058 -68.960  11.022  1.00  0.00    -0.550 OA
ATOM     12  O   UNL     1     100.093 -66.942   9.939  1.00  0.00    -0.550 OA
ENDBRANCH   9  10
ENDBRANCH   8   9
ENDBRANCH   7   8
ENDBRANCH   6   7
ENDBRANCH   5   6
ENDBRANCH   4   5
ENDBRANCH   3   4
ENDBRANCH   1   3
BRANCH   2  13
ATOM     13  C   UNL     1     100.953 -67.010   0.496  1.00  0.00     0.027 C 
BRANCH  13  14
ATOM     14  C   UNL     1     101.678 -67.788  -0.612  1.00  0.00     0.004 C 
BRANCH  14  15
ATOM     15  C   UNL     1     101.885 -66.949  -1.882  1.00  0.00     0.000 C 
BRANCH  15  16
ATOM     16  C   UNL     1     101.762 -67.783  -3.169  1.00  0.00     0.000 C 
BRANCH  16  17
ATOM     17  C   UNL     1     100.318 -68.231  -3.454  1.00  0.00    -0.000 C 
BRANCH  17  18
ATOM     18  C   UNL     1      99.256 -67.127  -3.301  1.00  0.00    -0.000 C 
BRANCH  18  19
ATOM     19  C   UNL     1      98.150 -67.496  -2.302  1.00  0.00    -0.003 C 
ATOM     20  C   UNL     1      98.356 -68.903  -1.748  1.00  0.00     0.004 C 
ENDBRANCH  18  19
ENDBRANCH  17  18
ENDBRANCH  16  17
ENDBRANCH  15  16
ENDBRANCH  14  15
ENDBRANCH  13  14
ENDBRANCH   2  13
TORSDOF 15
ENDMDL
MODEL 7
REMARK VINA RESULT:    -3.919      2.196      3.424
REMARK INTER + INTRA:          -8.766
REMARK INTER:                  -7.527
REMARK INTRA:                  -1.239
REMARK UNBOUND:                -1.411
REMARK SMILES CCCCCCCCC=CCCCCCCCC(=O)[O-]
REMARK SMILES IDX 10 1 9 2 11 3 12 4 13 5 14 6 15 7 16 8 17 9 18 10 19 11
REMARK SMILES IDX 20 12 8 13 7 14 6 15 5 16 4 17 3 18 2 19 1 20
REMARK H PARENT
REMARK Flexibility Score: inf
ROOT
ATOM      1  C   UNL     1      99.127 -68.416   1.930  1.00  0.00    -0.031 C 
ATOM      2  C   UNL     1      98.341 -67.820   2.839  1.00  0.00    -0.031 C 
ENDROOT
BRANCH   1   3
ATOM      3  C   UNL     1      99.137 -67.979   0.490  1.00  0.00     0.027 C 
BRANCH   3   4
ATOM      4  C   UNL     1      99.457 -66.482   0.368  1.00  0.00     0.004 C 
BRANCH   4   5
ATOM      5  C   UNL     1     100.723 -66.215  -0.462  1.00  0.00     0.000 C 
BRANCH   5   6
ATOM      6  C   UNL     1     101.160 -67.435  -1.286  1.00  0.00     0.000 C 
BRANCH   6   7
ATOM      7  C   UNL     1     100.817 -67.246  -2.768  1.00  0.00     0.000 C 
BRANCH   7   8
ATOM      8  C   UNL     1      99.717 -68.225  -3.209  1.00  0.00     0.006 C 
BRANCH   8   9
ATOM      9  C   UNL     1      98.759 -67.601  -4.231  1.00  0.00     0.053 C 
BRANCH   9  10
ATOM     10  C   UNL     1      97.482 -67.147  -3.593  1.00  0.00     0.041 C 
ATOM     11  O   UNL     1      97.178 -67.538  -2.435  1.00  0.00    -0.550 OA
ATOM     12  O   UNL     1      96.645 -66.263  -4.263  1.00  0.00    -0.550 OA
ENDBRANCH   9  10
ENDBRANCH   8   9
ENDBRANCH   7   8
ENDBRANCH   6   7
ENDBRANCH   5   6
ENDBRANCH   4   5
ENDBRANCH   3   4
ENDBRANCH   1   3
BRANCH   2  13
ATOM     13  C   UNL     1      98.332 -68.257   4.279  1.00  0.00     0.027 C 
BRANCH  13  14
ATOM     14  C   UNL     1      99.759 -68.499   4.793  1.00  0.00     0.004 C 
BRANCH  14  15
ATOM     15  C   UNL     1     100.432 -67.210   5.290  1.00  0.00     0.000 C 
BRANCH  15  16
ATOM     16  C   UNL     1     101.296 -67.440   6.542  1.00  0.00     0.000 C 
BRANCH  16  17
ATOM     17  C   UNL     1     100.935 -68.737   7.287  1.00  0.00    -0.000 C 
BRANCH  17  18
ATOM     18  C   UNL     1     100.900 -68.614   8.820  1.00  0.00    -0.000 C 
BRANCH  18  19
ATOM     19  C   UNL     1     100.639 -67.179   9.300  1.00  0.00    -0.003 C 
ATOM     20  C   UNL     1     100.226 -67.157  10.770  1.00  0.00     0.004 C 
ENDBRANCH  18  19
ENDBRANCH  17  18
ENDBRANCH  16  17
ENDBRANCH  15  16
ENDBRANCH  14  15
ENDBRANCH  13  14
ENDBRANCH   2  13
TORSDOF 15
ENDMDL
MODEL 8
REMARK VINA RESULT:    -3.852      3.867      8.531
REMARK INTER + INTRA:          -8.640
REMARK INTER:                  -7.091
REMARK INTRA:                  -1.550
REMARK UNBOUND:                -1.411
REMARK SMILES CCCCCCCCC=CCCCCCCCC(=O)[O-]
REMARK SMILES IDX 10 1 9 2 11 3 12 4 13 5 14 6 15 7 16 8 17 9 18 10 19 11
REMARK SMILES IDX 20 12 8 13 7 14 6 15 5 16 4 17 3 18 2 19 1 20
REMARK H PARENT
REMARK Flexibility Score: inf
ROOT
ATOM      1  C   UNL     1      98.045 -67.881   3.771  1.00  0.00    -0.031 C 
ATOM      2  C   UNL     1      98.257 -66.559   3.867  1.00  0.00    -0.031 C 
ENDROOT
BRANCH   1   3
ATOM      3  C   UNL     1      99.054 -68.878   4.272  1.00  0.00     0.027 C 
BRANCH   3   4
ATOM      4  C   UNL     1     100.413 -68.210   4.528  1.00  0.00     0.004 C 
BRANCH   4   5
ATOM      5  C   UNL     1     101.517 -69.226   4.862  1.00  0.00     0.000 C 
BRANCH   5   6
ATOM      6  C   UNL     1     101.850 -69.268   6.361  1.00  0.00     0.000 C 
BRANCH   6   7
ATOM      7  C   UNL     1     100.891 -68.378   7.160  1.00  0.00     0.000 C 
BRANCH   7   8
ATOM      8  C   UNL     1     101.006 -68.658   8.667  1.00  0.00     0.006 C 
BRANCH   8   9
ATOM      9  C   UNL     1     100.987 -67.369   9.500  1.00  0.00     0.053 C 
BRANCH   9  10
ATOM     10  C   UNL     1     100.190 -67.532  10.758  1.00  0.00     0.041 C 
ATOM     11  O   UNL     1     100.037 -68.672  11.269  1.00  0.00    -0.550 OA
ATOM     12  O   UNL     1      99.645 -66.418  11.385  1.00  0.00    -0.550 OA
ENDBRANCH   9  10
ENDBRANCH   8   9
ENDBRANCH   7   8
ENDBRANCH   6   7
ENDBRANCH   5   6
ENDBRANCH   4   5
ENDBRANCH   3   4
ENDBRANCH   1   3
BRANCH   2  13
ATOM     13  C   UNL     1      97.249 -65.562   3.366  1.00  0.00     0.027 C 
BRANCH  13  14
ATOM     14  C   UNL     1      97.606 -65.075   1.954  1.00  0.00     0.004 C 
BRANCH  14  15
ATOM     15  C   UNL     1      99.123 -64.945   1.743  1.00  0.00     0.000 C 
BRANCH  15  16
ATOM     16  C   UNL     1      99.588 -65.558   0.410  1.00  0.00     0.000 C 
BRANCH  16  17
ATOM     17  C   UNL     1      98.782 -66.807   0.014  1.00  0.00    -0.000 C 
BRANCH  17  18
ATOM     18  C   UNL     1      99.341 -68.136   0.553  1.00  0.00    -0.000 C 
BRANCH  18  19
ATOM     19  C   UNL     1      98.779 -69.363  -0.178  1.00  0.00    -0.003 C 
ATOM     20  C   UNL     1      98.380 -69.015  -1.610  1.00  0.00     0.004 C 
ENDBRANCH  18  19
ENDBRANCH  17  18
ENDBRANCH  16  17
ENDBRANCH  15  16
ENDBRANCH  14  15
ENDBRANCH  13  14
ENDBRANCH   2  13
TORSDOF 15
ENDMDL
MODEL 9
REMARK VINA RESULT:    -3.832      2.220      3.080
REMARK INTER + INTRA:          -8.603
REMARK INTER:                  -7.188
REMARK INTRA:                  -1.415
REMARK UNBOUND:                -1.411
REMARK SMILES CCCCCCCCC=CCCCCCCCC(=O)[O-]
REMARK SMILES IDX 10 1 9 2 11 3 12 4 13 5 14 6 15 7 16 8 17 9 18 10 19 11
REMARK SMILES IDX 20 12 8 13 7 14 6 15 5 16 4 17 3 18 2 19 1 20
REMARK H PARENT
REMARK Flexibility Score: inf
ROOT
ATOM      1  C   UNL     1      98.821 -68.630   3.810  1.00  0.00    -0.031 C 
ATOM      2  C   UNL     1      99.415 -68.478   5.003  1.00  0.00    -0.031 C 
ENDROOT
BRANCH   1   3
ATOM      3  C   UNL     1      98.106 -67.491   3.135  1.00  0.00     0.027 C 
BRANCH   3   4
ATOM      4  C   UNL     1      98.895 -66.983   1.920  1.00  0.00     0.004 C 
BRANCH   4   5
ATOM      5  C   UNL     1      99.716 -68.092   1.243  1.00  0.00     0.000 C 
BRANCH   5   6
ATOM      6  C   UNL     1      99.226 -68.409  -0.178  1.00  0.00     0.000 C 
BRANCH   6   7
ATOM      7  C   UNL     1     100.066 -67.667  -1.225  1.00  0.00     0.000 C 
BRANCH   7   8
ATOM      8  C   UNL     1      99.806 -68.222  -2.634  1.00  0.00     0.006 C 
BRANCH   8   9
ATOM      9  C   UNL     1      98.313 -68.240  -2.985  1.00  0.00     0.053 C 
BRANCH   9  10
ATOM     10  C   UNL     1      97.935 -67.093  -3.872  1.00  0.00     0.041 C 
ATOM     11  O   UNL     1      96.735 -66.724  -3.955  1.00  0.00    -0.550 OA
ATOM     12  O   UNL     1      98.916 -66.409  -4.580  1.00  0.00    -0.550 OA
ENDBRANCH   9  10
ENDBRANCH   8   9
ENDBRANCH   7   8
ENDBRANCH   6   7
ENDBRANCH   5   6
ENDBRANCH   4   5
ENDBRANCH   3   4
ENDBRANCH   1   3
BRANCH   2  13
ATOM     13  C   UNL     1     100.130 -69.617   5.678  1.00  0.00     0.027 C 
BRANCH  13  14
ATOM     14  C   UNL     1     101.644 -69.364   5.734  1.00  0.00     0.004 C 
BRANCH  14  15
ATOM     15  C   UNL     1     102.125 -68.981   7.142  1.00  0.00     0.000 C 
BRANCH  15  16
ATOM     16  C   UNL     1     100.983 -68.970   8.174  1.00  0.00     0.000 C 
BRANCH  16  17
ATOM     17  C   UNL     1     100.907 -67.653   8.966  1.00  0.00    -0.000 C 
BRANCH  17  18
ATOM     18  C   UNL     1     101.622 -66.460   8.308  1.00  0.00    -0.000 C 
BRANCH  18  19
ATOM     19  C   UNL     1     100.649 -65.425   7.727  1.00  0.00    -0.003 C 
ATOM     20  C   UNL     1     100.704 -65.414   6.201  1.00  0.00     0.004 C 
ENDBRANCH  18  19
ENDBRANCH  17  18
ENDBRANCH  16  17
ENDBRANCH  15  16
ENDBRANCH  14  15
ENDBRANCH  13  14
ENDBRANCH   2  13
TORSDOF 15
ENDMDL
