MODEL 1
REMARK VINA RESULT:    -6.011      0.000      0.000
REMARK INTER + INTRA:         -11.722
REMARK INTER:                 -10.930
REMARK INTRA:                  -0.792
REMARK UNBOUND:                -0.792
REMARK SMILES CCCCCCCCCCCCCCCC(=O)[O-]
REMARK SMILES IDX 9 1 10 2 11 3 12 4 13 5 14 6 15 7 16 8 17 9 18 10 8 11 7 12
REMARK SMILES IDX 6 13 5 14 4 15 3 16 2 17 1 18
REMARK H PARENT
REMARK Flexibility Score: inf
ROOT
ATOM      1  C   UNL     1     103.937 313.242 196.267  1.00  0.00     0.000 C 
ENDROOT
BRANCH   1   2
ATOM      2  C   UNL     1     103.613 313.179 197.764  1.00  0.00     0.000 C 
BRANCH   2   3
ATOM      3  C   UNL     1     103.810 311.761 198.312  1.00  0.00     0.000 C 
BRANCH   3   4
ATOM      4  C   UNL     1     102.996 311.547 199.593  1.00  0.00     0.000 C 
BRANCH   4   5
ATOM      5  C   UNL     1     103.881 311.679 200.838  1.00  0.00     0.000 C 
BRANCH   5   6
ATOM      6  C   UNL     1     103.170 311.120 202.079  1.00  0.00     0.006 C 
BRANCH   6   7
ATOM      7  C   UNL     1     104.161 310.623 203.141  1.00  0.00     0.053 C 
BRANCH   7   8
ATOM      8  C   UNL     1     104.267 311.576 204.292  1.00  0.00     0.041 C 
ATOM      9  O   UNL     1     104.064 312.805 204.116  1.00  0.00    -0.550 OA
ATOM     10  O   UNL     1     104.623 311.110 205.552  1.00  0.00    -0.550 OA
ENDBRANCH   7   8
ENDBRANCH   6   7
ENDBRANCH   5   6
ENDBRANCH   4   5
ENDBRANCH   3   4
ENDBRANCH   2   3
ENDBRANCH   1   2
BRANCH   1  11
ATOM     11  C   UNL     1     104.167 311.837 195.694  1.00  0.00     0.000 C 
BRANCH  11  12
ATOM     12  C   UNL     1     105.593 311.696 195.142  1.00  0.00    -0.000 C 
BRANCH  12  13
ATOM     13  C   UNL     1     105.618 311.373 193.640  1.00  0.00    -0.000 C 
BRANCH  13  14
ATOM     14  C   UNL     1     104.238 311.516 192.979  1.00  0.00    -0.000 C 
BRANCH  14  15
ATOM     15  C   UNL     1     104.092 312.888 192.304  1.00  0.00    -0.000 C 
BRANCH  15  16
ATOM     16  C   UNL     1     105.442 313.487 191.882  1.00  0.00    -0.000 C 
BRANCH  16  17
ATOM     17  C   UNL     1     105.320 314.437 190.681  1.00  0.00    -0.003 C 
ATOM     18  C   UNL     1     103.943 314.329 190.033  1.00  0.00     0.004 C 
ENDBRANCH  16  17
ENDBRANCH  15  16
ENDBRANCH  14  15
ENDBRANCH  13  14
ENDBRANCH  12  13
ENDBRANCH  11  12
ENDBRANCH   1  11
TORSDOF 14
ENDMDL
MODEL 2
REMARK VINA RESULT:    -5.959      6.158      9.836
REMARK INTER + INTRA:         -11.627
REMARK INTER:                  -9.895
REMARK INTRA:                  -1.732
REMARK UNBOUND:                -0.792
REMARK SMILES CCCCCCCCCCCCCCCC(=O)[O-]
REMARK SMILES IDX 9 1 10 2 11 3 12 4 13 5 14 6 15 7 16 8 17 9 18 10 8 11 7 12
REMARK SMILES IDX 6 13 5 14 4 15 3 16 2 17 1 18
REMARK H PARENT
REMARK Flexibility Score: inf
ROOT
ATOM      1  C   UNL     1     104.477 311.360 193.257  1.00  0.00     0.000 C 
ENDROOT
BRANCH   1   2
ATOM      2  C   UNL     1     104.176 312.629 192.451  1.00  0.00     0.000 C 
BRANCH   2   3
ATOM      3  C   UNL     1     105.469 313.357 192.067  1.00  0.00     0.000 C 
BRANCH   3   4
ATOM      4  C   UNL     1     105.246 314.280 190.862  1.00  0.00     0.000 C 
BRANCH   4   5
ATOM      5  C   UNL     1     103.853 314.071 190.259  1.00  0.00     0.000 C 
BRANCH   5   6
ATOM      6  C   UNL     1     103.719 314.808 188.918  1.00  0.00     0.006 C 
BRANCH   6   7
ATOM      7  C   UNL     1     102.358 314.562 188.253  1.00  0.00     0.053 C 
BRANCH   7   8
ATOM      8  C   UNL     1     101.471 315.766 188.341  1.00  0.00     0.041 C 
ATOM      9  O   UNL     1     101.569 316.554 189.317  1.00  0.00    -0.550 OA
ATOM     10  O   UNL     1     100.513 315.998 187.361  1.00  0.00    -0.550 OA
ENDBRANCH   7   8
ENDBRANCH   6   7
ENDBRANCH   5   6
ENDBRANCH   4   5
ENDBRANCH   3   4
ENDBRANCH   2   3
ENDBRANCH   1   2
BRANCH   1  11
ATOM     11  C   UNL     1     105.825 311.473 193.980  1.00  0.00     0.000 C 
BRANCH  11  12
ATOM     12  C   UNL     1     105.625 311.618 195.496  1.00  0.00    -0.000 C 
BRANCH  12  13
ATOM     13  C   UNL     1     104.147 311.527 195.910  1.00  0.00    -0.000 C 
BRANCH  13  14
ATOM     14  C   UNL     1     103.840 312.324 197.187  1.00  0.00    -0.000 C 
BRANCH  14  15
ATOM     15  C   UNL     1     104.107 313.822 196.977  1.00  0.00    -0.000 C 
BRANCH  15  16
ATOM     16  C   UNL     1     102.923 314.548 196.321  1.00  0.00    -0.000 C 
BRANCH  16  17
ATOM     17  C   UNL     1     103.292 315.186 194.973  1.00  0.00    -0.003 C 
ATOM     18  C   UNL     1     104.785 315.491 194.899  1.00  0.00     0.004 C 
ENDBRANCH  16  17
ENDBRANCH  15  16
ENDBRANCH  14  15
ENDBRANCH  13  14
ENDBRANCH  12  13
ENDBRANCH  11  12
ENDBRANCH   1  11
TORSDOF 14
ENDMDL
MODEL 3
REMARK VINA RESULT:    -5.950      1.770      3.853
REMARK INTER + INTRA:         -11.611
REMARK INTER:                 -10.464
REMARK INTRA:                  -1.147
REMARK UNBOUND:                -0.792
REMARK SMILES CCCCCCCCCCCCCCCC(=O)[O-]
REMARK SMILES IDX 9 1 10 2 11 3 12 4 13 5 14 6 15 7 16 8 17 9 18 10 8 11 7 12
REMARK SMILES IDX 6 13 5 14 4 15 3 16 2 17 1 18
REMARK H PARENT
REMARK Flexibility Score: inf
ROOT
ATOM      1  C   UNL     1     104.142 311.677 193.160  1.00  0.00     0.000 C 
ENDROOT
BRANCH   1   2
ATOM      2  C   UNL     1     105.528 311.350 193.730  1.00  0.00     0.000 C 
BRANCH   2   3
ATOM      3  C   UNL     1     105.566 311.575 195.246  1.00  0.00     0.000 C 
BRANCH   3   4
ATOM      4  C   UNL     1     104.170 311.891 195.794  1.00  0.00     0.000 C 
BRANCH   4   5
ATOM      5  C   UNL     1     103.951 311.232 197.160  1.00  0.00     0.000 C 
BRANCH   5   6
ATOM      6  C   UNL     1     103.834 312.289 198.268  1.00  0.00     0.006 C 
BRANCH   6   7
ATOM      7  C   UNL     1     103.218 311.719 199.553  1.00  0.00     0.053 C 
BRANCH   7   8
ATOM      8  C   UNL     1     104.118 311.915 200.735  1.00  0.00     0.041 C 
ATOM      9  O   UNL     1     104.039 311.142 201.724  1.00  0.00    -0.550 OA
ATOM     10  O   UNL     1     105.020 312.972 200.756  1.00  0.00    -0.550 OA
ENDBRANCH   7   8
ENDBRANCH   6   7
ENDBRANCH   5   6
ENDBRANCH   4   5
ENDBRANCH   3   4
ENDBRANCH   2   3
ENDBRANCH   1   2
BRANCH   1  11
ATOM     11  C   UNL     1     104.247 312.658 191.986  1.00  0.00     0.000 C 
BRANCH  11  12
ATOM     12  C   UNL     1     103.977 314.097 192.446  1.00  0.00    -0.000 C 
BRANCH  12  13
ATOM     13  C   UNL     1     104.964 315.109 191.842  1.00  0.00    -0.000 C 
BRANCH  13  14
ATOM     14  C   UNL     1     105.807 314.509 190.706  1.00  0.00    -0.000 C 
BRANCH  14  15
ATOM     15  C   UNL     1     105.963 315.509 189.552  1.00  0.00    -0.000 C 
BRANCH  15  16
ATOM     16  C   UNL     1     104.643 316.204 189.186  1.00  0.00    -0.000 C 
BRANCH  16  17
ATOM     17  C   UNL     1     103.876 315.474 188.075  1.00  0.00    -0.003 C 
ATOM     18  C   UNL     1     102.907 314.449 188.657  1.00  0.00     0.004 C 
ENDBRANCH  16  17
ENDBRANCH  15  16
ENDBRANCH  14  15
ENDBRANCH  13  14
ENDBRANCH  12  13
ENDBRANCH  11  12
ENDBRANCH   1  11
TORSDOF 14
ENDMDL
MODEL 4
REMARK VINA RESULT:    -5.830     19.417     21.951
REMARK INTER + INTRA:         -11.394
REMARK INTER:                  -9.833
REMARK INTRA:                  -1.561
REMARK UNBOUND:                -0.792
REMARK SMILES CCCCCCCCCCCCCCCC(=O)[O-]
REMARK SMILES IDX 9 1 10 2 11 3 12 4 13 5 14 6 15 7 16 8 17 9 18 10 8 11 7 12
REMARK SMILES IDX 6 13 5 14 4 15 3 16 2 17 1 18
REMARK H PARENT
REMARK Flexibility Score: inf
ROOT
ATOM      1  C   UNL     1      88.027 325.365 193.264  1.00  0.00     0.000 C 
ENDROOT
BRANCH   1   2
ATOM      2  C   UNL     1      86.658 324.680 193.195  1.00  0.00     0.000 C 
BRANCH   2   3
ATOM      3  C   UNL     1      86.526 323.840 191.920  1.00  0.00     0.000 C 
BRANCH   3   4
ATOM      4  C   UNL     1      87.820 323.875 191.099  1.00  0.00     0.000 C 
BRANCH   4   5
ATOM      5  C   UNL     1      88.096 322.516 190.444  1.00  0.00     0.000 C 
BRANCH   5   6
ATOM      6  C   UNL     1      88.485 322.686 188.969  1.00  0.00     0.006 C 
BRANCH   6   7
ATOM      7  C   UNL     1      89.775 323.501 188.798  1.00  0.00     0.053 C 
BRANCH   7   8
ATOM      8  C   UNL     1      90.972 322.617 188.626  1.00  0.00     0.041 C 
ATOM      9  O   UNL     1      92.076 323.108 188.277  1.00  0.00    -0.550 OA
ATOM     10  O   UNL     1      90.858 321.245 188.821  1.00  0.00    -0.550 OA
ENDBRANCH   7   8
ENDBRANCH   6   7
ENDBRANCH   5   6
ENDBRANCH   4   5
ENDBRANCH   3   4
ENDBRANCH   2   3
ENDBRANCH   1   2
BRANCH   1  11
ATOM     11  C   UNL     1      87.994 326.568 194.216  1.00  0.00     0.000 C 
BRANCH  11  12
ATOM     12  C   UNL     1      86.734 326.540 195.093  1.00  0.00    -0.000 C 
BRANCH  12  13
ATOM     13  C   UNL     1      87.058 326.470 196.594  1.00  0.00    -0.000 C 
BRANCH  13  14
ATOM     14  C   UNL     1      88.568 326.407 196.872  1.00  0.00    -0.000 C 
BRANCH  14  15
ATOM     15  C   UNL     1      88.868 325.493 198.069  1.00  0.00    -0.000 C 
BRANCH  15  16
ATOM     16  C   UNL     1      88.618 324.009 197.760  1.00  0.00    -0.000 C 
BRANCH  16  17
ATOM     17  C   UNL     1      89.235 323.570 196.424  1.00  0.00    -0.003 C 
ATOM     18  C   UNL     1      88.314 322.606 195.683  1.00  0.00     0.004 C 
ENDBRANCH  16  17
ENDBRANCH  15  16
ENDBRANCH  14  15
ENDBRANCH  13  14
ENDBRANCH  12  13
ENDBRANCH  11  12
ENDBRANCH   1  11
TORSDOF 14
ENDMDL
MODEL 5
REMARK VINA RESULT:    -5.791     19.840     22.391
REMARK INTER + INTRA:         -11.322
REMARK INTER:                 -10.470
REMARK INTRA:                  -0.852
REMARK UNBOUND:                -0.792
REMARK SMILES CCCCCCCCCCCCCCCC(=O)[O-]
REMARK SMILES IDX 9 1 10 2 11 3 12 4 13 5 14 6 15 7 16 8 17 9 18 10 8 11 7 12
REMARK SMILES IDX 6 13 5 14 4 15 3 16 2 17 1 18
REMARK H PARENT
REMARK Flexibility Score: inf
ROOT
ATOM      1  C   UNL     1      88.023 326.572 194.064  1.00  0.00     0.000 C 
ENDROOT
BRANCH   1   2
ATOM      2  C   UNL     1      88.110 325.185 193.418  1.00  0.00     0.000 C 
BRANCH   2   3
ATOM      3  C   UNL     1      86.713 324.620 193.136  1.00  0.00     0.000 C 
BRANCH   3   4
ATOM      4  C   UNL     1      86.709 323.766 191.863  1.00  0.00     0.000 C 
BRANCH   4   5
ATOM      5  C   UNL     1      88.129 323.317 191.496  1.00  0.00     0.000 C 
BRANCH   5   6
ATOM      6  C   UNL     1      88.527 323.836 190.107  1.00  0.00     0.006 C 
BRANCH   6   7
ATOM      7  C   UNL     1      88.352 322.770 189.017  1.00  0.00     0.053 C 
BRANCH   7   8
ATOM      8  C   UNL     1      89.594 321.951 188.836  1.00  0.00     0.041 C 
ATOM      9  O   UNL     1      90.656 322.493 188.434  1.00  0.00    -0.550 OA
ATOM     10  O   UNL     1      89.568 320.584 189.082  1.00  0.00    -0.550 OA
ENDBRANCH   7   8
ENDBRANCH   6   7
ENDBRANCH   5   6
ENDBRANCH   4   5
ENDBRANCH   3   4
ENDBRANCH   2   3
ENDBRANCH   1   2
BRANCH   1  11
ATOM     11  C   UNL     1      86.670 326.774 194.757  1.00  0.00     0.000 C 
BRANCH  11  12
ATOM     12  C   UNL     1      86.782 326.520 196.267  1.00  0.00    -0.000 C 
BRANCH  12  13
ATOM     13  C   UNL     1      88.231 326.285 196.723  1.00  0.00    -0.000 C 
BRANCH  13  14
ATOM     14  C   UNL     1      88.433 324.904 197.365  1.00  0.00    -0.000 C 
BRANCH  14  15
ATOM     15  C   UNL     1      89.310 325.006 198.622  1.00  0.00    -0.000 C 
BRANCH  15  16
ATOM     16  C   UNL     1      89.215 326.381 199.301  1.00  0.00    -0.000 C 
BRANCH  16  17
ATOM     17  C   UNL     1      89.859 326.399 200.695  1.00  0.00    -0.003 C 
ATOM     18  C   UNL     1      88.802 326.297 201.791  1.00  0.00     0.004 C 
ENDBRANCH  16  17
ENDBRANCH  15  16
ENDBRANCH  14  15
ENDBRANCH  13  14
ENDBRANCH  12  13
ENDBRANCH  11  12
ENDBRANCH   1  11
TORSDOF 14
ENDMDL
MODEL 6
REMARK VINA RESULT:    -5.789     19.907     20.967
REMARK INTER + INTRA:         -11.319
REMARK INTER:                  -9.759
REMARK INTRA:                  -1.560
REMARK UNBOUND:                -0.792
REMARK SMILES CCCCCCCCCCCCCCCC(=O)[O-]
REMARK SMILES IDX 9 1 10 2 11 3 12 4 13 5 14 6 15 7 16 8 17 9 18 10 8 11 7 12
REMARK SMILES IDX 6 13 5 14 4 15 3 16 2 17 1 18
REMARK H PARENT
REMARK Flexibility Score: inf
ROOT
ATOM      1  C   UNL     1      89.272 324.727 196.693  1.00  0.00     0.000 C 
ENDROOT
BRANCH   1   2
ATOM      2  C   UNL     1      88.462 324.224 197.893  1.00  0.00     0.000 C 
BRANCH   2   3
ATOM      3  C   UNL     1      89.364 324.001 199.112  1.00  0.00     0.000 C 
BRANCH   3   4
ATOM      4  C   UNL     1      89.997 325.317 199.579  1.00  0.00     0.000 C 
BRANCH   4   5
ATOM      5  C   UNL     1      88.992 326.164 200.367  1.00  0.00     0.000 C 
BRANCH   5   6
ATOM      6  C   UNL     1      88.916 325.705 201.831  1.00  0.00     0.006 C 
BRANCH   6   7
ATOM      7  C   UNL     1      89.426 326.778 202.803  1.00  0.00     0.053 C 
BRANCH   7   8
ATOM      8  C   UNL     1      89.132 326.421 204.228  1.00  0.00     0.041 C 
ATOM      9  O   UNL     1      88.773 325.253 204.527  1.00  0.00    -0.550 OA
ATOM     10  O   UNL     1      89.225 327.390 205.221  1.00  0.00    -0.550 OA
ENDBRANCH   7   8
ENDBRANCH   6   7
ENDBRANCH   5   6
ENDBRANCH   4   5
ENDBRANCH   3   4
ENDBRANCH   2   3
ENDBRANCH   1   2
BRANCH   1  11
ATOM     11  C   UNL     1      88.796 326.117 196.251  1.00  0.00     0.000 C 
BRANCH  11  12
ATOM     12  C   UNL     1      87.463 326.480 196.920  1.00  0.00    -0.000 C 
BRANCH  12  13
ATOM     13  C   UNL     1      86.324 326.676 195.907  1.00  0.00    -0.000 C 
BRANCH  13  14
ATOM     14  C   UNL     1      86.796 326.533 194.451  1.00  0.00    -0.000 C 
BRANCH  14  15
ATOM     15  C   UNL     1      86.061 325.382 193.747  1.00  0.00    -0.000 C 
BRANCH  15  16
ATOM     16  C   UNL     1      86.809 324.045 193.858  1.00  0.00    -0.000 C 
BRANCH  16  17
ATOM     17  C   UNL     1      88.168 324.065 193.144  1.00  0.00    -0.003 C 
ATOM     18  C   UNL     1      88.004 324.358 191.656  1.00  0.00     0.004 C 
ENDBRANCH  16  17
ENDBRANCH  15  16
ENDBRANCH  14  15
ENDBRANCH  13  14
ENDBRANCH  12  13
ENDBRANCH  11  12
ENDBRANCH   1  11
TORSDOF 14
ENDMDL
MODEL 7
REMARK VINA RESULT:    -5.786     19.965     20.949
REMARK INTER + INTRA:         -11.314
REMARK INTER:                 -10.673
REMARK INTRA:                  -0.641
REMARK UNBOUND:                -0.792
REMARK SMILES CCCCCCCCCCCCCCCC(=O)[O-]
REMARK SMILES IDX 9 1 10 2 11 3 12 4 13 5 14 6 15 7 16 8 17 9 18 10 8 11 7 12
REMARK SMILES IDX 6 13 5 14 4 15 3 16 2 17 1 18
REMARK H PARENT
REMARK Flexibility Score: inf
ROOT
ATOM      1  C   UNL     1      88.844 326.496 198.135  1.00  0.00     0.000 C 
ENDROOT
BRANCH   1   2
ATOM      2  C   UNL     1      89.019 325.111 198.767  1.00  0.00     0.000 C 
BRANCH   2   3
ATOM      3  C   UNL     1      89.947 325.174 199.986  1.00  0.00     0.000 C 
BRANCH   3   4
ATOM      4  C   UNL     1      89.863 326.542 200.672  1.00  0.00     0.000 C 
BRANCH   4   5
ATOM      5  C   UNL     1      88.976 326.479 201.921  1.00  0.00     0.000 C 
BRANCH   5   6
ATOM      6  C   UNL     1      89.825 326.508 203.200  1.00  0.00     0.006 C 
BRANCH   6   7
ATOM      7  C   UNL     1      89.170 327.338 204.313  1.00  0.00     0.053 C 
BRANCH   7   8
ATOM      8  C   UNL     1      88.922 326.521 205.544  1.00  0.00     0.041 C 
ATOM      9  O   UNL     1      88.109 325.562 205.514  1.00  0.00    -0.550 OA
ATOM     10  O   UNL     1      89.567 326.840 206.733  1.00  0.00    -0.550 OA
ENDBRANCH   7   8
ENDBRANCH   6   7
ENDBRANCH   5   6
ENDBRANCH   4   5
ENDBRANCH   3   4
ENDBRANCH   2   3
ENDBRANCH   1   2
BRANCH   1  11
ATOM     11  C   UNL     1      87.919 326.432 196.914  1.00  0.00     0.000 C 
BRANCH  11  12
ATOM     12  C   UNL     1      88.710 326.098 195.641  1.00  0.00    -0.000 C 
BRANCH  12  13
ATOM     13  C   UNL     1      87.996 326.558 194.360  1.00  0.00    -0.000 C 
BRANCH  13  14
ATOM     14  C   UNL     1      86.563 326.015 194.253  1.00  0.00    -0.000 C 
BRANCH  14  15
ATOM     15  C   UNL     1      86.496 324.832 193.275  1.00  0.00    -0.000 C 
BRANCH  15  16
ATOM     16  C   UNL     1      87.817 324.609 192.523  1.00  0.00    -0.000 C 
BRANCH  16  17
ATOM     17  C   UNL     1      87.726 323.480 191.486  1.00  0.00    -0.003 C 
ATOM     18  C   UNL     1      88.549 323.806 190.244  1.00  0.00     0.004 C 
ENDBRANCH  16  17
ENDBRANCH  15  16
ENDBRANCH  14  15
ENDBRANCH  13  14
ENDBRANCH  12  13
ENDBRANCH  11  12
ENDBRANCH   1  11
TORSDOF 14
ENDMDL
MODEL 8
REMARK VINA RESULT:    -5.780      1.273      2.204
REMARK INTER + INTRA:         -11.303
REMARK INTER:                 -10.623
REMARK INTRA:                  -0.680
REMARK UNBOUND:                -0.792
REMARK SMILES CCCCCCCCCCCCCCCC(=O)[O-]
REMARK SMILES IDX 9 1 10 2 11 3 12 4 13 5 14 6 15 7 16 8 17 9 18 10 8 11 7 12
REMARK SMILES IDX 6 13 5 14 4 15 3 16 2 17 1 18
REMARK H PARENT
REMARK Flexibility Score: inf
ROOT
ATOM      1  C   UNL     1     103.519 311.491 194.774  1.00  0.00     0.000 C 
ENDROOT
BRANCH   1   2
ATOM      2  C   UNL     1     104.438 311.968 195.905  1.00  0.00     0.000 C 
BRANCH   2   3
ATOM      3  C   UNL     1     103.907 311.521 197.272  1.00  0.00     0.000 C 
BRANCH   3   4
ATOM      4  C   UNL     1     103.956 312.671 198.285  1.00  0.00     0.000 C 
BRANCH   4   5
ATOM      5  C   UNL     1     102.846 312.529 199.334  1.00  0.00     0.000 C 
BRANCH   5   6
ATOM      6  C   UNL     1     103.214 311.470 200.383  1.00  0.00     0.006 C 
BRANCH   6   7
ATOM      7  C   UNL     1     104.194 312.010 201.434  1.00  0.00     0.053 C 
BRANCH   7   8
ATOM      8  C   UNL     1     103.961 311.395 202.780  1.00  0.00     0.041 C 
ATOM      9  O   UNL     1     104.633 311.773 203.774  1.00  0.00    -0.550 OA
ATOM     10  O   UNL     1     103.022 310.380 202.928  1.00  0.00    -0.550 OA
ENDBRANCH   7   8
ENDBRANCH   6   7
ENDBRANCH   5   6
ENDBRANCH   4   5
ENDBRANCH   3   4
ENDBRANCH   2   3
ENDBRANCH   1   2
BRANCH   1  11
ATOM     11  C   UNL     1     104.309 311.274 193.477  1.00  0.00     0.000 C 
BRANCH  11  12
ATOM     12  C   UNL     1     105.605 312.097 193.478  1.00  0.00    -0.000 C 
BRANCH  12  13
ATOM     13  C   UNL     1     105.648 313.137 192.348  1.00  0.00    -0.000 C 
BRANCH  13  14
ATOM     14  C   UNL     1     104.281 313.787 192.087  1.00  0.00    -0.000 C 
BRANCH  14  15
ATOM     15  C   UNL     1     103.889 313.667 190.607  1.00  0.00    -0.000 C 
BRANCH  15  16
ATOM     16  C   UNL     1     104.036 314.993 189.845  1.00  0.00    -0.000 C 
BRANCH  16  17
ATOM     17  C   UNL     1     103.632 314.876 188.368  1.00  0.00    -0.003 C 
ATOM     18  C   UNL     1     102.190 314.397 188.229  1.00  0.00     0.004 C 
ENDBRANCH  16  17
ENDBRANCH  15  16
ENDBRANCH  14  15
ENDBRANCH  13  14
ENDBRANCH  12  13
ENDBRANCH  11  12
ENDBRANCH   1  11
TORSDOF 14
ENDMDL
MODEL 9
REMARK VINA RESULT:    -5.731     19.430     20.903
REMARK INTER + INTRA:         -11.214
REMARK INTER:                  -9.484
REMARK INTRA:                  -1.730
REMARK UNBOUND:                -0.792
REMARK SMILES CCCCCCCCCCCCCCCC(=O)[O-]
REMARK SMILES IDX 9 1 10 2 11 3 12 4 13 5 14 6 15 7 16 8 17 9 18 10 8 11 7 12
REMARK SMILES IDX 6 13 5 14 4 15 3 16 2 17 1 18
REMARK H PARENT
REMARK Flexibility Score: inf
ROOT
ATOM      1  C   UNL     1      88.093 326.616 194.310  1.00  0.00     0.000 C 
ENDROOT
BRANCH   1   2
ATOM      2  C   UNL     1      88.853 326.608 195.641  1.00  0.00     0.000 C 
BRANCH   2   3
ATOM      3  C   UNL     1      88.003 325.992 196.758  1.00  0.00     0.000 C 
BRANCH   3   4
ATOM      4  C   UNL     1      88.870 325.181 197.728  1.00  0.00     0.000 C 
BRANCH   4   5
ATOM      5  C   UNL     1      89.422 323.921 197.052  1.00  0.00     0.000 C 
BRANCH   5   6
ATOM      6  C   UNL     1      88.299 323.123 196.374  1.00  0.00     0.006 C 
BRANCH   6   7
ATOM      7  C   UNL     1      88.763 322.460 195.071  1.00  0.00     0.053 C 
BRANCH   7   8
ATOM      8  C   UNL     1      87.710 321.560 194.500  1.00  0.00     0.041 C 
ATOM      9  O   UNL     1      86.494 321.781 194.732  1.00  0.00    -0.550 OA
ATOM     10  O   UNL     1      88.076 320.457 193.737  1.00  0.00    -0.550 OA
ENDBRANCH   7   8
ENDBRANCH   6   7
ENDBRANCH   5   6
ENDBRANCH   4   5
ENDBRANCH   3   4
ENDBRANCH   2   3
ENDBRANCH   1   2
BRANCH   1  11
ATOM     11  C   UNL     1      86.695 326.005 194.470  1.00  0.00     0.000 C 
BRANCH  11  12
ATOM     12  C   UNL     1      86.406 324.994 193.351  1.00  0.00    -0.000 C 
BRANCH  12  13
ATOM     13  C   UNL     1      87.640 324.700 192.484  1.00  0.00    -0.000 C 
BRANCH  13  14
ATOM     14  C   UNL     1      87.379 323.611 191.431  1.00  0.00    -0.000 C 
BRANCH  14  15
ATOM     15  C   UNL     1      88.455 323.638 190.335  1.00  0.00    -0.000 C 
BRANCH  15  16
ATOM     16  C   UNL     1      88.054 322.832 189.090  1.00  0.00    -0.000 C 
BRANCH  16  17
ATOM     17  C   UNL     1      86.791 321.987 189.312  1.00  0.00    -0.003 C 
ATOM     18  C   UNL     1      86.226 321.484 187.988  1.00  0.00     0.004 C 
ENDBRANCH  16  17
ENDBRANCH  15  16
ENDBRANCH  14  15
ENDBRANCH  13  14
ENDBRANCH  12  13
ENDBRANCH  11  12
ENDBRANCH   1  11
TORSDOF 14
ENDMDL
