MODEL 1
REMARK VINA RESULT:    -3.721      0.000      0.000
REMARK INTER + INTRA:          -8.993
REMARK INTER:                  -6.767
REMARK INTRA:                  -2.226
REMARK UNBOUND:                -2.226
REMARK SMILES CCCCCCCCCCCCCCCC(=O)[O-]
REMARK SMILES IDX 9 1 10 2 11 3 12 4 13 5 14 6 15 7 16 8 17 9 18 10 8 11 7 12
REMARK SMILES IDX 6 13 5 14 4 15 3 16 2 17 1 18
REMARK H PARENT
REMARK Flexibility Score: inf
ROOT
ATOM      1  C   UNL     1      24.181  -3.758  -0.524  1.00  0.00     0.000 C 
ENDROOT
BRANCH   1   2
ATOM      2  C   UNL     1      23.859  -4.267  -1.940  1.00  0.00     0.000 C 
BRANCH   2   3
ATOM      3  C   UNL     1      22.440  -3.881  -2.396  1.00  0.00     0.000 C 
BRANCH   3   4
ATOM      4  C   UNL     1      21.558  -3.396  -1.233  1.00  0.00     0.000 C 
BRANCH   4   5
ATOM      5  C   UNL     1      21.082  -1.945  -1.419  1.00  0.00     0.000 C 
BRANCH   5   6
ATOM      6  C   UNL     1      21.576  -1.007  -0.301  1.00  0.00     0.006 C 
BRANCH   6   7
ATOM      7  C   UNL     1      21.556  -1.630   1.104  1.00  0.00     0.053 C 
BRANCH   7   8
ATOM      8  C   UNL     1      22.441  -0.890   2.060  1.00  0.00     0.041 C 
ATOM      9  O   UNL     1      23.534  -1.393   2.431  1.00  0.00    -0.550 OA
ATOM     10  O   UNL     1      22.074   0.371   2.514  1.00  0.00    -0.550 OA
ENDBRANCH   7   8
ENDBRANCH   6   7
ENDBRANCH   5   6
ENDBRANCH   4   5
ENDBRANCH   3   4
ENDBRANCH   2   3
ENDBRANCH   1   2
BRANCH   1  11
ATOM     11  C   UNL     1      25.208  -2.614  -0.528  1.00  0.00     0.000 C 
BRANCH  11  12
ATOM     12  C   UNL     1      25.380  -1.969  -1.915  1.00  0.00    -0.000 C 
BRANCH  12  13
ATOM     13  C   UNL     1      25.001  -0.477  -1.993  1.00  0.00    -0.000 C 
BRANCH  13  14
ATOM     14  C   UNL     1      24.984   0.269  -0.643  1.00  0.00    -0.000 C 
BRANCH  14  15
ATOM     15  C   UNL     1      26.342   0.839  -0.196  1.00  0.00    -0.000 C 
BRANCH  15  16
ATOM     16  C   UNL     1      27.173   1.389  -1.367  1.00  0.00    -0.000 C 
BRANCH  16  17
ATOM     17  C   UNL     1      28.624   0.884  -1.348  1.00  0.00    -0.003 C 
ATOM     18  C   UNL     1      28.762  -0.543  -1.880  1.00  0.00     0.004 C 
ENDBRANCH  16  17
ENDBRANCH  15  16
ENDBRANCH  14  15
ENDBRANCH  13  14
ENDBRANCH  12  13
ENDBRANCH  11  12
ENDBRANCH   1  11
TORSDOF 14
ENDMDL
MODEL 2
REMARK VINA RESULT:    -3.720      3.510      5.030
REMARK INTER + INTRA:          -8.991
REMARK INTER:                  -6.785
REMARK INTRA:                  -2.206
REMARK UNBOUND:                -2.226
REMARK SMILES CCCCCCCCCCCCCCCC(=O)[O-]
REMARK SMILES IDX 9 1 10 2 11 3 12 4 13 5 14 6 15 7 16 8 17 9 18 10 8 11 7 12
REMARK SMILES IDX 6 13 5 14 4 15 3 16 2 17 1 18
REMARK H PARENT
REMARK Flexibility Score: inf
ROOT
ATOM      1  C   UNL     1      25.139  -2.584  -0.751  1.00  0.00     0.000 C 
ENDROOT
BRANCH   1   2
ATOM      2  C   UNL     1      25.394  -2.444   0.760  1.00  0.00     0.000 C 
BRANCH   2   3
ATOM      3  C   UNL     1      26.865  -2.122   1.082  1.00  0.00     0.000 C 
BRANCH   3   4
ATOM      4  C   UNL     1      27.024  -0.799   1.850  1.00  0.00     0.000 C 
BRANCH   4   5
ATOM      5  C   UNL     1      26.206  -0.770   3.153  1.00  0.00     0.000 C 
BRANCH   5   6
ATOM      6  C   UNL     1      27.034  -1.182   4.385  1.00  0.00     0.006 C 
BRANCH   6   7
ATOM      7  C   UNL     1      28.438  -0.558   4.445  1.00  0.00     0.053 C 
BRANCH   7   8
ATOM      8  C   UNL     1      29.518  -1.594   4.386  1.00  0.00     0.041 C 
ATOM      9  O   UNL     1      29.251  -2.767   4.017  1.00  0.00    -0.550 OA
ATOM     10  O   UNL     1      30.826  -1.254   4.707  1.00  0.00    -0.550 OA
ENDBRANCH   7   8
ENDBRANCH   6   7
ENDBRANCH   5   6
ENDBRANCH   4   5
ENDBRANCH   3   4
ENDBRANCH   2   3
ENDBRANCH   1   2
BRANCH   1  11
ATOM     11  C   UNL     1      24.889  -1.229  -1.436  1.00  0.00     0.000 C 
BRANCH  11  12
ATOM     12  C   UNL     1      24.069  -0.262  -0.564  1.00  0.00    -0.000 C 
BRANCH  12  13
ATOM     13  C   UNL     1      24.648   1.162  -0.446  1.00  0.00    -0.000 C 
BRANCH  13  14
ATOM     14  C   UNL     1      25.739   1.516  -1.477  1.00  0.00    -0.000 C 
BRANCH  14  15
ATOM     15  C   UNL     1      27.079   1.981  -0.877  1.00  0.00    -0.000 C 
BRANCH  15  16
ATOM     16  C   UNL     1      28.296   1.421  -1.632  1.00  0.00    -0.000 C 
BRANCH  16  17
ATOM     17  C   UNL     1      28.728   0.042  -1.110  1.00  0.00    -0.003 C 
ATOM     18  C   UNL     1      28.524  -1.072  -2.137  1.00  0.00     0.004 C 
ENDBRANCH  16  17
ENDBRANCH  15  16
ENDBRANCH  14  15
ENDBRANCH  13  14
ENDBRANCH  12  13
ENDBRANCH  11  12
ENDBRANCH   1  11
TORSDOF 14
ENDMDL
MODEL 3
REMARK VINA RESULT:    -3.711      3.489      5.734
REMARK INTER + INTRA:          -8.974
REMARK INTER:                  -6.650
REMARK INTRA:                  -2.324
REMARK UNBOUND:                -2.226
REMARK SMILES CCCCCCCCCCCCCCCC(=O)[O-]
REMARK SMILES IDX 9 1 10 2 11 3 12 4 13 5 14 6 15 7 16 8 17 9 18 10 8 11 7 12
REMARK SMILES IDX 6 13 5 14 4 15 3 16 2 17 1 18
REMARK H PARENT
REMARK Flexibility Score: inf
ROOT
ATOM      1  C   UNL     1      25.515  -0.811   0.989  1.00  0.00     0.000 C 
ENDROOT
BRANCH   1   2
ATOM      2  C   UNL     1      26.055   0.232   1.982  1.00  0.00     0.000 C 
BRANCH   2   3
ATOM      3  C   UNL     1      27.565   0.073   2.242  1.00  0.00     0.000 C 
BRANCH   3   4
ATOM      4  C   UNL     1      27.959   0.458   3.678  1.00  0.00     0.000 C 
BRANCH   4   5
ATOM      5  C   UNL     1      28.778  -0.639   4.379  1.00  0.00     0.000 C 
BRANCH   5   6
ATOM      6  C   UNL     1      29.164  -1.792   3.434  1.00  0.00     0.006 C 
BRANCH   6   7
ATOM      7  C   UNL     1      28.870  -3.195   3.990  1.00  0.00     0.053 C 
BRANCH   7   8
ATOM      8  C   UNL     1      27.516  -3.277   4.626  1.00  0.00     0.041 C 
ATOM      9  O   UNL     1      27.407  -3.545   5.851  1.00  0.00    -0.550 OA
ATOM     10  O   UNL     1      26.377  -3.023   3.872  1.00  0.00    -0.550 OA
ENDBRANCH   7   8
ENDBRANCH   6   7
ENDBRANCH   5   6
ENDBRANCH   4   5
ENDBRANCH   3   4
ENDBRANCH   2   3
ENDBRANCH   1   2
BRANCH   1  11
ATOM     11  C   UNL     1      26.636  -1.550   0.240  1.00  0.00     0.000 C 
BRANCH  11  12
ATOM     12  C   UNL     1      26.501  -1.448  -1.290  1.00  0.00    -0.000 C 
BRANCH  12  13
ATOM     13  C   UNL     1      27.806  -1.113  -2.040  1.00  0.00    -0.000 C 
BRANCH  13  14
ATOM     14  C   UNL     1      28.691  -0.042  -1.372  1.00  0.00    -0.000 C 
BRANCH  14  15
ATOM     15  C   UNL     1      28.374   1.411  -1.774  1.00  0.00    -0.000 C 
BRANCH  15  16
ATOM     16  C   UNL     1      28.037   2.302  -0.568  1.00  0.00    -0.000 C 
BRANCH  16  17
ATOM     17  C   UNL     1      26.659   2.969  -0.697  1.00  0.00    -0.003 C 
ATOM     18  C   UNL     1      25.625   2.069  -1.374  1.00  0.00     0.004 C 
ENDBRANCH  16  17
ENDBRANCH  15  16
ENDBRANCH  14  15
ENDBRANCH  13  14
ENDBRANCH  12  13
ENDBRANCH  11  12
ENDBRANCH   1  11
TORSDOF 14
ENDMDL
MODEL 4
REMARK VINA RESULT:    -3.672      2.399      4.158
REMARK INTER + INTRA:          -8.903
REMARK INTER:                  -7.014
REMARK INTRA:                  -1.889
REMARK UNBOUND:                -2.226
REMARK SMILES CCCCCCCCCCCCCCCC(=O)[O-]
REMARK SMILES IDX 9 1 10 2 11 3 12 4 13 5 14 6 15 7 16 8 17 9 18 10 8 11 7 12
REMARK SMILES IDX 6 13 5 14 4 15 3 16 2 17 1 18
REMARK H PARENT
REMARK Flexibility Score: inf
ROOT
ATOM      1  C   UNL     1      28.556  -0.717  -1.248  1.00  0.00     0.000 C 
ENDROOT
BRANCH   1   2
ATOM      2  C   UNL     1      27.193  -1.343  -0.906  1.00  0.00     0.000 C 
BRANCH   2   3
ATOM      3  C   UNL     1      26.145  -1.115  -2.011  1.00  0.00     0.000 C 
BRANCH   3   4
ATOM      4  C   UNL     1      24.939  -2.061  -1.883  1.00  0.00     0.000 C 
BRANCH   4   5
ATOM      5  C   UNL     1      23.620  -1.307  -1.645  1.00  0.00     0.000 C 
BRANCH   5   6
ATOM      6  C   UNL     1      22.378  -2.173  -1.929  1.00  0.00     0.006 C 
BRANCH   6   7
ATOM      7  C   UNL     1      21.192  -1.910  -0.987  1.00  0.00     0.053 C 
BRANCH   7   8
ATOM      8  C   UNL     1      20.124  -1.090  -1.643  1.00  0.00     0.041 C 
ATOM      9  O   UNL     1      18.961  -1.554  -1.777  1.00  0.00    -0.550 OA
ATOM     10  O   UNL     1      20.404   0.200  -2.076  1.00  0.00    -0.550 OA
ENDBRANCH   7   8
ENDBRANCH   6   7
ENDBRANCH   5   6
ENDBRANCH   4   5
ENDBRANCH   3   4
ENDBRANCH   2   3
ENDBRANCH   1   2
BRANCH   1  11
ATOM     11  C   UNL     1      28.421   0.599  -2.033  1.00  0.00     0.000 C 
BRANCH  11  12
ATOM     12  C   UNL     1      28.397   1.838  -1.120  1.00  0.00    -0.000 C 
BRANCH  12  13
ATOM     13  C   UNL     1      27.441   2.962  -1.571  1.00  0.00    -0.000 C 
BRANCH  13  14
ATOM     14  C   UNL     1      25.941   2.670  -1.367  1.00  0.00    -0.000 C 
BRANCH  14  15
ATOM     15  C   UNL     1      25.465   2.691   0.097  1.00  0.00    -0.000 C 
BRANCH  15  16
ATOM     16  C   UNL     1      24.781   1.380   0.520  1.00  0.00    -0.000 C 
BRANCH  16  17
ATOM     17  C   UNL     1      25.252   0.888   1.897  1.00  0.00    -0.003 C 
ATOM     18  C   UNL     1      26.775   0.785   2.000  1.00  0.00     0.004 C 
ENDBRANCH  16  17
ENDBRANCH  15  16
ENDBRANCH  14  15
ENDBRANCH  13  14
ENDBRANCH  12  13
ENDBRANCH  11  12
ENDBRANCH   1  11
TORSDOF 14
ENDMDL
MODEL 5
REMARK VINA RESULT:    -3.668      2.775      5.284
REMARK INTER + INTRA:          -8.896
REMARK INTER:                  -6.297
REMARK INTRA:                  -2.599
REMARK UNBOUND:                -2.226
REMARK SMILES CCCCCCCCCCCCCCCC(=O)[O-]
REMARK SMILES IDX 9 1 10 2 11 3 12 4 13 5 14 6 15 7 16 8 17 9 18 10 8 11 7 12
REMARK SMILES IDX 6 13 5 14 4 15 3 16 2 17 1 18
REMARK H PARENT
REMARK Flexibility Score: inf
ROOT
ATOM      1  C   UNL     1      27.235   0.369   0.717  1.00  0.00     0.000 C 
ENDROOT
BRANCH   1   2
ATOM      2  C   UNL     1      27.175   0.568  -0.807  1.00  0.00     0.000 C 
BRANCH   2   3
ATOM      3  C   UNL     1      27.660  -0.671  -1.583  1.00  0.00     0.000 C 
BRANCH   3   4
ATOM      4  C   UNL     1      26.498  -1.497  -2.160  1.00  0.00     0.000 C 
BRANCH   4   5
ATOM      5  C   UNL     1      25.134  -0.811  -1.969  1.00  0.00     0.000 C 
BRANCH   5   6
ATOM      6  C   UNL     1      23.958  -1.805  -2.004  1.00  0.00     0.006 C 
BRANCH   6   7
ATOM      7  C   UNL     1      24.349  -3.240  -2.392  1.00  0.00     0.053 C 
BRANCH   7   8
ATOM      8  C   UNL     1      23.157  -4.071  -2.752  1.00  0.00     0.041 C 
ATOM      9  O   UNL     1      22.005  -3.719  -2.385  1.00  0.00    -0.550 OA
ATOM     10  O   UNL     1      23.314  -5.217  -3.522  1.00  0.00    -0.550 OA
ENDBRANCH   7   8
ENDBRANCH   6   7
ENDBRANCH   5   6
ENDBRANCH   4   5
ENDBRANCH   3   4
ENDBRANCH   2   3
ENDBRANCH   1   2
BRANCH   1  11
ATOM     11  C   UNL     1      27.980  -0.916   1.117  1.00  0.00     0.000 C 
BRANCH  11  12
ATOM     12  C   UNL     1      27.135  -1.843   2.008  1.00  0.00    -0.000 C 
BRANCH  12  13
ATOM     13  C   UNL     1      26.339  -2.928   1.254  1.00  0.00    -0.000 C 
BRANCH  13  14
ATOM     14  C   UNL     1      24.810  -2.880   1.455  1.00  0.00    -0.000 C 
BRANCH  14  15
ATOM     15  C   UNL     1      24.302  -1.715   2.324  1.00  0.00    -0.000 C 
BRANCH  15  16
ATOM     16  C   UNL     1      23.703  -0.569   1.492  1.00  0.00    -0.000 C 
BRANCH  16  17
ATOM     17  C   UNL     1      23.766   0.782   2.221  1.00  0.00    -0.003 C 
ATOM     18  C   UNL     1      24.711   0.763   3.424  1.00  0.00     0.004 C 
ENDBRANCH  16  17
ENDBRANCH  15  16
ENDBRANCH  14  15
ENDBRANCH  13  14
ENDBRANCH  12  13
ENDBRANCH  11  12
ENDBRANCH   1  11
TORSDOF 14
ENDMDL
MODEL 6
REMARK VINA RESULT:    -3.665      3.594      5.518
REMARK INTER + INTRA:          -8.891
REMARK INTER:                  -6.522
REMARK INTRA:                  -2.369
REMARK UNBOUND:                -2.226
REMARK SMILES CCCCCCCCCCCCCCCC(=O)[O-]
REMARK SMILES IDX 9 1 10 2 11 3 12 4 13 5 14 6 15 7 16 8 17 9 18 10 8 11 7 12
REMARK SMILES IDX 6 13 5 14 4 15 3 16 2 17 1 18
REMARK H PARENT
REMARK Flexibility Score: inf
ROOT
ATOM      1  C   UNL     1      26.210  -0.820  -2.115  1.00  0.00     0.000 C 
ENDROOT
BRANCH   1   2
ATOM      2  C   UNL     1      25.382  -1.455  -0.985  1.00  0.00     0.000 C 
BRANCH   2   3
ATOM      3  C   UNL     1      26.258  -1.956   0.178  1.00  0.00     0.000 C 
BRANCH   3   4
ATOM      4  C   UNL     1      26.181  -1.039   1.411  1.00  0.00     0.000 C 
BRANCH   4   5
ATOM      5  C   UNL     1      27.522  -0.939   2.157  1.00  0.00     0.000 C 
BRANCH   5   6
ATOM      6  C   UNL     1      27.382  -0.300   3.551  1.00  0.00     0.006 C 
BRANCH   6   7
ATOM      7  C   UNL     1      28.265  -0.940   4.635  1.00  0.00     0.053 C 
BRANCH   7   8
ATOM      8  C   UNL     1      29.623  -0.312   4.699  1.00  0.00     0.041 C 
ATOM      9  O   UNL     1      30.656  -1.031   4.666  1.00  0.00    -0.550 OA
ATOM     10  O   UNL     1      29.749   1.070   4.759  1.00  0.00    -0.550 OA
ENDBRANCH   7   8
ENDBRANCH   6   7
ENDBRANCH   5   6
ENDBRANCH   4   5
ENDBRANCH   3   4
ENDBRANCH   2   3
ENDBRANCH   1   2
BRANCH   1  11
ATOM     11  C   UNL     1      27.709  -1.145  -2.004  1.00  0.00     0.000 C 
BRANCH  11  12
ATOM     12  C   UNL     1      28.591   0.116  -1.955  1.00  0.00    -0.000 C 
BRANCH  12  13
ATOM     13  C   UNL     1      27.850   1.418  -1.591  1.00  0.00    -0.000 C 
BRANCH  13  14
ATOM     14  C   UNL     1      27.981   1.860  -0.120  1.00  0.00    -0.000 C 
BRANCH  14  15
ATOM     15  C   UNL     1      26.748   2.579   0.458  1.00  0.00    -0.000 C 
BRANCH  15  16
ATOM     16  C   UNL     1      25.453   2.245  -0.301  1.00  0.00    -0.000 C 
BRANCH  16  17
ATOM     17  C   UNL     1      24.203   2.380   0.581  1.00  0.00    -0.003 C 
ATOM     18  C   UNL     1      23.292   1.154   0.512  1.00  0.00     0.004 C 
ENDBRANCH  16  17
ENDBRANCH  15  16
ENDBRANCH  14  15
ENDBRANCH  13  14
ENDBRANCH  12  13
ENDBRANCH  11  12
ENDBRANCH   1  11
TORSDOF 14
ENDMDL
MODEL 7
REMARK VINA RESULT:    -3.629      3.934      6.890
REMARK INTER + INTRA:          -8.825
REMARK INTER:                  -6.545
REMARK INTRA:                  -2.280
REMARK UNBOUND:                -2.226
REMARK SMILES CCCCCCCCCCCCCCCC(=O)[O-]
REMARK SMILES IDX 9 1 10 2 11 3 12 4 13 5 14 6 15 7 16 8 17 9 18 10 8 11 7 12
REMARK SMILES IDX 6 13 5 14 4 15 3 16 2 17 1 18
REMARK H PARENT
REMARK Flexibility Score: inf
ROOT
ATOM      1  C   UNL     1      23.198   2.210   3.222  1.00  0.00     0.000 C 
ENDROOT
BRANCH   1   2
ATOM      2  C   UNL     1      24.302   1.663   4.142  1.00  0.00     0.000 C 
BRANCH   2   3
ATOM      3  C   UNL     1      25.424   0.955   3.360  1.00  0.00     0.000 C 
BRANCH   3   4
ATOM      4  C   UNL     1      25.265  -0.575   3.357  1.00  0.00     0.000 C 
BRANCH   4   5
ATOM      5  C   UNL     1      25.135  -1.158   4.774  1.00  0.00     0.000 C 
BRANCH   5   6
ATOM      6  C   UNL     1      26.163  -2.268   5.059  1.00  0.00     0.006 C 
BRANCH   6   7
ATOM      7  C   UNL     1      27.629  -1.831   4.906  1.00  0.00     0.053 C 
BRANCH   7   8
ATOM      8  C   UNL     1      28.335  -2.597   3.830  1.00  0.00     0.041 C 
ATOM      9  O   UNL     1      28.826  -3.730   4.077  1.00  0.00    -0.550 OA
ATOM     10  O   UNL     1      28.421  -2.075   2.545  1.00  0.00    -0.550 OA
ENDBRANCH   7   8
ENDBRANCH   6   7
ENDBRANCH   5   6
ENDBRANCH   4   5
ENDBRANCH   3   4
ENDBRANCH   2   3
ENDBRANCH   1   2
BRANCH   1  11
ATOM     11  C   UNL     1      21.801   1.688   3.601  1.00  0.00     0.000 C 
BRANCH  11  12
ATOM     12  C   UNL     1      21.841   0.635   4.723  1.00  0.00    -0.000 C 
BRANCH  12  13
ATOM     13  C   UNL     1      21.373  -0.775   4.311  1.00  0.00    -0.000 C 
BRANCH  13  14
ATOM     14  C   UNL     1      21.201  -0.994   2.794  1.00  0.00    -0.000 C 
BRANCH  14  15
ATOM     15  C   UNL     1      22.244  -1.924   2.147  1.00  0.00    -0.000 C 
BRANCH  15  16
ATOM     16  C   UNL     1      22.515  -1.580   0.673  1.00  0.00    -0.000 C 
BRANCH  16  17
ATOM     17  C   UNL     1      22.794  -0.084   0.460  1.00  0.00    -0.003 C 
ATOM     18  C   UNL     1      22.017   0.501  -0.721  1.00  0.00     0.004 C 
ENDBRANCH  16  17
ENDBRANCH  15  16
ENDBRANCH  14  15
ENDBRANCH  13  14
ENDBRANCH  12  13
ENDBRANCH  11  12
ENDBRANCH   1  11
TORSDOF 14
ENDMDL
MODEL 8
REMARK VINA RESULT:    -3.619      1.320      2.511
REMARK INTER + INTRA:          -8.807
REMARK INTER:                  -7.037
REMARK INTRA:                  -1.770
REMARK UNBOUND:                -2.226
REMARK SMILES CCCCCCCCCCCCCCCC(=O)[O-]
REMARK SMILES IDX 9 1 10 2 11 3 12 4 13 5 14 6 15 7 16 8 17 9 18 10 8 11 7 12
REMARK SMILES IDX 6 13 5 14 4 15 3 16 2 17 1 18
REMARK H PARENT
REMARK Flexibility Score: inf
ROOT
ATOM      1  C   UNL     1      21.768  -4.285  -0.960  1.00  0.00     0.000 C 
ENDROOT
BRANCH   1   2
ATOM      2  C   UNL     1      21.322  -2.903  -1.467  1.00  0.00     0.000 C 
BRANCH   2   3
ATOM      3  C   UNL     1      20.938  -1.950  -0.320  1.00  0.00     0.000 C 
BRANCH   3   4
ATOM      4  C   UNL     1      21.764  -0.653  -0.331  1.00  0.00     0.000 C 
BRANCH   4   5
ATOM      5  C   UNL     1      22.479  -0.397   1.007  1.00  0.00     0.000 C 
BRANCH   5   6
ATOM      6  C   UNL     1      22.090  -1.414   2.095  1.00  0.00     0.006 C 
BRANCH   6   7
ATOM      7  C   UNL     1      21.439  -0.793   3.342  1.00  0.00     0.053 C 
BRANCH   7   8
ATOM      8  C   UNL     1      22.454  -0.206   4.274  1.00  0.00     0.041 C 
ATOM      9  O   UNL     1      22.978  -0.918   5.170  1.00  0.00    -0.550 OA
ATOM     10  O   UNL     1      22.846   1.119   4.130  1.00  0.00    -0.550 OA
ENDBRANCH   7   8
ENDBRANCH   6   7
ENDBRANCH   5   6
ENDBRANCH   4   5
ENDBRANCH   3   4
ENDBRANCH   2   3
ENDBRANCH   1   2
BRANCH   1  11
ATOM     11  C   UNL     1      23.058  -4.221  -0.124  1.00  0.00     0.000 C 
BRANCH  11  12
ATOM     12  C   UNL     1      24.318  -4.025  -0.986  1.00  0.00    -0.000 C 
BRANCH  12  13
ATOM     13  C   UNL     1      25.007  -2.654  -0.833  1.00  0.00    -0.000 C 
BRANCH  13  14
ATOM     14  C   UNL     1      24.859  -1.706  -2.040  1.00  0.00    -0.000 C 
BRANCH  14  15
ATOM     15  C   UNL     1      25.800  -0.487  -2.032  1.00  0.00    -0.000 C 
BRANCH  15  16
ATOM     16  C   UNL     1      27.078  -0.726  -1.210  1.00  0.00    -0.000 C 
BRANCH  16  17
ATOM     17  C   UNL     1      28.329  -0.144  -1.886  1.00  0.00    -0.003 C 
ATOM     18  C   UNL     1      28.451   1.370  -1.705  1.00  0.00     0.004 C 
ENDBRANCH  16  17
ENDBRANCH  15  16
ENDBRANCH  14  15
ENDBRANCH  13  14
ENDBRANCH  12  13
ENDBRANCH  11  12
ENDBRANCH   1  11
TORSDOF 14
ENDMDL
MODEL 9
REMARK VINA RESULT:    -3.571      2.729      5.371
REMARK INTER + INTRA:          -8.721
REMARK INTER:                  -6.212
REMARK INTRA:                  -2.509
REMARK UNBOUND:                -2.226
REMARK SMILES CCCCCCCCCCCCCCCC(=O)[O-]
REMARK SMILES IDX 9 1 10 2 11 3 12 4 13 5 14 6 15 7 16 8 17 9 18 10 8 11 7 12
REMARK SMILES IDX 6 13 5 14 4 15 3 16 2 17 1 18
REMARK H PARENT
REMARK Flexibility Score: inf
ROOT
ATOM      1  C   UNL     1      28.416   0.624  -2.000  1.00  0.00     0.000 C 
ENDROOT
BRANCH   1   2
ATOM      2  C   UNL     1      28.078  -0.854  -1.738  1.00  0.00     0.000 C 
BRANCH   2   3
ATOM      3  C   UNL     1      26.595  -1.175  -1.998  1.00  0.00     0.000 C 
BRANCH   3   4
ATOM      4  C   UNL     1      25.849  -1.589  -0.718  1.00  0.00     0.000 C 
BRANCH   4   5
ATOM      5  C   UNL     1      26.791  -1.757   0.487  1.00  0.00     0.000 C 
BRANCH   5   6
ATOM      6  C   UNL     1      26.361  -0.915   1.702  1.00  0.00     0.006 C 
BRANCH   6   7
ATOM      7  C   UNL     1      27.518  -0.205   2.423  1.00  0.00     0.053 C 
BRANCH   7   8
ATOM      8  C   UNL     1      28.093  -1.041   3.525  1.00  0.00     0.041 C 
ATOM      9  O   UNL     1      27.536  -1.073   4.653  1.00  0.00    -0.550 OA
ATOM     10  O   UNL     1      29.225  -1.813   3.294  1.00  0.00    -0.550 OA
ENDBRANCH   7   8
ENDBRANCH   6   7
ENDBRANCH   5   6
ENDBRANCH   4   5
ENDBRANCH   3   4
ENDBRANCH   2   3
ENDBRANCH   1   2
BRANCH   1  11
ATOM     11  C   UNL     1      28.041   1.534  -0.819  1.00  0.00     0.000 C 
BRANCH  11  12
ATOM     12  C   UNL     1      26.839   2.446  -1.127  1.00  0.00    -0.000 C 
BRANCH  12  13
ATOM     13  C   UNL     1      25.551   2.113  -0.347  1.00  0.00    -0.000 C 
BRANCH  13  14
ATOM     14  C   UNL     1      24.287   1.931  -1.213  1.00  0.00    -0.000 C 
BRANCH  14  15
ATOM     15  C   UNL     1      23.014   1.548  -0.436  1.00  0.00    -0.000 C 
BRANCH  15  16
ATOM     16  C   UNL     1      22.581   0.094  -0.682  1.00  0.00    -0.000 C 
BRANCH  16  17
ATOM     17  C   UNL     1      22.464  -0.713   0.620  1.00  0.00    -0.003 C 
ATOM     18  C   UNL     1      22.842   0.101   1.858  1.00  0.00     0.004 C 
ENDBRANCH  16  17
ENDBRANCH  15  16
ENDBRANCH  14  15
ENDBRANCH  13  14
ENDBRANCH  12  13
ENDBRANCH  11  12
ENDBRANCH   1  11
TORSDOF 14
ENDMDL
