MODEL 1
REMARK VINA RESULT:    -5.363      0.000      0.000
REMARK INTER + INTRA:         -18.334
REMARK INTER:                 -14.141
REMARK INTRA:                  -4.193
REMARK UNBOUND:                -4.193
REMARK SMILES CCCCCCCCCCCCCCCCCCCCCCCCCCCCCC(=O)[O-]
REMARK SMILES IDX 16 1 17 2 18 3 19 4 20 5 21 6 22 7 23 8 24 9 25 10 26 11
REMARK SMILES IDX 27 12 28 13 29 14 30 15 31 16 32 17 15 18 14 19 13 20 12 21
REMARK SMILES IDX 11 22 10 23 9 24 8 25 7 26 6 27 5 28 4 29 3 30 2 31 1 32
REMARK H PARENT
REMARK Flexibility Score: inf
ROOT
ATOM      1  C   UNL     1      16.417 -22.625 -26.866  1.00  0.00     0.000 C 
ENDROOT
BRANCH   1   2
ATOM      2  C   UNL     1      15.046 -23.016 -27.444  1.00  0.00     0.000 C 
BRANCH   2   3
ATOM      3  C   UNL     1      15.042 -23.070 -28.982  1.00  0.00     0.000 C 
BRANCH   3   4
ATOM      4  C   UNL     1      13.630 -23.272 -29.557  1.00  0.00     0.000 C 
BRANCH   4   5
ATOM      5  C   UNL     1      12.716 -24.059 -28.600  1.00  0.00     0.000 C 
BRANCH   5   6
ATOM      6  C   UNL     1      11.504 -23.233 -28.123  1.00  0.00     0.000 C 
BRANCH   6   7
ATOM      7  C   UNL     1      11.722 -21.710 -28.161  1.00  0.00     0.000 C 
BRANCH   7   8
ATOM      8  C   UNL     1      11.955 -21.109 -26.762  1.00  0.00     0.000 C 
BRANCH   8   9
ATOM      9  C   UNL     1      13.024 -20.003 -26.761  1.00  0.00     0.000 C 
BRANCH   9  10
ATOM     10  C   UNL     1      12.510 -18.602 -26.373  1.00  0.00     0.000 C 
BRANCH  10  11
ATOM     11  C   UNL     1      11.096 -18.608 -25.751  1.00  0.00     0.000 C 
BRANCH  11  12
ATOM     12  C   UNL     1      10.276 -17.373 -26.162  1.00  0.00     0.000 C 
BRANCH  12  13
ATOM     13  C   UNL     1       8.875 -17.732 -26.688  1.00  0.00     0.006 C 
BRANCH  13  14
ATOM     14  C   UNL     1       8.494 -17.025 -27.998  1.00  0.00     0.053 C 
BRANCH  14  15
ATOM     15  C   UNL     1       9.031 -17.742 -29.199  1.00  0.00     0.041 C 
ATOM     16  O   UNL     1       9.985 -18.554 -29.079  1.00  0.00    -0.550 OA
ATOM     17  O   UNL     1       8.497 -17.488 -30.456  1.00  0.00    -0.550 OA
ENDBRANCH  14  15
ENDBRANCH  13  14
ENDBRANCH  12  13
ENDBRANCH  11  12
ENDBRANCH  10  11
ENDBRANCH   9  10
ENDBRANCH   8   9
ENDBRANCH   7   8
ENDBRANCH   6   7
ENDBRANCH   5   6
ENDBRANCH   4   5
ENDBRANCH   3   4
ENDBRANCH   2   3
ENDBRANCH   1   2
BRANCH   1  18
ATOM     18  C   UNL     1      17.459 -22.325 -27.954  1.00  0.00     0.000 C 
BRANCH  18  19
ATOM     19  C   UNL     1      18.772 -21.817 -27.339  1.00  0.00     0.000 C 
BRANCH  19  20
ATOM     20  C   UNL     1      18.578 -21.168 -25.959  1.00  0.00     0.000 C 
BRANCH  20  21
ATOM     21  C   UNL     1      19.428 -21.767 -24.821  1.00  0.00     0.000 C 
BRANCH  21  22
ATOM     22  C   UNL     1      19.427 -23.309 -24.769  1.00  0.00     0.000 C 
BRANCH  22  23
ATOM     23  C   UNL     1      18.076 -23.896 -24.317  1.00  0.00     0.000 C 
BRANCH  23  24
ATOM     24  C   UNL     1      17.791 -25.278 -24.930  1.00  0.00    -0.000 C 
BRANCH  24  25
ATOM     25  C   UNL     1      18.573 -25.527 -26.231  1.00  0.00    -0.000 C 
BRANCH  25  26
ATOM     26  C   UNL     1      17.898 -26.578 -27.133  1.00  0.00    -0.000 C 
BRANCH  26  27
ATOM     27  C   UNL     1      16.987 -25.995 -28.230  1.00  0.00    -0.000 C 
BRANCH  27  28
ATOM     28  C   UNL     1      17.036 -26.734 -29.581  1.00  0.00    -0.000 C 
BRANCH  28  29
ATOM     29  C   UNL     1      18.235 -26.327 -30.466  1.00  0.00    -0.000 C 
BRANCH  29  30
ATOM     30  C   UNL     1      18.516 -24.816 -30.407  1.00  0.00    -0.000 C 
BRANCH  30  31
ATOM     31  C   UNL     1      20.000 -24.484 -30.623  1.00  0.00    -0.003 C 
ATOM     32  C   UNL     1      20.772 -24.366 -29.308  1.00  0.00     0.004 C 
ENDBRANCH  30  31
ENDBRANCH  29  30
ENDBRANCH  28  29
ENDBRANCH  27  28
ENDBRANCH  26  27
ENDBRANCH  25  26
ENDBRANCH  24  25
ENDBRANCH  23  24
ENDBRANCH  22  23
ENDBRANCH  21  22
ENDBRANCH  20  21
ENDBRANCH  19  20
ENDBRANCH  18  19
ENDBRANCH   1  18
TORSDOF 28
ENDMDL
MODEL 2
REMARK VINA RESULT:    -5.354      1.569      4.862
REMARK INTER + INTRA:         -18.311
REMARK INTER:                 -13.491
REMARK INTRA:                  -4.820
REMARK UNBOUND:                -4.193
REMARK SMILES CCCCCCCCCCCCCCCCCCCCCCCCCCCCCC(=O)[O-]
REMARK SMILES IDX 16 1 17 2 18 3 19 4 20 5 21 6 22 7 23 8 24 9 25 10 26 11
REMARK SMILES IDX 27 12 28 13 29 14 30 15 31 16 32 17 15 18 14 19 13 20 12 21
REMARK SMILES IDX 11 22 10 23 9 24 8 25 7 26 6 27 5 28 4 29 3 30 2 31 1 32
REMARK H PARENT
REMARK Flexibility Score: inf
ROOT
ATOM      1  C   UNL     1      18.071 -23.941 -22.924  1.00  0.00     0.000 C 
ENDROOT
BRANCH   1   2
ATOM      2  C   UNL     1      18.869 -22.631 -23.037  1.00  0.00     0.000 C 
BRANCH   2   3
ATOM      3  C   UNL     1      20.237 -22.822 -23.713  1.00  0.00     0.000 C 
BRANCH   3   4
ATOM      4  C   UNL     1      20.306 -22.155 -25.097  1.00  0.00     0.000 C 
BRANCH   4   5
ATOM      5  C   UNL     1      19.183 -21.123 -25.305  1.00  0.00     0.000 C 
BRANCH   5   6
ATOM      6  C   UNL     1      18.590 -21.168 -26.727  1.00  0.00     0.000 C 
BRANCH   6   7
ATOM      7  C   UNL     1      18.277 -22.587 -27.237  1.00  0.00     0.000 C 
BRANCH   7   8
ATOM      8  C   UNL     1      17.069 -22.620 -28.193  1.00  0.00     0.000 C 
BRANCH   8   9
ATOM      9  C   UNL     1      15.813 -23.225 -27.541  1.00  0.00     0.000 C 
BRANCH   9  10
ATOM     10  C   UNL     1      14.618 -22.259 -27.413  1.00  0.00     0.000 C 
BRANCH  10  11
ATOM     11  C   UNL     1      13.249 -22.968 -27.324  1.00  0.00     0.000 C 
BRANCH  11  12
ATOM     12  C   UNL     1      12.092 -21.975 -27.122  1.00  0.00     0.000 C 
BRANCH  12  13
ATOM     13  C   UNL     1      12.573 -20.557 -26.771  1.00  0.00     0.006 C 
BRANCH  13  14
ATOM     14  C   UNL     1      11.460 -19.498 -26.762  1.00  0.00     0.053 C 
BRANCH  14  15
ATOM     15  C   UNL     1      11.360 -18.778 -28.073  1.00  0.00     0.041 C 
ATOM     16  O   UNL     1      10.330 -18.901 -28.787  1.00  0.00    -0.550 OA
ATOM     17  O   UNL     1      12.418 -17.998 -28.519  1.00  0.00    -0.550 OA
ENDBRANCH  14  15
ENDBRANCH  13  14
ENDBRANCH  12  13
ENDBRANCH  11  12
ENDBRANCH  10  11
ENDBRANCH   9  10
ENDBRANCH   8   9
ENDBRANCH   7   8
ENDBRANCH   6   7
ENDBRANCH   5   6
ENDBRANCH   4   5
ENDBRANCH   3   4
ENDBRANCH   2   3
ENDBRANCH   1   2
BRANCH   1  18
ATOM     18  C   UNL     1      17.036 -24.107 -24.047  1.00  0.00     0.000 C 
BRANCH  18  19
ATOM     19  C   UNL     1      17.315 -25.371 -24.876  1.00  0.00     0.000 C 
BRANCH  19  20
ATOM     20  C   UNL     1      18.739 -25.406 -25.458  1.00  0.00     0.000 C 
BRANCH  20  21
ATOM     21  C   UNL     1      18.862 -26.018 -26.867  1.00  0.00     0.000 C 
BRANCH  21  22
ATOM     22  C   UNL     1      17.633 -26.837 -27.315  1.00  0.00     0.000 C 
BRANCH  22  23
ATOM     23  C   UNL     1      17.930 -27.767 -28.507  1.00  0.00     0.000 C 
BRANCH  23  24
ATOM     24  C   UNL     1      16.728 -27.926 -29.453  1.00  0.00    -0.000 C 
BRANCH  24  25
ATOM     25  C   UNL     1      15.859 -26.659 -29.534  1.00  0.00    -0.000 C 
BRANCH  25  26
ATOM     26  C   UNL     1      16.510 -25.552 -30.385  1.00  0.00    -0.000 C 
BRANCH  26  27
ATOM     27  C   UNL     1      17.379 -26.063 -31.550  1.00  0.00    -0.000 C 
BRANCH  27  28
ATOM     28  C   UNL     1      18.812 -25.497 -31.593  1.00  0.00    -0.000 C 
BRANCH  28  29
ATOM     29  C   UNL     1      19.160 -24.598 -30.386  1.00  0.00    -0.000 C 
BRANCH  29  30
ATOM     30  C   UNL     1      20.664 -24.287 -30.306  1.00  0.00    -0.000 C 
BRANCH  30  31
ATOM     31  C   UNL     1      21.132 -24.010 -28.869  1.00  0.00    -0.003 C 
ATOM     32  C   UNL     1      21.797 -22.641 -28.722  1.00  0.00     0.004 C 
ENDBRANCH  30  31
ENDBRANCH  29  30
ENDBRANCH  28  29
ENDBRANCH  27  28
ENDBRANCH  26  27
ENDBRANCH  25  26
ENDBRANCH  24  25
ENDBRANCH  23  24
ENDBRANCH  22  23
ENDBRANCH  21  22
ENDBRANCH  20  21
ENDBRANCH  19  20
ENDBRANCH  18  19
ENDBRANCH   1  18
TORSDOF 28
ENDMDL
MODEL 3
REMARK VINA RESULT:    -5.323      2.304      5.371
REMARK INTER + INTRA:         -18.228
REMARK INTER:                 -12.962
REMARK INTRA:                  -5.266
REMARK UNBOUND:                -4.193
REMARK SMILES CCCCCCCCCCCCCCCCCCCCCCCCCCCCCC(=O)[O-]
REMARK SMILES IDX 16 1 17 2 18 3 19 4 20 5 21 6 22 7 23 8 24 9 25 10 26 11
REMARK SMILES IDX 27 12 28 13 29 14 30 15 31 16 32 17 15 18 14 19 13 20 12 21
REMARK SMILES IDX 11 22 10 23 9 24 8 25 7 26 6 27 5 28 4 29 3 30 2 31 1 32
REMARK H PARENT
REMARK Flexibility Score: inf
ROOT
ATOM      1  C   UNL     1      17.371 -25.674 -26.436  1.00  0.00     0.000 C 
ENDROOT
BRANCH   1   2
ATOM      2  C   UNL     1      18.673 -26.006 -27.184  1.00  0.00     0.000 C 
BRANCH   2   3
ATOM      3  C   UNL     1      18.500 -27.148 -28.201  1.00  0.00     0.000 C 
BRANCH   3   4
ATOM      4  C   UNL     1      17.023 -27.502 -28.440  1.00  0.00     0.000 C 
BRANCH   4   5
ATOM      5  C   UNL     1      16.597 -27.275 -29.902  1.00  0.00     0.000 C 
BRANCH   5   6
ATOM      6  C   UNL     1      17.782 -26.897 -30.814  1.00  0.00     0.000 C 
BRANCH   6   7
ATOM      7  C   UNL     1      17.645 -25.522 -31.492  1.00  0.00     0.000 C 
BRANCH   7   8
ATOM      8  C   UNL     1      16.290 -24.849 -31.200  1.00  0.00     0.000 C 
BRANCH   8   9
ATOM      9  C   UNL     1      16.443 -23.459 -30.560  1.00  0.00     0.000 C 
BRANCH   9  10
ATOM     10  C   UNL     1      16.399 -23.444 -29.019  1.00  0.00     0.000 C 
BRANCH  10  11
ATOM     11  C   UNL     1      14.999 -23.731 -28.432  1.00  0.00     0.000 C 
BRANCH  11  12
ATOM     12  C   UNL     1      14.559 -22.655 -27.424  1.00  0.00     0.000 C 
BRANCH  12  13
ATOM     13  C   UNL     1      13.033 -22.594 -27.240  1.00  0.00     0.006 C 
BRANCH  13  14
ATOM     14  C   UNL     1      12.456 -21.170 -27.238  1.00  0.00     0.053 C 
BRANCH  14  15
ATOM     15  C   UNL     1      11.863 -20.803 -28.564  1.00  0.00     0.041 C 
ATOM     16  O   UNL     1      11.418 -21.698 -29.329  1.00  0.00    -0.550 OA
ATOM     17  O   UNL     1      11.831 -19.474 -28.967  1.00  0.00    -0.550 OA
ENDBRANCH  14  15
ENDBRANCH  13  14
ENDBRANCH  12  13
ENDBRANCH  11  12
ENDBRANCH  10  11
ENDBRANCH   9  10
ENDBRANCH   8   9
ENDBRANCH   7   8
ENDBRANCH   6   7
ENDBRANCH   5   6
ENDBRANCH   4   5
ENDBRANCH   3   4
ENDBRANCH   2   3
ENDBRANCH   1   2
BRANCH   1  18
ATOM     18  C   UNL     1      17.585 -25.477 -24.927  1.00  0.00     0.000 C 
BRANCH  18  19
ATOM     19  C   UNL     1      17.021 -24.126 -24.459  1.00  0.00     0.000 C 
BRANCH  19  20
ATOM     20  C   UNL     1      17.636 -23.645 -23.133  1.00  0.00     0.000 C 
BRANCH  20  21
ATOM     21  C   UNL     1      19.171 -23.511 -23.127  1.00  0.00     0.000 C 
BRANCH  21  22
ATOM     22  C   UNL     1      19.763 -22.914 -24.420  1.00  0.00     0.000 C 
BRANCH  22  23
ATOM     23  C   UNL     1      19.913 -21.381 -24.364  1.00  0.00     0.000 C 
BRANCH  23  24
ATOM     24  C   UNL     1      19.148 -20.666 -25.491  1.00  0.00    -0.000 C 
BRANCH  24  25
ATOM     25  C   UNL     1      18.677 -21.627 -26.597  1.00  0.00    -0.000 C 
BRANCH  25  26
ATOM     26  C   UNL     1      18.955 -21.080 -28.011  1.00  0.00    -0.000 C 
BRANCH  26  27
ATOM     27  C   UNL     1      19.850 -21.981 -28.884  1.00  0.00    -0.000 C 
BRANCH  27  28
ATOM     28  C   UNL     1      20.548 -23.132 -28.133  1.00  0.00    -0.000 C 
BRANCH  28  29
ATOM     29  C   UNL     1      22.084 -22.985 -28.063  1.00  0.00    -0.000 C 
BRANCH  29  30
ATOM     30  C   UNL     1      22.538 -22.208 -26.816  1.00  0.00    -0.000 C 
BRANCH  30  31
ATOM     31  C   UNL     1      22.758 -20.714 -27.100  1.00  0.00    -0.003 C 
ATOM     32  C   UNL     1      22.930 -19.893 -25.822  1.00  0.00     0.004 C 
ENDBRANCH  30  31
ENDBRANCH  29  30
ENDBRANCH  28  29
ENDBRANCH  27  28
ENDBRANCH  26  27
ENDBRANCH  25  26
ENDBRANCH  24  25
ENDBRANCH  23  24
ENDBRANCH  22  23
ENDBRANCH  21  22
ENDBRANCH  20  21
ENDBRANCH  19  20
ENDBRANCH  18  19
ENDBRANCH   1  18
TORSDOF 28
ENDMDL
MODEL 4
REMARK VINA RESULT:    -5.276      1.838      4.730
REMARK INTER + INTRA:         -18.105
REMARK INTER:                 -13.624
REMARK INTRA:                  -4.481
REMARK UNBOUND:                -4.193
REMARK SMILES CCCCCCCCCCCCCCCCCCCCCCCCCCCCCC(=O)[O-]
REMARK SMILES IDX 16 1 17 2 18 3 19 4 20 5 21 6 22 7 23 8 24 9 25 10 26 11
REMARK SMILES IDX 27 12 28 13 29 14 30 15 31 16 32 17 15 18 14 19 13 20 12 21
REMARK SMILES IDX 11 22 10 23 9 24 8 25 7 26 6 27 5 28 4 29 3 30 2 31 1 32
REMARK H PARENT
REMARK Flexibility Score: inf
ROOT
ATOM      1  C   UNL     1      17.776 -27.158 -27.373  1.00  0.00     0.000 C 
ENDROOT
BRANCH   1   2
ATOM      2  C   UNL     1      17.610 -27.928 -28.693  1.00  0.00     0.000 C 
BRANCH   2   3
ATOM      3  C   UNL     1      16.568 -27.290 -29.629  1.00  0.00     0.000 C 
BRANCH   3   4
ATOM      4  C   UNL     1      17.085 -27.145 -31.070  1.00  0.00     0.000 C 
BRANCH   4   5
ATOM      5  C   UNL     1      17.886 -25.846 -31.275  1.00  0.00     0.000 C 
BRANCH   5   6
ATOM      6  C   UNL     1      17.330 -24.668 -30.449  1.00  0.00     0.000 C 
BRANCH   6   7
ATOM      7  C   UNL     1      15.941 -24.180 -30.900  1.00  0.00     0.000 C 
BRANCH   7   8
ATOM      8  C   UNL     1      15.345 -23.127 -29.946  1.00  0.00     0.000 C 
BRANCH   8   9
ATOM      9  C   UNL     1      14.458 -23.751 -28.854  1.00  0.00     0.000 C 
BRANCH   9  10
ATOM     10  C   UNL     1      14.058 -22.791 -27.716  1.00  0.00     0.000 C 
BRANCH  10  11
ATOM     11  C   UNL     1      12.647 -23.054 -27.146  1.00  0.00     0.000 C 
BRANCH  11  12
ATOM     12  C   UNL     1      11.964 -21.762 -26.665  1.00  0.00     0.000 C 
BRANCH  12  13
ATOM     13  C   UNL     1      12.741 -20.493 -27.054  1.00  0.00     0.006 C 
BRANCH  13  14
ATOM     14  C   UNL     1      11.859 -19.354 -27.587  1.00  0.00     0.053 C 
BRANCH  14  15
ATOM     15  C   UNL     1      11.140 -18.638 -26.485  1.00  0.00     0.041 C 
ATOM     16  O   UNL     1       9.982 -18.181 -26.676  1.00  0.00    -0.550 OA
ATOM     17  O   UNL     1      11.761 -18.448 -25.258  1.00  0.00    -0.550 OA
ENDBRANCH  14  15
ENDBRANCH  13  14
ENDBRANCH  12  13
ENDBRANCH  11  12
ENDBRANCH  10  11
ENDBRANCH   9  10
ENDBRANCH   8   9
ENDBRANCH   7   8
ENDBRANCH   6   7
ENDBRANCH   5   6
ENDBRANCH   4   5
ENDBRANCH   3   4
ENDBRANCH   2   3
ENDBRANCH   1   2
BRANCH   1  18
ATOM     18  C   UNL     1      19.016 -26.251 -27.365  1.00  0.00     0.000 C 
BRANCH  18  19
ATOM     19  C   UNL     1      18.663 -24.833 -26.888  1.00  0.00     0.000 C 
BRANCH  19  20
ATOM     20  C   UNL     1      17.148 -24.599 -26.768  1.00  0.00     0.000 C 
BRANCH  20  21
ATOM     21  C   UNL     1      16.700 -23.791 -25.535  1.00  0.00     0.000 C 
BRANCH  21  22
ATOM     22  C   UNL     1      16.626 -24.609 -24.229  1.00  0.00     0.000 C 
BRANCH  22  23
ATOM     23  C   UNL     1      17.348 -23.930 -23.050  1.00  0.00     0.000 C 
BRANCH  23  24
ATOM     24  C   UNL     1      18.880 -23.993 -23.172  1.00  0.00    -0.000 C 
BRANCH  24  25
ATOM     25  C   UNL     1      19.537 -22.601 -23.191  1.00  0.00    -0.000 C 
BRANCH  25  26
ATOM     26  C   UNL     1      19.966 -22.171 -24.606  1.00  0.00    -0.000 C 
BRANCH  26  27
ATOM     27  C   UNL     1      19.075 -21.091 -25.249  1.00  0.00    -0.000 C 
BRANCH  27  28
ATOM     28  C   UNL     1      19.529 -20.614 -26.642  1.00  0.00    -0.000 C 
BRANCH  28  29
ATOM     29  C   UNL     1      19.507 -21.724 -27.715  1.00  0.00    -0.000 C 
BRANCH  29  30
ATOM     30  C   UNL     1      18.523 -21.412 -28.856  1.00  0.00    -0.000 C 
BRANCH  30  31
ATOM     31  C   UNL     1      19.222 -21.290 -30.219  1.00  0.00    -0.003 C 
ATOM     32  C   UNL     1      19.286 -19.846 -30.718  1.00  0.00     0.004 C 
ENDBRANCH  30  31
ENDBRANCH  29  30
ENDBRANCH  28  29
ENDBRANCH  27  28
ENDBRANCH  26  27
ENDBRANCH  25  26
ENDBRANCH  24  25
ENDBRANCH  23  24
ENDBRANCH  22  23
ENDBRANCH  21  22
ENDBRANCH  20  21
ENDBRANCH  19  20
ENDBRANCH  18  19
ENDBRANCH   1  18
TORSDOF 28
ENDMDL
MODEL 5
REMARK VINA RESULT:    -5.249      1.305      5.260
REMARK INTER + INTRA:         -18.035
REMARK INTER:                 -13.824
REMARK INTRA:                  -4.211
REMARK UNBOUND:                -4.193
REMARK SMILES CCCCCCCCCCCCCCCCCCCCCCCCCCCCCC(=O)[O-]
REMARK SMILES IDX 16 1 17 2 18 3 19 4 20 5 21 6 22 7 23 8 24 9 25 10 26 11
REMARK SMILES IDX 27 12 28 13 29 14 30 15 31 16 32 17 15 18 14 19 13 20 12 21
REMARK SMILES IDX 11 22 10 23 9 24 8 25 7 26 6 27 5 28 4 29 3 30 2 31 1 32
REMARK H PARENT
REMARK Flexibility Score: inf
ROOT
ATOM      1  C   UNL     1      17.737 -27.280 -27.740  1.00  0.00     0.000 C 
ENDROOT
BRANCH   1   2
ATOM      2  C   UNL     1      18.983 -26.384 -27.636  1.00  0.00     0.000 C 
BRANCH   2   3
ATOM      3  C   UNL     1      18.695 -25.042 -26.941  1.00  0.00     0.000 C 
BRANCH   3   4
ATOM      4  C   UNL     1      17.195 -24.706 -26.912  1.00  0.00     0.000 C 
BRANCH   4   5
ATOM      5  C   UNL     1      16.937 -23.196 -26.752  1.00  0.00     0.000 C 
BRANCH   5   6
ATOM      6  C   UNL     1      15.547 -22.773 -27.269  1.00  0.00     0.000 C 
BRANCH   6   7
ATOM      7  C   UNL     1      15.089 -23.518 -28.536  1.00  0.00     0.000 C 
BRANCH   7   8
ATOM      8  C   UNL     1      13.557 -23.533 -28.694  1.00  0.00     0.000 C 
BRANCH   8   9
ATOM      9  C   UNL     1      12.913 -22.177 -28.359  1.00  0.00     0.000 C 
BRANCH   9  10
ATOM     10  C   UNL     1      12.618 -21.948 -26.863  1.00  0.00     0.000 C 
BRANCH  10  11
ATOM     11  C   UNL     1      11.793 -20.675 -26.577  1.00  0.00     0.000 C 
BRANCH  11  12
ATOM     12  C   UNL     1      12.673 -19.414 -26.513  1.00  0.00     0.000 C 
BRANCH  12  13
ATOM     13  C   UNL     1      12.031 -18.198 -27.203  1.00  0.00     0.006 C 
BRANCH  13  14
ATOM     14  C   UNL     1      10.497 -18.170 -27.127  1.00  0.00     0.053 C 
BRANCH  14  15
ATOM     15  C   UNL     1       9.876 -17.827 -28.446  1.00  0.00     0.041 C 
ATOM     16  O   UNL     1       8.633 -17.642 -28.534  1.00  0.00    -0.550 OA
ATOM     17  O   UNL     1      10.665 -17.744 -29.586  1.00  0.00    -0.550 OA
ENDBRANCH  14  15
ENDBRANCH  13  14
ENDBRANCH  12  13
ENDBRANCH  11  12
ENDBRANCH  10  11
ENDBRANCH   9  10
ENDBRANCH   8   9
ENDBRANCH   7   8
ENDBRANCH   6   7
ENDBRANCH   5   6
ENDBRANCH   4   5
ENDBRANCH   3   4
ENDBRANCH   2   3
ENDBRANCH   1   2
BRANCH   1  18
ATOM     18  C   UNL     1      17.472 -27.767 -29.172  1.00  0.00     0.000 C 
BRANCH  18  19
ATOM     19  C   UNL     1      16.253 -27.057 -29.783  1.00  0.00     0.000 C 
BRANCH  19  20
ATOM     20  C   UNL     1      16.611 -26.194 -31.005  1.00  0.00     0.000 C 
BRANCH  20  21
ATOM     21  C   UNL     1      18.061 -26.329 -31.508  1.00  0.00     0.000 C 
BRANCH  21  22
ATOM     22  C   UNL     1      18.975 -25.140 -31.144  1.00  0.00     0.000 C 
BRANCH  22  23
ATOM     23  C   UNL     1      18.195 -23.913 -30.636  1.00  0.00     0.000 C 
BRANCH  23  24
ATOM     24  C   UNL     1      19.071 -22.943 -29.825  1.00  0.00    -0.000 C 
BRANCH  24  25
ATOM     25  C   UNL     1      18.552 -21.495 -29.862  1.00  0.00    -0.000 C 
BRANCH  25  26
ATOM     26  C   UNL     1      19.399 -20.542 -28.997  1.00  0.00    -0.000 C 
BRANCH  26  27
ATOM     27  C   UNL     1      19.200 -20.703 -27.478  1.00  0.00    -0.000 C 
BRANCH  27  28
ATOM     28  C   UNL     1      20.382 -21.352 -26.730  1.00  0.00    -0.000 C 
BRANCH  28  29
ATOM     29  C   UNL     1      20.779 -20.607 -25.436  1.00  0.00    -0.000 C 
BRANCH  29  30
ATOM     30  C   UNL     1      20.063 -21.168 -24.197  1.00  0.00    -0.000 C 
BRANCH  30  31
ATOM     31  C   UNL     1      19.721 -22.660 -24.340  1.00  0.00    -0.003 C 
ATOM     32  C   UNL     1      18.598 -23.097 -23.400  1.00  0.00     0.004 C 
ENDBRANCH  30  31
ENDBRANCH  29  30
ENDBRANCH  28  29
ENDBRANCH  27  28
ENDBRANCH  26  27
ENDBRANCH  25  26
ENDBRANCH  24  25
ENDBRANCH  23  24
ENDBRANCH  22  23
ENDBRANCH  21  22
ENDBRANCH  20  21
ENDBRANCH  19  20
ENDBRANCH  18  19
ENDBRANCH   1  18
TORSDOF 28
ENDMDL
MODEL 6
REMARK VINA RESULT:    -5.249      1.967      4.948
REMARK INTER + INTRA:         -18.034
REMARK INTER:                 -12.955
REMARK INTRA:                  -5.079
REMARK UNBOUND:                -4.193
REMARK SMILES CCCCCCCCCCCCCCCCCCCCCCCCCCCCCC(=O)[O-]
REMARK SMILES IDX 16 1 17 2 18 3 19 4 20 5 21 6 22 7 23 8 24 9 25 10 26 11
REMARK SMILES IDX 27 12 28 13 29 14 30 15 31 16 32 17 15 18 14 19 13 20 12 21
REMARK SMILES IDX 11 22 10 23 9 24 8 25 7 26 6 27 5 28 4 29 3 30 2 31 1 32
REMARK H PARENT
REMARK Flexibility Score: inf
ROOT
ATOM      1  C   UNL     1      17.049 -24.598 -24.664  1.00  0.00     0.000 C 
ENDROOT
BRANCH   1   2
ATOM      2  C   UNL     1      17.583 -25.463 -25.818  1.00  0.00     0.000 C 
BRANCH   2   3
ATOM      3  C   UNL     1      18.818 -24.848 -26.501  1.00  0.00     0.000 C 
BRANCH   3   4
ATOM      4  C   UNL     1      19.300 -25.681 -27.700  1.00  0.00     0.000 C 
BRANCH   4   5
ATOM      5  C   UNL     1      18.261 -26.730 -28.139  1.00  0.00     0.000 C 
BRANCH   5   6
ATOM      6  C   UNL     1      17.508 -26.320 -29.421  1.00  0.00     0.000 C 
BRANCH   6   7
ATOM      7  C   UNL     1      16.105 -25.738 -29.172  1.00  0.00     0.000 C 
BRANCH   7   8
ATOM      8  C   UNL     1      15.962 -24.294 -29.688  1.00  0.00     0.000 C 
BRANCH   8   9
ATOM      9  C   UNL     1      16.347 -23.245 -28.631  1.00  0.00     0.000 C 
BRANCH   9  10
ATOM     10  C   UNL     1      15.322 -23.061 -27.494  1.00  0.00     0.000 C 
BRANCH  10  11
ATOM     11  C   UNL     1      13.864 -22.922 -27.985  1.00  0.00     0.000 C 
BRANCH  11  12
ATOM     12  C   UNL     1      12.857 -22.920 -26.822  1.00  0.00     0.000 C 
BRANCH  12  13
ATOM     13  C   UNL     1      11.876 -21.736 -26.880  1.00  0.00     0.006 C 
BRANCH  13  14
ATOM     14  C   UNL     1      12.543 -20.359 -26.741  1.00  0.00     0.053 C 
BRANCH  14  15
ATOM     15  C   UNL     1      11.930 -19.344 -27.656  1.00  0.00     0.041 C 
ATOM     16  O   UNL     1      11.531 -18.239 -27.202  1.00  0.00    -0.550 OA
ATOM     17  O   UNL     1      11.771 -19.630 -29.006  1.00  0.00    -0.550 OA
ENDBRANCH  14  15
ENDBRANCH  13  14
ENDBRANCH  12  13
ENDBRANCH  11  12
ENDBRANCH  10  11
ENDBRANCH   9  10
ENDBRANCH   8   9
ENDBRANCH   7   8
ENDBRANCH   6   7
ENDBRANCH   5   6
ENDBRANCH   4   5
ENDBRANCH   3   4
ENDBRANCH   2   3
ENDBRANCH   1   2
BRANCH   1  18
ATOM     18  C   UNL     1      17.931 -24.671 -23.408  1.00  0.00     0.000 C 
BRANCH  18  19
ATOM     19  C   UNL     1      18.495 -23.288 -23.045  1.00  0.00     0.000 C 
BRANCH  19  20
ATOM     20  C   UNL     1      20.007 -23.170 -23.300  1.00  0.00     0.000 C 
BRANCH  20  21
ATOM     21  C   UNL     1      20.424 -22.086 -24.312  1.00  0.00     0.000 C 
BRANCH  21  22
ATOM     22  C   UNL     1      19.272 -21.170 -24.774  1.00  0.00     0.000 C 
BRANCH  22  23
ATOM     23  C   UNL     1      19.570 -20.448 -26.102  1.00  0.00     0.000 C 
BRANCH  23  24
ATOM     24  C   UNL     1      18.962 -21.164 -27.321  1.00  0.00    -0.000 C 
BRANCH  24  25
ATOM     25  C   UNL     1      19.353 -20.508 -28.656  1.00  0.00    -0.000 C 
BRANCH  25  26
ATOM     26  C   UNL     1      18.958 -21.366 -29.873  1.00  0.00    -0.000 C 
BRANCH  26  27
ATOM     27  C   UNL     1      19.792 -22.649 -30.054  1.00  0.00    -0.000 C 
BRANCH  27  28
ATOM     28  C   UNL     1      21.251 -22.421 -30.499  1.00  0.00    -0.000 C 
BRANCH  28  29
ATOM     29  C   UNL     1      22.277 -23.267 -29.713  1.00  0.00    -0.000 C 
BRANCH  29  30
ATOM     30  C   UNL     1      22.031 -23.219 -28.196  1.00  0.00    -0.000 C 
BRANCH  30  31
ATOM     31  C   UNL     1      22.579 -21.937 -27.550  1.00  0.00    -0.003 C 
ATOM     32  C   UNL     1      24.103 -21.845 -27.631  1.00  0.00     0.004 C 
ENDBRANCH  30  31
ENDBRANCH  29  30
ENDBRANCH  28  29
ENDBRANCH  27  28
ENDBRANCH  26  27
ENDBRANCH  25  26
ENDBRANCH  24  25
ENDBRANCH  23  24
ENDBRANCH  22  23
ENDBRANCH  21  22
ENDBRANCH  20  21
ENDBRANCH  19  20
ENDBRANCH  18  19
ENDBRANCH   1  18
TORSDOF 28
ENDMDL
MODEL 7
REMARK VINA RESULT:    -5.215      2.015      4.057
REMARK INTER + INTRA:         -17.945
REMARK INTER:                 -12.785
REMARK INTRA:                  -5.160
REMARK UNBOUND:                -4.193
REMARK SMILES CCCCCCCCCCCCCCCCCCCCCCCCCCCCCC(=O)[O-]
REMARK SMILES IDX 16 1 17 2 18 3 19 4 20 5 21 6 22 7 23 8 24 9 25 10 26 11
REMARK SMILES IDX 27 12 28 13 29 14 30 15 31 16 32 17 15 18 14 19 13 20 12 21
REMARK SMILES IDX 11 22 10 23 9 24 8 25 7 26 6 27 5 28 4 29 3 30 2 31 1 32
REMARK H PARENT
REMARK Flexibility Score: inf
ROOT
ATOM      1  C   UNL     1      20.709 -21.803 -27.927  1.00  0.00     0.000 C 
ENDROOT
BRANCH   1   2
ATOM      2  C   UNL     1      19.388 -21.029 -27.774  1.00  0.00     0.000 C 
BRANCH   2   3
ATOM      3  C   UNL     1      18.152 -21.895 -28.075  1.00  0.00     0.000 C 
BRANCH   3   4
ATOM      4  C   UNL     1      17.374 -22.267 -26.802  1.00  0.00     0.000 C 
BRANCH   4   5
ATOM      5  C   UNL     1      16.221 -23.247 -27.088  1.00  0.00     0.000 C 
BRANCH   5   6
ATOM      6  C   UNL     1      16.037 -23.525 -28.593  1.00  0.00     0.000 C 
BRANCH   6   7
ATOM      7  C   UNL     1      14.667 -24.120 -28.965  1.00  0.00     0.000 C 
BRANCH   7   8
ATOM      8  C   UNL     1      13.808 -23.152 -29.799  1.00  0.00     0.000 C 
BRANCH   8   9
ATOM      9  C   UNL     1      12.346 -23.093 -29.323  1.00  0.00     0.000 C 
BRANCH   9  10
ATOM     10  C   UNL     1      12.075 -23.786 -27.972  1.00  0.00     0.000 C 
BRANCH  10  11
ATOM     11  C   UNL     1      11.854 -22.804 -26.800  1.00  0.00     0.000 C 
BRANCH  11  12
ATOM     12  C   UNL     1      12.770 -21.572 -26.895  1.00  0.00     0.000 C 
BRANCH  12  13
ATOM     13  C   UNL     1      11.998 -20.243 -26.815  1.00  0.00     0.006 C 
BRANCH  13  14
ATOM     14  C   UNL     1      11.475 -19.737 -28.168  1.00  0.00     0.053 C 
BRANCH  14  15
ATOM     15  C   UNL     1      12.050 -18.401 -28.528  1.00  0.00     0.041 C 
ATOM     16  O   UNL     1      12.832 -17.813 -27.736  1.00  0.00    -0.550 OA
ATOM     17  O   UNL     1      11.696 -17.792 -29.725  1.00  0.00    -0.550 OA
ENDBRANCH  14  15
ENDBRANCH  13  14
ENDBRANCH  12  13
ENDBRANCH  11  12
ENDBRANCH  10  11
ENDBRANCH   9  10
ENDBRANCH   8   9
ENDBRANCH   7   8
ENDBRANCH   6   7
ENDBRANCH   5   6
ENDBRANCH   4   5
ENDBRANCH   3   4
ENDBRANCH   2   3
ENDBRANCH   1   2
BRANCH   1  18
ATOM     18  C   UNL     1      21.111 -22.010 -29.396  1.00  0.00     0.000 C 
BRANCH  18  19
ATOM     19  C   UNL     1      21.198 -23.505 -29.741  1.00  0.00     0.000 C 
BRANCH  19  20
ATOM     20  C   UNL     1      19.896 -24.059 -30.346  1.00  0.00     0.000 C 
BRANCH  20  21
ATOM     21  C   UNL     1      19.234 -25.203 -29.554  1.00  0.00     0.000 C 
BRANCH  21  22
ATOM     22  C   UNL     1      19.736 -25.347 -28.103  1.00  0.00     0.000 C 
BRANCH  22  23
ATOM     23  C   UNL     1      18.851 -26.273 -27.247  1.00  0.00     0.000 C 
BRANCH  23  24
ATOM     24  C   UNL     1      17.553 -26.685 -27.962  1.00  0.00    -0.000 C 
BRANCH  24  25
ATOM     25  C   UNL     1      17.512 -28.184 -28.308  1.00  0.00    -0.000 C 
BRANCH  25  26
ATOM     26  C   UNL     1      16.727 -28.468 -29.604  1.00  0.00    -0.000 C 
BRANCH  26  27
ATOM     27  C   UNL     1      16.623 -27.271 -30.568  1.00  0.00    -0.000 C 
BRANCH  27  28
ATOM     28  C   UNL     1      17.363 -27.446 -31.909  1.00  0.00    -0.000 C 
BRANCH  28  29
ATOM     29  C   UNL     1      17.528 -26.131 -32.702  1.00  0.00    -0.000 C 
BRANCH  29  30
ATOM     30  C   UNL     1      16.344 -25.173 -32.492  1.00  0.00    -0.000 C 
BRANCH  30  31
ATOM     31  C   UNL     1      16.638 -23.753 -33.001  1.00  0.00    -0.003 C 
ATOM     32  C   UNL     1      16.979 -22.783 -31.869  1.00  0.00     0.004 C 
ENDBRANCH  30  31
ENDBRANCH  29  30
ENDBRANCH  28  29
ENDBRANCH  27  28
ENDBRANCH  26  27
ENDBRANCH  25  26
ENDBRANCH  24  25
ENDBRANCH  23  24
ENDBRANCH  22  23
ENDBRANCH  21  22
ENDBRANCH  20  21
ENDBRANCH  19  20
ENDBRANCH  18  19
ENDBRANCH   1  18
TORSDOF 28
ENDMDL
MODEL 8
REMARK VINA RESULT:    -5.208      1.026      3.174
REMARK INTER + INTRA:         -17.926
REMARK INTER:                 -13.885
REMARK INTRA:                  -4.041
REMARK UNBOUND:                -4.193
REMARK SMILES CCCCCCCCCCCCCCCCCCCCCCCCCCCCCC(=O)[O-]
REMARK SMILES IDX 16 1 17 2 18 3 19 4 20 5 21 6 22 7 23 8 24 9 25 10 26 11
REMARK SMILES IDX 27 12 28 13 29 14 30 15 31 16 32 17 15 18 14 19 13 20 12 21
REMARK SMILES IDX 11 22 10 23 9 24 8 25 7 26 6 27 5 28 4 29 3 30 2 31 1 32
REMARK H PARENT
REMARK Flexibility Score: inf
ROOT
ATOM      1  C   UNL     1      18.700 -21.683 -25.326  1.00  0.00     0.000 C 
ENDROOT
BRANCH   1   2
ATOM      2  C   UNL     1      19.204 -21.112 -26.662  1.00  0.00     0.000 C 
BRANCH   2   3
ATOM      3  C   UNL     1      18.532 -21.768 -27.881  1.00  0.00     0.000 C 
BRANCH   3   4
ATOM      4  C   UNL     1      17.104 -22.251 -27.574  1.00  0.00     0.000 C 
BRANCH   4   5
ATOM      5  C   UNL     1      16.470 -22.993 -28.765  1.00  0.00     0.000 C 
BRANCH   5   6
ATOM      6  C   UNL     1      15.023 -23.445 -28.481  1.00  0.00     0.000 C 
BRANCH   6   7
ATOM      7  C   UNL     1      14.327 -22.666 -27.351  1.00  0.00     0.000 C 
BRANCH   7   8
ATOM      8  C   UNL     1      12.792 -22.698 -27.468  1.00  0.00     0.000 C 
BRANCH   8   9
ATOM      9  C   UNL     1      12.108 -21.620 -26.609  1.00  0.00     0.000 C 
BRANCH   9  10
ATOM     10  C   UNL     1      12.420 -20.167 -27.020  1.00  0.00     0.000 C 
BRANCH  10  11
ATOM     11  C   UNL     1      12.184 -19.136 -25.895  1.00  0.00     0.000 C 
BRANCH  11  12
ATOM     12  C   UNL     1      11.007 -18.195 -26.207  1.00  0.00     0.000 C 
BRANCH  12  13
ATOM     13  C   UNL     1      10.389 -18.447 -27.593  1.00  0.00     0.006 C 
BRANCH  13  14
ATOM     14  C   UNL     1       9.181 -17.554 -27.915  1.00  0.00     0.053 C 
BRANCH  14  15
ATOM     15  C   UNL     1       9.090 -17.239 -29.377  1.00  0.00     0.041 C 
ATOM     16  O   UNL     1      10.092 -17.398 -30.124  1.00  0.00    -0.550 OA
ATOM     17  O   UNL     1       7.909 -16.739 -29.908  1.00  0.00    -0.550 OA
ENDBRANCH  14  15
ENDBRANCH  13  14
ENDBRANCH  12  13
ENDBRANCH  11  12
ENDBRANCH  10  11
ENDBRANCH   9  10
ENDBRANCH   8   9
ENDBRANCH   7   8
ENDBRANCH   6   7
ENDBRANCH   5   6
ENDBRANCH   4   5
ENDBRANCH   3   4
ENDBRANCH   2   3
ENDBRANCH   1   2
BRANCH   1  18
ATOM     18  C   UNL     1      19.397 -22.996 -24.939  1.00  0.00     0.000 C 
BRANCH  18  19
ATOM     19  C   UNL     1      18.490 -23.864 -24.052  1.00  0.00     0.000 C 
BRANCH  19  20
ATOM     20  C   UNL     1      18.030 -25.157 -24.748  1.00  0.00     0.000 C 
BRANCH  20  21
ATOM     21  C   UNL     1      18.626 -25.403 -26.147  1.00  0.00     0.000 C 
BRANCH  21  22
ATOM     22  C   UNL     1      17.595 -25.831 -27.212  1.00  0.00     0.000 C 
BRANCH  22  23
ATOM     23  C   UNL     1      17.832 -27.258 -27.742  1.00  0.00     0.000 C 
BRANCH  23  24
ATOM     24  C   UNL     1      16.850 -27.650 -28.860  1.00  0.00    -0.000 C 
BRANCH  24  25
ATOM     25  C   UNL     1      17.452 -27.493 -30.267  1.00  0.00    -0.000 C 
BRANCH  25  26
ATOM     26  C   UNL     1      16.695 -26.457 -31.120  1.00  0.00    -0.000 C 
BRANCH  26  27
ATOM     27  C   UNL     1      17.454 -25.136 -31.351  1.00  0.00    -0.000 C 
BRANCH  27  28
ATOM     28  C   UNL     1      18.991 -25.256 -31.340  1.00  0.00    -0.000 C 
BRANCH  28  29
ATOM     29  C   UNL     1      19.692 -24.173 -30.490  1.00  0.00    -0.000 C 
BRANCH  29  30
ATOM     30  C   UNL     1      20.366 -24.762 -29.239  1.00  0.00    -0.000 C 
BRANCH  30  31
ATOM     31  C   UNL     1      21.221 -23.728 -28.490  1.00  0.00    -0.003 C 
ATOM     32  C   UNL     1      22.146 -22.946 -29.423  1.00  0.00     0.004 C 
ENDBRANCH  30  31
ENDBRANCH  29  30
ENDBRANCH  28  29
ENDBRANCH  27  28
ENDBRANCH  26  27
ENDBRANCH  25  26
ENDBRANCH  24  25
ENDBRANCH  23  24
ENDBRANCH  22  23
ENDBRANCH  21  22
ENDBRANCH  20  21
ENDBRANCH  19  20
ENDBRANCH  18  19
ENDBRANCH   1  18
TORSDOF 28
ENDMDL
MODEL 9
REMARK VINA RESULT:    -5.175      2.830      5.601
REMARK INTER + INTRA:         -17.839
REMARK INTER:                 -12.307
REMARK INTRA:                  -5.532
REMARK UNBOUND:                -4.193
REMARK SMILES CCCCCCCCCCCCCCCCCCCCCCCCCCCCCC(=O)[O-]
REMARK SMILES IDX 16 1 17 2 18 3 19 4 20 5 21 6 22 7 23 8 24 9 25 10 26 11
REMARK SMILES IDX 27 12 28 13 29 14 30 15 31 16 32 17 15 18 14 19 13 20 12 21
REMARK SMILES IDX 11 22 10 23 9 24 8 25 7 26 6 27 5 28 4 29 3 30 2 31 1 32
REMARK H PARENT
REMARK Flexibility Score: inf
ROOT
ATOM      1  C   UNL     1      16.542 -27.316 -28.939  1.00  0.00     0.000 C 
ENDROOT
BRANCH   1   2
ATOM      2  C   UNL     1      16.165 -28.196 -30.143  1.00  0.00     0.000 C 
BRANCH   2   3
ATOM      3  C   UNL     1      16.985 -27.867 -31.402  1.00  0.00     0.000 C 
BRANCH   3   4
ATOM      4  C   UNL     1      17.140 -26.352 -31.622  1.00  0.00     0.000 C 
BRANCH   4   5
ATOM      5  C   UNL     1      18.602 -25.945 -31.878  1.00  0.00     0.000 C 
BRANCH   5   6
ATOM      6  C   UNL     1      18.971 -24.605 -31.211  1.00  0.00     0.000 C 
BRANCH   6   7
ATOM      7  C   UNL     1      18.377 -23.367 -31.907  1.00  0.00     0.000 C 
BRANCH   7   8
ATOM      8  C   UNL     1      17.871 -22.310 -30.907  1.00  0.00     0.000 C 
BRANCH   8   9
ATOM      9  C   UNL     1      17.091 -22.929 -29.734  1.00  0.00     0.000 C 
BRANCH   9  10
ATOM     10  C   UNL     1      15.636 -23.323 -30.057  1.00  0.00     0.000 C 
BRANCH  10  11
ATOM     11  C   UNL     1      14.878 -23.941 -28.861  1.00  0.00     0.000 C 
BRANCH  11  12
ATOM     12  C   UNL     1      14.888 -23.021 -27.628  1.00  0.00     0.000 C 
BRANCH  12  13
ATOM     13  C   UNL     1      13.537 -22.324 -27.389  1.00  0.00     0.006 C 
BRANCH  13  14
ATOM     14  C   UNL     1      12.327 -23.090 -27.946  1.00  0.00     0.053 C 
BRANCH  14  15
ATOM     15  C   UNL     1      11.631 -22.326 -29.031  1.00  0.00     0.041 C 
ATOM     16  O   UNL     1      12.025 -21.173 -29.348  1.00  0.00    -0.550 OA
ATOM     17  O   UNL     1      10.526 -22.874 -29.669  1.00  0.00    -0.550 OA
ENDBRANCH  14  15
ENDBRANCH  13  14
ENDBRANCH  12  13
ENDBRANCH  11  12
ENDBRANCH  10  11
ENDBRANCH   9  10
ENDBRANCH   8   9
ENDBRANCH   7   8
ENDBRANCH   6   7
ENDBRANCH   5   6
ENDBRANCH   4   5
ENDBRANCH   3   4
ENDBRANCH   2   3
ENDBRANCH   1   2
BRANCH   1  18
ATOM     18  C   UNL     1      17.843 -27.768 -28.256  1.00  0.00     0.000 C 
BRANCH  18  19
ATOM     19  C   UNL     1      18.802 -26.584 -28.055  1.00  0.00     0.000 C 
BRANCH  19  20
ATOM     20  C   UNL     1      18.136 -25.380 -27.368  1.00  0.00     0.000 C 
BRANCH  20  21
ATOM     21  C   UNL     1      17.812 -25.567 -25.874  1.00  0.00     0.000 C 
BRANCH  21  22
ATOM     22  C   UNL     1      17.109 -24.360 -25.218  1.00  0.00     0.000 C 
BRANCH  22  23
ATOM     23  C   UNL     1      18.081 -23.226 -24.842  1.00  0.00     0.000 C 
BRANCH  23  24
ATOM     24  C   UNL     1      18.051 -22.058 -25.843  1.00  0.00    -0.000 C 
BRANCH  24  25
ATOM     25  C   UNL     1      19.123 -20.993 -25.550  1.00  0.00    -0.000 C 
BRANCH  25  26
ATOM     26  C   UNL     1      20.269 -21.011 -26.579  1.00  0.00    -0.000 C 
BRANCH  26  27
ATOM     27  C   UNL     1      20.761 -22.418 -26.968  1.00  0.00    -0.000 C 
BRANCH  27  28
ATOM     28  C   UNL     1      20.545 -22.800 -28.446  1.00  0.00    -0.000 C 
BRANCH  28  29
ATOM     29  C   UNL     1      21.760 -23.506 -29.088  1.00  0.00    -0.000 C 
BRANCH  29  30
ATOM     30  C   UNL     1      22.475 -22.613 -30.116  1.00  0.00    -0.000 C 
BRANCH  30  31
ATOM     31  C   UNL     1      21.620 -21.413 -30.550  1.00  0.00    -0.003 C 
ATOM     32  C   UNL     1      21.432 -21.344 -32.065  1.00  0.00     0.004 C 
ENDBRANCH  30  31
ENDBRANCH  29  30
ENDBRANCH  28  29
ENDBRANCH  27  28
ENDBRANCH  26  27
ENDBRANCH  25  26
ENDBRANCH  24  25
ENDBRANCH  23  24
ENDBRANCH  22  23
ENDBRANCH  21  22
ENDBRANCH  20  21
ENDBRANCH  19  20
ENDBRANCH  18  19
ENDBRANCH   1  18
TORSDOF 28
ENDMDL
