MODEL 1
REMARK VINA RESULT:    27.408      0.000      0.000
REMARK INTER + INTRA:          31.933
REMARK INTER:                  32.214
REMARK INTRA:                  -0.281
REMARK UNBOUND:                -0.281
REMARK SMILES O=c1cc(-c2ccc(O)c(O)c2)oc2cc(O)cc(O)c12
REMARK SMILES IDX 4 1 3 2 2 3 1 4 21 5 19 6 18 7 16 8 15 9 14 10 13 11 5 12
REMARK SMILES IDX 6 13 7 14 8 15 12 16 10 17 9 18 11 20 20 22 17 24
REMARK H PARENT 9 19 11 21 20 23 17 25
REMARK Flexibility Score: inf
ROOT
ATOM      1  C   UNL     1      10.876  23.583  -4.500  1.00  0.00     0.138 A 
ATOM      2  C   UNL     1      10.487  23.621  -3.154  1.00  0.00     0.100 A 
ATOM      3  C   UNL     1       9.182  23.990  -2.824  1.00  0.00     0.197 A 
ATOM      4  O   UNL     1       8.844  23.956  -1.612  1.00  0.00    -0.289 OA
ATOM      5  C   UNL     1       8.273  24.353  -3.846  1.00  0.00     0.107 A 
ATOM      6  C   UNL     1       6.932  24.786  -3.625  1.00  0.00     0.134 A 
ATOM      7  C   UNL     1       6.088  25.006  -4.721  1.00  0.00     0.093 A 
ATOM      8  C   UNL     1       6.556  24.869  -6.030  1.00  0.00     0.123 A 
ATOM      9  C   UNL     1       7.879  24.500  -6.256  1.00  0.00     0.094 A 
ATOM     10  C   UNL     1       8.736  24.238  -5.185  1.00  0.00     0.146 A 
ATOM     11  O   UNL     1       9.988  23.874  -5.444  1.00  0.00    -0.456 OA
ENDROOT
BRANCH   1  12
ATOM     12  C   UNL     1      12.251  23.198  -4.908  1.00  0.00     0.021 A 
ATOM     13  C   UNL     1      12.435  22.383  -6.038  1.00  0.00     0.016 A 
ATOM     14  C   UNL     1      13.719  22.012  -6.446  1.00  0.00     0.051 A 
ATOM     15  C   UNL     1      14.840  22.457  -5.741  1.00  0.00     0.157 A 
ATOM     16  C   UNL     1      13.385  23.653  -4.208  1.00  0.00     0.062 A 
ATOM     17  C   UNL     1      14.676  23.283  -4.618  1.00  0.00     0.158 A 
BRANCH  15  18
ATOM     18  O   UNL     1      16.109  22.069  -6.172  1.00  0.00    -0.504 OA
ATOM     19  H   UNL     1      16.862  22.736  -6.295  1.00  0.00     0.293 HD
ENDBRANCH  15  18
BRANCH  17  20
ATOM     20  O   UNL     1      15.791  23.739  -3.917  1.00  0.00    -0.504 OA
ATOM     21  H   UNL     1      16.057  24.717  -3.919  1.00  0.00     0.293 HD
ENDBRANCH  17  20
ENDBRANCH   1  12
BRANCH   6  22
ATOM     22  O   UNL     1       6.390  25.036  -2.360  1.00  0.00    -0.507 OA
ATOM     23  H   UNL     1       6.086  25.938  -2.030  1.00  0.00     0.293 HD
ENDBRANCH   6  22
BRANCH   8  24
ATOM     24  O   UNL     1       5.714  25.106  -7.114  1.00  0.00    -0.508 OA
ATOM     25  H   UNL     1       5.071  24.399  -7.451  1.00  0.00     0.293 HD
ENDBRANCH   8  24
TORSDOF 5
ENDMDL
