MODEL 1
REMARK VINA RESULT:    -5.039      0.000      0.000
REMARK INTER + INTRA:          -5.532
REMARK INTER:                  -5.333
REMARK INTRA:                  -0.199
REMARK UNBOUND:                -0.199
REMARK SMILES CC1=CC[C@H](C(C)C)C=C1
REMARK SMILES IDX 1 1 2 2 3 3 4 4 5 5 9 6 10 7 6 8 7 9 8 10
REMARK H PARENT
REMARK Flexibility Score: inf
ROOT
ATOM      1  C   UNL     1       9.393  10.019  29.975  1.00  0.00     0.044 C 
ATOM      2  C   UNL     1       9.450   8.530  29.806  1.00  0.00    -0.055 C 
ATOM      3  C   UNL     1       9.245   7.719  30.855  1.00  0.00    -0.023 C 
ATOM      4  C   UNL     1       9.439   6.230  30.726  1.00  0.00     0.035 C 
ATOM      5  C   UNL     1       9.051   5.731  29.310  1.00  0.00     0.018 C 
ATOM      6  C   UNL     1       9.692   6.637  28.272  1.00  0.00    -0.023 C 
ATOM      7  C   UNL     1       9.816   7.950  28.496  1.00  0.00    -0.001 C 
ENDROOT
BRANCH   5   8
ATOM      8  C   UNL     1       9.424   4.234  29.066  1.00  0.00    -0.010 C 
ATOM      9  C   UNL     1       9.860   3.964  27.614  1.00  0.00     0.008 C 
ATOM     10  C   UNL     1      10.554   3.780  30.008  1.00  0.00     0.008 C 
ENDBRANCH   5   8
TORSDOF 1
ENDMDL
MODEL 2
REMARK VINA RESULT:    -4.703      0.451      1.599
REMARK INTER + INTRA:          -5.177
REMARK INTER:                  -5.059
REMARK INTRA:                  -0.119
REMARK UNBOUND:                -0.199
REMARK SMILES CC1=CC[C@H](C(C)C)C=C1
REMARK SMILES IDX 1 1 2 2 3 3 4 4 5 5 9 6 10 7 6 8 7 9 8 10
REMARK H PARENT
REMARK Flexibility Score: inf
ROOT
ATOM      1  C   UNL     1       9.391  10.125  30.085  1.00  0.00     0.044 C 
ATOM      2  C   UNL     1       9.375   8.642  29.861  1.00  0.00    -0.055 C 
ATOM      3  C   UNL     1       9.302   8.144  28.617  1.00  0.00    -0.023 C 
ATOM      4  C   UNL     1       9.143   6.664  28.389  1.00  0.00     0.035 C 
ATOM      5  C   UNL     1       9.878   5.842  29.480  1.00  0.00     0.018 C 
ATOM      6  C   UNL     1       9.527   6.407  30.846  1.00  0.00    -0.023 C 
ATOM      7  C   UNL     1       9.354   7.722  31.018  1.00  0.00    -0.001 C 
ENDROOT
BRANCH   5   8
ATOM      8  C   UNL     1       9.576   4.312  29.401  1.00  0.00    -0.010 C 
ATOM      9  C   UNL     1       9.762   3.747  27.981  1.00  0.00     0.008 C 
ATOM     10  C   UNL     1      10.473   3.515  30.365  1.00  0.00     0.008 C 
ENDBRANCH   5   8
TORSDOF 1
ENDMDL
MODEL 3
REMARK VINA RESULT:    -4.617     14.905     16.109
REMARK INTER + INTRA:          -5.086
REMARK INTER:                  -4.887
REMARK INTRA:                  -0.200
REMARK UNBOUND:                -0.199
REMARK SMILES CC1=CC[C@H](C(C)C)C=C1
REMARK SMILES IDX 1 1 2 2 3 3 4 4 5 5 9 6 10 7 6 8 7 9 8 10
REMARK H PARENT
REMARK Flexibility Score: inf
ROOT
ATOM      1  C   UNL     1       3.022   7.913  15.891  1.00  0.00     0.044 C 
ATOM      2  C   UNL     1       4.312   7.792  15.136  1.00  0.00    -0.055 C 
ATOM      3  C   UNL     1       5.361   8.562  15.456  1.00  0.00    -0.023 C 
ATOM      4  C   UNL     1       6.612   8.549  14.616  1.00  0.00     0.035 C 
ATOM      5  C   UNL     1       6.874   7.142  14.018  1.00  0.00     0.018 C 
ATOM      6  C   UNL     1       5.586   6.615  13.409  1.00  0.00    -0.023 C 
ATOM      7  C   UNL     1       4.404   6.878  13.977  1.00  0.00    -0.001 C 
ENDROOT
BRANCH   5   8
ATOM      8  C   UNL     1       8.043   7.127  12.982  1.00  0.00    -0.010 C 
ATOM      9  C   UNL     1       7.711   6.291  11.732  1.00  0.00     0.008 C 
ATOM     10  C   UNL     1       8.408   8.554  12.532  1.00  0.00     0.008 C 
ENDBRANCH   5   8
TORSDOF 1
ENDMDL
MODEL 4
REMARK VINA RESULT:    -4.563      2.383      3.842
REMARK INTER + INTRA:          -5.028
REMARK INTER:                  -4.829
REMARK INTRA:                  -0.200
REMARK UNBOUND:                -0.199
REMARK SMILES CC1=CC[C@H](C(C)C)C=C1
REMARK SMILES IDX 1 1 2 2 3 3 4 4 5 5 9 6 10 7 6 8 7 9 8 10
REMARK H PARENT
REMARK Flexibility Score: inf
ROOT
ATOM      1  C   UNL     1      13.623   7.068  25.659  1.00  0.00     0.044 C 
ATOM      2  C   UNL     1      12.472   6.863  26.598  1.00  0.00    -0.055 C 
ATOM      3  C   UNL     1      11.513   7.793  26.712  1.00  0.00    -0.023 C 
ATOM      4  C   UNL     1      10.431   7.662  27.752  1.00  0.00     0.035 C 
ATOM      5  C   UNL     1      10.061   6.176  27.996  1.00  0.00     0.018 C 
ATOM      6  C   UNL     1      11.338   5.370  28.172  1.00  0.00    -0.023 C 
ATOM      7  C   UNL     1      12.435   5.667  27.468  1.00  0.00    -0.001 C 
ENDROOT
BRANCH   5   8
ATOM      8  C   UNL     1       9.092   5.977  29.205  1.00  0.00    -0.010 C 
ATOM      9  C   UNL     1       9.570   4.876  30.169  1.00  0.00     0.008 C 
ATOM     10  C   UNL     1       8.921   7.284  30.002  1.00  0.00     0.008 C 
ENDBRANCH   5   8
TORSDOF 1
ENDMDL
MODEL 5
REMARK VINA RESULT:    -4.512     14.468     15.966
REMARK INTER + INTRA:          -4.975
REMARK INTER:                  -4.841
REMARK INTRA:                  -0.133
REMARK UNBOUND:                -0.199
REMARK SMILES CC1=CC[C@H](C(C)C)C=C1
REMARK SMILES IDX 1 1 2 2 3 3 4 4 5 5 9 6 10 7 6 8 7 9 8 10
REMARK H PARENT
REMARK Flexibility Score: inf
ROOT
ATOM      1  C   UNL     1       3.773   6.748  16.783  1.00  0.00     0.044 C 
ATOM      2  C   UNL     1       4.809   6.810  15.701  1.00  0.00    -0.055 C 
ATOM      3  C   UNL     1       4.451   6.725  14.412  1.00  0.00    -0.023 C 
ATOM      4  C   UNL     1       5.493   6.645  13.326  1.00  0.00     0.035 C 
ATOM      5  C   UNL     1       6.758   7.462  13.697  1.00  0.00     0.018 C 
ATOM      6  C   UNL     1       7.166   7.124  15.121  1.00  0.00    -0.023 C 
ATOM      7  C   UNL     1       6.243   6.880  16.057  1.00  0.00    -0.001 C 
ENDROOT
BRANCH   5   8
ATOM      8  C   UNL     1       7.939   7.245  12.699  1.00  0.00    -0.010 C 
ATOM      9  C   UNL     1       7.569   6.298  11.543  1.00  0.00     0.008 C 
ATOM     10  C   UNL     1       8.417   8.582  12.102  1.00  0.00     0.008 C 
ENDBRANCH   5   8
TORSDOF 1
ENDMDL
MODEL 6
REMARK VINA RESULT:    -4.336     14.423     16.090
REMARK INTER + INTRA:          -4.788
REMARK INTER:                  -4.631
REMARK INTRA:                  -0.157
REMARK UNBOUND:                -0.199
REMARK SMILES CC1=CC[C@H](C(C)C)C=C1
REMARK SMILES IDX 1 1 2 2 3 3 4 4 5 5 9 6 10 7 6 8 7 9 8 10
REMARK H PARENT
REMARK Flexibility Score: inf
ROOT
ATOM      1  C   UNL     1       6.739   5.507  10.875  1.00  0.00     0.044 C 
ATOM      2  C   UNL     1       6.704   6.224  12.192  1.00  0.00    -0.055 C 
ATOM      3  C   UNL     1       5.555   6.330  12.877  1.00  0.00    -0.023 C 
ATOM      4  C   UNL     1       5.479   7.165  14.128  1.00  0.00     0.035 C 
ATOM      5  C   UNL     1       6.815   7.128  14.914  1.00  0.00     0.018 C 
ATOM      6  C   UNL     1       7.964   7.370  13.949  1.00  0.00    -0.023 C 
ATOM      7  C   UNL     1       7.922   6.891  12.701  1.00  0.00    -0.001 C 
ENDROOT
BRANCH   5   8
ATOM      8  C   UNL     1       6.852   8.136  16.107  1.00  0.00    -0.010 C 
ATOM      9  C   UNL     1       6.104   9.445  15.795  1.00  0.00     0.008 C 
ATOM     10  C   UNL     1       6.243   7.516  17.378  1.00  0.00     0.008 C 
ENDBRANCH   5   8
TORSDOF 1
ENDMDL
MODEL 7
REMARK VINA RESULT:    -4.277      7.573      8.730
REMARK INTER + INTRA:          -4.726
REMARK INTER:                  -4.563
REMARK INTRA:                  -0.163
REMARK UNBOUND:                -0.199
REMARK SMILES CC1=CC[C@H](C(C)C)C=C1
REMARK SMILES IDX 1 1 2 2 3 3 4 4 5 5 9 6 10 7 6 8 7 9 8 10
REMARK H PARENT
REMARK Flexibility Score: inf
ROOT
ATOM      1  C   UNL     1      19.080   9.202  25.075  1.00  0.00     0.044 C 
ATOM      2  C   UNL     1      17.645   8.971  24.707  1.00  0.00    -0.055 C 
ATOM      3  C   UNL     1      17.187   7.727  24.504  1.00  0.00    -0.023 C 
ATOM      4  C   UNL     1      15.788   7.494  23.997  1.00  0.00     0.035 C 
ATOM      5  C   UNL     1      14.808   8.570  24.532  1.00  0.00     0.018 C 
ATOM      6  C   UNL     1      15.429   9.944  24.340  1.00  0.00    -0.023 C 
ATOM      7  C   UNL     1      16.746  10.125  24.484  1.00  0.00    -0.001 C 
ENDROOT
BRANCH   5   8
ATOM      8  C   UNL     1      13.393   8.489  23.876  1.00  0.00    -0.010 C 
ATOM      9  C   UNL     1      13.460   8.285  22.351  1.00  0.00     0.008 C 
ATOM     10  C   UNL     1      12.561   7.345  24.485  1.00  0.00     0.008 C 
ENDBRANCH   5   8
TORSDOF 1
ENDMDL
MODEL 8
REMARK VINA RESULT:    -4.270      2.819      3.833
REMARK INTER + INTRA:          -4.718
REMARK INTER:                  -4.557
REMARK INTRA:                  -0.162
REMARK UNBOUND:                -0.199
REMARK SMILES CC1=CC[C@H](C(C)C)C=C1
REMARK SMILES IDX 1 1 2 2 3 3 4 4 5 5 9 6 10 7 6 8 7 9 8 10
REMARK H PARENT
REMARK Flexibility Score: inf
ROOT
ATOM      1  C   UNL     1      14.170   7.454  25.613  1.00  0.00     0.044 C 
ATOM      2  C   UNL     1      13.000   6.844  26.326  1.00  0.00    -0.055 C 
ATOM      3  C   UNL     1      13.193   5.993  27.344  1.00  0.00    -0.023 C 
ATOM      4  C   UNL     1      12.032   5.268  27.973  1.00  0.00     0.035 C 
ATOM      5  C   UNL     1      10.750   6.141  27.963  1.00  0.00     0.018 C 
ATOM      6  C   UNL     1      10.568   6.738  26.578  1.00  0.00    -0.023 C 
ATOM      7  C   UNL     1      11.626   7.115  25.852  1.00  0.00    -0.001 C 
ENDROOT
BRANCH   5   8
ATOM      8  C   UNL     1       9.476   5.362  28.420  1.00  0.00    -0.010 C 
ATOM      9  C   UNL     1       9.398   3.950  27.810  1.00  0.00     0.008 C 
ATOM     10  C   UNL     1       9.418   5.236  29.953  1.00  0.00     0.008 C 
ENDBRANCH   5   8
TORSDOF 1
ENDMDL
MODEL 9
REMARK VINA RESULT:    -4.238     14.326     15.892
REMARK INTER + INTRA:          -4.685
REMARK INTER:                  -4.503
REMARK INTRA:                  -0.183
REMARK UNBOUND:                -0.199
REMARK SMILES CC1=CC[C@H](C(C)C)C=C1
REMARK SMILES IDX 1 1 2 2 3 3 4 4 5 5 9 6 10 7 6 8 7 9 8 10
REMARK H PARENT
REMARK Flexibility Score: inf
ROOT
ATOM      1  C   UNL     1       7.882   6.226  11.890  1.00  0.00     0.044 C 
ATOM      2  C   UNL     1       6.954   6.502  13.035  1.00  0.00    -0.055 C 
ATOM      3  C   UNL     1       7.442   6.789  14.251  1.00  0.00    -0.023 C 
ATOM      4  C   UNL     1       6.523   6.929  15.437  1.00  0.00     0.035 C 
ATOM      5  C   UNL     1       5.155   7.529  15.022  1.00  0.00     0.018 C 
ATOM      6  C   UNL     1       4.645   6.797  13.792  1.00  0.00    -0.023 C 
ATOM      7  C   UNL     1       5.492   6.377  12.846  1.00  0.00    -0.001 C 
ENDROOT
BRANCH   5   8
ATOM      8  C   UNL     1       4.102   7.506  16.176  1.00  0.00    -0.010 C 
ATOM      9  C   UNL     1       2.788   8.209  15.788  1.00  0.00     0.008 C 
ATOM     10  C   UNL     1       3.776   6.064  16.605  1.00  0.00     0.008 C 
ENDBRANCH   5   8
TORSDOF 1
ENDMDL
