MODEL 1
REMARK VINA RESULT:    -4.449      0.000      0.000
REMARK INTER + INTRA:         -15.941
REMARK INTER:                 -11.732
REMARK INTRA:                  -4.209
REMARK UNBOUND:                -4.209
REMARK SMILES CCCCCCCCCCCCCCCCCCCCCCCCCCCCCC(=O)[O-]
REMARK SMILES IDX 16 1 17 2 18 3 19 4 20 5 21 6 22 7 23 8 24 9 25 10 26 11
REMARK SMILES IDX 27 12 28 13 29 14 30 15 31 16 32 17 15 18 14 19 13 20 12 21
REMARK SMILES IDX 11 22 10 23 9 24 8 25 7 26 6 27 5 28 4 29 3 30 2 31 1 32
REMARK H PARENT
REMARK Flexibility Score: inf
ROOT
ATOM      1  C   UNL     1      53.724  24.192  48.918  1.00  0.00     0.000 C 
ENDROOT
BRANCH   1   2
ATOM      2  C   UNL     1      53.774  25.109  47.684  1.00  0.00     0.000 C 
BRANCH   2   3
ATOM      3  C   UNL     1      55.101  24.997  46.912  1.00  0.00     0.000 C 
BRANCH   3   4
ATOM      4  C   UNL     1      56.265  24.583  47.827  1.00  0.00     0.000 C 
BRANCH   4   5
ATOM      5  C   UNL     1      57.425  23.912  47.055  1.00  0.00     0.000 C 
BRANCH   5   6
ATOM      6  C   UNL     1      57.252  22.391  46.932  1.00  0.00     0.000 C 
BRANCH   6   7
ATOM      7  C   UNL     1      56.139  21.864  47.858  1.00  0.00     0.000 C 
BRANCH   7   8
ATOM      8  C   UNL     1      56.436  20.451  48.382  1.00  0.00     0.000 C 
BRANCH   8   9
ATOM      9  C   UNL     1      56.255  20.335  49.905  1.00  0.00     0.000 C 
BRANCH   9  10
ATOM     10  C   UNL     1      55.617  21.587  50.535  1.00  0.00     0.000 C 
BRANCH  10  11
ATOM     11  C   UNL     1      54.485  21.286  51.541  1.00  0.00     0.000 C 
BRANCH  11  12
ATOM     12  C   UNL     1      54.872  21.413  53.030  1.00  0.00     0.000 C 
BRANCH  12  13
ATOM     13  C   UNL     1      56.330  21.822  53.311  1.00  0.00     0.006 C 
BRANCH  13  14
ATOM     14  C   UNL     1      56.983  21.010  54.438  1.00  0.00     0.053 C 
BRANCH  14  15
ATOM     15  C   UNL     1      56.994  21.786  55.719  1.00  0.00     0.041 C 
ATOM     16  O   UNL     1      56.852  21.190  56.821  1.00  0.00    -0.550 OA
ATOM     17  O   UNL     1      57.183  23.164  55.700  1.00  0.00    -0.550 OA
ENDBRANCH  14  15
ENDBRANCH  13  14
ENDBRANCH  12  13
ENDBRANCH  11  12
ENDBRANCH  10  11
ENDBRANCH   9  10
ENDBRANCH   8   9
ENDBRANCH   7   8
ENDBRANCH   6   7
ENDBRANCH   5   6
ENDBRANCH   4   5
ENDBRANCH   3   4
ENDBRANCH   2   3
ENDBRANCH   1   2
BRANCH   1  18
ATOM     18  C   UNL     1      53.220  24.863  50.212  1.00  0.00     0.000 C 
BRANCH  18  19
ATOM     19  C   UNL     1      54.252  24.970  51.350  1.00  0.00     0.000 C 
BRANCH  19  20
ATOM     20  C   UNL     1      53.641  24.717  52.739  1.00  0.00     0.000 C 
BRANCH  20  21
ATOM     21  C   UNL     1      54.597  25.053  53.900  1.00  0.00     0.000 C 
BRANCH  21  22
ATOM     22  C   UNL     1      54.092  24.691  55.312  1.00  0.00     0.000 C 
BRANCH  22  23
ATOM     23  C   UNL     1      52.561  24.799  55.497  1.00  0.00     0.000 C 
BRANCH  23  24
ATOM     24  C   UNL     1      52.106  24.744  56.965  1.00  0.00    -0.000 C 
BRANCH  24  25
ATOM     25  C   UNL     1      50.580  24.848  57.126  1.00  0.00    -0.000 C 
BRANCH  25  26
ATOM     26  C   UNL     1      49.818  24.226  55.946  1.00  0.00    -0.000 C 
BRANCH  26  27
ATOM     27  C   UNL     1      48.497  23.568  56.372  1.00  0.00    -0.000 C 
BRANCH  27  28
ATOM     28  C   UNL     1      47.846  22.837  55.193  1.00  0.00    -0.000 C 
BRANCH  28  29
ATOM     29  C   UNL     1      48.852  21.925  54.481  1.00  0.00    -0.000 C 
BRANCH  29  30
ATOM     30  C   UNL     1      49.251  22.503  53.118  1.00  0.00    -0.000 C 
BRANCH  30  31
ATOM     31  C   UNL     1      50.766  22.410  52.904  1.00  0.00    -0.003 C 
ATOM     32  C   UNL     1      51.422  21.539  53.971  1.00  0.00     0.004 C 
ENDBRANCH  30  31
ENDBRANCH  29  30
ENDBRANCH  28  29
ENDBRANCH  27  28
ENDBRANCH  26  27
ENDBRANCH  25  26
ENDBRANCH  24  25
ENDBRANCH  23  24
ENDBRANCH  22  23
ENDBRANCH  21  22
ENDBRANCH  20  21
ENDBRANCH  19  20
ENDBRANCH  18  19
ENDBRANCH   1  18
TORSDOF 28
ENDMDL
MODEL 2
REMARK VINA RESULT:    -4.389      3.592      8.338
REMARK INTER + INTRA:         -15.783
REMARK INTER:                 -12.293
REMARK INTRA:                  -3.491
REMARK UNBOUND:                -4.209
REMARK SMILES CCCCCCCCCCCCCCCCCCCCCCCCCCCCCC(=O)[O-]
REMARK SMILES IDX 16 1 17 2 18 3 19 4 20 5 21 6 22 7 23 8 24 9 25 10 26 11
REMARK SMILES IDX 27 12 28 13 29 14 30 15 31 16 32 17 15 18 14 19 13 20 12 21
REMARK SMILES IDX 11 22 10 23 9 24 8 25 7 26 6 27 5 28 4 29 3 30 2 31 1 32
REMARK H PARENT
REMARK Flexibility Score: inf
ROOT
ATOM      1  C   UNL     1      53.729  24.001  48.457  1.00  0.00     0.000 C 
ENDROOT
BRANCH   1   2
ATOM      2  C   UNL     1      53.579  24.919  49.682  1.00  0.00     0.000 C 
BRANCH   2   3
ATOM      3  C   UNL     1      53.127  24.161  50.943  1.00  0.00     0.000 C 
BRANCH   3   4
ATOM      4  C   UNL     1      53.886  24.624  52.196  1.00  0.00     0.000 C 
BRANCH   4   5
ATOM      5  C   UNL     1      53.328  24.006  53.499  1.00  0.00     0.000 C 
BRANCH   5   6
ATOM      6  C   UNL     1      52.317  22.880  53.234  1.00  0.00     0.000 C 
BRANCH   6   7
ATOM      7  C   UNL     1      51.462  22.573  54.477  1.00  0.00     0.000 C 
BRANCH   7   8
ATOM      8  C   UNL     1      50.261  21.672  54.153  1.00  0.00     0.000 C 
BRANCH   8   9
ATOM      9  C   UNL     1      48.928  22.440  54.148  1.00  0.00     0.000 C 
BRANCH   9  10
ATOM     10  C   UNL     1      48.830  23.486  55.273  1.00  0.00     0.000 C 
BRANCH  10  11
ATOM     11  C   UNL     1      47.419  24.084  55.462  1.00  0.00     0.000 C 
BRANCH  11  12
ATOM     12  C   UNL     1      46.305  23.065  55.784  1.00  0.00     0.000 C 
BRANCH  12  13
ATOM     13  C   UNL     1      46.502  22.241  57.070  1.00  0.00     0.006 C 
BRANCH  13  14
ATOM     14  C   UNL     1      46.044  20.782  56.933  1.00  0.00     0.053 C 
BRANCH  14  15
ATOM     15  C   UNL     1      44.561  20.668  57.111  1.00  0.00     0.041 C 
ATOM     16  O   UNL     1      43.974  19.581  56.859  1.00  0.00    -0.550 OA
ATOM     17  O   UNL     1      43.827  21.755  57.575  1.00  0.00    -0.550 OA
ENDBRANCH  14  15
ENDBRANCH  13  14
ENDBRANCH  12  13
ENDBRANCH  11  12
ENDBRANCH  10  11
ENDBRANCH   9  10
ENDBRANCH   8   9
ENDBRANCH   7   8
ENDBRANCH   6   7
ENDBRANCH   5   6
ENDBRANCH   4   5
ENDBRANCH   3   4
ENDBRANCH   2   3
ENDBRANCH   1   2
BRANCH   1  18
ATOM     18  C   UNL     1      54.930  24.317  47.545  1.00  0.00     0.000 C 
BRANCH  18  19
ATOM     19  C   UNL     1      56.308  23.898  48.093  1.00  0.00     0.000 C 
BRANCH  19  20
ATOM     20  C   UNL     1      57.153  23.128  47.063  1.00  0.00     0.000 C 
BRANCH  20  21
ATOM     21  C   UNL     1      57.298  21.628  47.387  1.00  0.00     0.000 C 
BRANCH  21  22
ATOM     22  C   UNL     1      56.050  20.947  47.986  1.00  0.00     0.000 C 
BRANCH  22  23
ATOM     23  C   UNL     1      56.220  20.456  49.441  1.00  0.00     0.000 C 
BRANCH  23  24
ATOM     24  C   UNL     1      55.254  21.118  50.438  1.00  0.00    -0.000 C 
BRANCH  24  25
ATOM     25  C   UNL     1      55.977  21.867  51.570  1.00  0.00    -0.000 C 
BRANCH  25  26
ATOM     26  C   UNL     1      55.633  21.311  52.960  1.00  0.00    -0.000 C 
BRANCH  26  27
ATOM     27  C   UNL     1      56.722  21.601  54.004  1.00  0.00    -0.000 C 
BRANCH  27  28
ATOM     28  C   UNL     1      57.017  23.103  54.083  1.00  0.00    -0.000 C 
BRANCH  28  29
ATOM     29  C   UNL     1      56.771  23.644  55.496  1.00  0.00    -0.000 C 
BRANCH  29  30
ATOM     30  C   UNL     1      55.952  22.652  56.331  1.00  0.00    -0.000 C 
BRANCH  30  31
ATOM     31  C   UNL     1      56.656  22.336  57.656  1.00  0.00    -0.003 C 
ATOM     32  C   UNL     1      58.160  22.179  57.458  1.00  0.00     0.004 C 
ENDBRANCH  30  31
ENDBRANCH  29  30
ENDBRANCH  28  29
ENDBRANCH  27  28
ENDBRANCH  26  27
ENDBRANCH  25  26
ENDBRANCH  24  25
ENDBRANCH  23  24
ENDBRANCH  22  23
ENDBRANCH  21  22
ENDBRANCH  20  21
ENDBRANCH  19  20
ENDBRANCH  18  19
ENDBRANCH   1  18
TORSDOF 28
ENDMDL
MODEL 3
REMARK VINA RESULT:    -4.341      1.186      2.654
REMARK INTER + INTRA:         -15.657
REMARK INTER:                 -11.896
REMARK INTRA:                  -3.761
REMARK UNBOUND:                -4.209
REMARK SMILES CCCCCCCCCCCCCCCCCCCCCCCCCCCCCC(=O)[O-]
REMARK SMILES IDX 16 1 17 2 18 3 19 4 20 5 21 6 22 7 23 8 24 9 25 10 26 11
REMARK SMILES IDX 27 12 28 13 29 14 30 15 31 16 32 17 15 18 14 19 13 20 12 21
REMARK SMILES IDX 11 22 10 23 9 24 8 25 7 26 6 27 5 28 4 29 3 30 2 31 1 32
REMARK H PARENT
REMARK Flexibility Score: inf
ROOT
ATOM      1  C   UNL     1      55.260  25.124  46.936  1.00  0.00     0.000 C 
ENDROOT
BRANCH   1   2
ATOM      2  C   UNL     1      56.284  25.109  48.085  1.00  0.00     0.000 C 
BRANCH   2   3
ATOM      3  C   UNL     1      57.639  24.510  47.667  1.00  0.00     0.000 C 
BRANCH   3   4
ATOM      4  C   UNL     1      57.509  23.596  46.439  1.00  0.00     0.000 C 
BRANCH   4   5
ATOM      5  C   UNL     1      57.450  22.096  46.811  1.00  0.00     0.000 C 
BRANCH   5   6
ATOM      6  C   UNL     1      56.325  21.777  47.806  1.00  0.00     0.000 C 
BRANCH   6   7
ATOM      7  C   UNL     1      56.501  20.386  48.444  1.00  0.00     0.000 C 
BRANCH   7   8
ATOM      8  C   UNL     1      55.886  20.305  49.850  1.00  0.00     0.000 C 
BRANCH   8   9
ATOM      9  C   UNL     1      55.759  21.683  50.521  1.00  0.00     0.000 C 
BRANCH   9  10
ATOM     10  C   UNL     1      56.077  21.653  52.027  1.00  0.00     0.000 C 
BRANCH  10  11
ATOM     11  C   UNL     1      54.864  21.328  52.926  1.00  0.00     0.000 C 
BRANCH  11  12
ATOM     12  C   UNL     1      55.207  20.763  54.320  1.00  0.00     0.000 C 
BRANCH  12  13
ATOM     13  C   UNL     1      56.516  21.276  54.948  1.00  0.00     0.006 C 
BRANCH  13  14
ATOM     14  C   UNL     1      56.290  22.266  56.099  1.00  0.00     0.053 C 
BRANCH  14  15
ATOM     15  C   UNL     1      57.516  23.093  56.343  1.00  0.00     0.041 C 
ATOM     16  O   UNL     1      58.225  22.887  57.364  1.00  0.00    -0.550 OA
ATOM     17  O   UNL     1      57.888  24.076  55.432  1.00  0.00    -0.550 OA
ENDBRANCH  14  15
ENDBRANCH  13  14
ENDBRANCH  12  13
ENDBRANCH  11  12
ENDBRANCH  10  11
ENDBRANCH   9  10
ENDBRANCH   8   9
ENDBRANCH   7   8
ENDBRANCH   6   7
ENDBRANCH   5   6
ENDBRANCH   4   5
ENDBRANCH   3   4
ENDBRANCH   2   3
ENDBRANCH   1   2
BRANCH   1  18
ATOM     18  C   UNL     1      53.933  24.399  47.234  1.00  0.00     0.000 C 
BRANCH  18  19
ATOM     19  C   UNL     1      53.792  23.831  48.659  1.00  0.00     0.000 C 
BRANCH  19  20
ATOM     20  C   UNL     1      53.143  24.825  49.638  1.00  0.00     0.000 C 
BRANCH  20  21
ATOM     21  C   UNL     1      53.182  24.354  51.105  1.00  0.00     0.000 C 
BRANCH  21  22
ATOM     22  C   UNL     1      54.384  24.849  51.937  1.00  0.00     0.000 C 
BRANCH  22  23
ATOM     23  C   UNL     1      54.231  24.664  53.463  1.00  0.00     0.000 C 
BRANCH  23  24
ATOM     24  C   UNL     1      52.780  24.443  53.921  1.00  0.00    -0.000 C 
BRANCH  24  25
ATOM     25  C   UNL     1      52.672  23.554  55.172  1.00  0.00    -0.000 C 
BRANCH  25  26
ATOM     26  C   UNL     1      51.863  22.273  54.918  1.00  0.00    -0.000 C 
BRANCH  26  27
ATOM     27  C   UNL     1      51.298  22.201  53.492  1.00  0.00    -0.000 C 
BRANCH  27  28
ATOM     28  C   UNL     1      49.873  22.762  53.439  1.00  0.00    -0.000 C 
BRANCH  28  29
ATOM     29  C   UNL     1      48.919  21.942  54.316  1.00  0.00    -0.000 C 
BRANCH  29  30
ATOM     30  C   UNL     1      48.105  22.851  55.244  1.00  0.00    -0.000 C 
BRANCH  30  31
ATOM     31  C   UNL     1      46.918  22.094  55.851  1.00  0.00    -0.003 C 
ATOM     32  C   UNL     1      46.910  20.634  55.410  1.00  0.00     0.004 C 
ENDBRANCH  30  31
ENDBRANCH  29  30
ENDBRANCH  28  29
ENDBRANCH  27  28
ENDBRANCH  26  27
ENDBRANCH  25  26
ENDBRANCH  24  25
ENDBRANCH  23  24
ENDBRANCH  22  23
ENDBRANCH  21  22
ENDBRANCH  20  21
ENDBRANCH  19  20
ENDBRANCH  18  19
ENDBRANCH   1  18
TORSDOF 28
ENDMDL
MODEL 4
REMARK VINA RESULT:    -4.311      1.541      2.818
REMARK INTER + INTRA:         -15.576
REMARK INTER:                 -11.176
REMARK INTRA:                  -4.400
REMARK UNBOUND:                -4.209
REMARK SMILES CCCCCCCCCCCCCCCCCCCCCCCCCCCCCC(=O)[O-]
REMARK SMILES IDX 16 1 17 2 18 3 19 4 20 5 21 6 22 7 23 8 24 9 25 10 26 11
REMARK SMILES IDX 27 12 28 13 29 14 30 15 31 16 32 17 15 18 14 19 13 20 12 21
REMARK SMILES IDX 11 22 10 23 9 24 8 25 7 26 6 27 5 28 4 29 3 30 2 31 1 32
REMARK H PARENT
REMARK Flexibility Score: inf
ROOT
ATOM      1  C   UNL     1      53.870  24.751  47.498  1.00  0.00     0.000 C 
ENDROOT
BRANCH   1   2
ATOM      2  C   UNL     1      55.230  25.080  46.858  1.00  0.00     0.000 C 
BRANCH   2   3
ATOM      3  C   UNL     1      56.404  24.920  47.841  1.00  0.00     0.000 C 
BRANCH   3   4
ATOM      4  C   UNL     1      57.125  23.575  47.661  1.00  0.00     0.000 C 
BRANCH   4   5
ATOM      5  C   UNL     1      56.157  22.369  47.672  1.00  0.00     0.000 C 
BRANCH   5   6
ATOM      6  C   UNL     1      56.856  21.054  48.048  1.00  0.00     0.000 C 
BRANCH   6   7
ATOM      7  C   UNL     1      56.206  20.390  49.277  1.00  0.00     0.000 C 
BRANCH   7   8
ATOM      8  C   UNL     1      55.184  21.307  49.965  1.00  0.00     0.000 C 
BRANCH   8   9
ATOM      9  C   UNL     1      55.223  21.192  51.498  1.00  0.00     0.000 C 
BRANCH   9  10
ATOM     10  C   UNL     1      56.276  22.109  52.146  1.00  0.00     0.000 C 
BRANCH  10  11
ATOM     11  C   UNL     1      56.485  23.453  51.414  1.00  0.00     0.000 C 
BRANCH  11  12
ATOM     12  C   UNL     1      56.472  24.706  52.315  1.00  0.00     0.000 C 
BRANCH  12  13
ATOM     13  C   UNL     1      57.274  24.597  53.625  1.00  0.00     0.006 C 
BRANCH  13  14
ATOM     14  C   UNL     1      56.420  24.823  54.880  1.00  0.00     0.053 C 
BRANCH  14  15
ATOM     15  C   UNL     1      56.613  23.712  55.867  1.00  0.00     0.041 C 
ATOM     16  O   UNL     1      55.615  23.107  56.342  1.00  0.00    -0.550 OA
ATOM     17  O   UNL     1      57.896  23.330  56.246  1.00  0.00    -0.550 OA
ENDBRANCH  14  15
ENDBRANCH  13  14
ENDBRANCH  12  13
ENDBRANCH  11  12
ENDBRANCH  10  11
ENDBRANCH   9  10
ENDBRANCH   8   9
ENDBRANCH   7   8
ENDBRANCH   6   7
ENDBRANCH   5   6
ENDBRANCH   4   5
ENDBRANCH   3   4
ENDBRANCH   2   3
ENDBRANCH   1   2
BRANCH   1  18
ATOM     18  C   UNL     1      53.743  25.118  48.990  1.00  0.00     0.000 C 
BRANCH  18  19
ATOM     19  C   UNL     1      53.111  24.037  49.888  1.00  0.00     0.000 C 
BRANCH  19  20
ATOM     20  C   UNL     1      53.024  24.460  51.364  1.00  0.00     0.000 C 
BRANCH  20  21
ATOM     21  C   UNL     1      52.647  23.305  52.312  1.00  0.00     0.000 C 
BRANCH  21  22
ATOM     22  C   UNL     1      53.170  23.425  53.758  1.00  0.00     0.000 C 
BRANCH  22  23
ATOM     23  C   UNL     1      52.282  22.744  54.824  1.00  0.00     0.000 C 
BRANCH  23  24
ATOM     24  C   UNL     1      51.371  23.718  55.590  1.00  0.00    -0.000 C 
BRANCH  24  25
ATOM     25  C   UNL     1      49.898  23.278  55.606  1.00  0.00    -0.000 C 
BRANCH  25  26
ATOM     26  C   UNL     1      49.282  23.228  54.199  1.00  0.00    -0.000 C 
BRANCH  26  27
ATOM     27  C   UNL     1      48.574  21.896  53.907  1.00  0.00    -0.000 C 
BRANCH  27  28
ATOM     28  C   UNL     1      48.138  21.212  55.208  1.00  0.00    -0.000 C 
BRANCH  28  29
ATOM     29  C   UNL     1      46.717  21.629  55.606  1.00  0.00    -0.000 C 
BRANCH  29  30
ATOM     30  C   UNL     1      46.589  21.768  57.127  1.00  0.00    -0.000 C 
BRANCH  30  31
ATOM     31  C   UNL     1      46.363  23.230  57.529  1.00  0.00    -0.003 C 
ATOM     32  C   UNL     1      46.073  24.099  56.309  1.00  0.00     0.004 C 
ENDBRANCH  30  31
ENDBRANCH  29  30
ENDBRANCH  28  29
ENDBRANCH  27  28
ENDBRANCH  26  27
ENDBRANCH  25  26
ENDBRANCH  24  25
ENDBRANCH  23  24
ENDBRANCH  22  23
ENDBRANCH  21  22
ENDBRANCH  20  21
ENDBRANCH  19  20
ENDBRANCH  18  19
ENDBRANCH   1  18
TORSDOF 28
ENDMDL
MODEL 5
REMARK VINA RESULT:    -4.220      3.142      8.192
REMARK INTER + INTRA:         -15.337
REMARK INTER:                 -11.408
REMARK INTRA:                  -3.929
REMARK UNBOUND:                -4.209
REMARK SMILES CCCCCCCCCCCCCCCCCCCCCCCCCCCCCC(=O)[O-]
REMARK SMILES IDX 16 1 17 2 18 3 19 4 20 5 21 6 22 7 23 8 24 9 25 10 26 11
REMARK SMILES IDX 27 12 28 13 29 14 30 15 31 16 32 17 15 18 14 19 13 20 12 21
REMARK SMILES IDX 11 22 10 23 9 24 8 25 7 26 6 27 5 28 4 29 3 30 2 31 1 32
REMARK H PARENT
REMARK Flexibility Score: inf
ROOT
ATOM      1  C   UNL     1      55.784  21.385  52.938  1.00  0.00     0.000 C 
ENDROOT
BRANCH   1   2
ATOM      2  C   UNL     1      56.749  20.972  54.063  1.00  0.00     0.000 C 
BRANCH   2   3
ATOM      3  C   UNL     1      56.372  21.582  55.425  1.00  0.00     0.000 C 
BRANCH   3   4
ATOM      4  C   UNL     1      56.017  23.072  55.310  1.00  0.00     0.000 C 
BRANCH   4   5
ATOM      5  C   UNL     1      54.826  23.477  56.210  1.00  0.00     0.000 C 
BRANCH   5   6
ATOM      6  C   UNL     1      54.321  24.898  55.919  1.00  0.00     0.000 C 
BRANCH   6   7
ATOM      7  C   UNL     1      52.783  24.976  55.942  1.00  0.00     0.000 C 
BRANCH   7   8
ATOM      8  C   UNL     1      52.142  23.708  56.527  1.00  0.00     0.000 C 
BRANCH   8   9
ATOM      9  C   UNL     1      50.773  23.981  57.174  1.00  0.00     0.000 C 
BRANCH   9  10
ATOM     10  C   UNL     1      49.611  23.278  56.450  1.00  0.00     0.000 C 
BRANCH  10  11
ATOM     11  C   UNL     1      48.428  24.205  56.097  1.00  0.00     0.000 C 
BRANCH  11  12
ATOM     12  C   UNL     1      47.393  23.612  55.117  1.00  0.00     0.000 C 
BRANCH  12  13
ATOM     13  C   UNL     1      46.006  23.303  55.713  1.00  0.00     0.006 C 
BRANCH  13  14
ATOM     14  C   UNL     1      46.050  22.276  56.853  1.00  0.00     0.053 C 
BRANCH  14  15
ATOM     15  C   UNL     1      45.651  20.917  56.365  1.00  0.00     0.041 C 
ATOM     16  O   UNL     1      46.314  20.352  55.454  1.00  0.00    -0.550 OA
ATOM     17  O   UNL     1      44.561  20.264  56.930  1.00  0.00    -0.550 OA
ENDBRANCH  14  15
ENDBRANCH  13  14
ENDBRANCH  12  13
ENDBRANCH  11  12
ENDBRANCH  10  11
ENDBRANCH   9  10
ENDBRANCH   8   9
ENDBRANCH   7   8
ENDBRANCH   6   7
ENDBRANCH   5   6
ENDBRANCH   4   5
ENDBRANCH   3   4
ENDBRANCH   2   3
ENDBRANCH   1   2
BRANCH   1  18
ATOM     18  C   UNL     1      56.391  21.379  51.521  1.00  0.00     0.000 C 
BRANCH  18  19
ATOM     19  C   UNL     1      55.388  21.170  50.370  1.00  0.00     0.000 C 
BRANCH  19  20
ATOM     20  C   UNL     1      56.029  20.537  49.124  1.00  0.00     0.000 C 
BRANCH  20  21
ATOM     21  C   UNL     1      56.392  21.563  48.033  1.00  0.00     0.000 C 
BRANCH  21  22
ATOM     22  C   UNL     1      56.408  23.040  48.479  1.00  0.00     0.000 C 
BRANCH  22  23
ATOM     23  C   UNL     1      55.648  24.005  47.541  1.00  0.00     0.000 C 
BRANCH  23  24
ATOM     24  C   UNL     1      54.123  23.989  47.735  1.00  0.00    -0.000 C 
BRANCH  24  25
ATOM     25  C   UNL     1      53.659  24.849  48.923  1.00  0.00    -0.000 C 
BRANCH  25  26
ATOM     26  C   UNL     1      53.160  24.003  50.105  1.00  0.00    -0.000 C 
BRANCH  26  27
ATOM     27  C   UNL     1      53.683  24.506  51.459  1.00  0.00    -0.000 C 
BRANCH  27  28
ATOM     28  C   UNL     1      53.302  23.539  52.585  1.00  0.00    -0.000 C 
BRANCH  28  29
ATOM     29  C   UNL     1      51.803  23.216  52.557  1.00  0.00    -0.000 C 
BRANCH  29  30
ATOM     30  C   UNL     1      51.478  22.028  53.471  1.00  0.00    -0.000 C 
BRANCH  30  31
ATOM     31  C   UNL     1      52.680  21.085  53.594  1.00  0.00    -0.003 C 
ATOM     32  C   UNL     1      52.348  19.880  54.470  1.00  0.00     0.004 C 
ENDBRANCH  30  31
ENDBRANCH  29  30
ENDBRANCH  28  29
ENDBRANCH  27  28
ENDBRANCH  26  27
ENDBRANCH  25  26
ENDBRANCH  24  25
ENDBRANCH  23  24
ENDBRANCH  22  23
ENDBRANCH  21  22
ENDBRANCH  20  21
ENDBRANCH  19  20
ENDBRANCH  18  19
ENDBRANCH   1  18
TORSDOF 28
ENDMDL
MODEL 6
REMARK VINA RESULT:    -4.069      3.141      8.709
REMARK INTER + INTRA:         -14.939
REMARK INTER:                 -10.274
REMARK INTRA:                  -4.665
REMARK UNBOUND:                -4.209
REMARK SMILES CCCCCCCCCCCCCCCCCCCCCCCCCCCCCC(=O)[O-]
REMARK SMILES IDX 16 1 17 2 18 3 19 4 20 5 21 6 22 7 23 8 24 9 25 10 26 11
REMARK SMILES IDX 27 12 28 13 29 14 30 15 31 16 32 17 15 18 14 19 13 20 12 21
REMARK SMILES IDX 11 22 10 23 9 24 8 25 7 26 6 27 5 28 4 29 3 30 2 31 1 32
REMARK H PARENT
REMARK Flexibility Score: inf
ROOT
ATOM      1  C   UNL     1      52.844  22.831  53.003  1.00  0.00     0.000 C 
ENDROOT
BRANCH   1   2
ATOM      2  C   UNL     1      52.394  22.231  54.347  1.00  0.00     0.000 C 
BRANCH   2   3
ATOM      3  C   UNL     1      52.605  23.195  55.529  1.00  0.00     0.000 C 
BRANCH   3   4
ATOM      4  C   UNL     1      51.300  23.893  55.942  1.00  0.00     0.000 C 
BRANCH   4   5
ATOM      5  C   UNL     1      51.053  23.849  57.469  1.00  0.00     0.000 C 
BRANCH   5   6
ATOM      6  C   UNL     1      50.004  24.872  57.928  1.00  0.00     0.000 C 
BRANCH   6   7
ATOM      7  C   UNL     1      48.764  24.872  57.013  1.00  0.00     0.000 C 
BRANCH   7   8
ATOM      8  C   UNL     1      47.644  23.966  57.547  1.00  0.00     0.000 C 
BRANCH   8   9
ATOM      9  C   UNL     1      47.726  22.534  56.992  1.00  0.00     0.000 C 
BRANCH   9  10
ATOM     10  C   UNL     1      47.338  22.438  55.506  1.00  0.00     0.000 C 
BRANCH  10  11
ATOM     11  C   UNL     1      48.489  22.001  54.574  1.00  0.00     0.000 C 
BRANCH  11  12
ATOM     12  C   UNL     1      48.893  23.028  53.495  1.00  0.00     0.000 C 
BRANCH  12  13
ATOM     13  C   UNL     1      49.191  22.451  52.099  1.00  0.00     0.006 C 
BRANCH  13  14
ATOM     14  C   UNL     1      49.111  20.920  52.045  1.00  0.00     0.053 C 
BRANCH  14  15
ATOM     15  C   UNL     1      48.211  20.469  50.935  1.00  0.00     0.041 C 
ATOM     16  O   UNL     1      48.146  21.131  49.865  1.00  0.00    -0.550 OA
ATOM     17  O   UNL     1      47.459  19.307  51.074  1.00  0.00    -0.550 OA
ENDBRANCH  14  15
ENDBRANCH  13  14
ENDBRANCH  12  13
ENDBRANCH  11  12
ENDBRANCH  10  11
ENDBRANCH   9  10
ENDBRANCH   8   9
ENDBRANCH   7   8
ENDBRANCH   6   7
ENDBRANCH   5   6
ENDBRANCH   4   5
ENDBRANCH   3   4
ENDBRANCH   2   3
ENDBRANCH   1   2
BRANCH   1  18
ATOM     18  C   UNL     1      53.571  24.186  53.103  1.00  0.00     0.000 C 
BRANCH  18  19
ATOM     19  C   UNL     1      53.837  24.897  51.762  1.00  0.00     0.000 C 
BRANCH  19  20
ATOM     20  C   UNL     1      53.106  24.237  50.580  1.00  0.00     0.000 C 
BRANCH  20  21
ATOM     21  C   UNL     1      53.751  24.542  49.213  1.00  0.00     0.000 C 
BRANCH  21  22
ATOM     22  C   UNL     1      54.355  23.331  48.472  1.00  0.00     0.000 C 
BRANCH  22  23
ATOM     23  C   UNL     1      55.565  22.679  49.180  1.00  0.00     0.000 C 
BRANCH  23  24
ATOM     24  C   UNL     1      55.260  21.300  49.789  1.00  0.00    -0.000 C 
BRANCH  24  25
ATOM     25  C   UNL     1      55.681  21.187  51.264  1.00  0.00    -0.000 C 
BRANCH  25  26
ATOM     26  C   UNL     1      56.378  22.456  51.777  1.00  0.00    -0.000 C 
BRANCH  26  27
ATOM     27  C   UNL     1      56.858  22.325  53.230  1.00  0.00    -0.000 C 
BRANCH  27  28
ATOM     28  C   UNL     1      56.032  21.278  53.986  1.00  0.00    -0.000 C 
BRANCH  28  29
ATOM     29  C   UNL     1      56.430  21.220  55.466  1.00  0.00    -0.000 C 
BRANCH  29  30
ATOM     30  C   UNL     1      56.515  22.627  56.070  1.00  0.00    -0.000 C 
BRANCH  30  31
ATOM     31  C   UNL     1      57.718  22.749  57.011  1.00  0.00    -0.003 C 
ATOM     32  C   UNL     1      58.071  21.401  57.634  1.00  0.00     0.004 C 
ENDBRANCH  30  31
ENDBRANCH  29  30
ENDBRANCH  28  29
ENDBRANCH  27  28
ENDBRANCH  26  27
ENDBRANCH  25  26
ENDBRANCH  24  25
ENDBRANCH  23  24
ENDBRANCH  22  23
ENDBRANCH  21  22
ENDBRANCH  20  21
ENDBRANCH  19  20
ENDBRANCH  18  19
ENDBRANCH   1  18
TORSDOF 28
ENDMDL
MODEL 7
REMARK VINA RESULT:    -4.066      2.686      7.342
REMARK INTER + INTRA:         -14.930
REMARK INTER:                 -10.042
REMARK INTRA:                  -4.888
REMARK UNBOUND:                -4.209
REMARK SMILES CCCCCCCCCCCCCCCCCCCCCCCCCCCCCC(=O)[O-]
REMARK SMILES IDX 16 1 17 2 18 3 19 4 20 5 21 6 22 7 23 8 24 9 25 10 26 11
REMARK SMILES IDX 27 12 28 13 29 14 30 15 31 16 32 17 15 18 14 19 13 20 12 21
REMARK SMILES IDX 11 22 10 23 9 24 8 25 7 26 6 27 5 28 4 29 3 30 2 31 1 32
REMARK H PARENT
REMARK Flexibility Score: inf
ROOT
ATOM      1  C   UNL     1      55.837  21.036  48.758  1.00  0.00     0.000 C 
ENDROOT
BRANCH   1   2
ATOM      2  C   UNL     1      56.535  20.621  50.065  1.00  0.00     0.000 C 
BRANCH   2   3
ATOM      3  C   UNL     1      56.024  21.405  51.288  1.00  0.00     0.000 C 
BRANCH   3   4
ATOM      4  C   UNL     1      54.496  21.562  51.273  1.00  0.00     0.000 C 
BRANCH   4   5
ATOM      5  C   UNL     1      53.897  21.743  52.687  1.00  0.00     0.000 C 
BRANCH   5   6
ATOM      6  C   UNL     1      52.883  22.894  52.758  1.00  0.00     0.000 C 
BRANCH   6   7
ATOM      7  C   UNL     1      52.516  23.247  54.212  1.00  0.00     0.000 C 
BRANCH   7   8
ATOM      8  C   UNL     1      53.231  24.514  54.704  1.00  0.00     0.000 C 
BRANCH   8   9
ATOM      9  C   UNL     1      53.141  24.690  56.230  1.00  0.00     0.000 C 
BRANCH   9  10
ATOM     10  C   UNL     1      52.098  23.766  56.884  1.00  0.00     0.000 C 
BRANCH  10  11
ATOM     11  C   UNL     1      51.081  24.496  57.788  1.00  0.00     0.000 C 
BRANCH  11  12
ATOM     12  C   UNL     1      49.674  24.687  57.182  1.00  0.00     0.000 C 
BRANCH  12  13
ATOM     13  C   UNL     1      49.097  23.472  56.432  1.00  0.00     0.006 C 
BRANCH  13  14
ATOM     14  C   UNL     1      48.823  23.749  54.948  1.00  0.00     0.053 C 
BRANCH  14  15
ATOM     15  C   UNL     1      49.015  22.510  54.127  1.00  0.00     0.041 C 
ATOM     16  O   UNL     1      49.086  21.384  54.688  1.00  0.00    -0.550 OA
ATOM     17  O   UNL     1      49.095  22.596  52.741  1.00  0.00    -0.550 OA
ENDBRANCH  14  15
ENDBRANCH  13  14
ENDBRANCH  12  13
ENDBRANCH  11  12
ENDBRANCH  10  11
ENDBRANCH   9  10
ENDBRANCH   8   9
ENDBRANCH   7   8
ENDBRANCH   6   7
ENDBRANCH   5   6
ENDBRANCH   4   5
ENDBRANCH   3   4
ENDBRANCH   2   3
ENDBRANCH   1   2
BRANCH   1  18
ATOM     18  C   UNL     1      56.755  21.692  47.707  1.00  0.00     0.000 C 
BRANCH  18  19
ATOM     19  C   UNL     1      56.686  23.229  47.633  1.00  0.00     0.000 C 
BRANCH  19  20
ATOM     20  C   UNL     1      55.322  23.789  48.072  1.00  0.00     0.000 C 
BRANCH  20  21
ATOM     21  C   UNL     1      55.432  25.042  48.963  1.00  0.00     0.000 C 
BRANCH  21  22
ATOM     22  C   UNL     1      55.856  24.791  50.425  1.00  0.00     0.000 C 
BRANCH  22  23
ATOM     23  C   UNL     1      57.365  24.980  50.699  1.00  0.00     0.000 C 
BRANCH  23  24
ATOM     24  C   UNL     1      57.746  24.865  52.185  1.00  0.00    -0.000 C 
BRANCH  24  25
ATOM     25  C   UNL     1      56.533  24.635  53.101  1.00  0.00    -0.000 C 
BRANCH  25  26
ATOM     26  C   UNL     1      56.936  24.180  54.512  1.00  0.00    -0.000 C 
BRANCH  26  27
ATOM     27  C   UNL     1      56.912  22.652  54.673  1.00  0.00    -0.000 C 
BRANCH  27  28
ATOM     28  C   UNL     1      55.965  22.237  55.804  1.00  0.00    -0.000 C 
BRANCH  28  29
ATOM     29  C   UNL     1      56.611  22.452  57.178  1.00  0.00    -0.000 C 
BRANCH  29  30
ATOM     30  C   UNL     1      57.834  21.545  57.360  1.00  0.00    -0.000 C 
BRANCH  30  31
ATOM     31  C   UNL     1      58.954  22.275  58.109  1.00  0.00    -0.003 C 
ATOM     32  C   UNL     1      59.290  23.604  57.440  1.00  0.00     0.004 C 
ENDBRANCH  30  31
ENDBRANCH  29  30
ENDBRANCH  28  29
ENDBRANCH  27  28
ENDBRANCH  26  27
ENDBRANCH  25  26
ENDBRANCH  24  25
ENDBRANCH  23  24
ENDBRANCH  22  23
ENDBRANCH  21  22
ENDBRANCH  20  21
ENDBRANCH  19  20
ENDBRANCH  18  19
ENDBRANCH   1  18
TORSDOF 28
ENDMDL
MODEL 8
REMARK VINA RESULT:    -4.059      2.412      4.174
REMARK INTER + INTRA:         -14.913
REMARK INTER:                 -11.492
REMARK INTRA:                  -3.421
REMARK UNBOUND:                -4.209
REMARK SMILES CCCCCCCCCCCCCCCCCCCCCCCCCCCCCC(=O)[O-]
REMARK SMILES IDX 16 1 17 2 18 3 19 4 20 5 21 6 22 7 23 8 24 9 25 10 26 11
REMARK SMILES IDX 27 12 28 13 29 14 30 15 31 16 32 17 15 18 14 19 13 20 12 21
REMARK SMILES IDX 11 22 10 23 9 24 8 25 7 26 6 27 5 28 4 29 3 30 2 31 1 32
REMARK H PARENT
REMARK Flexibility Score: inf
ROOT
ATOM      1  C   UNL     1      52.768  23.607  51.576  1.00  0.00     0.000 C 
ENDROOT
BRANCH   1   2
ATOM      2  C   UNL     1      53.640  24.860  51.380  1.00  0.00     0.000 C 
BRANCH   2   3
ATOM      3  C   UNL     1      54.046  25.079  49.912  1.00  0.00     0.000 C 
BRANCH   3   4
ATOM      4  C   UNL     1      53.638  23.897  49.019  1.00  0.00     0.000 C 
BRANCH   4   5
ATOM      5  C   UNL     1      54.277  23.959  47.612  1.00  0.00     0.000 C 
BRANCH   5   6
ATOM      6  C   UNL     1      55.754  24.377  47.651  1.00  0.00     0.000 C 
BRANCH   6   7
ATOM      7  C   UNL     1      56.615  23.370  48.438  1.00  0.00     0.000 C 
BRANCH   7   8
ATOM      8  C   UNL     1      56.821  22.054  47.672  1.00  0.00     0.000 C 
BRANCH   8   9
ATOM      9  C   UNL     1      56.057  20.877  48.302  1.00  0.00     0.000 C 
BRANCH   9  10
ATOM     10  C   UNL     1      56.429  20.634  49.776  1.00  0.00     0.000 C 
BRANCH  10  11
ATOM     11  C   UNL     1      55.341  21.063  50.785  1.00  0.00     0.000 C 
BRANCH  11  12
ATOM     12  C   UNL     1      55.835  21.935  51.958  1.00  0.00     0.000 C 
BRANCH  12  13
ATOM     13  C   UNL     1      56.720  21.222  52.997  1.00  0.00     0.006 C 
BRANCH  13  14
ATOM     14  C   UNL     1      56.182  21.330  54.431  1.00  0.00     0.053 C 
BRANCH  14  15
ATOM     15  C   UNL     1      56.305  22.732  54.944  1.00  0.00     0.041 C 
ATOM     16  O   UNL     1      57.443  23.242  55.127  1.00  0.00    -0.550 OA
ATOM     17  O   UNL     1      55.163  23.484  55.202  1.00  0.00    -0.550 OA
ENDBRANCH  14  15
ENDBRANCH  13  14
ENDBRANCH  12  13
ENDBRANCH  11  12
ENDBRANCH  10  11
ENDBRANCH   9  10
ENDBRANCH   8   9
ENDBRANCH   7   8
ENDBRANCH   6   7
ENDBRANCH   5   6
ENDBRANCH   4   5
ENDBRANCH   3   4
ENDBRANCH   2   3
ENDBRANCH   1   2
BRANCH   1  18
ATOM     18  C   UNL     1      52.544  23.189  53.043  1.00  0.00     0.000 C 
BRANCH  18  19
ATOM     19  C   UNL     1      52.023  21.754  53.251  1.00  0.00     0.000 C 
BRANCH  19  20
ATOM     20  C   UNL     1      50.938  21.663  54.338  1.00  0.00     0.000 C 
BRANCH  20  21
ATOM     21  C   UNL     1      49.505  21.794  53.785  1.00  0.00     0.000 C 
BRANCH  21  22
ATOM     22  C   UNL     1      48.849  23.182  53.943  1.00  0.00     0.000 C 
BRANCH  22  23
ATOM     23  C   UNL     1      49.286  23.962  55.204  1.00  0.00     0.000 C 
BRANCH  23  24
ATOM     24  C   UNL     1      48.138  24.250  56.186  1.00  0.00    -0.000 C 
BRANCH  24  25
ATOM     25  C   UNL     1      47.483  22.972  56.738  1.00  0.00    -0.000 C 
BRANCH  25  26
ATOM     26  C   UNL     1      45.953  23.079  56.813  1.00  0.00    -0.000 C 
BRANCH  26  27
ATOM     27  C   UNL     1      45.318  23.477  55.472  1.00  0.00    -0.000 C 
BRANCH  27  28
ATOM     28  C   UNL     1      43.796  23.598  55.601  1.00  0.00    -0.000 C 
BRANCH  28  29
ATOM     29  C   UNL     1      43.301  22.998  56.923  1.00  0.00    -0.000 C 
BRANCH  29  30
ATOM     30  C   UNL     1      42.101  22.072  56.693  1.00  0.00    -0.000 C 
BRANCH  30  31
ATOM     31  C   UNL     1      42.435  20.630  57.091  1.00  0.00    -0.003 C 
ATOM     32  C   UNL     1      43.798  20.547  57.772  1.00  0.00     0.004 C 
ENDBRANCH  30  31
ENDBRANCH  29  30
ENDBRANCH  28  29
ENDBRANCH  27  28
ENDBRANCH  26  27
ENDBRANCH  25  26
ENDBRANCH  24  25
ENDBRANCH  23  24
ENDBRANCH  22  23
ENDBRANCH  21  22
ENDBRANCH  20  21
ENDBRANCH  19  20
ENDBRANCH  18  19
ENDBRANCH   1  18
TORSDOF 28
ENDMDL
