MODEL 1
REMARK VINA RESULT:   -11.973      0.000      0.000
REMARK INTER + INTRA:         -16.378
REMARK INTER:                 -15.823
REMARK INTRA:                  -0.554
REMARK UNBOUND:                -0.554
REMARK SMILES CC[C@H](C=C[C@@H](C)[C@@H]1CC[C@H]2[C@H]3CC=C4C[C@@H](O)CC[C@]4(C)[C@H]3CC[C@@]21C)C(C)C
REMARK SMILES IDX 6 1 7 2 5 3 4 4 3 5 2 6 1 7 28 8 29 9 30 10 8 11 9 12 26 13
REMARK SMILES IDX 10 14 11 15 25 16 27 17 12 18 24 19 23 20 13 21 21 22 14 23
REMARK SMILES IDX 15 24 20 25 22 26 16 27 19 28 17 29 18 30
REMARK H PARENT 18 31
REMARK Flexibility Score: inf
ROOT
ATOM      1  C   UNL     1     -21.060 -43.250  24.731  1.00  0.00     0.012 C 
ATOM      2  C   UNL     1     -19.621 -43.641  25.134  1.00  0.00     0.012 C 
ENDROOT
BRANCH   1   3
ATOM      3  C   UNL     1     -21.732 -44.358  23.941  1.00  0.00    -0.028 C 
ATOM      4  C   UNL     1     -21.122 -45.506  23.592  1.00  0.00    -0.027 C 
BRANCH   4   5
ATOM      5  C   UNL     1     -21.772 -46.559  22.711  1.00  0.00     0.014 C 
BRANCH   5   6
ATOM      6  C   UNL     1     -21.246 -47.979  23.053  1.00  0.00     0.004 C 
ATOM      7  C   UNL     1     -20.348 -48.064  24.289  1.00  0.00     0.004 C 
ENDBRANCH   5   6
BRANCH   5   8
ATOM      8  C   UNL     1     -23.329 -46.419  22.648  1.00  0.00    -0.011 C 
ATOM      9  C   UNL     1     -24.003 -46.884  23.949  1.00  0.00     0.008 C 
ATOM     10  C   UNL     1     -23.909 -47.224  21.470  1.00  0.00     0.008 C 
ENDBRANCH   5   8
ENDBRANCH   4   5
ENDBRANCH   1   3
BRANCH   1  11
ATOM     11  C   UNL     1     -21.248 -41.867  24.008  1.00  0.00     0.002 C 
ATOM     12  C   UNL     1     -20.915 -41.874  22.487  1.00  0.00     0.005 C 
ATOM     13  C   UNL     1     -20.462 -40.632  24.573  1.00  0.00    -0.026 C 
ATOM     14  C   UNL     1     -19.741 -40.906  22.264  1.00  0.00     0.005 C 
ATOM     15  C   UNL     1     -19.230 -40.615  23.666  1.00  0.00    -0.001 C 
ATOM     16  C   UNL     1     -19.967 -40.696  26.041  1.00  0.00     0.007 C 
ATOM     17  C   UNL     1     -21.391 -39.390  24.393  1.00  0.00     0.012 C 
ATOM     18  C   UNL     1     -18.202 -39.481  23.893  1.00  0.00     0.000 C 
ATOM     19  C   UNL     1     -19.029 -39.515  26.379  1.00  0.00     0.005 C 
ATOM     20  C   UNL     1     -17.814 -39.354  25.403  1.00  0.00     0.003 C 
ATOM     21  C   UNL     1     -18.502 -38.107  23.283  1.00  0.00     0.031 C 
ATOM     22  C   UNL     1     -16.873 -38.086  25.710  1.00  0.00    -0.008 C 
ATOM     23  C   UNL     1     -17.244 -37.296  23.348  1.00  0.00    -0.027 C 
ATOM     24  C   UNL     1     -16.432 -37.351  24.426  1.00  0.00    -0.065 C 
ATOM     25  C   UNL     1     -15.609 -38.601  26.469  1.00  0.00     0.014 C 
ATOM     26  C   UNL     1     -17.586 -37.018  26.585  1.00  0.00     0.016 C 
ATOM     27  C   UNL     1     -15.213 -36.448  24.452  1.00  0.00     0.063 C 
ATOM     28  C   UNL     1     -14.481 -37.568  26.586  1.00  0.00     0.033 C 
ATOM     29  C   UNL     1     -14.042 -37.093  25.197  1.00  0.00     0.118 C 
BRANCH  29  30
ATOM     30  O   UNL     1     -13.005 -36.156  25.318  1.00  0.00    -0.393 OA
ATOM     31  H   UNL     1     -12.152 -36.652  25.204  1.00  0.00     0.210 HD
ENDBRANCH  29  30
ENDBRANCH   1  11
TORSDOF 6
ENDMDL
MODEL 2
REMARK VINA RESULT:   -11.857      0.630      1.483
REMARK INTER + INTRA:         -16.224
REMARK INTER:                 -15.247
REMARK INTRA:                  -0.977
REMARK UNBOUND:                -0.554
REMARK SMILES CC[C@H](C=C[C@@H](C)[C@@H]1CC[C@H]2[C@H]3CC=C4C[C@@H](O)CC[C@]4(C)[C@H]3CC[C@@]21C)C(C)C
REMARK SMILES IDX 6 1 7 2 5 3 4 4 3 5 2 6 1 7 28 8 29 9 30 10 8 11 9 12 26 13
REMARK SMILES IDX 10 14 11 15 25 16 27 17 12 18 24 19 23 20 13 21 21 22 14 23
REMARK SMILES IDX 15 24 20 25 22 26 16 27 19 28 17 29 18 30
REMARK H PARENT 18 31
REMARK Flexibility Score: inf
ROOT
ATOM      1  C   UNL     1     -21.041 -43.457  24.954  1.00  0.00     0.012 C 
ATOM      2  C   UNL     1     -19.629 -44.070  24.821  1.00  0.00     0.012 C 
ENDROOT
BRANCH   1   3
ATOM      3  C   UNL     1     -22.117 -44.466  24.596  1.00  0.00    -0.028 C 
ATOM      4  C   UNL     1     -21.961 -45.799  24.705  1.00  0.00    -0.027 C 
BRANCH   4   5
ATOM      5  C   UNL     1     -23.006 -46.799  24.244  1.00  0.00     0.014 C 
BRANCH   5   6
ATOM      6  C   UNL     1     -24.380 -46.111  24.017  1.00  0.00     0.004 C 
ATOM      7  C   UNL     1     -25.600 -46.934  24.434  1.00  0.00     0.004 C 
ENDBRANCH   5   6
BRANCH   5   8
ATOM      8  C   UNL     1     -22.507 -47.699  23.066  1.00  0.00    -0.011 C 
ATOM      9  C   UNL     1     -21.019 -48.062  23.208  1.00  0.00     0.008 C 
ATOM     10  C   UNL     1     -22.724 -47.004  21.708  1.00  0.00     0.008 C 
ENDBRANCH   5   8
ENDBRANCH   4   5
ENDBRANCH   1   3
BRANCH   1  11
ATOM     11  C   UNL     1     -21.299 -42.093  24.219  1.00  0.00     0.002 C 
ATOM     12  C   UNL     1     -21.021 -42.113  22.686  1.00  0.00     0.005 C 
ATOM     13  C   UNL     1     -20.534 -40.825  24.736  1.00  0.00    -0.026 C 
ATOM     14  C   UNL     1     -19.888 -41.112  22.406  1.00  0.00     0.005 C 
ATOM     15  C   UNL     1     -19.336 -40.783  23.785  1.00  0.00    -0.001 C 
ATOM     16  C   UNL     1     -19.985 -40.849  26.186  1.00  0.00     0.007 C 
ATOM     17  C   UNL     1     -21.509 -39.615  24.571  1.00  0.00     0.012 C 
ATOM     18  C   UNL     1     -18.338 -39.613  23.957  1.00  0.00     0.000 C 
ATOM     19  C   UNL     1     -19.074 -39.633  26.472  1.00  0.00     0.005 C 
ATOM     20  C   UNL     1     -17.901 -39.450  25.450  1.00  0.00     0.003 C 
ATOM     21  C   UNL     1     -18.704 -38.259  23.338  1.00  0.00     0.031 C 
ATOM     22  C   UNL     1     -16.991 -38.148  25.703  1.00  0.00    -0.008 C 
ATOM     23  C   UNL     1     -17.471 -37.407  23.345  1.00  0.00    -0.027 C 
ATOM     24  C   UNL     1     -16.620 -37.420  24.394  1.00  0.00    -0.065 C 
ATOM     25  C   UNL     1     -15.685 -38.610  26.424  1.00  0.00     0.014 C 
ATOM     26  C   UNL     1     -17.706 -37.089  26.588  1.00  0.00     0.016 C 
ATOM     27  C   UNL     1     -15.430 -36.478  24.362  1.00  0.00     0.063 C 
ATOM     28  C   UNL     1     -14.587 -37.540  26.485  1.00  0.00     0.033 C 
ATOM     29  C   UNL     1     -14.213 -37.074  25.073  1.00  0.00     0.118 C 
BRANCH  29  30
ATOM     30  O   UNL     1     -13.203 -36.102  25.143  1.00  0.00    -0.393 OA
ATOM     31  H   UNL     1     -12.344 -36.587  25.256  1.00  0.00     0.210 HD
ENDBRANCH  29  30
ENDBRANCH   1  11
TORSDOF 6
ENDMDL
MODEL 3
REMARK VINA RESULT:   -10.520      3.008      9.208
REMARK INTER + INTRA:         -14.457
REMARK INTER:                 -14.645
REMARK INTRA:                   0.188
REMARK UNBOUND:                -0.554
REMARK SMILES CC[C@H](C=C[C@@H](C)[C@@H]1CC[C@H]2[C@H]3CC=C4C[C@@H](O)CC[C@]4(C)[C@H]3CC[C@@]21C)C(C)C
REMARK SMILES IDX 6 1 7 2 5 3 4 4 3 5 2 6 1 7 28 8 29 9 30 10 8 11 9 12 26 13
REMARK SMILES IDX 10 14 11 15 25 16 27 17 12 18 24 19 23 20 13 21 21 22 14 23
REMARK SMILES IDX 15 24 20 25 22 26 16 27 19 28 17 29 18 30
REMARK H PARENT 18 31
REMARK Flexibility Score: inf
ROOT
ATOM      1  C   UNL     1     -18.501 -38.232  23.434  1.00  0.00     0.012 C 
ATOM      2  C   UNL     1     -18.041 -39.262  22.380  1.00  0.00     0.012 C 
ENDROOT
BRANCH   1   3
ATOM      3  C   UNL     1     -17.407 -37.223  23.735  1.00  0.00    -0.028 C 
ATOM      4  C   UNL     1     -16.265 -37.528  24.381  1.00  0.00    -0.027 C 
BRANCH   4   5
ATOM      5  C   UNL     1     -15.228 -36.489  24.770  1.00  0.00     0.014 C 
BRANCH   5   6
ATOM      6  C   UNL     1     -15.900 -35.205  25.327  1.00  0.00     0.004 C 
ATOM      7  C   UNL     1     -17.060 -35.443  26.296  1.00  0.00     0.004 C 
ENDBRANCH   5   6
BRANCH   5   8
ATOM      8  C   UNL     1     -14.078 -37.080  25.652  1.00  0.00    -0.011 C 
ATOM      9  C   UNL     1     -14.583 -38.188  26.590  1.00  0.00     0.008 C 
ATOM     10  C   UNL     1     -13.406 -35.979  26.494  1.00  0.00     0.008 C 
ENDBRANCH   5   8
ENDBRANCH   4   5
ENDBRANCH   1   3
BRANCH   1  11
ATOM     11  C   UNL     1     -19.109 -38.797  24.768  1.00  0.00     0.002 C 
ATOM     12  C   UNL     1     -18.065 -39.114  25.880  1.00  0.00     0.005 C 
ATOM     13  C   UNL     1     -19.988 -40.094  24.680  1.00  0.00    -0.026 C 
ATOM     14  C   UNL     1     -18.134 -40.623  26.166  1.00  0.00     0.005 C 
ATOM     15  C   UNL     1     -18.966 -41.179  25.021  1.00  0.00    -0.001 C 
ATOM     16  C   UNL     1     -20.619 -40.452  23.310  1.00  0.00     0.007 C 
ATOM     17  C   UNL     1     -21.120 -39.940  25.747  1.00  0.00     0.012 C 
ATOM     18  C   UNL     1     -19.477 -42.639  25.077  1.00  0.00     0.000 C 
ATOM     19  C   UNL     1     -21.265 -41.857  23.328  1.00  0.00     0.005 C 
ATOM     20  C   UNL     1     -20.308 -43.002  23.803  1.00  0.00     0.003 C 
ATOM     21  C   UNL     1     -20.191 -43.102  26.351  1.00  0.00     0.031 C 
ATOM     22  C   UNL     1     -20.995 -44.454  23.889  1.00  0.00    -0.008 C 
ATOM     23  C   UNL     1     -20.289 -44.596  26.302  1.00  0.00    -0.027 C 
ATOM     24  C   UNL     1     -20.565 -45.239  25.147  1.00  0.00    -0.065 C 
ATOM     25  C   UNL     1     -20.581 -45.256  22.614  1.00  0.00     0.014 C 
ATOM     26  C   UNL     1     -22.546 -44.373  23.950  1.00  0.00     0.016 C 
ATOM     27  C   UNL     1     -20.720 -46.748  25.186  1.00  0.00     0.063 C 
ATOM     28  C   UNL     1     -20.916 -46.752  22.675  1.00  0.00     0.033 C 
ATOM     29  C   UNL     1     -20.243 -47.404  23.888  1.00  0.00     0.118 C 
BRANCH  29  30
ATOM     30  O   UNL     1     -20.551 -48.772  23.927  1.00  0.00    -0.393 OA
ATOM     31  H   UNL     1     -19.712 -49.251  24.158  1.00  0.00     0.210 HD
ENDBRANCH  29  30
ENDBRANCH   1  11
TORSDOF 6
ENDMDL
MODEL 4
REMARK VINA RESULT:    -9.948      3.084      9.264
REMARK INTER + INTRA:         -13.701
REMARK INTER:                 -13.717
REMARK INTRA:                   0.016
REMARK UNBOUND:                -0.554
REMARK SMILES CC[C@H](C=C[C@@H](C)[C@@H]1CC[C@H]2[C@H]3CC=C4C[C@@H](O)CC[C@]4(C)[C@H]3CC[C@@]21C)C(C)C
REMARK SMILES IDX 6 1 7 2 5 3 4 4 3 5 2 6 1 7 28 8 29 9 30 10 8 11 9 12 26 13
REMARK SMILES IDX 10 14 11 15 25 16 27 17 12 18 24 19 23 20 13 21 21 22 14 23
REMARK SMILES IDX 15 24 20 25 22 26 16 27 19 28 17 29 18 30
REMARK H PARENT 18 31
REMARK Flexibility Score: inf
ROOT
ATOM      1  C   UNL     1     -18.710 -38.675  23.519  1.00  0.00     0.012 C 
ATOM      2  C   UNL     1     -18.496 -39.618  22.315  1.00  0.00     0.012 C 
ENDROOT
BRANCH   1   3
ATOM      3  C   UNL     1     -17.386 -38.229  24.114  1.00  0.00    -0.028 C 
ATOM      4  C   UNL     1     -16.924 -36.965  24.051  1.00  0.00    -0.027 C 
BRANCH   4   5
ATOM      5  C   UNL     1     -15.552 -36.556  24.556  1.00  0.00     0.014 C 
BRANCH   5   6
ATOM      6  C   UNL     1     -14.636 -36.104  23.388  1.00  0.00     0.004 C 
ATOM      7  C   UNL     1     -15.181 -36.379  21.985  1.00  0.00     0.004 C 
ENDBRANCH   5   6
BRANCH   5   8
ATOM      8  C   UNL     1     -15.621 -35.573  25.771  1.00  0.00    -0.011 C 
ATOM      9  C   UNL     1     -14.670 -35.988  26.905  1.00  0.00     0.008 C 
ATOM     10  C   UNL     1     -17.054 -35.483  26.329  1.00  0.00     0.008 C 
ENDBRANCH   5   8
ENDBRANCH   4   5
ENDBRANCH   1   3
BRANCH   1  11
ATOM     11  C   UNL     1     -19.682 -39.170  24.651  1.00  0.00     0.002 C 
ATOM     12  C   UNL     1     -19.032 -39.298  26.061  1.00  0.00     0.005 C 
ATOM     13  C   UNL     1     -20.419 -40.538  24.437  1.00  0.00    -0.026 C 
ATOM     14  C   UNL     1     -19.111 -40.776  26.476  1.00  0.00     0.005 C 
ATOM     15  C   UNL     1     -19.503 -41.499  25.197  1.00  0.00    -0.001 C 
ATOM     16  C   UNL     1     -20.560 -41.068  22.986  1.00  0.00     0.007 C 
ATOM     17  C   UNL     1     -21.838 -40.386  25.073  1.00  0.00     0.012 C 
ATOM     18  C   UNL     1     -19.929 -42.986  25.251  1.00  0.00     0.000 C 
ATOM     19  C   UNL     1     -21.105 -42.514  22.957  1.00  0.00     0.005 C 
ATOM     20  C   UNL     1     -20.291 -43.529  23.829  1.00  0.00     0.003 C 
ATOM     21  C   UNL     1     -20.987 -43.393  26.282  1.00  0.00     0.031 C 
ATOM     22  C   UNL     1     -20.893 -45.020  23.857  1.00  0.00    -0.008 C 
ATOM     23  C   UNL     1     -20.987 -44.889  26.370  1.00  0.00    -0.027 C 
ATOM     24  C   UNL     1     -20.847 -45.652  25.264  1.00  0.00    -0.065 C 
ATOM     25  C   UNL     1     -20.053 -45.894  22.872  1.00  0.00     0.014 C 
ATOM     26  C   UNL     1     -22.384 -45.064  23.422  1.00  0.00     0.016 C 
ATOM     27  C   UNL     1     -20.927 -47.160  25.420  1.00  0.00     0.063 C 
ATOM     28  C   UNL     1     -20.312 -47.401  22.989  1.00  0.00     0.033 C 
ATOM     29  C   UNL     1     -20.028 -47.885  24.416  1.00  0.00     0.118 C 
BRANCH  29  30
ATOM     30  O   UNL     1     -20.261 -49.266  24.507  1.00  0.00    -0.393 OA
ATOM     31  H   UNL     1     -19.462 -49.665  24.942  1.00  0.00     0.210 HD
ENDBRANCH  29  30
ENDBRANCH   1  11
TORSDOF 6
ENDMDL
