MODEL 1
REMARK VINA RESULT:    -7.306      0.000      0.000
REMARK INTER + INTRA:         -15.239
REMARK INTER:                 -12.218
REMARK INTRA:                  -3.021
REMARK UNBOUND:                -3.021
REMARK SMILES C[C@@H]1O[C@H](OC[C@H]2O[C@@H](Oc3c(-c4ccc(O)c(O)c4)oc4cc(O)cc(O)c4c3=O)[C@H](O)[C@H](O)[C@H]2O)[C@@H](O)[C@@H](O)[C@H]1O
REMARK SMILES IDX 7 1 36 2 34 3 32 4 9 5 8 6 6 7 5 8 4 9 1 10 2 11 42 12 3 13
REMARK SMILES IDX 40 14 38 15 43 16 41 18 39 20 37 22 35 24 10 26 11 27 12 28
REMARK SMILES IDX 30 29 21 30 29 31 31 32 22 33 27 34 23 35 26 36 24 37 13 38
REMARK SMILES IDX 20 39 14 40 18 41 15 42 16 43 19 44 17 46 28 48 25 50 33 52
REMARK H PARENT 43 17 41 19 39 21 37 23 35 25 19 45 17 47 28 49 25 51 33 53
REMARK Flexibility Score: inf
ROOT
ATOM      1  C   UNL     1     142.271 132.712 144.778  1.00  0.00     0.180 C 
ATOM      2  C   UNL     1     143.418 132.599 145.855  1.00  0.00     0.177 C 
ATOM      3  C   UNL     1     142.975 132.910 147.270  1.00  0.00     0.180 C 
ATOM      4  C   UNL     1     141.463 132.740 147.464  1.00  0.00     0.214 C 
ATOM      5  C   UNL     1     140.571 133.464 146.431  1.00  0.00     0.339 C 
ATOM      6  O   UNL     1     141.136 133.542 145.101  1.00  0.00    -0.332 OA
ENDROOT
BRANCH   1   7
ATOM      7  C   UNL     1     141.783 131.435 144.123  1.00  0.00     0.198 C 
BRANCH   7   8
ATOM      8  O   UNL     1     142.097 130.278 144.896  1.00  0.00    -0.347 OA
BRANCH   8   9
ATOM      9  C   UNL     1     140.963 129.473 145.115  1.00  0.00     0.281 C 
ATOM     10  C   UNL     1     138.884 129.063 142.582  1.00  0.00     0.041 C 
ATOM     11  C   UNL     1     138.785 129.273 144.133  1.00  0.00     0.150 C 
ATOM     12  C   UNL     1     138.638 127.924 144.875  1.00  0.00     0.174 C 
ATOM     13  O   UNL     1     139.794 130.130 144.611  1.00  0.00    -0.344 OA
ATOM     14  C   UNL     1     139.968 127.084 144.828  1.00  0.00     0.179 C 
ATOM     15  C   UNL     1     141.233 127.987 144.616  1.00  0.00     0.202 C 
BRANCH  12  16
ATOM     16  O   UNL     1     138.242 128.194 146.209  1.00  0.00    -0.388 OA
ATOM     17  H   UNL     1     138.491 129.152 146.441  1.00  0.00     0.211 HD
ENDBRANCH  12  16
BRANCH  14  18
ATOM     18  O   UNL     1     140.163 126.196 145.951  1.00  0.00    -0.387 OA
ATOM     19  H   UNL     1     140.934 126.601 146.465  1.00  0.00     0.211 HD
ENDBRANCH  14  18
BRANCH  15  20
ATOM     20  O   UNL     1     142.348 127.381 145.227  1.00  0.00    -0.385 OA
ATOM     21  H   UNL     1     142.987 126.973 144.541  1.00  0.00     0.211 HD
ENDBRANCH  15  20
ENDBRANCH   8   9
ENDBRANCH   7   8
ENDBRANCH   1   7
BRANCH   2  22
ATOM     22  O   UNL     1     144.124 131.371 145.813  1.00  0.00    -0.387 OA
ATOM     23  H   UNL     1     145.047 131.549 145.608  1.00  0.00     0.211 HD
ENDBRANCH   2  22
BRANCH   3  24
ATOM     24  O   UNL     1     143.410 134.187 147.735  1.00  0.00    -0.387 OA
ATOM     25  H   UNL     1     142.969 134.870 147.067  1.00  0.00     0.211 HD
ENDBRANCH   3  24
BRANCH   5  26
ATOM     26  O   UNL     1     139.310 132.778 146.427  1.00  0.00    -0.454 OA
BRANCH  26  27
ATOM     27  C   UNL     1     138.028 133.376 146.523  1.00  0.00     0.214 A 
ATOM     28  C   UNL     1     137.627 134.021 147.661  1.00  0.00     0.180 A 
ATOM     29  C   UNL     1     137.506 133.912 145.379  1.00  0.00     0.239 A 
ATOM     30  O   UNL     1     137.418 135.320 147.636  1.00  0.00    -0.452 OA
ATOM     31  C   UNL     1     137.488 135.294 145.273  1.00  0.00     0.111 A 
ATOM     32  O   UNL     1     137.084 133.156 144.492  1.00  0.00    -0.285 OA
ATOM     33  C   UNL     1     137.441 136.002 146.490  1.00  0.00     0.146 A 
ATOM     34  C   UNL     1     137.847 135.940 144.076  1.00  0.00     0.134 A 
ATOM     35  C   UNL     1     137.638 137.368 146.491  1.00  0.00     0.094 A 
ATOM     36  C   UNL     1     138.202 137.301 144.136  1.00  0.00     0.093 A 
ATOM     37  C   UNL     1     138.099 138.026 145.336  1.00  0.00     0.123 A 
BRANCH  28  38
ATOM     38  C   UNL     1     137.505 133.313 148.976  1.00  0.00     0.025 A 
ATOM     39  C   UNL     1     137.789 131.911 149.166  1.00  0.00     0.062 A 
ATOM     40  C   UNL     1     137.068 133.971 150.111  1.00  0.00     0.016 A 
ATOM     41  C   UNL     1     138.586 131.448 150.315  1.00  0.00     0.158 A 
ATOM     42  C   UNL     1     137.177 133.311 151.337  1.00  0.00     0.051 A 
ATOM     43  C   UNL     1     137.980 132.147 151.409  1.00  0.00     0.157 A 
BRANCH  41  44
ATOM     44  O   UNL     1     138.654 131.183 148.868  1.00  0.00    -0.504 OA
ATOM     45  H   UNL     1     138.603 131.888 148.073  1.00  0.00     0.293 HD
ENDBRANCH  41  44
BRANCH  43  46
ATOM     46  O   UNL     1     138.348 131.686 152.711  1.00  0.00    -0.504 OA
ATOM     47  H   UNL     1     138.566 130.701 152.884  1.00  0.00     0.293 HD
ENDBRANCH  43  46
ENDBRANCH  28  38
BRANCH  34  48
ATOM     48  O   UNL     1     137.976 135.198 142.894  1.00  0.00    -0.507 OA
ATOM     49  H   UNL     1     138.791 135.217 142.326  1.00  0.00     0.293 HD
ENDBRANCH  34  48
BRANCH  37  50
ATOM     50  O   UNL     1     138.481 139.344 145.374  1.00  0.00    -0.508 OA
ATOM     51  H   UNL     1     138.256 139.980 144.625  1.00  0.00     0.293 HD
ENDBRANCH  37  50
ENDBRANCH  26  27
ENDBRANCH   5  26
BRANCH   4  52
ATOM     52  O   UNL     1     141.079 133.044 148.784  1.00  0.00    -0.384 OA
ATOM     53  H   UNL     1     140.195 132.634 148.934  1.00  0.00     0.211 HD
ENDBRANCH   4  52
TORSDOF 16
ENDMDL
MODEL 2
REMARK VINA RESULT:    -7.229      2.295      6.104
REMARK INTER + INTRA:         -15.110
REMARK INTER:                 -11.057
REMARK INTRA:                  -4.053
REMARK UNBOUND:                -3.021
REMARK SMILES C[C@@H]1O[C@H](OC[C@H]2O[C@@H](Oc3c(-c4ccc(O)c(O)c4)oc4cc(O)cc(O)c4c3=O)[C@H](O)[C@H](O)[C@H]2O)[C@@H](O)[C@@H](O)[C@H]1O
REMARK SMILES IDX 7 1 36 2 34 3 32 4 9 5 8 6 6 7 5 8 4 9 1 10 2 11 42 12 3 13
REMARK SMILES IDX 40 14 38 15 43 16 41 18 39 20 37 22 35 24 10 26 11 27 12 28
REMARK SMILES IDX 30 29 21 30 29 31 31 32 22 33 27 34 23 35 26 36 24 37 13 38
REMARK SMILES IDX 20 39 14 40 18 41 15 42 16 43 19 44 17 46 28 48 25 50 33 52
REMARK H PARENT 43 17 41 19 39 21 37 23 35 25 19 45 17 47 28 49 25 51 33 53
REMARK Flexibility Score: inf
ROOT
ATOM      1  C   UNL     1     141.269 128.717 145.876  1.00  0.00     0.180 C 
ATOM      2  C   UNL     1     140.194 127.726 145.283  1.00  0.00     0.177 C 
ATOM      3  C   UNL     1     138.761 128.109 145.590  1.00  0.00     0.180 C 
ATOM      4  C   UNL     1     138.607 129.600 145.919  1.00  0.00     0.214 C 
ATOM      5  C   UNL     1     139.571 130.148 146.995  1.00  0.00     0.339 C 
ATOM      6  O   UNL     1     140.876 129.525 147.005  1.00  0.00    -0.332 OA
ENDROOT
BRANCH   1   7
ATOM      7  C   UNL     1     142.062 129.569 144.906  1.00  0.00     0.198 C 
BRANCH   7   8
ATOM      8  O   UNL     1     141.224 130.426 144.132  1.00  0.00    -0.347 OA
BRANCH   8   9
ATOM      9  C   UNL     1     141.603 131.776 144.255  1.00  0.00     0.281 C 
ATOM     10  C   UNL     1     143.108 133.172 141.668  1.00  0.00     0.041 C 
ATOM     11  C   UNL     1     143.235 133.202 143.231  1.00  0.00     0.150 C 
ATOM     12  C   UNL     1     142.476 134.407 143.835  1.00  0.00     0.174 C 
ATOM     13  O   UNL     1     142.952 131.948 143.803  1.00  0.00    -0.344 OA
ATOM     14  C   UNL     1     140.917 134.231 143.722  1.00  0.00     0.179 C 
ATOM     15  C   UNL     1     140.496 132.723 143.616  1.00  0.00     0.202 C 
BRANCH  12  16
ATOM     16  O   UNL     1     142.885 134.556 145.183  1.00  0.00    -0.388 OA
ATOM     17  H   UNL     1     143.686 135.181 145.219  1.00  0.00     0.211 HD
ENDBRANCH  12  16
BRANCH  14  18
ATOM     18  O   UNL     1     140.156 134.897 144.754  1.00  0.00    -0.387 OA
ATOM     19  H   UNL     1     140.404 134.412 145.606  1.00  0.00     0.211 HD
ENDBRANCH  14  18
BRANCH  15  20
ATOM     20  O   UNL     1     139.216 132.554 144.178  1.00  0.00    -0.385 OA
ATOM     21  H   UNL     1     138.652 131.883 143.653  1.00  0.00     0.211 HD
ENDBRANCH  15  20
ENDBRANCH   8   9
ENDBRANCH   7   8
ENDBRANCH   1   7
BRANCH   2  22
ATOM     22  O   UNL     1     140.355 127.468 143.899  1.00  0.00    -0.387 OA
ATOM     23  H   UNL     1     141.025 126.787 143.785  1.00  0.00     0.211 HD
ENDBRANCH   2  22
BRANCH   3  24
ATOM     24  O   UNL     1     138.157 127.298 146.595  1.00  0.00    -0.387 OA
ATOM     25  H   UNL     1     137.919 127.975 147.366  1.00  0.00     0.211 HD
ENDBRANCH   3  24
BRANCH   5  26
ATOM     26  O   UNL     1     139.665 131.564 146.778  1.00  0.00    -0.454 OA
BRANCH  26  27
ATOM     27  C   UNL     1     139.836 132.559 147.773  1.00  0.00     0.214 A 
ATOM     28  C   UNL     1     138.852 132.828 148.685  1.00  0.00     0.180 A 
ATOM     29  C   UNL     1     141.098 132.734 148.265  1.00  0.00     0.239 A 
ATOM     30  O   UNL     1     139.053 132.566 149.959  1.00  0.00    -0.452 OA
ATOM     31  C   UNL     1     141.358 132.256 149.540  1.00  0.00     0.111 A 
ATOM     32  O   UNL     1     141.951 133.295 147.562  1.00  0.00    -0.285 OA
ATOM     33  C   UNL     1     140.249 132.183 150.405  1.00  0.00     0.146 A 
ATOM     34  C   UNL     1     142.550 131.567 149.835  1.00  0.00     0.134 A 
ATOM     35  C   UNL     1     140.370 131.522 151.611  1.00  0.00     0.094 A 
ATOM     36  C   UNL     1     142.586 130.767 150.992  1.00  0.00     0.093 A 
ATOM     37  C   UNL     1     141.504 130.738 151.889  1.00  0.00     0.123 A 
BRANCH  28  38
ATOM     38  C   UNL     1     137.502 133.331 148.273  1.00  0.00     0.025 A 
ATOM     39  C   UNL     1     137.072 133.456 146.901  1.00  0.00     0.062 A 
ATOM     40  C   UNL     1     136.572 133.748 149.208  1.00  0.00     0.016 A 
ATOM     41  C   UNL     1     135.739 132.993 146.479  1.00  0.00     0.158 A 
ATOM     42  C   UNL     1     135.270 134.004 148.773  1.00  0.00     0.051 A 
ATOM     43  C   UNL     1     134.887 133.555 147.485  1.00  0.00     0.157 A 
BRANCH  41  44
ATOM     44  O   UNL     1     137.096 132.777 145.950  1.00  0.00    -0.504 OA
ATOM     45  H   UNL     1     137.544 133.231 145.100  1.00  0.00     0.293 HD
ENDBRANCH  41  44
BRANCH  43  46
ATOM     46  O   UNL     1     133.488 133.523 147.193  1.00  0.00    -0.504 OA
ATOM     47  H   UNL     1     132.860 132.875 147.674  1.00  0.00     0.293 HD
ENDBRANCH  43  46
ENDBRANCH  28  38
BRANCH  34  48
ATOM     48  O   UNL     1     143.607 131.579 148.915  1.00  0.00    -0.507 OA
ATOM     49  H   UNL     1     143.888 130.778 148.397  1.00  0.00     0.293 HD
ENDBRANCH  34  48
BRANCH  37  50
ATOM     50  O   UNL     1     141.553 129.927 152.995  1.00  0.00    -0.508 OA
ATOM     51  H   UNL     1     141.367 130.283 153.919  1.00  0.00     0.293 HD
ENDBRANCH  37  50
ENDBRANCH  26  27
ENDBRANCH   5  26
BRANCH   4  52
ATOM     52  O   UNL     1     137.268 129.925 146.208  1.00  0.00    -0.384 OA
ATOM     53  H   UNL     1     137.220 130.141 147.168  1.00  0.00     0.211 HD
ENDBRANCH   4  52
TORSDOF 16
ENDMDL
MODEL 3
REMARK VINA RESULT:    -7.197      7.200     11.874
REMARK INTER + INTRA:         -15.056
REMARK INTER:                 -10.384
REMARK INTRA:                  -4.671
REMARK UNBOUND:                -3.021
REMARK SMILES C[C@@H]1O[C@H](OC[C@H]2O[C@@H](Oc3c(-c4ccc(O)c(O)c4)oc4cc(O)cc(O)c4c3=O)[C@H](O)[C@H](O)[C@H]2O)[C@@H](O)[C@@H](O)[C@H]1O
REMARK SMILES IDX 7 1 36 2 34 3 32 4 9 5 8 6 6 7 5 8 4 9 1 10 2 11 42 12 3 13
REMARK SMILES IDX 40 14 38 15 43 16 41 18 39 20 37 22 35 24 10 26 11 27 12 28
REMARK SMILES IDX 30 29 21 30 29 31 31 32 22 33 27 34 23 35 26 36 24 37 13 38
REMARK SMILES IDX 20 39 14 40 18 41 15 42 16 43 19 44 17 46 28 48 25 50 33 52
REMARK H PARENT 43 17 41 19 39 21 37 23 35 25 19 45 17 47 28 49 25 51 33 53
REMARK Flexibility Score: inf
ROOT
ATOM      1  C   UNL     1     132.501 138.104 140.052  1.00  0.00     0.180 C 
ATOM      2  C   UNL     1     132.152 136.569 139.946  1.00  0.00     0.177 C 
ATOM      3  C   UNL     1     132.419 135.782 141.212  1.00  0.00     0.180 C 
ATOM      4  C   UNL     1     132.445 136.670 142.463  1.00  0.00     0.214 C 
ATOM      5  C   UNL     1     133.359 137.914 142.379  1.00  0.00     0.339 C 
ATOM      6  O   UNL     1     133.455 138.500 141.060  1.00  0.00    -0.332 OA
ENDROOT
BRANCH   1   7
ATOM      7  C   UNL     1     131.355 139.096 140.035  1.00  0.00     0.198 C 
BRANCH   7   8
ATOM      8  O   UNL     1     130.357 138.784 141.006  1.00  0.00    -0.347 OA
BRANCH   8   9
ATOM      9  C   UNL     1     129.841 139.943 141.615  1.00  0.00     0.281 C 
ATOM     10  C   UNL     1     126.712 140.749 140.934  1.00  0.00     0.041 C 
ATOM     11  C   UNL     1     128.077 141.494 141.136  1.00  0.00     0.150 C 
ATOM     12  C   UNL     1     128.224 142.018 142.584  1.00  0.00     0.174 C 
ATOM     13  O   UNL     1     129.160 140.744 140.642  1.00  0.00    -0.344 OA
ATOM     14  C   UNL     1     128.433 140.845 143.611  1.00  0.00     0.179 C 
ATOM     15  C   UNL     1     129.037 139.565 142.935  1.00  0.00     0.202 C 
BRANCH  12  16
ATOM     16  O   UNL     1     129.305 142.934 142.615  1.00  0.00    -0.388 OA
ATOM     17  H   UNL     1     129.036 143.747 143.162  1.00  0.00     0.211 HD
ENDBRANCH  12  16
BRANCH  14  18
ATOM     18  O   UNL     1     129.190 141.200 144.789  1.00  0.00    -0.387 OA
ATOM     19  H   UNL     1     130.153 141.211 144.479  1.00  0.00     0.211 HD
ENDBRANCH  14  18
BRANCH  15  20
ATOM     20  O   UNL     1     129.805 138.856 143.878  1.00  0.00    -0.385 OA
ATOM     21  H   UNL     1     129.973 137.890 143.589  1.00  0.00     0.211 HD
ENDBRANCH  15  20
ENDBRANCH   8   9
ENDBRANCH   7   8
ENDBRANCH   1   7
BRANCH   2  22
ATOM     22  O   UNL     1     130.845 136.311 139.465  1.00  0.00    -0.387 OA
ATOM     23  H   UNL     1     130.898 136.064 138.536  1.00  0.00     0.211 HD
ENDBRANCH   2  22
BRANCH   3  24
ATOM     24  O   UNL     1     133.585 134.964 141.141  1.00  0.00    -0.387 OA
ATOM     25  H   UNL     1     133.273 134.113 140.606  1.00  0.00     0.211 HD
ENDBRANCH   3  24
BRANCH   5  26
ATOM     26  O   UNL     1     132.857 138.856 143.339  1.00  0.00    -0.454 OA
BRANCH  26  27
ATOM     27  C   UNL     1     133.480 140.067 143.734  1.00  0.00     0.214 A 
ATOM     28  C   UNL     1     134.831 140.139 143.934  1.00  0.00     0.180 A 
ATOM     29  C   UNL     1     132.936 141.227 143.259  1.00  0.00     0.239 A 
ATOM     30  O   UNL     1     135.572 140.879 143.136  1.00  0.00    -0.452 OA
ATOM     31  C   UNL     1     133.626 141.892 142.257  1.00  0.00     0.111 A 
ATOM     32  O   UNL     1     131.862 141.630 143.728  1.00  0.00    -0.285 OA
ATOM     33  C   UNL     1     135.018 141.680 142.227  1.00  0.00     0.146 A 
ATOM     34  C   UNL     1     132.955 142.442 141.149  1.00  0.00     0.134 A 
ATOM     35  C   UNL     1     135.750 142.123 141.144  1.00  0.00     0.094 A 
ATOM     36  C   UNL     1     133.706 142.731 139.994  1.00  0.00     0.093 A 
ATOM     37  C   UNL     1     135.104 142.579 139.980  1.00  0.00     0.123 A 
BRANCH  28  38
ATOM     38  C   UNL     1     135.524 139.324 144.985  1.00  0.00     0.025 A 
ATOM     39  C   UNL     1     134.848 138.408 145.870  1.00  0.00     0.062 A 
ATOM     40  C   UNL     1     136.887 139.430 145.196  1.00  0.00     0.016 A 
ATOM     41  C   UNL     1     135.390 137.063 146.128  1.00  0.00     0.158 A 
ATOM     42  C   UNL     1     137.496 138.498 146.039  1.00  0.00     0.051 A 
ATOM     43  C   UNL     1     136.770 137.337 146.399  1.00  0.00     0.157 A 
BRANCH  41  44
ATOM     44  O   UNL     1     134.055 137.557 145.751  1.00  0.00    -0.504 OA
ATOM     45  H   UNL     1     133.819 138.368 145.105  1.00  0.00     0.293 HD
ENDBRANCH  41  44
BRANCH  43  46
ATOM     46  O   UNL     1     137.509 136.255 146.971  1.00  0.00    -0.504 OA
ATOM     47  H   UNL     1     137.981 135.564 146.382  1.00  0.00     0.293 HD
ENDBRANCH  43  46
ENDBRANCH  28  38
BRANCH  34  48
ATOM     48  O   UNL     1     131.558 142.557 141.166  1.00  0.00    -0.507 OA
ATOM     49  H   UNL     1     130.959 141.860 141.544  1.00  0.00     0.293 HD
ENDBRANCH  34  48
BRANCH  37  50
ATOM     50  O   UNL     1     135.809 142.840 138.831  1.00  0.00    -0.508 OA
ATOM     51  H   UNL     1     136.545 143.528 138.810  1.00  0.00     0.293 HD
ENDBRANCH  37  50
ENDBRANCH  26  27
ENDBRANCH   5  26
BRANCH   4  52
ATOM     52  O   UNL     1     132.703 135.914 143.623  1.00  0.00    -0.384 OA
ATOM     53  H   UNL     1     132.653 136.530 144.390  1.00  0.00     0.211 HD
ENDBRANCH   4  52
TORSDOF 16
ENDMDL
MODEL 4
REMARK VINA RESULT:    -7.158      1.847      6.151
REMARK INTER + INTRA:         -14.991
REMARK INTER:                 -10.188
REMARK INTRA:                  -4.803
REMARK UNBOUND:                -3.021
REMARK SMILES C[C@@H]1O[C@H](OC[C@H]2O[C@@H](Oc3c(-c4ccc(O)c(O)c4)oc4cc(O)cc(O)c4c3=O)[C@H](O)[C@H](O)[C@H]2O)[C@@H](O)[C@@H](O)[C@H]1O
REMARK SMILES IDX 7 1 36 2 34 3 32 4 9 5 8 6 6 7 5 8 4 9 1 10 2 11 42 12 3 13
REMARK SMILES IDX 40 14 38 15 43 16 41 18 39 20 37 22 35 24 10 26 11 27 12 28
REMARK SMILES IDX 30 29 21 30 29 31 31 32 22 33 27 34 23 35 26 36 24 37 13 38
REMARK SMILES IDX 20 39 14 40 18 41 15 42 16 43 19 44 17 46 28 48 25 50 33 52
REMARK H PARENT 43 17 41 19 39 21 37 23 35 25 19 45 17 47 28 49 25 51 33 53
REMARK Flexibility Score: inf
ROOT
ATOM      1  C   UNL     1     136.254 131.164 145.758  1.00  0.00     0.180 C 
ATOM      2  C   UNL     1     135.569 130.809 144.381  1.00  0.00     0.177 C 
ATOM      3  C   UNL     1     135.721 131.878 143.318  1.00  0.00     0.180 C 
ATOM      4  C   UNL     1     136.918 132.802 143.579  1.00  0.00     0.214 C 
ATOM      5  C   UNL     1     136.991 133.414 144.996  1.00  0.00     0.339 C 
ATOM      6  O   UNL     1     136.481 132.559 146.046  1.00  0.00    -0.332 OA
ENDROOT
BRANCH   1   7
ATOM      7  C   UNL     1     137.473 130.365 146.172  1.00  0.00     0.198 C 
BRANCH   7   8
ATOM      8  O   UNL     1     138.408 130.216 145.104  1.00  0.00    -0.347 OA
BRANCH   8   9
ATOM      9  C   UNL     1     139.733 130.402 145.541  1.00  0.00     0.281 C 
ATOM     10  C   UNL     1     141.842 127.901 145.095  1.00  0.00     0.041 C 
ATOM     11  C   UNL     1     141.540 128.972 146.200  1.00  0.00     0.150 C 
ATOM     12  C   UNL     1     142.479 130.195 146.070  1.00  0.00     0.174 C 
ATOM     13  O   UNL     1     140.166 129.259 146.289  1.00  0.00    -0.344 OA
ATOM     14  C   UNL     1     142.142 131.057 144.798  1.00  0.00     0.179 C 
ATOM     15  C   UNL     1     140.655 130.871 144.332  1.00  0.00     0.202 C 
BRANCH  12  16
ATOM     16  O   UNL     1     142.374 130.960 147.259  1.00  0.00    -0.388 OA
ATOM     17  H   UNL     1     141.401 130.985 147.552  1.00  0.00     0.211 HD
ENDBRANCH  12  16
BRANCH  14  18
ATOM     18  O   UNL     1     142.463 132.460 144.915  1.00  0.00    -0.387 OA
ATOM     19  H   UNL     1     143.463 132.481 145.065  1.00  0.00     0.211 HD
ENDBRANCH  14  18
BRANCH  15  20
ATOM     20  O   UNL     1     140.210 132.052 143.708  1.00  0.00    -0.385 OA
ATOM     21  H   UNL     1     140.212 132.849 144.348  1.00  0.00     0.211 HD
ENDBRANCH  15  20
ENDBRANCH   8   9
ENDBRANCH   7   8
ENDBRANCH   1   7
BRANCH   2  22
ATOM     22  O   UNL     1     135.938 129.541 143.868  1.00  0.00    -0.387 OA
ATOM     23  H   UNL     1     135.159 129.117 143.495  1.00  0.00     0.211 HD
ENDBRANCH   2  22
BRANCH   3  24
ATOM     24  O   UNL     1     134.532 132.632 143.093  1.00  0.00    -0.387 OA
ATOM     25  H   UNL     1     134.677 133.516 143.645  1.00  0.00     0.211 HD
ENDBRANCH   3  24
BRANCH   5  26
ATOM     26  O   UNL     1     138.366 133.761 145.221  1.00  0.00    -0.454 OA
BRANCH  26  27
ATOM     27  C   UNL     1     138.884 134.461 146.340  1.00  0.00     0.214 A 
ATOM     28  C   UNL     1     138.257 135.570 146.838  1.00  0.00     0.180 A 
ATOM     29  C   UNL     1     139.521 133.720 147.295  1.00  0.00     0.239 A 
ATOM     30  O   UNL     1     137.722 135.534 148.040  1.00  0.00    -0.452 OA
ATOM     31  C   UNL     1     138.850 133.506 148.489  1.00  0.00     0.111 A 
ATOM     32  O   UNL     1     140.650 133.267 147.059  1.00  0.00    -0.285 OA
ATOM     33  C   UNL     1     137.907 134.489 148.847  1.00  0.00     0.146 A 
ATOM     34  C   UNL     1     138.848 132.244 149.111  1.00  0.00     0.134 A 
ATOM     35  C   UNL     1     137.045 134.253 149.898  1.00  0.00     0.094 A 
ATOM     36  C   UNL     1     137.850 131.975 150.067  1.00  0.00     0.093 A 
ATOM     37  C   UNL     1     136.944 132.972 150.471  1.00  0.00     0.123 A 
BRANCH  28  38
ATOM     38  C   UNL     1     138.071 136.812 146.021  1.00  0.00     0.025 A 
ATOM     39  C   UNL     1     138.504 136.949 144.652  1.00  0.00     0.062 A 
ATOM     40  C   UNL     1     137.486 137.946 146.556  1.00  0.00     0.016 A 
ATOM     41  C   UNL     1     137.624 137.551 143.635  1.00  0.00     0.158 A 
ATOM     42  C   UNL     1     137.155 138.988 145.688  1.00  0.00     0.051 A 
ATOM     43  C   UNL     1     137.158 138.734 144.295  1.00  0.00     0.157 A 
BRANCH  41  44
ATOM     44  O   UNL     1     138.416 136.310 143.677  1.00  0.00    -0.504 OA
ATOM     45  H   UNL     1     139.341 136.111 143.192  1.00  0.00     0.293 HD
ENDBRANCH  41  44
BRANCH  43  46
ATOM     46  O   UNL     1     136.504 139.688 143.454  1.00  0.00    -0.504 OA
ATOM     47  H   UNL     1     136.969 140.074 142.628  1.00  0.00     0.293 HD
ENDBRANCH  43  46
ENDBRANCH  28  38
BRANCH  34  48
ATOM     48  O   UNL     1     139.736 131.250 148.676  1.00  0.00    -0.507 OA
ATOM     49  H   UNL     1     140.506 131.433 148.075  1.00  0.00     0.293 HD
ENDBRANCH  34  48
BRANCH  37  50
ATOM     50  O   UNL     1     135.961 132.675 151.381  1.00  0.00    -0.508 OA
ATOM     51  H   UNL     1     135.052 133.107 151.334  1.00  0.00     0.293 HD
ENDBRANCH  37  50
ENDBRANCH  26  27
ENDBRANCH   5  26
BRANCH   4  52
ATOM     52  O   UNL     1     137.029 133.789 142.582  1.00  0.00    -0.384 OA
ATOM     53  H   UNL     1     136.918 134.664 143.021  1.00  0.00     0.211 HD
ENDBRANCH   4  52
TORSDOF 16
ENDMDL
MODEL 5
REMARK VINA RESULT:    -7.138      3.898      8.922
REMARK INTER + INTRA:         -14.958
REMARK INTER:                 -11.691
REMARK INTRA:                  -3.267
REMARK UNBOUND:                -3.021
REMARK SMILES C[C@@H]1O[C@H](OC[C@H]2O[C@@H](Oc3c(-c4ccc(O)c(O)c4)oc4cc(O)cc(O)c4c3=O)[C@H](O)[C@H](O)[C@H]2O)[C@@H](O)[C@@H](O)[C@H]1O
REMARK SMILES IDX 7 1 36 2 34 3 32 4 9 5 8 6 6 7 5 8 4 9 1 10 2 11 42 12 3 13
REMARK SMILES IDX 40 14 38 15 43 16 41 18 39 20 37 22 35 24 10 26 11 27 12 28
REMARK SMILES IDX 30 29 21 30 29 31 31 32 22 33 27 34 23 35 26 36 24 37 13 38
REMARK SMILES IDX 20 39 14 40 18 41 15 42 16 43 19 44 17 46 28 48 25 50 33 52
REMARK H PARENT 43 17 41 19 39 21 37 23 35 25 19 45 17 47 28 49 25 51 33 53
REMARK Flexibility Score: inf
ROOT
ATOM      1  C   UNL     1     133.864 136.516 144.324  1.00  0.00     0.180 C 
ATOM      2  C   UNL     1     132.341 136.185 144.569  1.00  0.00     0.177 C 
ATOM      3  C   UNL     1     132.059 135.494 145.887  1.00  0.00     0.180 C 
ATOM      4  C   UNL     1     133.163 135.735 146.926  1.00  0.00     0.214 C 
ATOM      5  C   UNL     1     134.604 135.450 146.446  1.00  0.00     0.339 C 
ATOM      6  O   UNL     1     134.838 135.734 145.047  1.00  0.00    -0.332 OA
ENDROOT
BRANCH   1   7
ATOM      7  C   UNL     1     134.286 137.971 144.337  1.00  0.00     0.198 C 
BRANCH   7   8
ATOM      8  O   UNL     1     135.042 138.324 143.179  1.00  0.00    -0.347 OA
BRANCH   8   9
ATOM      9  C   UNL     1     134.497 139.442 142.521  1.00  0.00     0.281 C 
ATOM     10  C   UNL     1     131.648 140.644 143.682  1.00  0.00     0.041 C 
ATOM     11  C   UNL     1     132.311 140.396 142.282  1.00  0.00     0.150 C 
ATOM     12  C   UNL     1     132.992 141.678 141.747  1.00  0.00     0.174 C 
ATOM     13  O   UNL     1     133.101 139.232 142.276  1.00  0.00    -0.344 OA
ATOM     14  C   UNL     1     134.285 142.037 142.567  1.00  0.00     0.179 C 
ATOM     15  C   UNL     1     134.908 140.783 143.273  1.00  0.00     0.202 C 
BRANCH  12  16
ATOM     16  O   UNL     1     133.286 141.481 140.374  1.00  0.00    -0.388 OA
ATOM     17  H   UNL     1     132.424 141.540 139.839  1.00  0.00     0.211 HD
ENDBRANCH  12  16
BRANCH  14  18
ATOM     18  O   UNL     1     135.296 142.752 141.822  1.00  0.00    -0.387 OA
ATOM     19  H   UNL     1     135.151 142.469 140.861  1.00  0.00     0.211 HD
ENDBRANCH  14  18
BRANCH  15  20
ATOM     20  O   UNL     1     136.300 140.957 143.394  1.00  0.00    -0.385 OA
ATOM     21  H   UNL     1     136.689 141.489 142.613  1.00  0.00     0.211 HD
ENDBRANCH  15  20
ENDBRANCH   8   9
ENDBRANCH   7   8
ENDBRANCH   1   7
BRANCH   2  22
ATOM     22  O   UNL     1     131.478 137.296 144.394  1.00  0.00    -0.387 OA
ATOM     23  H   UNL     1     131.930 137.960 143.865  1.00  0.00     0.211 HD
ENDBRANCH   2  22
BRANCH   3  24
ATOM     24  O   UNL     1     131.777 134.103 145.753  1.00  0.00    -0.387 OA
ATOM     25  H   UNL     1     131.839 133.730 146.736  1.00  0.00     0.211 HD
ENDBRANCH   3  24
BRANCH   5  26
ATOM     26  O   UNL     1     135.475 136.215 147.292  1.00  0.00    -0.454 OA
BRANCH  26  27
ATOM     27  C   UNL     1     136.889 136.125 147.344  1.00  0.00     0.214 A 
ATOM     28  C   UNL     1     137.520 134.918 147.479  1.00  0.00     0.180 A 
ATOM     29  C   UNL     1     137.597 137.030 146.605  1.00  0.00     0.239 A 
ATOM     30  O   UNL     1     138.264 134.457 146.496  1.00  0.00    -0.452 OA
ATOM     31  C   UNL     1     138.203 136.573 145.446  1.00  0.00     0.111 A 
ATOM     32  O   UNL     1     137.661 138.207 146.987  1.00  0.00    -0.285 OA
ATOM     33  C   UNL     1     138.540 135.205 145.429  1.00  0.00     0.146 A 
ATOM     34  C   UNL     1     138.162 137.320 144.254  1.00  0.00     0.134 A 
ATOM     35  C   UNL     1     138.946 134.619 144.247  1.00  0.00     0.094 A 
ATOM     36  C   UNL     1     138.421 136.654 143.042  1.00  0.00     0.093 A 
ATOM     37  C   UNL     1     138.816 135.305 143.025  1.00  0.00     0.123 A 
BRANCH  28  38
ATOM     38  C   UNL     1     137.320 134.047 148.682  1.00  0.00     0.025 A 
ATOM     39  C   UNL     1     137.032 132.635 148.615  1.00  0.00     0.062 A 
ATOM     40  C   UNL     1     137.366 134.565 149.963  1.00  0.00     0.016 A 
ATOM     41  C   UNL     1     137.735 131.676 149.486  1.00  0.00     0.158 A 
ATOM     42  C   UNL     1     137.381 133.670 151.035  1.00  0.00     0.051 A 
ATOM     43  C   UNL     1     137.639 132.303 150.771  1.00  0.00     0.157 A 
BRANCH  41  44
ATOM     44  O   UNL     1     137.469 131.717 148.038  1.00  0.00    -0.504 OA
ATOM     45  H   UNL     1     136.732 131.176 147.496  1.00  0.00     0.293 HD
ENDBRANCH  41  44
BRANCH  43  46
ATOM     46  O   UNL     1     137.980 131.475 151.885  1.00  0.00    -0.504 OA
ATOM     47  H   UNL     1     137.706 130.489 151.917  1.00  0.00     0.293 HD
ENDBRANCH  43  46
ENDBRANCH  28  38
BRANCH  34  48
ATOM     48  O   UNL     1     137.735 138.655 144.283  1.00  0.00    -0.507 OA
ATOM     49  H   UNL     1     136.933 138.981 143.794  1.00  0.00     0.293 HD
ENDBRANCH  34  48
BRANCH  37  50
ATOM     50  O   UNL     1     139.033 134.670 141.827  1.00  0.00    -0.508 OA
ATOM     51  H   UNL     1     138.702 133.732 141.661  1.00  0.00     0.293 HD
ENDBRANCH  37  50
ENDBRANCH  26  27
ENDBRANCH   5  26
BRANCH   4  52
ATOM     52  O   UNL     1     132.879 135.075 148.137  1.00  0.00    -0.384 OA
ATOM     53  H   UNL     1     133.737 134.928 148.598  1.00  0.00     0.211 HD
ENDBRANCH   4  52
TORSDOF 16
ENDMDL
MODEL 6
REMARK VINA RESULT:    -7.105      4.023      5.538
REMARK INTER + INTRA:         -14.903
REMARK INTER:                 -12.311
REMARK INTRA:                  -2.591
REMARK UNBOUND:                -3.021
REMARK SMILES C[C@@H]1O[C@H](OC[C@H]2O[C@@H](Oc3c(-c4ccc(O)c(O)c4)oc4cc(O)cc(O)c4c3=O)[C@H](O)[C@H](O)[C@H]2O)[C@@H](O)[C@@H](O)[C@H]1O
REMARK SMILES IDX 7 1 36 2 34 3 32 4 9 5 8 6 6 7 5 8 4 9 1 10 2 11 42 12 3 13
REMARK SMILES IDX 40 14 38 15 43 16 41 18 39 20 37 22 35 24 10 26 11 27 12 28
REMARK SMILES IDX 30 29 21 30 29 31 31 32 22 33 27 34 23 35 26 36 24 37 13 38
REMARK SMILES IDX 20 39 14 40 18 41 15 42 16 43 19 44 17 46 28 48 25 50 33 52
REMARK H PARENT 43 17 41 19 39 21 37 23 35 25 19 45 17 47 28 49 25 51 33 53
REMARK Flexibility Score: inf
ROOT
ATOM      1  C   UNL     1     135.998 131.106 144.329  1.00  0.00     0.180 C 
ATOM      2  C   UNL     1     136.965 129.862 144.247  1.00  0.00     0.177 C 
ATOM      3  C   UNL     1     137.910 129.730 145.423  1.00  0.00     0.180 C 
ATOM      4  C   UNL     1     137.402 130.463 146.672  1.00  0.00     0.214 C 
ATOM      5  C   UNL     1     136.983 131.935 146.457  1.00  0.00     0.339 C 
ATOM      6  O   UNL     1     136.409 132.212 145.158  1.00  0.00    -0.332 OA
ENDROOT
BRANCH   1   7
ATOM      7  C   UNL     1     134.521 130.844 144.545  1.00  0.00     0.198 C 
BRANCH   7   8
ATOM      8  O   UNL     1     133.983 129.950 143.572  1.00  0.00    -0.347 OA
BRANCH   8   9
ATOM      9  C   UNL     1     132.791 129.349 144.018  1.00  0.00     0.281 C 
ATOM     10  C   UNL     1     130.279 129.195 141.881  1.00  0.00     0.041 C 
ATOM     11  C   UNL     1     130.476 129.472 143.412  1.00  0.00     0.150 C 
ATOM     12  C   UNL     1     130.248 128.191 144.250  1.00  0.00     0.174 C 
ATOM     13  O   UNL     1     131.670 130.169 143.668  1.00  0.00    -0.344 OA
ATOM     14  C   UNL     1     131.404 127.145 144.042  1.00  0.00     0.179 C 
ATOM     15  C   UNL     1     132.740 127.822 143.575  1.00  0.00     0.202 C 
BRANCH  12  16
ATOM     16  O   UNL     1     130.128 128.570 145.610  1.00  0.00    -0.388 OA
ATOM     17  H   UNL     1     129.356 128.059 146.029  1.00  0.00     0.211 HD
ENDBRANCH  12  16
BRANCH  14  18
ATOM     18  O   UNL     1     131.645 126.277 145.171  1.00  0.00    -0.387 OA
ATOM     19  H   UNL     1     132.342 125.621 144.844  1.00  0.00     0.211 HD
ENDBRANCH  14  18
BRANCH  15  20
ATOM     20  O   UNL     1     133.834 127.064 144.035  1.00  0.00    -0.385 OA
ATOM     21  H   UNL     1     134.715 127.366 143.614  1.00  0.00     0.211 HD
ENDBRANCH  15  20
ENDBRANCH   8   9
ENDBRANCH   7   8
ENDBRANCH   1   7
BRANCH   2  22
ATOM     22  O   UNL     1     136.300 128.635 144.003  1.00  0.00    -0.387 OA
ATOM     23  H   UNL     1     136.956 127.959 143.806  1.00  0.00     0.211 HD
ENDBRANCH   2  22
BRANCH   3  24
ATOM     24  O   UNL     1     139.253 130.106 145.121  1.00  0.00    -0.387 OA
ATOM     25  H   UNL     1     139.831 129.605 145.845  1.00  0.00     0.211 HD
ENDBRANCH   3  24
BRANCH   5  26
ATOM     26  O   UNL     1     136.070 132.260 147.516  1.00  0.00    -0.454 OA
BRANCH  26  27
ATOM     27  C   UNL     1     136.079 133.438 148.304  1.00  0.00     0.214 A 
ATOM     28  C   UNL     1     137.241 133.931 148.832  1.00  0.00     0.180 A 
ATOM     29  C   UNL     1     135.173 134.409 147.979  1.00  0.00     0.239 A 
ATOM     30  O   UNL     1     137.709 135.089 148.416  1.00  0.00    -0.452 OA
ATOM     31  C   UNL     1     135.653 135.542 147.342  1.00  0.00     0.111 A 
ATOM     32  O   UNL     1     133.977 134.238 148.254  1.00  0.00    -0.285 OA
ATOM     33  C   UNL     1     136.999 135.867 147.599  1.00  0.00     0.146 A 
ATOM     34  C   UNL     1     134.968 136.114 146.254  1.00  0.00     0.134 A 
ATOM     35  C   UNL     1     137.619 136.844 146.847  1.00  0.00     0.094 A 
ATOM     36  C   UNL     1     135.678 136.984 145.404  1.00  0.00     0.093 A 
ATOM     37  C   UNL     1     137.003 137.358 145.691  1.00  0.00     0.123 A 
BRANCH  28  38
ATOM     38  C   UNL     1     138.062 133.150 149.813  1.00  0.00     0.025 A 
ATOM     39  C   UNL     1     137.512 132.444 150.944  1.00  0.00     0.062 A 
ATOM     40  C   UNL     1     139.440 133.084 149.708  1.00  0.00     0.016 A 
ATOM     41  C   UNL     1     137.945 131.073 151.266  1.00  0.00     0.158 A 
ATOM     42  C   UNL     1     140.120 132.176 150.522  1.00  0.00     0.051 A 
ATOM     43  C   UNL     1     139.372 131.177 151.191  1.00  0.00     0.157 A 
BRANCH  41  44
ATOM     44  O   UNL     1     136.623 131.706 151.120  1.00  0.00    -0.504 OA
ATOM     45  H   UNL     1     136.285 132.616 151.554  1.00  0.00     0.293 HD
ENDBRANCH  41  44
BRANCH  43  46
ATOM     46  O   UNL     1     140.097 130.073 151.738  1.00  0.00    -0.504 OA
ATOM     47  H   UNL     1     140.988 129.772 151.335  1.00  0.00     0.293 HD
ENDBRANCH  43  46
ENDBRANCH  28  38
BRANCH  34  48
ATOM     48  O   UNL     1     133.660 135.707 145.961  1.00  0.00    -0.507 OA
ATOM     49  H   UNL     1     133.369 134.756 145.973  1.00  0.00     0.293 HD
ENDBRANCH  34  48
BRANCH  37  50
ATOM     50  O   UNL     1     137.683 138.183 144.831  1.00  0.00    -0.508 OA
ATOM     51  H   UNL     1     138.108 137.830 143.988  1.00  0.00     0.293 HD
ENDBRANCH  37  50
ENDBRANCH  26  27
ENDBRANCH   5  26
BRANCH   4  52
ATOM     52  O   UNL     1     138.303 130.332 147.745  1.00  0.00    -0.384 OA
ATOM     53  H   UNL     1     139.144 129.972 147.379  1.00  0.00     0.211 HD
ENDBRANCH   4  52
TORSDOF 16
ENDMDL
MODEL 7
REMARK VINA RESULT:    -7.089      2.907      8.611
REMARK INTER + INTRA:         -14.876
REMARK INTER:                 -12.362
REMARK INTRA:                  -2.514
REMARK UNBOUND:                -3.021
REMARK SMILES C[C@@H]1O[C@H](OC[C@H]2O[C@@H](Oc3c(-c4ccc(O)c(O)c4)oc4cc(O)cc(O)c4c3=O)[C@H](O)[C@H](O)[C@H]2O)[C@@H](O)[C@@H](O)[C@H]1O
REMARK SMILES IDX 7 1 36 2 34 3 32 4 9 5 8 6 6 7 5 8 4 9 1 10 2 11 42 12 3 13
REMARK SMILES IDX 40 14 38 15 43 16 41 18 39 20 37 22 35 24 10 26 11 27 12 28
REMARK SMILES IDX 30 29 21 30 29 31 31 32 22 33 27 34 23 35 26 36 24 37 13 38
REMARK SMILES IDX 20 39 14 40 18 41 15 42 16 43 19 44 17 46 28 48 25 50 33 52
REMARK H PARENT 43 17 41 19 39 21 37 23 35 25 19 45 17 47 28 49 25 51 33 53
REMARK Flexibility Score: inf
ROOT
ATOM      1  C   UNL     1     135.925 135.875 145.821  1.00  0.00     0.180 C 
ATOM      2  C   UNL     1     134.671 136.139 146.741  1.00  0.00     0.177 C 
ATOM      3  C   UNL     1     134.452 135.089 147.810  1.00  0.00     0.180 C 
ATOM      4  C   UNL     1     135.732 134.310 148.142  1.00  0.00     0.214 C 
ATOM      5  C   UNL     1     136.487 133.720 146.930  1.00  0.00     0.339 C 
ATOM      6  O   UNL     1     136.403 134.517 145.725  1.00  0.00    -0.332 OA
ENDROOT
BRANCH   1   7
ATOM      7  C   UNL     1     137.110 136.811 145.948  1.00  0.00     0.198 C 
BRANCH   7   8
ATOM      8  O   UNL     1     137.851 136.912 144.732  1.00  0.00    -0.347 OA
BRANCH   8   9
ATOM      9  C   UNL     1     137.316 137.893 143.876  1.00  0.00     0.281 C 
ATOM     10  C   UNL     1     134.028 138.181 143.766  1.00  0.00     0.041 C 
ATOM     11  C   UNL     1     135.226 138.238 142.755  1.00  0.00     0.150 C 
ATOM     12  C   UNL     1     135.673 139.695 142.493  1.00  0.00     0.174 C 
ATOM     13  O   UNL     1     136.247 137.335 143.102  1.00  0.00    -0.344 OA
ATOM     14  C   UNL     1     136.385 140.322 143.748  1.00  0.00     0.179 C 
ATOM     15  C   UNL     1     137.007 139.227 144.685  1.00  0.00     0.202 C 
BRANCH  12  16
ATOM     16  O   UNL     1     136.522 139.700 141.358  1.00  0.00    -0.388 OA
ATOM     17  H   UNL     1     136.035 140.140 140.583  1.00  0.00     0.211 HD
ENDBRANCH  12  16
BRANCH  14  18
ATOM     18  O   UNL     1     137.362 141.341 143.444  1.00  0.00    -0.387 OA
ATOM     19  H   UNL     1     137.420 141.345 142.434  1.00  0.00     0.211 HD
ENDBRANCH  14  18
BRANCH  15  20
ATOM     20  O   UNL     1     138.132 139.760 145.344  1.00  0.00    -0.385 OA
ATOM     21  H   UNL     1     137.938 140.676 145.754  1.00  0.00     0.211 HD
ENDBRANCH  15  20
ENDBRANCH   8   9
ENDBRANCH   7   8
ENDBRANCH   1   7
BRANCH   2  22
ATOM     22  O   UNL     1     134.639 137.439 147.305  1.00  0.00    -0.387 OA
ATOM     23  H   UNL     1     133.737 137.773 147.265  1.00  0.00     0.211 HD
ENDBRANCH   2  22
BRANCH   3  24
ATOM     24  O   UNL     1     133.373 134.201 147.525  1.00  0.00    -0.387 OA
ATOM     25  H   UNL     1     133.468 133.438 148.244  1.00  0.00     0.211 HD
ENDBRANCH   3  24
BRANCH   5  26
ATOM     26  O   UNL     1     137.848 133.536 147.346  1.00  0.00    -0.454 OA
BRANCH  26  27
ATOM     27  C   UNL     1     138.564 132.312 147.364  1.00  0.00     0.214 A 
ATOM     28  C   UNL     1     139.925 132.283 147.230  1.00  0.00     0.180 A 
ATOM     29  C   UNL     1     138.073 131.318 148.163  1.00  0.00     0.239 A 
ATOM     30  O   UNL     1     140.673 131.884 148.237  1.00  0.00    -0.452 OA
ATOM     31  C   UNL     1     138.756 131.050 149.340  1.00  0.00     0.111 A 
ATOM     32  O   UNL     1     137.050 130.711 147.818  1.00  0.00    -0.285 OA
ATOM     33  C   UNL     1     140.129 131.364 149.337  1.00  0.00     0.146 A 
ATOM     34  C   UNL     1     138.071 130.822 150.548  1.00  0.00     0.134 A 
ATOM     35  C   UNL     1     140.836 131.335 150.522  1.00  0.00     0.094 A 
ATOM     36  C   UNL     1     138.784 130.961 151.753  1.00  0.00     0.093 A 
ATOM     37  C   UNL     1     140.166 131.214 151.754  1.00  0.00     0.123 A 
BRANCH  28  38
ATOM     38  C   UNL     1     140.613 132.782 145.995  1.00  0.00     0.025 A 
ATOM     39  C   UNL     1     139.922 133.316 144.847  1.00  0.00     0.062 A 
ATOM     40  C   UNL     1     141.989 132.727 145.865  1.00  0.00     0.016 A 
ATOM     41  C   UNL     1     140.382 134.552 144.192  1.00  0.00     0.158 A 
ATOM     42  C   UNL     1     142.575 133.395 144.788  1.00  0.00     0.051 A 
ATOM     43  C   UNL     1     141.790 134.322 144.059  1.00  0.00     0.157 A 
BRANCH  41  44
ATOM     44  O   UNL     1     139.067 134.093 144.670  1.00  0.00    -0.504 OA
ATOM     45  H   UNL     1     138.123 134.213 144.196  1.00  0.00     0.293 HD
ENDBRANCH  41  44
BRANCH  43  46
ATOM     46  O   UNL     1     142.481 135.227 143.195  1.00  0.00    -0.504 OA
ATOM     47  H   UNL     1     143.347 135.686 143.489  1.00  0.00     0.293 HD
ENDBRANCH  43  46
ENDBRANCH  28  38
BRANCH  34  48
ATOM     48  O   UNL     1     136.686 130.602 150.533  1.00  0.00    -0.507 OA
ATOM     49  H   UNL     1     136.264 129.817 150.094  1.00  0.00     0.293 HD
ENDBRANCH  34  48
BRANCH  37  50
ATOM     50  O   UNL     1     140.832 131.376 152.943  1.00  0.00    -0.508 OA
ATOM     51  H   UNL     1     140.340 131.413 153.822  1.00  0.00     0.293 HD
ENDBRANCH  37  50
ENDBRANCH  26  27
ENDBRANCH   5  26
BRANCH   4  52
ATOM     52  O   UNL     1     135.497 133.337 149.131  1.00  0.00    -0.384 OA
ATOM     53  H   UNL     1     136.334 133.228 149.639  1.00  0.00     0.211 HD
ENDBRANCH   4  52
TORSDOF 16
ENDMDL
MODEL 8
REMARK VINA RESULT:    -7.064      1.836      4.492
REMARK INTER + INTRA:         -14.835
REMARK INTER:                 -11.096
REMARK INTRA:                  -3.738
REMARK UNBOUND:                -3.021
REMARK SMILES C[C@@H]1O[C@H](OC[C@H]2O[C@@H](Oc3c(-c4ccc(O)c(O)c4)oc4cc(O)cc(O)c4c3=O)[C@H](O)[C@H](O)[C@H]2O)[C@@H](O)[C@@H](O)[C@H]1O
REMARK SMILES IDX 7 1 36 2 34 3 32 4 9 5 8 6 6 7 5 8 4 9 1 10 2 11 42 12 3 13
REMARK SMILES IDX 40 14 38 15 43 16 41 18 39 20 37 22 35 24 10 26 11 27 12 28
REMARK SMILES IDX 30 29 21 30 29 31 31 32 22 33 27 34 23 35 26 36 24 37 13 38
REMARK SMILES IDX 20 39 14 40 18 41 15 42 16 43 19 44 17 46 28 48 25 50 33 52
REMARK H PARENT 43 17 41 19 39 21 37 23 35 25 19 45 17 47 28 49 25 51 33 53
REMARK Flexibility Score: inf
ROOT
ATOM      1  C   UNL     1     140.672 128.685 145.909  1.00  0.00     0.180 C 
ATOM      2  C   UNL     1     140.020 127.814 144.766  1.00  0.00     0.177 C 
ATOM      3  C   UNL     1     138.538 128.057 144.569  1.00  0.00     0.180 C 
ATOM      4  C   UNL     1     138.088 129.424 145.102  1.00  0.00     0.214 C 
ATOM      5  C   UNL     1     138.517 129.749 146.550  1.00  0.00     0.339 C 
ATOM      6  O   UNL     1     139.796 129.195 146.936  1.00  0.00    -0.332 OA
ENDROOT
BRANCH   1   7
ATOM      7  C   UNL     1     141.650 129.770 145.506  1.00  0.00     0.198 C 
BRANCH   7   8
ATOM      8  O   UNL     1     141.204 130.502 144.365  1.00  0.00    -0.347 OA
BRANCH   8   9
ATOM      9  C   UNL     1     141.619 131.845 144.413  1.00  0.00     0.281 C 
ATOM     10  C   UNL     1     143.052 133.086 141.708  1.00  0.00     0.041 C 
ATOM     11  C   UNL     1     143.242 133.183 143.262  1.00  0.00     0.150 C 
ATOM     12  C   UNL     1     142.536 134.432 143.840  1.00  0.00     0.174 C 
ATOM     13  O   UNL     1     142.952 131.963 143.902  1.00  0.00    -0.344 OA
ATOM     14  C   UNL     1     140.970 134.291 143.795  1.00  0.00     0.179 C 
ATOM     15  C   UNL     1     140.510 132.791 143.774  1.00  0.00     0.202 C 
BRANCH  12  16
ATOM     16  O   UNL     1     143.002 134.631 145.164  1.00  0.00    -0.388 OA
ATOM     17  H   UNL     1     142.524 135.431 145.566  1.00  0.00     0.211 HD
ENDBRANCH  12  16
BRANCH  14  18
ATOM     18  O   UNL     1     140.267 135.021 144.825  1.00  0.00    -0.387 OA
ATOM     19  H   UNL     1     140.960 135.175 145.545  1.00  0.00     0.211 HD
ENDBRANCH  14  18
BRANCH  15  20
ATOM     20  O   UNL     1     139.250 132.680 144.392  1.00  0.00    -0.385 OA
ATOM     21  H   UNL     1     138.559 132.241 143.780  1.00  0.00     0.211 HD
ENDBRANCH  15  20
ENDBRANCH   8   9
ENDBRANCH   7   8
ENDBRANCH   1   7
BRANCH   2  22
ATOM     22  O   UNL     1     140.706 127.888 143.528  1.00  0.00    -0.387 OA
ATOM     23  H   UNL     1     140.796 127.000 143.169  1.00  0.00     0.211 HD
ENDBRANCH   2  22
BRANCH   3  24
ATOM     24  O   UNL     1     137.715 127.012 145.085  1.00  0.00    -0.387 OA
ATOM     25  H   UNL     1     137.089 126.753 144.279  1.00  0.00     0.211 HD
ENDBRANCH   3  24
BRANCH   5  26
ATOM     26  O   UNL     1     138.505 131.179 146.669  1.00  0.00    -0.454 OA
BRANCH  26  27
ATOM     27  C   UNL     1     137.625 131.950 147.469  1.00  0.00     0.214 A 
ATOM     28  C   UNL     1     138.078 132.641 148.560  1.00  0.00     0.180 A 
ATOM     29  C   UNL     1     136.580 132.559 146.833  1.00  0.00     0.239 A 
ATOM     30  O   UNL     1     138.045 133.957 148.559  1.00  0.00    -0.452 OA
ATOM     31  C   UNL     1     136.658 133.930 146.646  1.00  0.00     0.111 A 
ATOM     32  O   UNL     1     135.623 131.873 146.447  1.00  0.00    -0.285 OA
ATOM     33  C   UNL     1     137.444 134.633 147.580  1.00  0.00     0.146 A 
ATOM     34  C   UNL     1     136.284 134.524 145.426  1.00  0.00     0.134 A 
ATOM     35  C   UNL     1     137.753 135.958 147.349  1.00  0.00     0.094 A 
ATOM     36  C   UNL     1     136.754 135.821 145.147  1.00  0.00     0.093 A 
ATOM     37  C   UNL     1     137.487 136.549 146.100  1.00  0.00     0.123 A 
BRANCH  28  38
ATOM     38  C   UNL     1     138.702 131.952 149.735  1.00  0.00     0.025 A 
ATOM     39  C   UNL     1     139.883 131.128 149.652  1.00  0.00     0.062 A 
ATOM     40  C   UNL     1     138.149 132.040 151.000  1.00  0.00     0.016 A 
ATOM     41  C   UNL     1     140.972 131.263 150.635  1.00  0.00     0.158 A 
ATOM     42  C   UNL     1     138.891 131.552 152.078  1.00  0.00     0.051 A 
ATOM     43  C   UNL     1     140.263 131.265 151.879  1.00  0.00     0.157 A 
BRANCH  41  44
ATOM     44  O   UNL     1     140.940 131.225 149.162  1.00  0.00    -0.504 OA
ATOM     45  H   UNL     1     140.105 131.384 148.525  1.00  0.00     0.293 HD
ENDBRANCH  41  44
BRANCH  43  46
ATOM     46  O   UNL     1     141.071 131.094 153.046  1.00  0.00    -0.504 OA
ATOM     47  H   UNL     1     140.700 130.645 153.887  1.00  0.00     0.293 HD
ENDBRANCH  43  46
ENDBRANCH  28  38
BRANCH  34  48
ATOM     48  O   UNL     1     135.582 133.775 144.472  1.00  0.00    -0.507 OA
ATOM     49  H   UNL     1     135.970 133.506 143.598  1.00  0.00     0.293 HD
ENDBRANCH  34  48
BRANCH  37  50
ATOM     50  O   UNL     1     137.960 137.800 145.792  1.00  0.00    -0.508 OA
ATOM     51  H   UNL     1     138.070 138.101 144.836  1.00  0.00     0.293 HD
ENDBRANCH  37  50
ENDBRANCH  26  27
ENDBRANCH   5  26
BRANCH   4  52
ATOM     52  O   UNL     1     136.707 129.618 144.913  1.00  0.00    -0.384 OA
ATOM     53  H   UNL     1     136.304 128.731 144.765  1.00  0.00     0.211 HD
ENDBRANCH   4  52
TORSDOF 16
ENDMDL
MODEL 9
REMARK VINA RESULT:    -7.047      1.974      5.974
REMARK INTER + INTRA:         -14.806
REMARK INTER:                 -11.584
REMARK INTRA:                  -3.223
REMARK UNBOUND:                -3.021
REMARK SMILES C[C@@H]1O[C@H](OC[C@H]2O[C@@H](Oc3c(-c4ccc(O)c(O)c4)oc4cc(O)cc(O)c4c3=O)[C@H](O)[C@H](O)[C@H]2O)[C@@H](O)[C@@H](O)[C@H]1O
REMARK SMILES IDX 7 1 36 2 34 3 32 4 9 5 8 6 6 7 5 8 4 9 1 10 2 11 42 12 3 13
REMARK SMILES IDX 40 14 38 15 43 16 41 18 39 20 37 22 35 24 10 26 11 27 12 28
REMARK SMILES IDX 30 29 21 30 29 31 31 32 22 33 27 34 23 35 26 36 24 37 13 38
REMARK SMILES IDX 20 39 14 40 18 41 15 42 16 43 19 44 17 46 28 48 25 50 33 52
REMARK H PARENT 43 17 41 19 39 21 37 23 35 25 19 45 17 47 28 49 25 51 33 53
REMARK Flexibility Score: inf
ROOT
ATOM      1  C   UNL     1     136.496 131.103 145.490  1.00  0.00     0.180 C 
ATOM      2  C   UNL     1     135.525 130.789 144.286  1.00  0.00     0.177 C 
ATOM      3  C   UNL     1     135.014 132.018 143.563  1.00  0.00     0.180 C 
ATOM      4  C   UNL     1     135.921 133.240 143.765  1.00  0.00     0.214 C 
ATOM      5  C   UNL     1     136.281 133.568 145.232  1.00  0.00     0.339 C 
ATOM      6  O   UNL     1     136.405 132.411 146.092  1.00  0.00    -0.332 OA
ENDROOT
BRANCH   1   7
ATOM      7  C   UNL     1     137.956 130.723 145.344  1.00  0.00     0.198 C 
BRANCH   7   8
ATOM      8  O   UNL     1     138.315 129.628 146.186  1.00  0.00    -0.347 OA
BRANCH   8   9
ATOM      9  C   UNL     1     139.053 128.654 145.488  1.00  0.00     0.281 C 
ATOM     10  C   UNL     1     139.241 128.959 142.205  1.00  0.00     0.041 C 
ATOM     11  C   UNL     1     139.081 127.799 143.249  1.00  0.00     0.150 C 
ATOM     12  C   UNL     1     140.443 127.145 143.577  1.00  0.00     0.174 C 
ATOM     13  O   UNL     1     138.306 128.194 144.355  1.00  0.00    -0.344 OA
ATOM     14  C   UNL     1     141.363 128.104 144.419  1.00  0.00     0.179 C 
ATOM     15  C   UNL     1     140.535 129.168 145.220  1.00  0.00     0.202 C 
BRANCH  12  16
ATOM     16  O   UNL     1     140.196 125.929 144.262  1.00  0.00    -0.388 OA
ATOM     17  H   UNL     1     141.073 125.427 144.373  1.00  0.00     0.211 HD
ENDBRANCH  12  16
BRANCH  14  18
ATOM     18  O   UNL     1     142.301 127.433 145.289  1.00  0.00    -0.387 OA
ATOM     19  H   UNL     1     141.911 126.509 145.420  1.00  0.00     0.211 HD
ENDBRANCH  14  18
BRANCH  15  20
ATOM     20  O   UNL     1     141.231 129.516 146.394  1.00  0.00    -0.385 OA
ATOM     21  H   UNL     1     141.043 128.865 147.159  1.00  0.00     0.211 HD
ENDBRANCH  15  20
ENDBRANCH   8   9
ENDBRANCH   7   8
ENDBRANCH   1   7
BRANCH   2  22
ATOM     22  O   UNL     1     136.045 129.848 143.363  1.00  0.00    -0.387 OA
ATOM     23  H   UNL     1     135.596 129.959 142.519  1.00  0.00     0.211 HD
ENDBRANCH   2  22
BRANCH   3  24
ATOM     24  O   UNL     1     133.656 132.333 143.864  1.00  0.00    -0.387 OA
ATOM     25  H   UNL     1     133.111 131.925 143.061  1.00  0.00     0.211 HD
ENDBRANCH   3  24
BRANCH   5  26
ATOM     26  O   UNL     1     137.498 134.328 145.194  1.00  0.00    -0.454 OA
BRANCH  26  27
ATOM     27  C   UNL     1     138.151 134.926 146.301  1.00  0.00     0.214 A 
ATOM     28  C   UNL     1     137.510 135.834 147.099  1.00  0.00     0.180 A 
ATOM     29  C   UNL     1     139.065 134.162 146.970  1.00  0.00     0.239 A 
ATOM     30  O   UNL     1     137.253 135.534 148.354  1.00  0.00    -0.452 OA
ATOM     31  C   UNL     1     138.696 133.668 148.212  1.00  0.00     0.111 A 
ATOM     32  O   UNL     1     140.165 133.935 146.447  1.00  0.00    -0.285 OA
ATOM     33  C   UNL     1     137.734 134.423 148.911  1.00  0.00     0.146 A 
ATOM     34  C   UNL     1     138.985 132.342 148.587  1.00  0.00     0.134 A 
ATOM     35  C   UNL     1     137.153 133.898 150.047  1.00  0.00     0.094 A 
ATOM     36  C   UNL     1     138.255 131.778 149.650  1.00  0.00     0.093 A 
ATOM     37  C   UNL     1     137.338 132.546 150.389  1.00  0.00     0.123 A 
BRANCH  28  38
ATOM     38  C   UNL     1     136.999 137.139 146.567  1.00  0.00     0.025 A 
ATOM     39  C   UNL     1     137.813 138.320 146.411  1.00  0.00     0.062 A 
ATOM     40  C   UNL     1     135.671 137.304 146.216  1.00  0.00     0.016 A 
ATOM     41  C   UNL     1     137.748 139.128 145.181  1.00  0.00     0.158 A 
ATOM     42  C   UNL     1     135.311 138.470 145.537  1.00  0.00     0.051 A 
ATOM     43  C   UNL     1     136.336 139.277 144.987  1.00  0.00     0.157 A 
BRANCH  41  44
ATOM     44  O   UNL     1     138.863 138.560 145.957  1.00  0.00    -0.504 OA
ATOM     45  H   UNL     1     139.423 139.026 146.730  1.00  0.00     0.293 HD
ENDBRANCH  41  44
BRANCH  43  46
ATOM     46  O   UNL     1     135.949 140.262 144.026  1.00  0.00    -0.504 OA
ATOM     47  H   UNL     1     135.807 140.017 143.043  1.00  0.00     0.293 HD
ENDBRANCH  43  46
ENDBRANCH  28  38
BRANCH  34  48
ATOM     48  O   UNL     1     139.876 131.579 147.820  1.00  0.00    -0.507 OA
ATOM     49  H   UNL     1     140.853 131.760 147.781  1.00  0.00     0.293 HD
ENDBRANCH  34  48
BRANCH  37  50
ATOM     50  O   UNL     1     136.617 131.964 151.402  1.00  0.00    -0.508 OA
ATOM     51  H   UNL     1     135.910 131.270 151.214  1.00  0.00     0.293 HD
ENDBRANCH  37  50
ENDBRANCH  26  27
ENDBRANCH   5  26
BRANCH   4  52
ATOM     52  O   UNL     1     135.417 134.368 143.090  1.00  0.00    -0.384 OA
ATOM     53  H   UNL     1     135.754 134.330 142.165  1.00  0.00     0.211 HD
ENDBRANCH   4  52
TORSDOF 16
ENDMDL
