MODEL 1
REMARK VINA RESULT:    -4.369      0.000      0.000
REMARK INTER + INTRA:          -8.343
REMARK INTER:                  -7.944
REMARK INTRA:                  -0.399
REMARK UNBOUND:                -0.399
REMARK SMILES CCCCCCCCCCCCCCCC(=O)[O-]
REMARK SMILES IDX 9 1 10 2 11 3 12 4 13 5 14 6 15 7 16 8 17 9 18 10 8 11 7 12
REMARK SMILES IDX 6 13 5 14 4 15 3 16 2 17 1 18
REMARK H PARENT
REMARK Flexibility Score: inf
ROOT
ATOM      1  C   UNL     1     -30.957 -18.742  12.970  1.00  0.00     0.000 C 
ENDROOT
BRANCH   1   2
ATOM      2  C   UNL     1     -30.469 -17.553  13.815  1.00  0.00     0.000 C 
BRANCH   2   3
ATOM      3  C   UNL     1     -30.882 -16.196  13.219  1.00  0.00     0.000 C 
BRANCH   3   4
ATOM      4  C   UNL     1     -30.124 -15.017  13.846  1.00  0.00     0.000 C 
BRANCH   4   5
ATOM      5  C   UNL     1     -31.094 -14.054  14.547  1.00  0.00     0.000 C 
BRANCH   5   6
ATOM      6  C   UNL     1     -31.120 -12.656  13.902  1.00  0.00     0.006 C 
BRANCH   6   7
ATOM      7  C   UNL     1     -30.530 -12.604  12.483  1.00  0.00     0.053 C 
BRANCH   7   8
ATOM      8  C   UNL     1     -29.948 -11.262  12.166  1.00  0.00     0.041 C 
ATOM      9  O   UNL     1     -28.931 -11.169  11.429  1.00  0.00    -0.550 OA
ATOM     10  O   UNL     1     -30.508 -10.114  12.712  1.00  0.00    -0.550 OA
ENDBRANCH   7   8
ENDBRANCH   6   7
ENDBRANCH   5   6
ENDBRANCH   4   5
ENDBRANCH   3   4
ENDBRANCH   2   3
ENDBRANCH   1   2
BRANCH   1  11
ATOM     11  C   UNL     1     -30.880 -20.075  13.730  1.00  0.00     0.000 C 
BRANCH  11  12
ATOM     12  C   UNL     1     -30.531 -21.262  12.814  1.00  0.00    -0.000 C 
BRANCH  12  13
ATOM     13  C   UNL     1     -31.117 -22.590  13.319  1.00  0.00    -0.000 C 
BRANCH  13  14
ATOM     14  C   UNL     1     -30.753 -22.878  14.785  1.00  0.00    -0.000 C 
BRANCH  14  15
ATOM     15  C   UNL     1     -31.005 -24.352  15.168  1.00  0.00    -0.000 C 
BRANCH  15  16
ATOM     16  C   UNL     1     -29.964 -24.921  16.148  1.00  0.00    -0.000 C 
BRANCH  16  17
ATOM     17  C   UNL     1     -30.179 -26.410  16.450  1.00  0.00    -0.003 C 
ATOM     18  C   UNL     1     -30.019 -26.698  17.940  1.00  0.00     0.004 C 
ENDBRANCH  16  17
ENDBRANCH  15  16
ENDBRANCH  14  15
ENDBRANCH  13  14
ENDBRANCH  12  13
ENDBRANCH  11  12
ENDBRANCH   1  11
TORSDOF 14
ENDMDL
MODEL 2
REMARK VINA RESULT:    -3.947     18.029     20.253
REMARK INTER + INTRA:          -7.577
REMARK INTER:                  -6.029
REMARK INTRA:                  -1.547
REMARK UNBOUND:                -0.399
REMARK SMILES CCCCCCCCCCCCCCCC(=O)[O-]
REMARK SMILES IDX 9 1 10 2 11 3 12 4 13 5 14 6 15 7 16 8 17 9 18 10 8 11 7 12
REMARK SMILES IDX 6 13 5 14 4 15 3 16 2 17 1 18
REMARK H PARENT
REMARK Flexibility Score: inf
ROOT
ATOM      1  C   UNL     1     -13.082 -20.396  22.962  1.00  0.00     0.000 C 
ENDROOT
BRANCH   1   2
ATOM      2  C   UNL     1     -12.907 -21.393  24.119  1.00  0.00     0.000 C 
BRANCH   2   3
ATOM      3  C   UNL     1     -14.236 -21.725  24.819  1.00  0.00     0.000 C 
BRANCH   3   4
ATOM      4  C   UNL     1     -14.615 -23.209  24.701  1.00  0.00     0.000 C 
BRANCH   4   5
ATOM      5  C   UNL     1     -15.690 -23.414  23.623  1.00  0.00     0.000 C 
BRANCH   5   6
ATOM      6  C   UNL     1     -17.102 -23.032  24.105  1.00  0.00     0.006 C 
BRANCH   6   7
ATOM      7  C   UNL     1     -18.024 -24.233  24.372  1.00  0.00     0.053 C 
BRANCH   7   8
ATOM      8  C   UNL     1     -18.785 -24.082  25.653  1.00  0.00     0.041 C 
ATOM      9  O   UNL     1     -18.949 -22.943  26.163  1.00  0.00    -0.550 OA
ATOM     10  O   UNL     1     -19.284 -25.204  26.302  1.00  0.00    -0.550 OA
ENDBRANCH   7   8
ENDBRANCH   6   7
ENDBRANCH   5   6
ENDBRANCH   4   5
ENDBRANCH   3   4
ENDBRANCH   2   3
ENDBRANCH   1   2
BRANCH   1  11
ATOM     11  C   UNL     1     -13.652 -21.055  21.696  1.00  0.00     0.000 C 
BRANCH  11  12
ATOM     12  C   UNL     1     -12.915 -22.353  21.320  1.00  0.00    -0.000 C 
BRANCH  12  13
ATOM     13  C   UNL     1     -13.020 -22.678  19.822  1.00  0.00    -0.000 C 
BRANCH  13  14
ATOM     14  C   UNL     1     -13.369 -21.445  18.971  1.00  0.00    -0.000 C 
BRANCH  14  15
ATOM     15  C   UNL     1     -12.189 -21.001  18.080  1.00  0.00    -0.000 C 
BRANCH  15  16
ATOM     16  C   UNL     1     -11.644 -19.606  18.430  1.00  0.00    -0.000 C 
BRANCH  16  17
ATOM     17  C   UNL     1     -12.707 -18.687  19.047  1.00  0.00    -0.003 C 
ATOM     18  C   UNL     1     -12.171 -17.980  20.288  1.00  0.00     0.004 C 
ENDBRANCH  16  17
ENDBRANCH  15  16
ENDBRANCH  14  15
ENDBRANCH  13  14
ENDBRANCH  12  13
ENDBRANCH  11  12
ENDBRANCH   1  11
TORSDOF 14
ENDMDL
MODEL 3
REMARK VINA RESULT:    -3.874     18.319     20.857
REMARK INTER + INTRA:          -7.444
REMARK INTER:                  -6.721
REMARK INTRA:                  -0.723
REMARK UNBOUND:                -0.399
REMARK SMILES CCCCCCCCCCCCCCCC(=O)[O-]
REMARK SMILES IDX 9 1 10 2 11 3 12 4 13 5 14 6 15 7 16 8 17 9 18 10 8 11 7 12
REMARK SMILES IDX 6 13 5 14 4 15 3 16 2 17 1 18
REMARK H PARENT
REMARK Flexibility Score: inf
ROOT
ATOM      1  C   UNL     1     -12.383 -15.787  14.168  1.00  0.00     0.000 C 
ENDROOT
BRANCH   1   2
ATOM      2  C   UNL     1     -11.560 -16.632  15.154  1.00  0.00     0.000 C 
BRANCH   2   3
ATOM      3  C   UNL     1     -11.073 -15.820  16.366  1.00  0.00     0.000 C 
BRANCH   3   4
ATOM      4  C   UNL     1     -11.070 -16.638  17.667  1.00  0.00     0.000 C 
BRANCH   4   5
ATOM      5  C   UNL     1     -12.051 -17.816  17.574  1.00  0.00     0.000 C 
BRANCH   5   6
ATOM      6  C   UNL     1     -12.460 -18.365  18.953  1.00  0.00     0.006 C 
BRANCH   6   7
ATOM      7  C   UNL     1     -12.114 -19.847  19.171  1.00  0.00     0.053 C 
BRANCH   7   8
ATOM      8  C   UNL     1     -13.321 -20.660  19.521  1.00  0.00     0.041 C 
ATOM      9  O   UNL     1     -13.702 -21.591  18.764  1.00  0.00    -0.550 OA
ATOM     10  O   UNL     1     -14.047 -20.367  20.669  1.00  0.00    -0.550 OA
ENDBRANCH   7   8
ENDBRANCH   6   7
ENDBRANCH   5   6
ENDBRANCH   4   5
ENDBRANCH   3   4
ENDBRANCH   2   3
ENDBRANCH   1   2
BRANCH   1  11
ATOM     11  C   UNL     1     -12.327 -14.285  14.489  1.00  0.00     0.000 C 
BRANCH  11  12
ATOM     12  C   UNL     1     -11.895 -13.435  13.281  1.00  0.00    -0.000 C 
BRANCH  12  13
ATOM     13  C   UNL     1     -11.689 -14.275  12.012  1.00  0.00    -0.000 C 
BRANCH  13  14
ATOM     14  C   UNL     1     -11.353 -13.416  10.781  1.00  0.00    -0.000 C 
BRANCH  14  15
ATOM     15  C   UNL     1     -12.454 -12.377  10.479  1.00  0.00    -0.000 C 
BRANCH  15  16
ATOM     16  C   UNL     1     -12.511 -11.951   9.002  1.00  0.00    -0.000 C 
BRANCH  16  17
ATOM     17  C   UNL     1     -13.912 -12.092   8.393  1.00  0.00    -0.003 C 
ATOM     18  C   UNL     1     -14.793 -10.901   8.758  1.00  0.00     0.004 C 
ENDBRANCH  16  17
ENDBRANCH  15  16
ENDBRANCH  14  15
ENDBRANCH  13  14
ENDBRANCH  12  13
ENDBRANCH  11  12
ENDBRANCH   1  11
TORSDOF 14
ENDMDL
MODEL 4
REMARK VINA RESULT:    -3.858     18.373     20.244
REMARK INTER + INTRA:          -7.414
REMARK INTER:                  -6.103
REMARK INTRA:                  -1.311
REMARK UNBOUND:                -0.399
REMARK SMILES CCCCCCCCCCCCCCCC(=O)[O-]
REMARK SMILES IDX 9 1 10 2 11 3 12 4 13 5 14 6 15 7 16 8 17 9 18 10 8 11 7 12
REMARK SMILES IDX 6 13 5 14 4 15 3 16 2 17 1 18
REMARK H PARENT
REMARK Flexibility Score: inf
ROOT
ATOM      1  C   UNL     1     -13.870 -21.686  22.041  1.00  0.00     0.000 C 
ENDROOT
BRANCH   1   2
ATOM      2  C   UNL     1     -14.246 -22.028  23.492  1.00  0.00     0.000 C 
BRANCH   2   3
ATOM      3  C   UNL     1     -14.999 -23.364  23.609  1.00  0.00     0.000 C 
BRANCH   3   4
ATOM      4  C   UNL     1     -16.522 -23.182  23.686  1.00  0.00     0.000 C 
BRANCH   4   5
ATOM      5  C   UNL     1     -16.918 -22.415  24.957  1.00  0.00     0.000 C 
BRANCH   5   6
ATOM      6  C   UNL     1     -17.487 -23.330  26.056  1.00  0.00     0.006 C 
BRANCH   6   7
ATOM      7  C   UNL     1     -18.876 -23.907  25.741  1.00  0.00     0.053 C 
BRANCH   7   8
ATOM      8  C   UNL     1     -18.886 -25.404  25.785  1.00  0.00     0.041 C 
ATOM      9  O   UNL     1     -18.176 -26.067  24.984  1.00  0.00    -0.550 OA
ATOM     10  O   UNL     1     -19.708 -26.068  26.687  1.00  0.00    -0.550 OA
ENDBRANCH   7   8
ENDBRANCH   6   7
ENDBRANCH   5   6
ENDBRANCH   4   5
ENDBRANCH   3   4
ENDBRANCH   2   3
ENDBRANCH   1   2
BRANCH   1  11
ATOM     11  C   UNL     1     -12.965 -22.750  21.400  1.00  0.00     0.000 C 
BRANCH  11  12
ATOM     12  C   UNL     1     -13.026 -22.733  19.863  1.00  0.00    -0.000 C 
BRANCH  12  13
ATOM     13  C   UNL     1     -13.432 -21.361  19.303  1.00  0.00    -0.000 C 
BRANCH  13  14
ATOM     14  C   UNL     1     -12.298 -20.685  18.512  1.00  0.00    -0.000 C 
BRANCH  14  15
ATOM     15  C   UNL     1     -12.267 -19.157  18.733  1.00  0.00    -0.000 C 
BRANCH  15  16
ATOM     16  C   UNL     1     -12.989 -18.705  20.014  1.00  0.00    -0.000 C 
BRANCH  16  17
ATOM     17  C   UNL     1     -12.022 -18.374  21.159  1.00  0.00    -0.003 C 
ATOM     18  C   UNL     1     -12.780 -18.084  22.452  1.00  0.00     0.004 C 
ENDBRANCH  16  17
ENDBRANCH  15  16
ENDBRANCH  14  15
ENDBRANCH  13  14
ENDBRANCH  12  13
ENDBRANCH  11  12
ENDBRANCH   1  11
TORSDOF 14
ENDMDL
MODEL 5
REMARK VINA RESULT:    -3.852     17.587     18.875
REMARK INTER + INTRA:          -7.404
REMARK INTER:                  -5.672
REMARK INTRA:                  -1.732
REMARK UNBOUND:                -0.399
REMARK SMILES CCCCCCCCCCCCCCCC(=O)[O-]
REMARK SMILES IDX 9 1 10 2 11 3 12 4 13 5 14 6 15 7 16 8 17 9 18 10 8 11 7 12
REMARK SMILES IDX 6 13 5 14 4 15 3 16 2 17 1 18
REMARK H PARENT
REMARK Flexibility Score: inf
ROOT
ATOM      1  C   UNL     1     -14.767 -22.436  25.279  1.00  0.00     0.000 C 
ENDROOT
BRANCH   1   2
ATOM      2  C   UNL     1     -15.228 -22.644  23.827  1.00  0.00     0.000 C 
BRANCH   2   3
ATOM      3  C   UNL     1     -14.124 -23.236  22.934  1.00  0.00     0.000 C 
BRANCH   3   4
ATOM      4  C   UNL     1     -13.434 -22.177  22.062  1.00  0.00     0.000 C 
BRANCH   4   5
ATOM      5  C   UNL     1     -13.064 -22.756  20.688  1.00  0.00     0.000 C 
BRANCH   5   6
ATOM      6  C   UNL     1     -12.510 -21.695  19.720  1.00  0.00     0.006 C 
BRANCH   6   7
ATOM      7  C   UNL     1     -13.548 -20.660  19.256  1.00  0.00     0.053 C 
BRANCH   7   8
ATOM      8  C   UNL     1     -13.156 -19.265  19.632  1.00  0.00     0.041 C 
ATOM      9  O   UNL     1     -13.286 -18.867  20.820  1.00  0.00    -0.550 OA
ATOM     10  O   UNL     1     -12.679 -18.391  18.663  1.00  0.00    -0.550 OA
ENDBRANCH   7   8
ENDBRANCH   6   7
ENDBRANCH   5   6
ENDBRANCH   4   5
ENDBRANCH   3   4
ENDBRANCH   2   3
ENDBRANCH   1   2
BRANCH   1  11
ATOM     11  C   UNL     1     -15.942 -22.238  26.248  1.00  0.00     0.000 C 
BRANCH  11  12
ATOM     12  C   UNL     1     -17.301 -22.177  25.528  1.00  0.00    -0.000 C 
BRANCH  12  13
ATOM     13  C   UNL     1     -18.426 -22.848  26.332  1.00  0.00    -0.000 C 
BRANCH  13  14
ATOM     14  C   UNL     1     -18.932 -24.143  25.674  1.00  0.00    -0.000 C 
BRANCH  14  15
ATOM     15  C   UNL     1     -18.389 -24.318  24.240  1.00  0.00    -0.000 C 
BRANCH  15  16
ATOM     16  C   UNL     1     -17.571 -25.606  24.044  1.00  0.00    -0.000 C 
BRANCH  16  17
ATOM     17  C   UNL     1     -17.040 -26.182  25.363  1.00  0.00    -0.003 C 
ATOM     18  C   UNL     1     -15.527 -26.014  25.467  1.00  0.00     0.004 C 
ENDBRANCH  16  17
ENDBRANCH  15  16
ENDBRANCH  14  15
ENDBRANCH  13  14
ENDBRANCH  12  13
ENDBRANCH  11  12
ENDBRANCH   1  11
TORSDOF 14
ENDMDL
MODEL 6
REMARK VINA RESULT:    -3.847     18.192     20.157
REMARK INTER + INTRA:          -7.395
REMARK INTER:                  -5.762
REMARK INTRA:                  -1.633
REMARK UNBOUND:                -0.399
REMARK SMILES CCCCCCCCCCCCCCCC(=O)[O-]
REMARK SMILES IDX 9 1 10 2 11 3 12 4 13 5 14 6 15 7 16 8 17 9 18 10 8 11 7 12
REMARK SMILES IDX 6 13 5 14 4 15 3 16 2 17 1 18
REMARK H PARENT
REMARK Flexibility Score: inf
ROOT
ATOM      1  C   UNL     1     -13.157 -19.796  22.462  1.00  0.00     0.000 C 
ENDROOT
BRANCH   1   2
ATOM      2  C   UNL     1     -12.853 -20.259  23.897  1.00  0.00     0.000 C 
BRANCH   2   3
ATOM      3  C   UNL     1     -13.619 -21.536  24.280  1.00  0.00     0.000 C 
BRANCH   3   4
ATOM      4  C   UNL     1     -14.369 -22.159  23.093  1.00  0.00     0.000 C 
BRANCH   4   5
ATOM      5  C   UNL     1     -15.254 -23.325  23.556  1.00  0.00     0.000 C 
BRANCH   5   6
ATOM      6  C   UNL     1     -16.675 -22.879  23.947  1.00  0.00     0.006 C 
BRANCH   6   7
ATOM      7  C   UNL     1     -17.619 -24.033  24.321  1.00  0.00     0.053 C 
BRANCH   7   8
ATOM      8  C   UNL     1     -18.446 -23.714  25.528  1.00  0.00     0.041 C 
ATOM      9  O   UNL     1     -18.344 -22.592  26.089  1.00  0.00    -0.550 OA
ATOM     10  O   UNL     1     -19.306 -24.670  26.054  1.00  0.00    -0.550 OA
ENDBRANCH   7   8
ENDBRANCH   6   7
ENDBRANCH   5   6
ENDBRANCH   4   5
ENDBRANCH   3   4
ENDBRANCH   2   3
ENDBRANCH   1   2
BRANCH   1  11
ATOM     11  C   UNL     1     -11.956 -19.102  21.800  1.00  0.00     0.000 C 
BRANCH  11  12
ATOM     12  C   UNL     1     -12.372 -18.163  20.653  1.00  0.00    -0.000 C 
BRANCH  12  13
ATOM     13  C   UNL     1     -12.944 -18.923  19.447  1.00  0.00    -0.000 C 
BRANCH  13  14
ATOM     14  C   UNL     1     -11.852 -19.599  18.600  1.00  0.00    -0.000 C 
BRANCH  14  15
ATOM     15  C   UNL     1     -12.229 -21.044  18.209  1.00  0.00    -0.000 C 
BRANCH  15  16
ATOM     16  C   UNL     1     -13.349 -21.644  19.076  1.00  0.00    -0.000 C 
BRANCH  16  17
ATOM     17  C   UNL     1     -12.893 -22.873  19.873  1.00  0.00    -0.003 C 
ATOM     18  C   UNL     1     -11.564 -22.611  20.576  1.00  0.00     0.004 C 
ENDBRANCH  16  17
ENDBRANCH  15  16
ENDBRANCH  14  15
ENDBRANCH  13  14
ENDBRANCH  12  13
ENDBRANCH  11  12
ENDBRANCH   1  11
TORSDOF 14
ENDMDL
MODEL 7
REMARK VINA RESULT:    -3.820     17.827     19.561
REMARK INTER + INTRA:          -7.345
REMARK INTER:                  -5.354
REMARK INTRA:                  -1.991
REMARK UNBOUND:                -0.399
REMARK SMILES CCCCCCCCCCCCCCCC(=O)[O-]
REMARK SMILES IDX 9 1 10 2 11 3 12 4 13 5 14 6 15 7 16 8 17 9 18 10 8 11 7 12
REMARK SMILES IDX 6 13 5 14 4 15 3 16 2 17 1 18
REMARK H PARENT
REMARK Flexibility Score: inf
ROOT
ATOM      1  C   UNL     1     -16.889 -25.060  24.766  1.00  0.00     0.000 C 
ENDROOT
BRANCH   1   2
ATOM      2  C   UNL     1     -15.659 -24.525  24.015  1.00  0.00     0.000 C 
BRANCH   2   3
ATOM      3  C   UNL     1     -15.805 -23.046  23.617  1.00  0.00     0.000 C 
BRANCH   3   4
ATOM      4  C   UNL     1     -14.517 -22.461  23.019  1.00  0.00     0.000 C 
BRANCH   4   5
ATOM      5  C   UNL     1     -13.609 -23.577  22.479  1.00  0.00     0.000 C 
BRANCH   5   6
ATOM      6  C   UNL     1     -13.142 -23.321  21.035  1.00  0.00     0.006 C 
BRANCH   6   7
ATOM      7  C   UNL     1     -12.543 -21.924  20.802  1.00  0.00     0.053 C 
BRANCH   7   8
ATOM      8  C   UNL     1     -13.369 -21.110  19.855  1.00  0.00     0.041 C 
ATOM      9  O   UNL     1     -13.820 -19.989  20.209  1.00  0.00    -0.550 OA
ATOM     10  O   UNL     1     -13.670 -21.605  18.593  1.00  0.00    -0.550 OA
ENDBRANCH   7   8
ENDBRANCH   6   7
ENDBRANCH   5   6
ENDBRANCH   4   5
ENDBRANCH   3   4
ENDBRANCH   2   3
ENDBRANCH   1   2
BRANCH   1  11
ATOM     11  C   UNL     1     -18.198 -24.408  24.293  1.00  0.00     0.000 C 
BRANCH  11  12
ATOM     12  C   UNL     1     -19.085 -23.943  25.461  1.00  0.00    -0.000 C 
BRANCH  12  13
ATOM     13  C   UNL     1     -18.267 -23.472  26.673  1.00  0.00    -0.000 C 
BRANCH  13  14
ATOM     14  C   UNL     1     -17.911 -21.977  26.602  1.00  0.00    -0.000 C 
BRANCH  14  15
ATOM     15  C   UNL     1     -16.764 -21.606  27.566  1.00  0.00    -0.000 C 
BRANCH  15  16
ATOM     16  C   UNL     1     -15.373 -21.639  26.911  1.00  0.00    -0.000 C 
BRANCH  16  17
ATOM     17  C   UNL     1     -14.593 -22.922  27.230  1.00  0.00    -0.003 C 
ATOM     18  C   UNL     1     -13.259 -22.953  26.490  1.00  0.00     0.004 C 
ENDBRANCH  16  17
ENDBRANCH  15  16
ENDBRANCH  14  15
ENDBRANCH  13  14
ENDBRANCH  12  13
ENDBRANCH  11  12
ENDBRANCH   1  11
TORSDOF 14
ENDMDL
MODEL 8
REMARK VINA RESULT:    -3.815     17.804     18.578
REMARK INTER + INTRA:          -7.336
REMARK INTER:                  -6.479
REMARK INTRA:                  -0.857
REMARK UNBOUND:                -0.399
REMARK SMILES CCCCCCCCCCCCCCCC(=O)[O-]
REMARK SMILES IDX 9 1 10 2 11 3 12 4 13 5 14 6 15 7 16 8 17 9 18 10 8 11 7 12
REMARK SMILES IDX 6 13 5 14 4 15 3 16 2 17 1 18
REMARK H PARENT
REMARK Flexibility Score: inf
ROOT
ATOM      1  C   UNL     1     -13.089 -22.082  19.694  1.00  0.00     0.000 C 
ENDROOT
BRANCH   1   2
ATOM      2  C   UNL     1     -13.566 -20.754  19.084  1.00  0.00     0.000 C 
BRANCH   2   3
ATOM      3  C   UNL     1     -13.620 -19.614  20.115  1.00  0.00     0.000 C 
BRANCH   3   4
ATOM      4  C   UNL     1     -12.755 -18.409  19.715  1.00  0.00     0.000 C 
BRANCH   4   5
ATOM      5  C   UNL     1     -12.108 -18.633  18.339  1.00  0.00     0.000 C 
BRANCH   5   6
ATOM      6  C   UNL     1     -11.747 -17.317  17.627  1.00  0.00     0.006 C 
BRANCH   6   7
ATOM      7  C   UNL     1     -11.473 -17.468  16.122  1.00  0.00     0.053 C 
BRANCH   7   8
ATOM      8  C   UNL     1     -11.657 -16.178  15.385  1.00  0.00     0.041 C 
ATOM      9  O   UNL     1     -11.941 -16.183  14.158  1.00  0.00    -0.550 OA
ATOM     10  O   UNL     1     -11.481 -14.969  16.045  1.00  0.00    -0.550 OA
ENDBRANCH   7   8
ENDBRANCH   6   7
ENDBRANCH   5   6
ENDBRANCH   4   5
ENDBRANCH   3   4
ENDBRANCH   2   3
ENDBRANCH   1   2
BRANCH   1  11
ATOM     11  C   UNL     1     -12.456 -21.899  21.082  1.00  0.00     0.000 C 
BRANCH  11  12
ATOM     12  C   UNL     1     -13.158 -22.732  22.169  1.00  0.00    -0.000 C 
BRANCH  12  13
ATOM     13  C   UNL     1     -14.411 -22.038  22.727  1.00  0.00    -0.000 C 
BRANCH  13  14
ATOM     14  C   UNL     1     -14.888 -22.654  24.053  1.00  0.00    -0.000 C 
BRANCH  14  15
ATOM     15  C   UNL     1     -15.908 -23.792  23.833  1.00  0.00    -0.000 C 
BRANCH  15  16
ATOM     16  C   UNL     1     -17.327 -23.451  24.322  1.00  0.00    -0.000 C 
BRANCH  16  17
ATOM     17  C   UNL     1     -17.346 -22.314  25.353  1.00  0.00    -0.003 C 
ATOM     18  C   UNL     1     -18.280 -22.641  26.514  1.00  0.00     0.004 C 
ENDBRANCH  16  17
ENDBRANCH  15  16
ENDBRANCH  14  15
ENDBRANCH  13  14
ENDBRANCH  12  13
ENDBRANCH  11  12
ENDBRANCH   1  11
TORSDOF 14
ENDMDL
MODEL 9
REMARK VINA RESULT:    -3.785     18.443     20.228
REMARK INTER + INTRA:          -7.282
REMARK INTER:                  -5.593
REMARK INTRA:                  -1.689
REMARK UNBOUND:                -0.399
REMARK SMILES CCCCCCCCCCCCCCCC(=O)[O-]
REMARK SMILES IDX 9 1 10 2 11 3 12 4 13 5 14 6 15 7 16 8 17 9 18 10 8 11 7 12
REMARK SMILES IDX 6 13 5 14 4 15 3 16 2 17 1 18
REMARK H PARENT
REMARK Flexibility Score: inf
ROOT
ATOM      1  C   UNL     1     -13.104 -22.518  19.784  1.00  0.00     0.000 C 
ENDROOT
BRANCH   1   2
ATOM      2  C   UNL     1     -12.591 -22.362  21.225  1.00  0.00     0.000 C 
BRANCH   2   3
ATOM      3  C   UNL     1     -13.392 -23.204  22.233  1.00  0.00     0.000 C 
BRANCH   3   4
ATOM      4  C   UNL     1     -14.610 -22.456  22.796  1.00  0.00     0.000 C 
BRANCH   4   5
ATOM      5  C   UNL     1     -15.496 -23.400  23.624  1.00  0.00     0.000 C 
BRANCH   5   6
ATOM      6  C   UNL     1     -16.724 -22.693  24.225  1.00  0.00     0.006 C 
BRANCH   6   7
ATOM      7  C   UNL     1     -16.679 -22.537  25.754  1.00  0.00     0.053 C 
BRANCH   7   8
ATOM      8  C   UNL     1     -18.045 -22.367  26.342  1.00  0.00     0.041 C 
ATOM      9  O   UNL     1     -18.939 -23.229  26.132  1.00  0.00    -0.550 OA
ATOM     10  O   UNL     1     -18.342 -21.238  27.095  1.00  0.00    -0.550 OA
ENDBRANCH   7   8
ENDBRANCH   6   7
ENDBRANCH   5   6
ENDBRANCH   4   5
ENDBRANCH   3   4
ENDBRANCH   2   3
ENDBRANCH   1   2
BRANCH   1  11
ATOM     11  C   UNL     1     -13.266 -21.169  19.067  1.00  0.00     0.000 C 
BRANCH  11  12
ATOM     12  C   UNL     1     -13.741 -20.049  20.009  1.00  0.00    -0.000 C 
BRANCH  12  13
ATOM     13  C   UNL     1     -12.961 -18.740  19.811  1.00  0.00    -0.000 C 
BRANCH  13  14
ATOM     14  C   UNL     1     -12.715 -17.991  21.132  1.00  0.00    -0.000 C 
BRANCH  14  15
ATOM     15  C   UNL     1     -12.023 -18.883  22.186  1.00  0.00    -0.000 C 
BRANCH  15  16
ATOM     16  C   UNL     1     -12.828 -19.033  23.488  1.00  0.00    -0.000 C 
BRANCH  16  17
ATOM     17  C   UNL     1     -12.255 -20.107  24.423  1.00  0.00    -0.003 C 
ATOM     18  C   UNL     1     -13.250 -20.466  25.523  1.00  0.00     0.004 C 
ENDBRANCH  16  17
ENDBRANCH  15  16
ENDBRANCH  14  15
ENDBRANCH  13  14
ENDBRANCH  12  13
ENDBRANCH  11  12
ENDBRANCH   1  11
TORSDOF 14
ENDMDL
