MODEL 1
REMARK VINA RESULT:    -3.801      0.000      0.000
REMARK INTER + INTRA:          -7.429
REMARK INTER:                  -6.467
REMARK INTRA:                  -0.962
REMARK UNBOUND:                -0.962
REMARK SMILES CCCCCCCCCCCCCC(=O)[O-]
REMARK SMILES IDX 8 1 9 2 10 3 11 4 12 5 13 6 14 7 15 8 16 9 7 10 6 11 5 12
REMARK SMILES IDX 4 13 3 14 2 15 1 16
REMARK H PARENT
REMARK Flexibility Score: inf
ROOT
ATOM      1  C   UNL     1      -2.029 -51.230   0.798  1.00  0.00     0.000 C 
ENDROOT
BRANCH   1   2
ATOM      2  C   UNL     1      -1.715 -50.970   2.281  1.00  0.00     0.000 C 
BRANCH   2   3
ATOM      3  C   UNL     1      -2.292 -52.057   3.205  1.00  0.00     0.000 C 
BRANCH   3   4
ATOM      4  C   UNL     1      -3.531 -51.577   3.979  1.00  0.00     0.000 C 
BRANCH   4   5
ATOM      5  C   UNL     1      -3.525 -52.031   5.449  1.00  0.00     0.006 C 
BRANCH   5   6
ATOM      6  C   UNL     1      -2.720 -51.082   6.345  1.00  0.00     0.053 C 
BRANCH   6   7
ATOM      7  C   UNL     1      -3.097 -51.225   7.789  1.00  0.00     0.041 C 
ATOM      8  O   UNL     1      -4.038 -50.541   8.270  1.00  0.00    -0.550 OA
ATOM      9  O   UNL     1      -2.387 -52.094   8.609  1.00  0.00    -0.550 OA
ENDBRANCH   6   7
ENDBRANCH   5   6
ENDBRANCH   4   5
ENDBRANCH   3   4
ENDBRANCH   2   3
ENDBRANCH   1   2
BRANCH   1  10
ATOM     10  C   UNL     1      -3.413 -50.699   0.386  1.00  0.00     0.000 C 
BRANCH  10  11
ATOM     11  C   UNL     1      -4.431 -51.824   0.129  1.00  0.00    -0.000 C 
BRANCH  11  12
ATOM     12  C   UNL     1      -5.912 -51.398   0.200  1.00  0.00    -0.000 C 
BRANCH  12  13
ATOM     13  C   UNL     1      -6.668 -51.868   1.456  1.00  0.00    -0.000 C 
BRANCH  13  14
ATOM     14  C   UNL     1      -8.040 -51.198   1.612  1.00  0.00    -0.000 C 
BRANCH  14  15
ATOM     15  C   UNL     1      -8.395 -51.013   3.092  1.00  0.00    -0.003 C 
ATOM     16  C   UNL     1      -7.247 -51.456   3.994  1.00  0.00     0.004 C 
ENDBRANCH  14  15
ENDBRANCH  13  14
ENDBRANCH  12  13
ENDBRANCH  11  12
ENDBRANCH  10  11
ENDBRANCH   1  10
TORSDOF 12
ENDMDL
MODEL 2
REMARK VINA RESULT:    -3.520      1.705      3.500
REMARK INTER + INTRA:          -6.950
REMARK INTER:                  -6.109
REMARK INTRA:                  -0.841
REMARK UNBOUND:                -0.962
REMARK SMILES CCCCCCCCCCCCCC(=O)[O-]
REMARK SMILES IDX 8 1 9 2 10 3 11 4 12 5 13 6 14 7 15 8 16 9 7 10 6 11 5 12
REMARK SMILES IDX 4 13 3 14 2 15 1 16
REMARK H PARENT
REMARK Flexibility Score: inf
ROOT
ATOM      1  C   UNL     1      -3.309 -51.965   3.736  1.00  0.00     0.000 C 
ENDROOT
BRANCH   1   2
ATOM      2  C   UNL     1      -3.653 -51.930   5.235  1.00  0.00     0.000 C 
BRANCH   2   3
ATOM      3  C   UNL     1      -2.420 -51.662   6.115  1.00  0.00     0.000 C 
BRANCH   3   4
ATOM      4  C   UNL     1      -2.761 -50.851   7.377  1.00  0.00     0.000 C 
BRANCH   4   5
ATOM      5  C   UNL     1      -3.615 -51.645   8.381  1.00  0.00     0.006 C 
BRANCH   5   6
ATOM      6  C   UNL     1      -4.617 -50.751   9.122  1.00  0.00     0.053 C 
BRANCH   6   7
ATOM      7  C   UNL     1      -6.015 -51.282   9.024  1.00  0.00     0.041 C 
ATOM      8  O   UNL     1      -6.631 -51.644  10.061  1.00  0.00    -0.550 OA
ATOM      9  O   UNL     1      -6.627 -51.404   7.782  1.00  0.00    -0.550 OA
ENDBRANCH   6   7
ENDBRANCH   5   6
ENDBRANCH   4   5
ENDBRANCH   3   4
ENDBRANCH   2   3
ENDBRANCH   1   2
BRANCH   1  10
ATOM     10  C   UNL     1      -1.833 -51.625   3.462  1.00  0.00     0.000 C 
BRANCH  10  11
ATOM     11  C   UNL     1      -1.642 -50.783   2.187  1.00  0.00    -0.000 C 
BRANCH  11  12
ATOM     12  C   UNL     1      -2.178 -51.424   0.891  1.00  0.00    -0.000 C 
BRANCH  12  13
ATOM     13  C   UNL     1      -3.447 -50.771   0.315  1.00  0.00    -0.000 C 
BRANCH  13  14
ATOM     14  C   UNL     1      -4.499 -51.798  -0.125  1.00  0.00    -0.000 C 
BRANCH  14  15
ATOM     15  C   UNL     1      -5.907 -51.353   0.290  1.00  0.00    -0.003 C 
ATOM     16  C   UNL     1      -6.294 -51.937   1.645  1.00  0.00     0.004 C 
ENDBRANCH  14  15
ENDBRANCH  13  14
ENDBRANCH  12  13
ENDBRANCH  11  12
ENDBRANCH  10  11
ENDBRANCH   1  10
TORSDOF 12
ENDMDL
MODEL 3
REMARK VINA RESULT:    -3.500      2.142      5.302
REMARK INTER + INTRA:          -6.917
REMARK INTER:                  -6.122
REMARK INTRA:                  -0.795
REMARK UNBOUND:                -0.962
REMARK SMILES CCCCCCCCCCCCCC(=O)[O-]
REMARK SMILES IDX 8 1 9 2 10 3 11 4 12 5 13 6 14 7 15 8 16 9 7 10 6 11 5 12
REMARK SMILES IDX 4 13 3 14 2 15 1 16
REMARK H PARENT
REMARK Flexibility Score: inf
ROOT
ATOM      1  C   UNL     1      -3.227 -50.707   0.724  1.00  0.00     0.000 C 
ENDROOT
BRANCH   1   2
ATOM      2  C   UNL     1      -4.590 -50.994   0.070  1.00  0.00     0.000 C 
BRANCH   2   3
ATOM      3  C   UNL     1      -5.441 -51.976   0.893  1.00  0.00     0.000 C 
BRANCH   3   4
ATOM      4  C   UNL     1      -6.927 -51.582   0.931  1.00  0.00     0.000 C 
BRANCH   4   5
ATOM      5  C   UNL     1      -7.626 -52.022   2.229  1.00  0.00     0.006 C 
BRANCH   5   6
ATOM      6  C   UNL     1      -6.834 -51.617   3.479  1.00  0.00     0.053 C 
BRANCH   6   7
ATOM      7  C   UNL     1      -7.702 -50.933   4.491  1.00  0.00     0.041 C 
ATOM      8  O   UNL     1      -7.686 -51.303   5.695  1.00  0.00    -0.550 OA
ATOM      9  O   UNL     1      -8.551 -49.906   4.097  1.00  0.00    -0.550 OA
ENDBRANCH   6   7
ENDBRANCH   5   6
ENDBRANCH   4   5
ENDBRANCH   3   4
ENDBRANCH   2   3
ENDBRANCH   1   2
BRANCH   1  10
ATOM     10  C   UNL     1      -2.741 -51.868   1.609  1.00  0.00     0.000 C 
BRANCH  10  11
ATOM     11  C   UNL     1      -1.839 -51.399   2.765  1.00  0.00    -0.000 C 
BRANCH  11  12
ATOM     12  C   UNL     1      -2.339 -51.763   4.178  1.00  0.00    -0.000 C 
BRANCH  12  13
ATOM     13  C   UNL     1      -1.236 -52.125   5.188  1.00  0.00    -0.000 C 
BRANCH  13  14
ATOM     14  C   UNL     1      -1.576 -51.692   6.622  1.00  0.00    -0.000 C 
BRANCH  14  15
ATOM     15  C   UNL     1      -3.016 -51.172   6.711  1.00  0.00    -0.003 C 
ATOM     16  C   UNL     1      -3.466 -51.041   8.164  1.00  0.00     0.004 C 
ENDBRANCH  14  15
ENDBRANCH  13  14
ENDBRANCH  12  13
ENDBRANCH  11  12
ENDBRANCH  10  11
ENDBRANCH   1  10
TORSDOF 12
ENDMDL
MODEL 4
REMARK VINA RESULT:    -3.484      1.094      1.531
REMARK INTER + INTRA:          -6.890
REMARK INTER:                  -5.874
REMARK INTRA:                  -1.017
REMARK UNBOUND:                -0.962
REMARK SMILES CCCCCCCCCCCCCC(=O)[O-]
REMARK SMILES IDX 8 1 9 2 10 3 11 4 12 5 13 6 14 7 15 8 16 9 7 10 6 11 5 12
REMARK SMILES IDX 4 13 3 14 2 15 1 16
REMARK H PARENT
REMARK Flexibility Score: inf
ROOT
ATOM      1  C   UNL     1      -2.402 -50.705   1.421  1.00  0.00     0.000 C 
ENDROOT
BRANCH   1   2
ATOM      2  C   UNL     1      -2.251 -52.114   2.019  1.00  0.00     0.000 C 
BRANCH   2   3
ATOM      3  C   UNL     1      -2.410 -52.125   3.549  1.00  0.00     0.000 C 
BRANCH   3   4
ATOM      4  C   UNL     1      -1.083 -51.871   4.283  1.00  0.00     0.000 C 
BRANCH   4   5
ATOM      5  C   UNL     1      -1.282 -51.214   5.660  1.00  0.00     0.006 C 
BRANCH   5   6
ATOM      6  C   UNL     1      -2.099 -52.098   6.610  1.00  0.00     0.053 C 
BRANCH   6   7
ATOM      7  C   UNL     1      -3.403 -51.459   6.983  1.00  0.00     0.041 C 
ATOM      8  O   UNL     1      -3.459 -50.640   7.938  1.00  0.00    -0.550 OA
ATOM      9  O   UNL     1      -4.562 -51.792   6.292  1.00  0.00    -0.550 OA
ENDBRANCH   6   7
ENDBRANCH   5   6
ENDBRANCH   4   5
ENDBRANCH   3   4
ENDBRANCH   2   3
ENDBRANCH   1   2
BRANCH   1  10
ATOM     10  C   UNL     1      -3.523 -50.628   0.370  1.00  0.00     0.000 C 
BRANCH  10  11
ATOM     11  C   UNL     1      -4.549 -51.767   0.507  1.00  0.00    -0.000 C 
BRANCH  11  12
ATOM     12  C   UNL     1      -6.026 -51.339   0.389  1.00  0.00    -0.000 C 
BRANCH  12  13
ATOM     13  C   UNL     1      -6.941 -51.826   1.525  1.00  0.00    -0.000 C 
BRANCH  13  14
ATOM     14  C   UNL     1      -6.260 -51.784   2.900  1.00  0.00    -0.000 C 
BRANCH  14  15
ATOM     15  C   UNL     1      -7.297 -51.662   4.023  1.00  0.00    -0.003 C 
ATOM     16  C   UNL     1      -8.385 -50.655   3.662  1.00  0.00     0.004 C 
ENDBRANCH  14  15
ENDBRANCH  13  14
ENDBRANCH  12  13
ENDBRANCH  11  12
ENDBRANCH  10  11
ENDBRANCH   1  10
TORSDOF 12
ENDMDL
MODEL 5
REMARK VINA RESULT:    -3.483      2.384      5.602
REMARK INTER + INTRA:          -6.888
REMARK INTER:                  -6.174
REMARK INTRA:                  -0.714
REMARK UNBOUND:                -0.962
REMARK SMILES CCCCCCCCCCCCCC(=O)[O-]
REMARK SMILES IDX 8 1 9 2 10 3 11 4 12 5 13 6 14 7 15 8 16 9 7 10 6 11 5 12
REMARK SMILES IDX 4 13 3 14 2 15 1 16
REMARK H PARENT
REMARK Flexibility Score: inf
ROOT
ATOM      1  C   UNL     1      -2.003 -50.666   1.857  1.00  0.00     0.000 C 
ENDROOT
BRANCH   1   2
ATOM      2  C   UNL     1      -3.020 -50.628   0.703  1.00  0.00     0.000 C 
BRANCH   2   3
ATOM      3  C   UNL     1      -4.062 -51.756   0.801  1.00  0.00     0.000 C 
BRANCH   3   4
ATOM      4  C   UNL     1      -5.478 -51.286   0.428  1.00  0.00     0.000 C 
BRANCH   4   5
ATOM      5  C   UNL     1      -6.573 -51.996   1.243  1.00  0.00     0.006 C 
BRANCH   5   6
ATOM      6  C   UNL     1      -6.349 -51.862   2.755  1.00  0.00     0.053 C 
BRANCH   6   7
ATOM      7  C   UNL     1      -7.603 -51.461   3.470  1.00  0.00     0.041 C 
ATOM      8  O   UNL     1      -8.720 -51.900   3.088  1.00  0.00    -0.550 OA
ATOM      9  O   UNL     1      -7.540 -50.579   4.542  1.00  0.00    -0.550 OA
ENDBRANCH   6   7
ENDBRANCH   5   6
ENDBRANCH   4   5
ENDBRANCH   3   4
ENDBRANCH   2   3
ENDBRANCH   1   2
BRANCH   1  10
ATOM     10  C   UNL     1      -2.165 -51.912   2.745  1.00  0.00     0.000 C 
BRANCH  10  11
ATOM     11  C   UNL     1      -1.248 -51.886   3.981  1.00  0.00    -0.000 C 
BRANCH  11  12
ATOM     12  C   UNL     1      -1.973 -51.994   5.339  1.00  0.00    -0.000 C 
BRANCH  12  13
ATOM     13  C   UNL     1      -1.396 -51.110   6.459  1.00  0.00    -0.000 C 
BRANCH  13  14
ATOM     14  C   UNL     1      -2.076 -51.347   7.815  1.00  0.00    -0.000 C 
BRANCH  14  15
ATOM     15  C   UNL     1      -3.601 -51.247   7.689  1.00  0.00    -0.003 C 
ATOM     16  C   UNL     1      -4.257 -51.064   9.055  1.00  0.00     0.004 C 
ENDBRANCH  14  15
ENDBRANCH  13  14
ENDBRANCH  12  13
ENDBRANCH  11  12
ENDBRANCH  10  11
ENDBRANCH   1  10
TORSDOF 12
ENDMDL
MODEL 6
REMARK VINA RESULT:    -3.427      2.268      4.460
REMARK INTER + INTRA:          -6.793
REMARK INTER:                  -6.279
REMARK INTRA:                  -0.514
REMARK UNBOUND:                -0.962
REMARK SMILES CCCCCCCCCCCCCC(=O)[O-]
REMARK SMILES IDX 8 1 9 2 10 3 11 4 12 5 13 6 14 7 15 8 16 9 7 10 6 11 5 12
REMARK SMILES IDX 4 13 3 14 2 15 1 16
REMARK H PARENT
REMARK Flexibility Score: inf
ROOT
ATOM      1  C   UNL     1      -2.726 -51.937   4.237  1.00  0.00     0.000 C 
ENDROOT
BRANCH   1   2
ATOM      2  C   UNL     1      -1.347 -51.788   4.903  1.00  0.00     0.000 C 
BRANCH   2   3
ATOM      3  C   UNL     1      -1.431 -51.115   6.284  1.00  0.00     0.000 C 
BRANCH   3   4
ATOM      4  C   UNL     1      -1.277 -52.118   7.440  1.00  0.00     0.000 C 
BRANCH   4   5
ATOM      5  C   UNL     1      -2.491 -52.125   8.386  1.00  0.00     0.006 C 
BRANCH   5   6
ATOM      6  C   UNL     1      -3.632 -51.239   7.870  1.00  0.00     0.053 C 
BRANCH   6   7
ATOM      7  C   UNL     1      -4.705 -51.056   8.900  1.00  0.00     0.041 C 
ATOM      8  O   UNL     1      -4.411 -51.021  10.124  1.00  0.00    -0.550 OA
ATOM      9  O   UNL     1      -6.034 -50.955   8.508  1.00  0.00    -0.550 OA
ENDBRANCH   6   7
ENDBRANCH   5   6
ENDBRANCH   4   5
ENDBRANCH   3   4
ENDBRANCH   2   3
ENDBRANCH   1   2
BRANCH   1  10
ATOM     10  C   UNL     1      -2.674 -51.705   2.716  1.00  0.00     0.000 C 
BRANCH  10  11
ATOM     11  C   UNL     1      -4.055 -51.825   2.047  1.00  0.00    -0.000 C 
BRANCH  11  12
ATOM     12  C   UNL     1      -4.169 -51.171   0.655  1.00  0.00    -0.000 C 
BRANCH  12  13
ATOM     13  C   UNL     1      -2.829 -50.816  -0.013  1.00  0.00    -0.000 C 
BRANCH  13  14
ATOM     14  C   UNL     1      -2.108 -52.042  -0.591  1.00  0.00    -0.000 C 
BRANCH  14  15
ATOM     15  C   UNL     1      -0.594 -51.943  -0.369  1.00  0.00    -0.003 C 
ATOM     16  C   UNL     1       0.163 -52.009  -1.693  1.00  0.00     0.004 C 
ENDBRANCH  14  15
ENDBRANCH  13  14
ENDBRANCH  12  13
ENDBRANCH  11  12
ENDBRANCH  10  11
ENDBRANCH   1  10
TORSDOF 12
ENDMDL
MODEL 7
REMARK VINA RESULT:    -3.414      1.034      1.384
REMARK INTER + INTRA:          -6.771
REMARK INTER:                  -6.195
REMARK INTRA:                  -0.576
REMARK UNBOUND:                -0.962
REMARK SMILES CCCCCCCCCCCCCC(=O)[O-]
REMARK SMILES IDX 8 1 9 2 10 3 11 4 12 5 13 6 14 7 15 8 16 9 7 10 6 11 5 12
REMARK SMILES IDX 4 13 3 14 2 15 1 16
REMARK H PARENT
REMARK Flexibility Score: inf
ROOT
ATOM      1  C   UNL     1      -2.786 -50.649   0.317  1.00  0.00     0.000 C 
ENDROOT
BRANCH   1   2
ATOM      2  C   UNL     1      -2.294 -51.843   1.152  1.00  0.00     0.000 C 
BRANCH   2   3
ATOM      3  C   UNL     1      -1.988 -51.456   2.609  1.00  0.00     0.000 C 
BRANCH   3   4
ATOM      4  C   UNL     1      -3.036 -51.995   3.596  1.00  0.00     0.000 C 
BRANCH   4   5
ATOM      5  C   UNL     1      -2.492 -52.123   5.030  1.00  0.00     0.006 C 
BRANCH   5   6
ATOM      6  C   UNL     1      -3.538 -51.734   6.083  1.00  0.00     0.053 C 
BRANCH   6   7
ATOM      7  C   UNL     1      -2.935 -50.932   7.196  1.00  0.00     0.041 C 
ATOM      8  O   UNL     1      -1.684 -50.845   7.311  1.00  0.00    -0.550 OA
ATOM      9  O   UNL     1      -3.757 -50.304   8.124  1.00  0.00    -0.550 OA
ENDBRANCH   6   7
ENDBRANCH   5   6
ENDBRANCH   4   5
ENDBRANCH   3   4
ENDBRANCH   2   3
ENDBRANCH   1   2
BRANCH   1  10
ATOM     10  C   UNL     1      -4.278 -50.758  -0.045  1.00  0.00     0.000 C 
BRANCH  10  11
ATOM     11  C   UNL     1      -4.992 -51.895   0.707  1.00  0.00    -0.000 C 
BRANCH  11  12
ATOM     12  C   UNL     1      -6.510 -51.999   0.453  1.00  0.00    -0.000 C 
BRANCH  12  13
ATOM     13  C   UNL     1      -7.382 -52.064   1.719  1.00  0.00    -0.000 C 
BRANCH  13  14
ATOM     14  C   UNL     1      -8.842 -51.669   1.459  1.00  0.00    -0.000 C 
BRANCH  14  15
ATOM     15  C   UNL     1      -9.120 -50.242   1.948  1.00  0.00    -0.003 C 
ATOM     16  C   UNL     1      -8.853 -50.110   3.445  1.00  0.00     0.004 C 
ENDBRANCH  14  15
ENDBRANCH  13  14
ENDBRANCH  12  13
ENDBRANCH  11  12
ENDBRANCH  10  11
ENDBRANCH   1  10
TORSDOF 12
ENDMDL
MODEL 8
REMARK VINA RESULT:    -3.346      2.505      4.757
REMARK INTER + INTRA:          -6.654
REMARK INTER:                  -5.710
REMARK INTRA:                  -0.944
REMARK UNBOUND:                -0.962
REMARK SMILES CCCCCCCCCCCCCC(=O)[O-]
REMARK SMILES IDX 8 1 9 2 10 3 11 4 12 5 13 6 14 7 15 8 16 9 7 10 6 11 5 12
REMARK SMILES IDX 4 13 3 14 2 15 1 16
REMARK H PARENT
REMARK Flexibility Score: inf
ROOT
ATOM      1  C   UNL     1      -3.779 -51.350   5.376  1.00  0.00     0.000 C 
ENDROOT
BRANCH   1   2
ATOM      2  C   UNL     1      -2.660 -50.813   6.285  1.00  0.00     0.000 C 
BRANCH   2   3
ATOM      3  C   UNL     1      -3.081 -50.753   7.764  1.00  0.00     0.000 C 
BRANCH   3   4
ATOM      4  C   UNL     1      -3.506 -52.125   8.313  1.00  0.00     0.000 C 
BRANCH   4   5
ATOM      5  C   UNL     1      -4.498 -52.015   9.484  1.00  0.00     0.006 C 
BRANCH   5   6
ATOM      6  C   UNL     1      -5.325 -50.724   9.422  1.00  0.00     0.053 C 
BRANCH   6   7
ATOM      7  C   UNL     1      -6.761 -50.998   9.095  1.00  0.00     0.041 C 
ATOM      8  O   UNL     1      -7.154 -50.980   7.898  1.00  0.00    -0.550 OA
ATOM      9  O   UNL     1      -7.672 -51.243  10.115  1.00  0.00    -0.550 OA
ENDBRANCH   6   7
ENDBRANCH   5   6
ENDBRANCH   4   5
ENDBRANCH   3   4
ENDBRANCH   2   3
ENDBRANCH   1   2
BRANCH   1  10
ATOM     10  C   UNL     1      -3.231 -52.070   4.132  1.00  0.00     0.000 C 
BRANCH  10  11
ATOM     11  C   UNL     1      -1.720 -51.853   3.933  1.00  0.00    -0.000 C 
BRANCH  11  12
ATOM     12  C   UNL     1      -1.327 -51.120   2.635  1.00  0.00    -0.000 C 
BRANCH  12  13
ATOM     13  C   UNL     1      -1.304 -51.997   1.370  1.00  0.00    -0.000 C 
BRANCH  13  14
ATOM     14  C   UNL     1      -1.944 -51.309   0.156  1.00  0.00    -0.000 C 
BRANCH  14  15
ATOM     15  C   UNL     1      -3.250 -50.609   0.548  1.00  0.00    -0.003 C 
ATOM     16  C   UNL     1      -4.465 -51.405   0.081  1.00  0.00     0.004 C 
ENDBRANCH  14  15
ENDBRANCH  13  14
ENDBRANCH  12  13
ENDBRANCH  11  12
ENDBRANCH  10  11
ENDBRANCH   1  10
TORSDOF 12
ENDMDL
