MODEL 1
REMARK VINA RESULT:    -5.567      0.000      0.000
REMARK INTER + INTRA:          -7.211
REMARK INTER:                  -6.868
REMARK INTRA:                  -0.342
REMARK UNBOUND:                -0.342
REMARK SMILES Oc1cc(O)c2cc(O)c(-c3cc(O)c(O)c(O)c3)[o+]c2c1
REMARK SMILES IDX 10 1 20 2 21 3 22 4 2 5 3 6 4 7 6 8 7 9 8 10 11 11 12 12
REMARK SMILES IDX 13 13 19 14 15 15 17 16 14 17 16 19 18 21 9 23 1 25 5 27
REMARK H PARENT 14 18 16 20 18 22 9 24 1 26 5 28
REMARK Flexibility Score: inf
ROOT
ATOM      1  C   UNL     1     -58.182 -49.998  35.830  1.00  0.00     0.402 A 
ATOM      2  O   UNL     1     -58.567 -48.823  35.337  1.00  0.00    -0.202 OA
ATOM      3  C   UNL     1     -58.907 -48.642  34.065  1.00  0.00     0.368 A 
ATOM      4  C   UNL     1     -59.301 -47.370  33.641  1.00  0.00     0.162 A 
ATOM      5  C   UNL     1     -59.667 -47.150  32.314  1.00  0.00     0.128 A 
ATOM      6  C   UNL     1     -59.641 -48.210  31.399  1.00  0.00     0.093 A 
ATOM      7  C   UNL     1     -59.250 -49.494  31.799  1.00  0.00     0.136 A 
ATOM      8  C   UNL     1     -58.874 -49.720  33.148  1.00  0.00     0.125 A 
ATOM      9  C   UNL     1     -58.457 -50.970  33.635  1.00  0.00     0.078 A 
ATOM     10  C   UNL     1     -58.098 -51.115  34.978  1.00  0.00     0.223 A 
ENDROOT
BRANCH   1  11
ATOM     11  C   UNL     1     -57.837 -50.075  37.267  1.00  0.00     0.091 A 
ATOM     12  C   UNL     1     -56.590 -49.633  37.746  1.00  0.00     0.068 A 
ATOM     13  C   UNL     1     -56.275 -49.736  39.107  1.00  0.00     0.162 A 
ATOM     14  C   UNL     1     -58.747 -50.651  38.167  1.00  0.00     0.068 A 
ATOM     15  C   UNL     1     -57.197 -50.293  40.002  1.00  0.00     0.200 A 
ATOM     16  C   UNL     1     -58.437 -50.755  39.530  1.00  0.00     0.162 A 
BRANCH  13  17
ATOM     17  O   UNL     1     -55.040 -49.291  39.579  1.00  0.00    -0.504 OA
ATOM     18  H   UNL     1     -54.309 -49.941  39.843  1.00  0.00     0.293 HD
ENDBRANCH  13  17
BRANCH  15  19
ATOM     19  O   UNL     1     -56.866 -50.382  41.354  1.00  0.00    -0.502 OA
ATOM     20  H   UNL     1     -56.531 -49.585  41.880  1.00  0.00     0.293 HD
ENDBRANCH  15  19
BRANCH  16  21
ATOM     21  O   UNL     1     -59.356 -51.317  40.415  1.00  0.00    -0.504 OA
ATOM     22  H   UNL     1     -59.471 -52.320  40.495  1.00  0.00     0.293 HD
ENDBRANCH  16  21
ENDBRANCH   1  11
BRANCH  10  23
ATOM     23  O   UNL     1     -57.636 -52.344  35.450  1.00  0.00    -0.500 OA
ATOM     24  H   UNL     1     -58.195 -53.186  35.379  1.00  0.00     0.294 HD
ENDBRANCH  10  23
BRANCH   5  25
ATOM     25  O   UNL     1     -60.057 -45.875  31.910  1.00  0.00    -0.507 OA
ATOM     26  H   UNL     1     -59.659 -45.434  31.089  1.00  0.00     0.293 HD
ENDBRANCH   5  25
BRANCH   7  27
ATOM     27  O   UNL     1     -59.253 -50.499  30.828  1.00  0.00    -0.507 OA
ATOM     28  H   UNL     1     -58.451 -50.760  30.272  1.00  0.00     0.293 HD
ENDBRANCH   7  27
TORSDOF 7
ENDMDL
MODEL 2
REMARK VINA RESULT:    -5.187      3.221      6.074
REMARK INTER + INTRA:          -6.742
REMARK INTER:                  -6.494
REMARK INTRA:                  -0.247
REMARK UNBOUND:                -0.342
REMARK SMILES Oc1cc(O)c2cc(O)c(-c3cc(O)c(O)c(O)c3)[o+]c2c1
REMARK SMILES IDX 10 1 20 2 21 3 22 4 2 5 3 6 4 7 6 8 7 9 8 10 11 11 12 12
REMARK SMILES IDX 13 13 19 14 15 15 17 16 14 17 16 19 18 21 9 23 1 25 5 27
REMARK H PARENT 14 18 16 20 18 22 9 24 1 26 5 28
REMARK Flexibility Score: inf
ROOT
ATOM      1  C   UNL     1     -58.868 -51.794  40.502  1.00  0.00     0.402 A 
ATOM      2  O   UNL     1     -59.420 -51.478  39.333  1.00  0.00    -0.202 OA
ATOM      3  C   UNL     1     -58.816 -50.722  38.422  1.00  0.00     0.368 A 
ATOM      4  C   UNL     1     -59.476 -50.446  37.221  1.00  0.00     0.162 A 
ATOM      5  C   UNL     1     -58.865 -49.659  36.245  1.00  0.00     0.128 A 
ATOM      6  C   UNL     1     -57.584 -49.142  36.468  1.00  0.00     0.093 A 
ATOM      7  C   UNL     1     -56.901 -49.404  37.662  1.00  0.00     0.136 A 
ATOM      8  C   UNL     1     -57.521 -50.202  38.659  1.00  0.00     0.125 A 
ATOM      9  C   UNL     1     -56.917 -50.505  39.891  1.00  0.00     0.078 A 
ATOM     10  C   UNL     1     -57.593 -51.296  40.825  1.00  0.00     0.223 A 
ENDROOT
BRANCH   1  11
ATOM     11  C   UNL     1     -59.638 -52.652  41.431  1.00  0.00     0.091 A 
ATOM     12  C   UNL     1     -60.812 -52.190  42.051  1.00  0.00     0.068 A 
ATOM     13  C   UNL     1     -61.513 -53.010  42.945  1.00  0.00     0.162 A 
ATOM     14  C   UNL     1     -59.160 -53.934  41.744  1.00  0.00     0.068 A 
ATOM     15  C   UNL     1     -61.042 -54.297  43.236  1.00  0.00     0.200 A 
ATOM     16  C   UNL     1     -59.859 -54.759  42.636  1.00  0.00     0.162 A 
BRANCH  13  17
ATOM     17  O   UNL     1     -62.681 -52.551  43.554  1.00  0.00    -0.504 OA
ATOM     18  H   UNL     1     -63.596 -52.836  43.228  1.00  0.00     0.293 HD
ENDBRANCH  13  17
BRANCH  15  19
ATOM     19  O   UNL     1     -61.757 -55.100  44.125  1.00  0.00    -0.502 OA
ATOM     20  H   UNL     1     -62.702 -55.406  43.932  1.00  0.00     0.293 HD
ENDBRANCH  15  19
BRANCH  16  21
ATOM     21  O   UNL     1     -59.381 -56.036  42.928  1.00  0.00    -0.504 OA
ATOM     22  H   UNL     1     -60.008 -56.812  43.097  1.00  0.00     0.293 HD
ENDBRANCH  16  21
ENDBRANCH   1  11
BRANCH  10  23
ATOM     23  O   UNL     1     -57.015 -51.557  42.069  1.00  0.00    -0.500 OA
ATOM     24  H   UNL     1     -56.034 -51.376  42.248  1.00  0.00     0.294 HD
ENDBRANCH  10  23
BRANCH   5  25
ATOM     25  O   UNL     1     -59.539 -49.395  35.055  1.00  0.00    -0.507 OA
ATOM     26  H   UNL     1     -59.759 -48.449  34.768  1.00  0.00     0.293 HD
ENDBRANCH   5  25
BRANCH   7  27
ATOM     27  O   UNL     1     -55.624 -48.855  37.808  1.00  0.00    -0.507 OA
ATOM     28  H   UNL     1     -55.441 -47.901  38.086  1.00  0.00     0.293 HD
ENDBRANCH   7  27
TORSDOF 7
ENDMDL
MODEL 3
REMARK VINA RESULT:    -5.151      8.602     12.448
REMARK INTER + INTRA:          -6.698
REMARK INTER:                  -6.352
REMARK INTRA:                  -0.346
REMARK UNBOUND:                -0.342
REMARK SMILES Oc1cc(O)c2cc(O)c(-c3cc(O)c(O)c(O)c3)[o+]c2c1
REMARK SMILES IDX 10 1 20 2 21 3 22 4 2 5 3 6 4 7 6 8 7 9 8 10 11 11 12 12
REMARK SMILES IDX 13 13 19 14 15 15 17 16 14 17 16 19 18 21 9 23 1 25 5 27
REMARK H PARENT 14 18 16 20 18 22 9 24 1 26 5 28
REMARK Flexibility Score: inf
ROOT
ATOM      1  C   UNL     1     -64.858 -55.619  30.215  1.00  0.00     0.402 A 
ATOM      2  O   UNL     1     -63.896 -55.841  31.107  1.00  0.00    -0.202 OA
ATOM      3  C   UNL     1     -64.055 -55.652  32.413  1.00  0.00     0.368 A 
ATOM      4  C   UNL     1     -62.986 -55.915  33.274  1.00  0.00     0.162 A 
ATOM      5  C   UNL     1     -63.125 -55.730  34.649  1.00  0.00     0.128 A 
ATOM      6  C   UNL     1     -64.342 -55.277  35.172  1.00  0.00     0.093 A 
ATOM      7  C   UNL     1     -65.428 -55.007  34.331  1.00  0.00     0.136 A 
ATOM      8  C   UNL     1     -65.290 -55.192  32.931  1.00  0.00     0.125 A 
ATOM      9  C   UNL     1     -66.321 -54.933  32.012  1.00  0.00     0.078 A 
ATOM     10  C   UNL     1     -66.108 -55.136  30.646  1.00  0.00     0.223 A 
ENDROOT
BRANCH   1  11
ATOM     11  C   UNL     1     -64.562 -55.876  28.787  1.00  0.00     0.091 A 
ATOM     12  C   UNL     1     -64.247 -54.828  27.905  1.00  0.00     0.068 A 
ATOM     13  C   UNL     1     -63.992 -55.090  26.552  1.00  0.00     0.162 A 
ATOM     14  C   UNL     1     -64.650 -57.185  28.288  1.00  0.00     0.068 A 
ATOM     15  C   UNL     1     -64.061 -56.402  26.066  1.00  0.00     0.200 A 
ATOM     16  C   UNL     1     -64.395 -57.453  26.936  1.00  0.00     0.162 A 
BRANCH  13  17
ATOM     17  O   UNL     1     -63.674 -54.049  25.681  1.00  0.00    -0.504 OA
ATOM     18  H   UNL     1     -63.820 -54.131  24.682  1.00  0.00     0.293 HD
ENDBRANCH  13  17
BRANCH  15  19
ATOM     19  O   UNL     1     -63.799 -56.644  24.717  1.00  0.00    -0.502 OA
ATOM     20  H   UNL     1     -64.378 -56.262  23.979  1.00  0.00     0.293 HD
ENDBRANCH  15  19
BRANCH  16  21
ATOM     21  O   UNL     1     -64.473 -58.760  26.456  1.00  0.00    -0.504 OA
ATOM     22  H   UNL     1     -63.646 -59.271  26.171  1.00  0.00     0.293 HD
ENDBRANCH  16  21
ENDBRANCH   1  11
BRANCH  10  23
ATOM     23  O   UNL     1     -67.114 -54.833  29.728  1.00  0.00    -0.500 OA
ATOM     24  H   UNL     1     -67.304 -53.879  29.442  1.00  0.00     0.294 HD
ENDBRANCH  10  23
BRANCH   5  25
ATOM     25  O   UNL     1     -62.047 -55.998  35.490  1.00  0.00    -0.507 OA
ATOM     26  H   UNL     1     -62.110 -56.687  36.230  1.00  0.00     0.293 HD
ENDBRANCH   5  25
BRANCH   7  27
ATOM     27  O   UNL     1     -66.610 -54.562  34.930  1.00  0.00    -0.507 OA
ATOM     28  H   UNL     1     -67.500 -54.495  34.458  1.00  0.00     0.293 HD
ENDBRANCH   7  27
TORSDOF 7
ENDMDL
MODEL 4
REMARK VINA RESULT:    -5.146      3.232      6.003
REMARK INTER + INTRA:          -6.691
REMARK INTER:                  -6.406
REMARK INTRA:                  -0.285
REMARK UNBOUND:                -0.342
REMARK SMILES Oc1cc(O)c2cc(O)c(-c3cc(O)c(O)c(O)c3)[o+]c2c1
REMARK SMILES IDX 10 1 20 2 21 3 22 4 2 5 3 6 4 7 6 8 7 9 8 10 11 11 12 12
REMARK SMILES IDX 13 13 19 14 15 15 17 16 14 17 16 19 18 21 9 23 1 25 5 27
REMARK H PARENT 14 18 16 20 18 22 9 24 1 26 5 28
REMARK Flexibility Score: inf
ROOT
ATOM      1  C   UNL     1     -58.855 -51.800  40.528  1.00  0.00     0.402 A 
ATOM      2  O   UNL     1     -59.429 -51.479  39.371  1.00  0.00    -0.202 OA
ATOM      3  C   UNL     1     -58.849 -50.705  38.459  1.00  0.00     0.368 A 
ATOM      4  C   UNL     1     -59.530 -50.426  37.271  1.00  0.00     0.162 A 
ATOM      5  C   UNL     1     -58.945 -49.620  36.295  1.00  0.00     0.128 A 
ATOM      6  C   UNL     1     -57.667 -49.088  36.504  1.00  0.00     0.093 A 
ATOM      7  C   UNL     1     -56.963 -49.354  37.685  1.00  0.00     0.136 A 
ATOM      8  C   UNL     1     -57.557 -50.171  38.682  1.00  0.00     0.125 A 
ATOM      9  C   UNL     1     -56.931 -50.478  39.902  1.00  0.00     0.078 A 
ATOM     10  C   UNL     1     -57.582 -51.288  40.838  1.00  0.00     0.223 A 
ENDROOT
BRANCH   1  11
ATOM     11  C   UNL     1     -59.600 -52.678  41.459  1.00  0.00     0.091 A 
ATOM     12  C   UNL     1     -59.159 -53.982  41.746  1.00  0.00     0.068 A 
ATOM     13  C   UNL     1     -59.891 -54.805  42.612  1.00  0.00     0.162 A 
ATOM     14  C   UNL     1     -60.802 -52.225  42.024  1.00  0.00     0.068 A 
ATOM     15  C   UNL     1     -61.078 -54.337  43.190  1.00  0.00     0.200 A 
ATOM     16  C   UNL     1     -61.537 -53.043  42.892  1.00  0.00     0.162 A 
BRANCH  13  17
ATOM     17  O   UNL     1     -59.447 -56.095  42.900  1.00  0.00    -0.504 OA
ATOM     18  H   UNL     1     -58.517 -56.267  43.264  1.00  0.00     0.293 HD
ENDBRANCH  13  17
BRANCH  15  19
ATOM     19  O   UNL     1     -61.790 -55.170  44.053  1.00  0.00    -0.502 OA
ATOM     20  H   UNL     1     -62.441 -54.806  44.738  1.00  0.00     0.293 HD
ENDBRANCH  15  19
BRANCH  16  21
ATOM     21  O   UNL     1     -62.722 -52.575  43.458  1.00  0.00    -0.504 OA
ATOM     22  H   UNL     1     -62.743 -51.743  44.035  1.00  0.00     0.293 HD
ENDBRANCH  16  21
ENDBRANCH   1  11
BRANCH  10  23
ATOM     23  O   UNL     1     -56.982 -51.554  42.069  1.00  0.00    -0.500 OA
ATOM     24  H   UNL     1     -56.057 -51.207  42.297  1.00  0.00     0.294 HD
ENDBRANCH  10  23
BRANCH   5  25
ATOM     25  O   UNL     1     -59.640 -49.353  35.118  1.00  0.00    -0.507 OA
ATOM     26  H   UNL     1     -59.280 -49.635  34.213  1.00  0.00     0.293 HD
ENDBRANCH   5  25
BRANCH   7  27
ATOM     27  O   UNL     1     -55.692 -48.788  37.818  1.00  0.00    -0.507 OA
ATOM     28  H   UNL     1     -54.847 -49.315  37.990  1.00  0.00     0.293 HD
ENDBRANCH   7  27
TORSDOF 7
ENDMDL
MODEL 5
REMARK VINA RESULT:    -5.080      0.976      3.129
REMARK INTER + INTRA:          -6.610
REMARK INTER:                  -6.262
REMARK INTRA:                  -0.348
REMARK UNBOUND:                -0.342
REMARK SMILES Oc1cc(O)c2cc(O)c(-c3cc(O)c(O)c(O)c3)[o+]c2c1
REMARK SMILES IDX 10 1 20 2 21 3 22 4 2 5 3 6 4 7 6 8 7 9 8 10 11 11 12 12
REMARK SMILES IDX 13 13 19 14 15 15 17 16 14 17 16 19 18 21 9 23 1 25 5 27
REMARK H PARENT 14 18 16 20 18 22 9 24 1 26 5 28
REMARK Flexibility Score: inf
ROOT
ATOM      1  C   UNL     1     -58.366 -48.820  36.200  1.00  0.00     0.402 A 
ATOM      2  O   UNL     1     -58.409 -49.668  35.175  1.00  0.00    -0.202 OA
ATOM      3  C   UNL     1     -58.757 -49.307  33.944  1.00  0.00     0.368 A 
ATOM      4  C   UNL     1     -58.770 -50.270  32.931  1.00  0.00     0.162 A 
ATOM      5  C   UNL     1     -59.127 -49.919  31.630  1.00  0.00     0.128 A 
ATOM      6  C   UNL     1     -59.475 -48.596  31.334  1.00  0.00     0.093 A 
ATOM      7  C   UNL     1     -59.469 -47.612  32.331  1.00  0.00     0.136 A 
ATOM      8  C   UNL     1     -59.108 -47.966  33.658  1.00  0.00     0.125 A 
ATOM      9  C   UNL     1     -59.088 -47.050  34.722  1.00  0.00     0.078 A 
ATOM     10  C   UNL     1     -58.726 -47.474  36.004  1.00  0.00     0.223 A 
ENDROOT
BRANCH   1  11
ATOM     11  C   UNL     1     -57.953 -49.342  37.523  1.00  0.00     0.091 A 
ATOM     12  C   UNL     1     -58.854 -50.037  38.349  1.00  0.00     0.068 A 
ATOM     13  C   UNL     1     -58.450 -50.502  39.607  1.00  0.00     0.162 A 
ATOM     14  C   UNL     1     -56.654 -49.090  37.990  1.00  0.00     0.068 A 
ATOM     15  C   UNL     1     -57.144 -50.267  40.057  1.00  0.00     0.200 A 
ATOM     16  C   UNL     1     -56.244 -49.555  39.247  1.00  0.00     0.162 A 
BRANCH  13  17
ATOM     17  O   UNL     1     -59.344 -51.197  40.421  1.00  0.00    -0.504 OA
ATOM     18  H   UNL     1     -60.147 -51.679  40.036  1.00  0.00     0.293 HD
ENDBRANCH  13  17
BRANCH  15  19
ATOM     19  O   UNL     1     -56.759 -50.742  41.312  1.00  0.00    -0.502 OA
ATOM     20  H   UNL     1     -55.973 -50.353  41.816  1.00  0.00     0.293 HD
ENDBRANCH  15  19
BRANCH  16  21
ATOM     21  O   UNL     1     -54.946 -49.311  39.694  1.00  0.00    -0.504 OA
ATOM     22  H   UNL     1     -54.401 -50.026  40.159  1.00  0.00     0.293 HD
ENDBRANCH  16  21
ENDBRANCH   1  11
BRANCH  10  23
ATOM     23  O   UNL     1     -58.753 -46.577  37.072  1.00  0.00    -0.500 OA
ATOM     24  H   UNL     1     -58.943 -46.882  38.020  1.00  0.00     0.294 HD
ENDBRANCH  10  23
BRANCH   5  25
ATOM     25  O   UNL     1     -59.134 -50.893  30.633  1.00  0.00    -0.507 OA
ATOM     26  H   UNL     1     -58.995 -50.656  29.658  1.00  0.00     0.293 HD
ENDBRANCH   5  25
BRANCH   7  27
ATOM     27  O   UNL     1     -59.825 -46.314  31.956  1.00  0.00    -0.507 OA
ATOM     28  H   UNL     1     -59.244 -45.699  31.404  1.00  0.00     0.293 HD
ENDBRANCH   7  27
TORSDOF 7
ENDMDL
MODEL 6
REMARK VINA RESULT:    -5.070      0.991      2.593
REMARK INTER + INTRA:          -6.597
REMARK INTER:                  -6.236
REMARK INTRA:                  -0.361
REMARK UNBOUND:                -0.342
REMARK SMILES Oc1cc(O)c2cc(O)c(-c3cc(O)c(O)c(O)c3)[o+]c2c1
REMARK SMILES IDX 10 1 20 2 21 3 22 4 2 5 3 6 4 7 6 8 7 9 8 10 11 11 12 12
REMARK SMILES IDX 13 13 19 14 15 15 17 16 14 17 16 19 18 21 9 23 1 25 5 27
REMARK H PARENT 14 18 16 20 18 22 9 24 1 26 5 28
REMARK Flexibility Score: inf
ROOT
ATOM      1  C   UNL     1     -58.303 -48.693  36.154  1.00  0.00     0.402 A 
ATOM      2  O   UNL     1     -58.392 -49.563  35.151  1.00  0.00    -0.202 OA
ATOM      3  C   UNL     1     -58.746 -49.219  33.917  1.00  0.00     0.368 A 
ATOM      4  C   UNL     1     -58.808 -50.205  32.928  1.00  0.00     0.162 A 
ATOM      5  C   UNL     1     -59.173 -49.873  31.623  1.00  0.00     0.128 A 
ATOM      6  C   UNL     1     -59.478 -48.545  31.301  1.00  0.00     0.093 A 
ATOM      7  C   UNL     1     -59.422 -47.539  32.273  1.00  0.00     0.136 A 
ATOM      8  C   UNL     1     -59.054 -47.874  33.603  1.00  0.00     0.125 A 
ATOM      9  C   UNL     1     -58.985 -46.934  34.644  1.00  0.00     0.078 A 
ATOM     10  C   UNL     1     -58.618 -47.340  35.931  1.00  0.00     0.223 A 
ENDROOT
BRANCH   1  11
ATOM     11  C   UNL     1     -57.889 -49.197  37.483  1.00  0.00     0.091 A 
ATOM     12  C   UNL     1     -56.578 -49.016  37.959  1.00  0.00     0.068 A 
ATOM     13  C   UNL     1     -56.201 -49.521  39.210  1.00  0.00     0.162 A 
ATOM     14  C   UNL     1     -58.804 -49.921  38.263  1.00  0.00     0.068 A 
ATOM     15  C   UNL     1     -57.126 -50.224  39.993  1.00  0.00     0.200 A 
ATOM     16  C   UNL     1     -58.432 -50.427  39.516  1.00  0.00     0.162 A 
BRANCH  13  17
ATOM     17  O   UNL     1     -54.902 -49.334  39.682  1.00  0.00    -0.504 OA
ATOM     18  H   UNL     1     -54.666 -48.561  40.293  1.00  0.00     0.293 HD
ENDBRANCH  13  17
BRANCH  15  19
ATOM     19  O   UNL     1     -56.732 -50.715  41.238  1.00  0.00    -0.502 OA
ATOM     20  H   UNL     1     -57.396 -50.892  41.981  1.00  0.00     0.293 HD
ENDBRANCH  15  19
BRANCH  16  21
ATOM     21  O   UNL     1     -59.354 -51.133  40.287  1.00  0.00    -0.504 OA
ATOM     22  H   UNL     1     -60.179 -51.552  39.877  1.00  0.00     0.293 HD
ENDBRANCH  16  21
ENDBRANCH   1  11
BRANCH  10  23
ATOM     23  O   UNL     1     -58.597 -46.417  36.977  1.00  0.00    -0.500 OA
ATOM     24  H   UNL     1     -59.451 -46.046  37.376  1.00  0.00     0.294 HD
ENDBRANCH  10  23
BRANCH   5  25
ATOM     25  O   UNL     1     -59.230 -50.870  30.651  1.00  0.00    -0.507 OA
ATOM     26  H   UNL     1     -59.875 -50.815  29.873  1.00  0.00     0.293 HD
ENDBRANCH   5  25
BRANCH   7  27
ATOM     27  O   UNL     1     -59.738 -46.238  31.872  1.00  0.00    -0.507 OA
ATOM     28  H   UNL     1     -60.678 -45.878  31.790  1.00  0.00     0.293 HD
ENDBRANCH   7  27
TORSDOF 7
ENDMDL
MODEL 7
REMARK VINA RESULT:    -4.823      1.163      7.119
REMARK INTER + INTRA:          -6.293
REMARK INTER:                  -5.925
REMARK INTRA:                  -0.368
REMARK UNBOUND:                -0.342
REMARK SMILES Oc1cc(O)c2cc(O)c(-c3cc(O)c(O)c(O)c3)[o+]c2c1
REMARK SMILES IDX 10 1 20 2 21 3 22 4 2 5 3 6 4 7 6 8 7 9 8 10 11 11 12 12
REMARK SMILES IDX 13 13 19 14 15 15 17 16 14 17 16 19 18 21 9 23 1 25 5 27
REMARK H PARENT 14 18 16 20 18 22 9 24 1 26 5 28
REMARK Flexibility Score: inf
ROOT
ATOM      1  C   UNL     1     -59.024 -49.778  35.513  1.00  0.00     0.402 A 
ATOM      2  O   UNL     1     -57.892 -49.348  36.066  1.00  0.00    -0.202 OA
ATOM      3  C   UNL     1     -57.541 -49.627  37.318  1.00  0.00     0.368 A 
ATOM      4  C   UNL     1     -56.330 -49.132  37.810  1.00  0.00     0.162 A 
ATOM      5  C   UNL     1     -55.932 -49.411  39.117  1.00  0.00     0.128 A 
ATOM      6  C   UNL     1     -56.750 -50.193  39.942  1.00  0.00     0.093 A 
ATOM      7  C   UNL     1     -57.967 -50.701  39.473  1.00  0.00     0.136 A 
ATOM      8  C   UNL     1     -58.376 -50.416  38.144  1.00  0.00     0.125 A 
ATOM      9  C   UNL     1     -59.586 -50.872  37.593  1.00  0.00     0.078 A 
ATOM     10  C   UNL     1     -59.922 -50.547  36.276  1.00  0.00     0.223 A 
ENDROOT
BRANCH   1  11
ATOM     11  C   UNL     1     -59.300 -49.407  34.107  1.00  0.00     0.091 A 
ATOM     12  C   UNL     1     -59.073 -50.311  33.054  1.00  0.00     0.068 A 
ATOM     13  C   UNL     1     -59.319 -49.932  31.727  1.00  0.00     0.162 A 
ATOM     14  C   UNL     1     -59.744 -48.110  33.808  1.00  0.00     0.068 A 
ATOM     15  C   UNL     1     -59.783 -48.642  31.439  1.00  0.00     0.200 A 
ATOM     16  C   UNL     1     -59.994 -47.726  32.484  1.00  0.00     0.162 A 
BRANCH  13  17
ATOM     17  O   UNL     1     -59.098 -50.833  30.686  1.00  0.00    -0.504 OA
ATOM     18  H   UNL     1     -58.373 -51.538  30.740  1.00  0.00     0.293 HD
ENDBRANCH  13  17
BRANCH  15  19
ATOM     19  O   UNL     1     -60.027 -48.286  30.112  1.00  0.00    -0.502 OA
ATOM     20  H   UNL     1     -59.337 -47.804  29.549  1.00  0.00     0.293 HD
ENDBRANCH  15  19
BRANCH  16  21
ATOM     21  O   UNL     1     -60.448 -46.439  32.202  1.00  0.00    -0.504 OA
ATOM     22  H   UNL     1     -61.396 -46.153  32.413  1.00  0.00     0.293 HD
ENDBRANCH  16  21
ENDBRANCH   1  11
BRANCH  10  23
ATOM     23  O   UNL     1     -61.145 -50.957  35.745  1.00  0.00    -0.500 OA
ATOM     24  H   UNL     1     -61.302 -51.005  34.745  1.00  0.00     0.294 HD
ENDBRANCH  10  23
BRANCH   5  25
ATOM     25  O   UNL     1     -54.722 -48.909  39.589  1.00  0.00    -0.507 OA
ATOM     26  H   UNL     1     -54.225 -49.352  40.353  1.00  0.00     0.293 HD
ENDBRANCH   5  25
BRANCH   7  27
ATOM     27  O   UNL     1     -58.725 -51.475  40.356  1.00  0.00    -0.507 OA
ATOM     28  H   UNL     1     -58.967 -51.197  41.296  1.00  0.00     0.293 HD
ENDBRANCH   7  27
TORSDOF 7
ENDMDL
MODEL 8
REMARK VINA RESULT:    -4.798      3.623      6.264
REMARK INTER + INTRA:          -6.263
REMARK INTER:                  -6.008
REMARK INTRA:                  -0.254
REMARK UNBOUND:                -0.342
REMARK SMILES Oc1cc(O)c2cc(O)c(-c3cc(O)c(O)c(O)c3)[o+]c2c1
REMARK SMILES IDX 10 1 20 2 21 3 22 4 2 5 3 6 4 7 6 8 7 9 8 10 11 11 12 12
REMARK SMILES IDX 13 13 19 14 15 15 17 16 14 17 16 19 18 21 9 23 1 25 5 27
REMARK H PARENT 14 18 16 20 18 22 9 24 1 26 5 28
REMARK Flexibility Score: inf
ROOT
ATOM      1  C   UNL     1     -59.301 -51.720  40.183  1.00  0.00     0.402 A 
ATOM      2  O   UNL     1     -58.093 -51.196  40.379  1.00  0.00    -0.202 OA
ATOM      3  C   UNL     1     -57.510 -50.367  39.519  1.00  0.00     0.368 A 
ATOM      4  C   UNL     1     -56.239 -49.865  39.813  1.00  0.00     0.162 A 
ATOM      5  C   UNL     1     -55.605 -48.990  38.933  1.00  0.00     0.128 A 
ATOM      6  C   UNL     1     -56.244 -48.609  37.746  1.00  0.00     0.093 A 
ATOM      7  C   UNL     1     -57.517 -49.097  37.429  1.00  0.00     0.136 A 
ATOM      8  C   UNL     1     -58.165 -49.990  38.322  1.00  0.00     0.125 A 
ATOM      9  C   UNL     1     -59.435 -50.539  38.078  1.00  0.00     0.078 A 
ATOM     10  C   UNL     1     -60.007 -51.417  39.005  1.00  0.00     0.223 A 
ENDROOT
BRANCH   1  11
ATOM     11  C   UNL     1     -59.847 -52.625  41.219  1.00  0.00     0.091 A 
ATOM     12  C   UNL     1     -59.288 -53.894  41.451  1.00  0.00     0.068 A 
ATOM     13  C   UNL     1     -59.835 -54.745  42.421  1.00  0.00     0.162 A 
ATOM     14  C   UNL     1     -60.981 -52.236  41.949  1.00  0.00     0.068 A 
ATOM     15  C   UNL     1     -60.953 -54.340  43.160  1.00  0.00     0.200 A 
ATOM     16  C   UNL     1     -61.531 -53.082  42.921  1.00  0.00     0.162 A 
BRANCH  13  17
ATOM     17  O   UNL     1     -59.274 -56.001  42.652  1.00  0.00    -0.504 OA
ATOM     18  H   UNL     1     -59.219 -56.393  43.585  1.00  0.00     0.293 HD
ENDBRANCH  13  17
BRANCH  15  19
ATOM     19  O   UNL     1     -61.480 -55.200  44.125  1.00  0.00    -0.502 OA
ATOM     20  H   UNL     1     -62.262 -54.936  44.712  1.00  0.00     0.293 HD
ENDBRANCH  15  19
BRANCH  16  21
ATOM     21  O   UNL     1     -62.649 -52.678  43.649  1.00  0.00    -0.504 OA
ATOM     22  H   UNL     1     -63.221 -51.896  43.353  1.00  0.00     0.293 HD
ENDBRANCH  16  21
ENDBRANCH   1  11
BRANCH  10  23
ATOM     23  O   UNL     1     -61.247 -52.001  38.741  1.00  0.00    -0.500 OA
ATOM     24  H   UNL     1     -61.518 -52.884  39.158  1.00  0.00     0.294 HD
ENDBRANCH  10  23
BRANCH   5  25
ATOM     25  O   UNL     1     -54.338 -48.501  39.243  1.00  0.00    -0.507 OA
ATOM     26  H   UNL     1     -54.070 -47.548  39.028  1.00  0.00     0.293 HD
ENDBRANCH   5  25
BRANCH   7  27
ATOM     27  O   UNL     1     -58.090 -48.668  36.228  1.00  0.00    -0.507 OA
ATOM     28  H   UNL     1     -58.532 -49.279  35.555  1.00  0.00     0.293 HD
ENDBRANCH   7  27
TORSDOF 7
ENDMDL
MODEL 9
REMARK VINA RESULT:    -3.686      0.150      1.795
REMARK INTER + INTRA:          -4.890
REMARK INTER:                  -4.549
REMARK INTRA:                  -0.341
REMARK UNBOUND:                -0.342
REMARK SMILES Oc1cc(O)c2cc(O)c(-c3cc(O)c(O)c(O)c3)[o+]c2c1
REMARK SMILES IDX 10 1 20 2 21 3 22 4 2 5 3 6 4 7 6 8 7 9 8 10 11 11 12 12
REMARK SMILES IDX 13 13 19 14 15 15 17 16 14 17 16 19 18 21 9 23 1 25 5 27
REMARK H PARENT 14 18 16 20 18 22 9 24 1 26 5 28
REMARK Flexibility Score: inf
ROOT
ATOM      1  C   UNL     1     -58.147 -50.114  35.868  1.00  0.00     0.402 A 
ATOM      2  O   UNL     1     -58.450 -48.916  35.374  1.00  0.00    -0.202 OA
ATOM      3  C   UNL     1     -58.770 -48.712  34.100  1.00  0.00     0.368 A 
ATOM      4  C   UNL     1     -59.076 -47.417  33.674  1.00  0.00     0.162 A 
ATOM      5  C   UNL     1     -59.419 -47.173  32.345  1.00  0.00     0.128 A 
ATOM      6  C   UNL     1     -59.459 -48.233  31.430  1.00  0.00     0.093 A 
ATOM      7  C   UNL     1     -59.157 -49.540  31.831  1.00  0.00     0.136 A 
ATOM      8  C   UNL     1     -58.805 -49.790  33.183  1.00  0.00     0.125 A 
ATOM      9  C   UNL     1     -58.475 -51.066  33.671  1.00  0.00     0.078 A 
ATOM     10  C   UNL     1     -58.133 -51.234  35.017  1.00  0.00     0.223 A 
ENDROOT
BRANCH   1  11
ATOM     11  C   UNL     1     -57.816 -50.213  37.308  1.00  0.00     0.091 A 
ATOM     12  C   UNL     1     -58.726 -50.752  38.233  1.00  0.00     0.068 A 
ATOM     13  C   UNL     1     -58.402 -50.816  39.594  1.00  0.00     0.162 A 
ATOM     14  C   UNL     1     -56.591 -49.709  37.771  1.00  0.00     0.068 A 
ATOM     15  C   UNL     1     -57.168 -50.331  40.046  1.00  0.00     0.200 A 
ATOM     16  C   UNL     1     -56.260 -49.771  39.132  1.00  0.00     0.162 A 
BRANCH  13  17
ATOM     17  O   UNL     1     -59.305 -51.358  40.509  1.00  0.00    -0.504 OA
ATOM     18  H   UNL     1     -60.181 -51.770  40.208  1.00  0.00     0.293 HD
ENDBRANCH  13  17
BRANCH  15  19
ATOM     19  O   UNL     1     -56.862 -50.407  41.405  1.00  0.00    -0.502 OA
ATOM     20  H   UNL     1     -56.022 -49.995  41.792  1.00  0.00     0.293 HD
ENDBRANCH  15  19
BRANCH  16  21
ATOM     21  O   UNL     1     -55.034 -49.279  39.577  1.00  0.00    -0.504 OA
ATOM     22  H   UNL     1     -54.549 -49.695  40.363  1.00  0.00     0.293 HD
ENDBRANCH  16  21
ENDBRANCH   1  11
BRANCH  10  23
ATOM     23  O   UNL     1     -57.757 -52.491  35.491  1.00  0.00    -0.500 OA
ATOM     24  H   UNL     1     -56.967 -52.610  36.114  1.00  0.00     0.294 HD
ENDBRANCH  10  23
BRANCH   5  25
ATOM     25  O   UNL     1     -59.720 -45.875  31.939  1.00  0.00    -0.507 OA
ATOM     26  H   UNL     1     -59.874 -45.132  32.611  1.00  0.00     0.293 HD
ENDBRANCH   5  25
BRANCH   7  27
ATOM     27  O   UNL     1     -59.222 -50.543  30.860  1.00  0.00    -0.507 OA
ATOM     28  H   UNL     1     -59.471 -50.387  29.893  1.00  0.00     0.293 HD
ENDBRANCH   7  27
TORSDOF 7
ENDMDL
