MODEL 1
REMARK VINA RESULT:    -6.728      0.000      0.000
REMARK INTER + INTRA:         -10.031
REMARK INTER:                  -8.891
REMARK INTRA:                  -1.140
REMARK UNBOUND:                -1.140
REMARK SMILES CC[C@@H](C=C[C@@H](C)[C@@H]1CC[C@@H]2[C@@H]3CC=C4C[C@H](O)CC[C@]4(C)[C@H]3CC[C@@]21C)C(C)C
REMARK SMILES IDX 6 1 7 2 5 3 4 4 3 5 2 6 1 7 28 8 29 9 30 10 8 11 9 12 26 13
REMARK SMILES IDX 10 14 11 15 25 16 27 17 12 18 24 19 23 20 13 21 21 22 14 23
REMARK SMILES IDX 15 24 20 25 22 26 16 27 19 28 17 29 18 30
REMARK H PARENT 18 31
REMARK Flexibility Score: inf
ROOT
ATOM      1  C   UNL     1     143.733 133.073 147.975  1.00  0.00     0.012 C 
ATOM      2  C   UNL     1     143.339 132.989 146.490  1.00  0.00     0.012 C 
ENDROOT
BRANCH   1   3
ATOM      3  C   UNL     1     142.578 132.572 148.799  1.00  0.00    -0.028 C 
ATOM      4  C   UNL     1     142.394 132.962 150.076  1.00  0.00    -0.027 C 
BRANCH   4   5
ATOM      5  C   UNL     1     141.286 132.469 151.013  1.00  0.00     0.014 C 
BRANCH   5   6
ATOM      6  C   UNL     1     140.750 131.107 150.491  1.00  0.00     0.004 C 
ATOM      7  C   UNL     1     141.464 129.897 151.105  1.00  0.00     0.004 C 
ENDBRANCH   5   6
BRANCH   5   8
ATOM      8  C   UNL     1     140.133 133.503 151.262  1.00  0.00    -0.011 C 
ATOM      9  C   UNL     1     140.157 134.683 150.271  1.00  0.00     0.008 C 
ATOM     10  C   UNL     1     138.742 132.843 151.272  1.00  0.00     0.008 C 
ENDBRANCH   5   8
ENDBRANCH   4   5
ENDBRANCH   1   3
BRANCH   1  11
ATOM     11  C   UNL     1     144.278 134.496 148.352  1.00  0.00     0.002 C 
ATOM     12  C   UNL     1     143.725 135.618 147.473  1.00  0.00     0.005 C 
ATOM     13  C   UNL     1     145.803 134.815 148.485  1.00  0.00    -0.026 C 
ATOM     14  C   UNL     1     144.616 136.833 147.750  1.00  0.00     0.005 C 
ATOM     15  C   UNL     1     145.735 136.347 148.703  1.00  0.00    -0.001 C 
ATOM     16  C   UNL     1     146.637 134.516 147.189  1.00  0.00     0.007 C 
ATOM     17  C   UNL     1     146.410 134.096 149.710  1.00  0.00     0.012 C 
ATOM     18  C   UNL     1     147.096 137.096 148.602  1.00  0.00     0.000 C 
ATOM     19  C   UNL     1     147.999 135.229 147.153  1.00  0.00     0.005 C 
ATOM     20  C   UNL     1     147.885 136.770 147.315  1.00  0.00     0.003 C 
ATOM     21  C   UNL     1     146.893 138.613 148.746  1.00  0.00     0.031 C 
ATOM     22  C   UNL     1     149.288 137.514 147.281  1.00  0.00    -0.008 C 
ATOM     23  C   UNL     1     148.162 139.386 148.567  1.00  0.00    -0.027 C 
ATOM     24  C   UNL     1     149.188 138.960 147.802  1.00  0.00    -0.065 C 
ATOM     25  C   UNL     1     149.786 137.579 145.800  1.00  0.00     0.014 C 
ATOM     26  C   UNL     1     150.342 136.770 148.152  1.00  0.00     0.016 C 
ATOM     27  C   UNL     1     150.360 139.902 147.580  1.00  0.00     0.063 C 
ATOM     28  C   UNL     1     151.037 138.458 145.610  1.00  0.00     0.033 C 
ATOM     29  C   UNL     1     150.814 139.893 146.114  1.00  0.00     0.118 C 
BRANCH  29  30
ATOM     30  O   UNL     1     149.858 140.538 145.308  1.00  0.00    -0.393 OA
ATOM     31  H   UNL     1     150.268 141.385 144.998  1.00  0.00     0.210 HD
ENDBRANCH  29  30
ENDBRANCH   1  11
TORSDOF 6
ENDMDL
MODEL 2
REMARK VINA RESULT:    -6.713      3.529      6.298
REMARK INTER + INTRA:         -10.012
REMARK INTER:                  -8.743
REMARK INTRA:                  -1.269
REMARK UNBOUND:                -1.140
REMARK SMILES CC[C@@H](C=C[C@@H](C)[C@@H]1CC[C@@H]2[C@@H]3CC=C4C[C@H](O)CC[C@]4(C)[C@H]3CC[C@@]21C)C(C)C
REMARK SMILES IDX 6 1 7 2 5 3 4 4 3 5 2 6 1 7 28 8 29 9 30 10 8 11 9 12 26 13
REMARK SMILES IDX 10 14 11 15 25 16 27 17 12 18 24 19 23 20 13 21 21 22 14 23
REMARK SMILES IDX 15 24 20 25 22 26 16 27 19 28 17 29 18 30
REMARK H PARENT 18 31
REMARK Flexibility Score: inf
ROOT
ATOM      1  C   UNL     1     137.759 132.998 148.671  1.00  0.00     0.012 C 
ATOM      2  C   UNL     1     136.751 132.068 149.369  1.00  0.00     0.012 C 
ENDROOT
BRANCH   1   3
ATOM      3  C   UNL     1     137.634 132.800 147.185  1.00  0.00    -0.028 C 
ATOM      4  C   UNL     1     137.450 133.837 146.344  1.00  0.00    -0.027 C 
BRANCH   4   5
ATOM      5  C   UNL     1     137.257 133.737 144.827  1.00  0.00     0.014 C 
BRANCH   5   6
ATOM      6  C   UNL     1     136.735 132.316 144.475  1.00  0.00     0.004 C 
ATOM      7  C   UNL     1     136.008 132.252 143.127  1.00  0.00     0.004 C 
ENDBRANCH   5   6
BRANCH   5   8
ATOM      8  C   UNL     1     138.518 134.130 143.980  1.00  0.00    -0.011 C 
ATOM      9  C   UNL     1     139.134 135.477 144.405  1.00  0.00     0.008 C 
ATOM     10  C   UNL     1     139.594 133.028 143.979  1.00  0.00     0.008 C 
ENDBRANCH   5   8
ENDBRANCH   4   5
ENDBRANCH   1   3
BRANCH   1  11
ATOM     11  C   UNL     1     139.203 132.838 149.265  1.00  0.00     0.002 C 
ATOM     12  C   UNL     1     139.485 133.763 150.449  1.00  0.00     0.005 C 
ATOM     13  C   UNL     1     140.497 132.913 148.389  1.00  0.00    -0.026 C 
ATOM     14  C   UNL     1     141.004 133.720 150.651  1.00  0.00     0.005 C 
ATOM     15  C   UNL     1     141.574 132.853 149.502  1.00  0.00    -0.001 C 
ATOM     16  C   UNL     1     140.655 134.256 147.592  1.00  0.00     0.007 C 
ATOM     17  C   UNL     1     140.591 131.695 147.444  1.00  0.00     0.012 C 
ATOM     18  C   UNL     1     143.024 133.187 149.044  1.00  0.00     0.000 C 
ATOM     19  C   UNL     1     142.090 134.522 147.109  1.00  0.00     0.005 C 
ATOM     20  C   UNL     1     143.133 134.513 148.260  1.00  0.00     0.003 C 
ATOM     21  C   UNL     1     143.985 133.184 150.244  1.00  0.00     0.031 C 
ATOM     22  C   UNL     1     144.619 134.784 147.769  1.00  0.00    -0.008 C 
ATOM     23  C   UNL     1     145.377 133.586 149.870  1.00  0.00    -0.027 C 
ATOM     24  C   UNL     1     145.659 134.412 148.842  1.00  0.00    -0.065 C 
ATOM     25  C   UNL     1     144.777 136.311 147.466  1.00  0.00     0.014 C 
ATOM     26  C   UNL     1     144.948 133.964 146.487  1.00  0.00     0.016 C 
ATOM     27  C   UNL     1     147.099 134.864 148.655  1.00  0.00     0.063 C 
ATOM     28  C   UNL     1     146.230 136.734 147.180  1.00  0.00     0.033 C 
ATOM     29  C   UNL     1     147.176 136.363 148.334  1.00  0.00     0.118 C 
BRANCH  29  30
ATOM     30  O   UNL     1     146.854 137.120 149.475  1.00  0.00    -0.393 OA
ATOM     31  H   UNL     1     147.022 138.069 149.246  1.00  0.00     0.210 HD
ENDBRANCH  29  30
ENDBRANCH   1  11
TORSDOF 6
ENDMDL
MODEL 3
REMARK VINA RESULT:    -6.702      1.690      2.506
REMARK INTER + INTRA:          -9.997
REMARK INTER:                  -9.045
REMARK INTRA:                  -0.952
REMARK UNBOUND:                -1.140
REMARK SMILES CC[C@@H](C=C[C@@H](C)[C@@H]1CC[C@@H]2[C@@H]3CC=C4C[C@H](O)CC[C@]4(C)[C@H]3CC[C@@]21C)C(C)C
REMARK SMILES IDX 6 1 7 2 5 3 4 4 3 5 2 6 1 7 28 8 29 9 30 10 8 11 9 12 26 13
REMARK SMILES IDX 10 14 11 15 25 16 27 17 12 18 24 19 23 20 13 21 21 22 14 23
REMARK SMILES IDX 15 24 20 25 22 26 16 27 19 28 17 29 18 30
REMARK H PARENT 18 31
REMARK Flexibility Score: inf
ROOT
ATOM      1  C   UNL     1     143.722 133.951 149.874  1.00  0.00     0.012 C 
ATOM      2  C   UNL     1     144.845 132.911 150.033  1.00  0.00     0.012 C 
ENDROOT
BRANCH   1   3
ATOM      3  C   UNL     1     142.411 133.219 149.779  1.00  0.00    -0.028 C 
ATOM      4  C   UNL     1     141.287 133.827 149.350  1.00  0.00    -0.027 C 
BRANCH   4   5
ATOM      5  C   UNL     1     139.897 133.188 149.269  1.00  0.00     0.014 C 
BRANCH   5   6
ATOM      6  C   UNL     1     139.342 133.363 147.827  1.00  0.00     0.004 C 
ATOM      7  C   UNL     1     140.316 134.081 146.885  1.00  0.00     0.004 C 
ENDBRANCH   5   6
BRANCH   5   8
ATOM      8  C   UNL     1     138.884 133.686 150.357  1.00  0.00    -0.011 C 
ATOM      9  C   UNL     1     137.451 133.165 150.131  1.00  0.00     0.008 C 
ATOM     10  C   UNL     1     139.350 133.362 151.789  1.00  0.00     0.008 C 
ENDBRANCH   5   8
ENDBRANCH   4   5
ENDBRANCH   1   3
BRANCH   1  11
ATOM     11  C   UNL     1     144.027 134.964 148.715  1.00  0.00     0.002 C 
ATOM     12  C   UNL     1     144.380 134.291 147.389  1.00  0.00     0.005 C 
ATOM     13  C   UNL     1     145.062 136.129 148.854  1.00  0.00    -0.026 C 
ATOM     14  C   UNL     1     144.976 135.398 146.512  1.00  0.00     0.005 C 
ATOM     15  C   UNL     1     145.054 136.664 147.400  1.00  0.00    -0.001 C 
ATOM     16  C   UNL     1     146.514 135.659 149.221  1.00  0.00     0.007 C 
ATOM     17  C   UNL     1     144.558 137.195 149.851  1.00  0.00     0.012 C 
ATOM     18  C   UNL     1     146.187 137.675 147.056  1.00  0.00     0.000 C 
ATOM     19  C   UNL     1     147.598 136.706 148.918  1.00  0.00     0.005 C 
ATOM     20  C   UNL     1     147.597 137.174 147.437  1.00  0.00     0.003 C 
ATOM     21  C   UNL     1     146.132 138.066 145.570  1.00  0.00     0.031 C 
ATOM     22  C   UNL     1     148.713 138.259 147.117  1.00  0.00    -0.008 C 
ATOM     23  C   UNL     1     147.256 138.969 145.168  1.00  0.00    -0.027 C 
ATOM     24  C   UNL     1     148.462 138.966 145.772  1.00  0.00    -0.065 C 
ATOM     25  C   UNL     1     150.099 137.540 147.022  1.00  0.00     0.014 C 
ATOM     26  C   UNL     1     148.769 139.353 148.223  1.00  0.00     0.016 C 
ATOM     27  C   UNL     1     149.568 139.822 145.177  1.00  0.00     0.063 C 
ATOM     28  C   UNL     1     151.231 138.452 146.512  1.00  0.00     0.033 C 
ATOM     29  C   UNL     1     150.902 139.065 145.141  1.00  0.00     0.118 C 
BRANCH  29  30
ATOM     30  O   UNL     1     150.859 138.053 144.166  1.00  0.00    -0.393 OA
ATOM     31  H   UNL     1     149.920 137.741 144.118  1.00  0.00     0.210 HD
ENDBRANCH  29  30
ENDBRANCH   1  11
TORSDOF 6
ENDMDL
MODEL 4
REMARK VINA RESULT:    -6.639      3.796      9.853
REMARK INTER + INTRA:          -9.914
REMARK INTER:                  -9.095
REMARK INTRA:                  -0.819
REMARK UNBOUND:                -1.140
REMARK SMILES CC[C@@H](C=C[C@@H](C)[C@@H]1CC[C@@H]2[C@@H]3CC=C4C[C@H](O)CC[C@]4(C)[C@H]3CC[C@@]21C)C(C)C
REMARK SMILES IDX 6 1 7 2 5 3 4 4 3 5 2 6 1 7 28 8 29 9 30 10 8 11 9 12 26 13
REMARK SMILES IDX 10 14 11 15 25 16 27 17 12 18 24 19 23 20 13 21 21 22 14 23
REMARK SMILES IDX 15 24 20 25 22 26 16 27 19 28 17 29 18 30
REMARK H PARENT 18 31
REMARK Flexibility Score: inf
ROOT
ATOM      1  C   UNL     1     144.974 134.239 146.535  1.00  0.00     0.012 C 
ATOM      2  C   UNL     1     144.992 132.845 145.885  1.00  0.00     0.012 C 
ENDROOT
BRANCH   1   3
ATOM      3  C   UNL     1     146.388 134.615 146.885  1.00  0.00    -0.028 C 
ATOM      4  C   UNL     1     146.665 135.525 147.839  1.00  0.00    -0.027 C 
BRANCH   4   5
ATOM      5  C   UNL     1     148.063 136.016 148.231  1.00  0.00     0.014 C 
BRANCH   5   6
ATOM      6  C   UNL     1     148.702 134.993 149.212  1.00  0.00     0.004 C 
ATOM      7  C   UNL     1     147.693 134.374 150.186  1.00  0.00     0.004 C 
ENDBRANCH   5   6
BRANCH   5   8
ATOM      8  C   UNL     1     148.109 137.480 148.791  1.00  0.00    -0.011 C 
ATOM      9  C   UNL     1     149.082 138.391 148.017  1.00  0.00     0.008 C 
ATOM     10  C   UNL     1     146.714 138.128 148.862  1.00  0.00     0.008 C 
ENDBRANCH   5   8
ENDBRANCH   4   5
ENDBRANCH   1   3
BRANCH   1  11
ATOM     11  C   UNL     1     143.932 134.320 147.706  1.00  0.00     0.002 C 
ATOM     12  C   UNL     1     144.184 133.307 148.823  1.00  0.00     0.005 C 
ATOM     13  C   UNL     1     142.386 134.276 147.475  1.00  0.00    -0.026 C 
ATOM     14  C   UNL     1     142.904 133.299 149.666  1.00  0.00     0.005 C 
ATOM     15  C   UNL     1     141.900 134.230 148.945  1.00  0.00    -0.001 C 
ATOM     16  C   UNL     1     141.885 132.990 146.727  1.00  0.00     0.007 C 
ATOM     17  C   UNL     1     141.901 135.556 146.758  1.00  0.00     0.012 C 
ATOM     18  C   UNL     1     140.392 133.895 149.139  1.00  0.00     0.000 C 
ATOM     19  C   UNL     1     140.380 132.724 146.896  1.00  0.00     0.005 C 
ATOM     20  C   UNL     1     139.941 132.626 148.383  1.00  0.00     0.003 C 
ATOM     21  C   UNL     1     140.046 133.789 150.633  1.00  0.00     0.031 C 
ATOM     22  C   UNL     1     138.386 132.354 148.565  1.00  0.00    -0.008 C 
ATOM     23  C   UNL     1     138.627 133.381 150.870  1.00  0.00    -0.027 C 
ATOM     24  C   UNL     1     137.919 132.623 150.008  1.00  0.00    -0.065 C 
ATOM     25  C   UNL     1     138.099 130.849 148.248  1.00  0.00     0.014 C 
ATOM     26  C   UNL     1     137.542 133.255 147.618  1.00  0.00     0.016 C 
ATOM     27  C   UNL     1     136.537 132.151 150.430  1.00  0.00     0.063 C 
ATOM     28  C   UNL     1     136.662 130.412 148.590  1.00  0.00     0.033 C 
ATOM     29  C   UNL     1     136.315 130.677 150.064  1.00  0.00     0.118 C 
BRANCH  29  30
ATOM     30  O   UNL     1     137.093 129.849 150.892  1.00  0.00    -0.393 OA
ATOM     31  H   UNL     1     136.703 128.940 150.839  1.00  0.00     0.210 HD
ENDBRANCH  29  30
ENDBRANCH   1  11
TORSDOF 6
ENDMDL
MODEL 5
REMARK VINA RESULT:    -6.529      2.046      3.692
REMARK INTER + INTRA:          -9.768
REMARK INTER:                  -8.594
REMARK INTRA:                  -1.174
REMARK UNBOUND:                -1.140
REMARK SMILES CC[C@@H](C=C[C@@H](C)[C@@H]1CC[C@@H]2[C@@H]3CC=C4C[C@H](O)CC[C@]4(C)[C@H]3CC[C@@]21C)C(C)C
REMARK SMILES IDX 6 1 7 2 5 3 4 4 3 5 2 6 1 7 28 8 29 9 30 10 8 11 9 12 26 13
REMARK SMILES IDX 10 14 11 15 25 16 27 17 12 18 24 19 23 20 13 21 21 22 14 23
REMARK SMILES IDX 15 24 20 25 22 26 16 27 19 28 17 29 18 30
REMARK H PARENT 18 31
REMARK Flexibility Score: inf
ROOT
ATOM      1  C   UNL     1     141.777 131.897 148.834  1.00  0.00     0.012 C 
ATOM      2  C   UNL     1     142.518 130.570 148.597  1.00  0.00     0.012 C 
ENDROOT
BRANCH   1   3
ATOM      3  C   UNL     1     140.298 131.630 148.776  1.00  0.00    -0.028 C 
ATOM      4  C   UNL     1     139.428 132.547 148.308  1.00  0.00    -0.027 C 
BRANCH   4   5
ATOM      5  C   UNL     1     137.904 132.394 148.258  1.00  0.00     0.014 C 
BRANCH   5   6
ATOM      6  C   UNL     1     137.335 133.350 147.173  1.00  0.00     0.004 C 
ATOM      7  C   UNL     1     138.369 133.753 146.116  1.00  0.00     0.004 C 
ENDBRANCH   5   6
BRANCH   5   8
ATOM      8  C   UNL     1     137.184 132.572 149.640  1.00  0.00    -0.011 C 
ATOM      9  C   UNL     1     136.712 131.238 150.250  1.00  0.00     0.008 C 
ATOM     10  C   UNL     1     138.041 133.350 150.656  1.00  0.00     0.008 C 
ENDBRANCH   5   8
ENDBRANCH   4   5
ENDBRANCH   1   3
BRANCH   1  11
ATOM     11  C   UNL     1     142.307 133.035 147.891  1.00  0.00     0.002 C 
ATOM     12  C   UNL     1     143.319 132.549 146.853  1.00  0.00     0.005 C 
ATOM     13  C   UNL     1     142.905 134.376 148.428  1.00  0.00    -0.026 C 
ATOM     14  C   UNL     1     143.966 133.818 146.286  1.00  0.00     0.005 C 
ATOM     15  C   UNL     1     143.386 135.004 147.095  1.00  0.00    -0.001 C 
ATOM     16  C   UNL     1     144.136 134.194 149.384  1.00  0.00     0.007 C 
ATOM     17  C   UNL     1     141.810 135.237 149.095  1.00  0.00     0.012 C 
ATOM     18  C   UNL     1     144.306 136.251 147.240  1.00  0.00     0.000 C 
ATOM     19  C   UNL     1     144.987 135.464 149.545  1.00  0.00     0.005 C 
ATOM     20  C   UNL     1     145.501 136.029 148.193  1.00  0.00     0.003 C 
ATOM     21  C   UNL     1     144.791 136.730 145.862  1.00  0.00     0.031 C 
ATOM     22  C   UNL     1     146.379 137.343 148.350  1.00  0.00    -0.008 C 
ATOM     23  C   UNL     1     145.751 137.875 145.953  1.00  0.00    -0.027 C 
ATOM     24  C   UNL     1     146.563 138.079 147.010  1.00  0.00    -0.065 C 
ATOM     25  C   UNL     1     147.799 136.939 148.866  1.00  0.00     0.014 C 
ATOM     26  C   UNL     1     145.727 138.340 149.351  1.00  0.00     0.016 C 
ATOM     27  C   UNL     1     147.598 139.189 146.919  1.00  0.00     0.063 C 
ATOM     28  C   UNL     1     148.809 138.102 148.862  1.00  0.00     0.033 C 
ATOM     29  C   UNL     1     148.956 138.732 147.467  1.00  0.00     0.118 C 
BRANCH  29  30
ATOM     30  O   UNL     1     149.547 137.808 146.588  1.00  0.00    -0.393 OA
ATOM     31  H   UNL     1     149.992 137.123 147.148  1.00  0.00     0.210 HD
ENDBRANCH  29  30
ENDBRANCH   1  11
TORSDOF 6
ENDMDL
MODEL 6
REMARK VINA RESULT:    -6.516      3.417      9.829
REMARK INTER + INTRA:          -9.751
REMARK INTER:                  -8.616
REMARK INTRA:                  -1.135
REMARK UNBOUND:                -1.140
REMARK SMILES CC[C@@H](C=C[C@@H](C)[C@@H]1CC[C@@H]2[C@@H]3CC=C4C[C@H](O)CC[C@]4(C)[C@H]3CC[C@@]21C)C(C)C
REMARK SMILES IDX 6 1 7 2 5 3 4 4 3 5 2 6 1 7 28 8 29 9 30 10 8 11 9 12 26 13
REMARK SMILES IDX 10 14 11 15 25 16 27 17 12 18 24 19 23 20 13 21 21 22 14 23
REMARK SMILES IDX 15 24 20 25 22 26 16 27 19 28 17 29 18 30
REMARK H PARENT 18 31
REMARK Flexibility Score: inf
ROOT
ATOM      1  C   UNL     1     144.888 136.064 146.939  1.00  0.00     0.012 C 
ATOM      2  C   UNL     1     144.121 136.704 145.769  1.00  0.00     0.012 C 
ENDROOT
BRANCH   1   3
ATOM      3  C   UNL     1     146.356 136.087 146.610  1.00  0.00    -0.028 C 
ATOM      4  C   UNL     1     147.300 136.079 147.572  1.00  0.00    -0.027 C 
BRANCH   4   5
ATOM      5  C   UNL     1     148.813 136.155 147.344  1.00  0.00     0.014 C 
BRANCH   5   6
ATOM      6  C   UNL     1     149.526 135.218 148.359  1.00  0.00     0.004 C 
ATOM      7  C   UNL     1     148.604 134.723 149.479  1.00  0.00     0.004 C 
ENDBRANCH   5   6
BRANCH   5   8
ATOM      8  C   UNL     1     149.405 137.608 147.364  1.00  0.00    -0.011 C 
ATOM      9  C   UNL     1     149.518 138.232 145.960  1.00  0.00     0.008 C 
ATOM     10  C   UNL     1     148.629 138.547 148.306  1.00  0.00     0.008 C 
ENDBRANCH   5   8
ENDBRANCH   4   5
ENDBRANCH   1   3
BRANCH   1  11
ATOM     11  C   UNL     1     144.294 134.664 147.326  1.00  0.00     0.002 C 
ATOM     12  C   UNL     1     143.594 133.953 146.168  1.00  0.00     0.005 C 
ATOM     13  C   UNL     1     143.345 134.451 148.550  1.00  0.00    -0.026 C 
ATOM     14  C   UNL     1     142.796 132.811 146.808  1.00  0.00     0.005 C 
ATOM     15  C   UNL     1     142.969 132.963 148.339  1.00  0.00    -0.001 C 
ATOM     16  C   UNL     1     142.039 135.321 148.510  1.00  0.00     0.007 C 
ATOM     17  C   UNL     1     144.106 134.659 149.878  1.00  0.00     0.012 C 
ATOM     18  C   UNL     1     141.795 132.440 149.218  1.00  0.00     0.000 C 
ATOM     19  C   UNL     1     140.924 134.805 149.433  1.00  0.00     0.005 C 
ATOM     20  C   UNL     1     140.533 133.329 149.152  1.00  0.00     0.003 C 
ATOM     21  C   UNL     1     141.455 130.985 148.859  1.00  0.00     0.031 C 
ATOM     22  C   UNL     1     139.383 132.787 150.104  1.00  0.00    -0.008 C 
ATOM     23  C   UNL     1     140.273 130.464 149.615  1.00  0.00    -0.027 C 
ATOM     24  C   UNL     1     139.272 131.251 150.060  1.00  0.00    -0.065 C 
ATOM     25  C   UNL     1     138.015 133.373 149.622  1.00  0.00     0.014 C 
ATOM     26  C   UNL     1     139.633 133.201 151.583  1.00  0.00     0.016 C 
ATOM     27  C   UNL     1     138.055 130.586 150.683  1.00  0.00     0.063 C 
ATOM     28  C   UNL     1     136.796 132.759 150.337  1.00  0.00     0.033 C 
ATOM     29  C   UNL     1     136.753 131.229 150.188  1.00  0.00     0.118 C 
BRANCH  29  30
ATOM     30  O   UNL     1     136.525 130.888 148.843  1.00  0.00    -0.393 OA
ATOM     31  H   UNL     1     136.177 129.960 148.837  1.00  0.00     0.210 HD
ENDBRANCH  29  30
ENDBRANCH   1  11
TORSDOF 6
ENDMDL
MODEL 7
REMARK VINA RESULT:    -6.500      0.654      1.625
REMARK INTER + INTRA:          -9.730
REMARK INTER:                  -8.508
REMARK INTRA:                  -1.222
REMARK UNBOUND:                -1.140
REMARK SMILES CC[C@@H](C=C[C@@H](C)[C@@H]1CC[C@@H]2[C@@H]3CC=C4C[C@H](O)CC[C@]4(C)[C@H]3CC[C@@]21C)C(C)C
REMARK SMILES IDX 6 1 7 2 5 3 4 4 3 5 2 6 1 7 28 8 29 9 30 10 8 11 9 12 26 13
REMARK SMILES IDX 10 14 11 15 25 16 27 17 12 18 24 19 23 20 13 21 21 22 14 23
REMARK SMILES IDX 15 24 20 25 22 26 16 27 19 28 17 29 18 30
REMARK H PARENT 18 31
REMARK Flexibility Score: inf
ROOT
ATOM      1  C   UNL     1     143.601 133.254 147.173  1.00  0.00     0.012 C 
ATOM      2  C   UNL     1     143.208 133.275 145.686  1.00  0.00     0.012 C 
ENDROOT
BRANCH   1   3
ATOM      3  C   UNL     1     142.448 132.692 147.959  1.00  0.00    -0.028 C 
ATOM      4  C   UNL     1     142.157 133.124 149.202  1.00  0.00    -0.027 C 
BRANCH   4   5
ATOM      5  C   UNL     1     141.042 132.580 150.102  1.00  0.00     0.014 C 
BRANCH   5   6
ATOM      6  C   UNL     1     140.261 133.775 150.719  1.00  0.00     0.004 C 
ATOM      7  C   UNL     1     139.284 133.356 151.823  1.00  0.00     0.004 C 
ENDBRANCH   5   6
BRANCH   5   8
ATOM      8  C   UNL     1     141.522 131.561 151.193  1.00  0.00    -0.011 C 
ATOM      9  C   UNL     1     141.439 130.095 150.726  1.00  0.00     0.008 C 
ATOM     10  C   UNL     1     142.936 131.877 151.713  1.00  0.00     0.008 C 
ENDBRANCH   5   8
ENDBRANCH   4   5
ENDBRANCH   1   3
BRANCH   1  11
ATOM     11  C   UNL     1     144.143 134.647 147.652  1.00  0.00     0.002 C 
ATOM     12  C   UNL     1     143.721 135.810 146.753  1.00  0.00     0.005 C 
ATOM     13  C   UNL     1     145.652 134.914 147.959  1.00  0.00    -0.026 C 
ATOM     14  C   UNL     1     144.611 136.989 147.162  1.00  0.00     0.005 C 
ATOM     15  C   UNL     1     145.605 136.441 148.216  1.00  0.00    -0.001 C 
ATOM     16  C   UNL     1     146.615 134.625 146.753  1.00  0.00     0.007 C 
ATOM     17  C   UNL     1     146.100 134.142 149.220  1.00  0.00     0.012 C 
ATOM     18  C   UNL     1     146.990 137.149 148.286  1.00  0.00     0.000 C 
ATOM     19  C   UNL     1     147.992 135.295 146.887  1.00  0.00     0.005 C 
ATOM     20  C   UNL     1     147.905 136.833 147.083  1.00  0.00     0.003 C 
ATOM     21  C   UNL     1     146.815 138.667 148.454  1.00  0.00     0.031 C 
ATOM     22  C   UNL     1     149.324 137.533 147.225  1.00  0.00    -0.008 C 
ATOM     23  C   UNL     1     148.118 139.404 148.438  1.00  0.00    -0.027 C 
ATOM     24  C   UNL     1     149.209 138.967 147.776  1.00  0.00    -0.065 C 
ATOM     25  C   UNL     1     149.984 137.623 145.810  1.00  0.00     0.014 C 
ATOM     26  C   UNL     1     150.255 136.732 148.182  1.00  0.00     0.016 C 
ATOM     27  C   UNL     1     150.425 139.876 147.713  1.00  0.00     0.063 C 
ATOM     28  C   UNL     1     151.272 138.467 145.783  1.00  0.00     0.033 C 
ATOM     29  C   UNL     1     151.036 139.894 146.305  1.00  0.00     0.118 C 
BRANCH  29  30
ATOM     30  O   UNL     1     150.194 140.590 145.420  1.00  0.00    -0.393 OA
ATOM     31  H   UNL     1     149.809 139.919 144.801  1.00  0.00     0.210 HD
ENDBRANCH  29  30
ENDBRANCH   1  11
TORSDOF 6
ENDMDL
MODEL 8
REMARK VINA RESULT:    -6.466      2.029      3.727
REMARK INTER + INTRA:          -9.685
REMARK INTER:                  -8.864
REMARK INTRA:                  -0.821
REMARK UNBOUND:                -1.140
REMARK SMILES CC[C@@H](C=C[C@@H](C)[C@@H]1CC[C@@H]2[C@@H]3CC=C4C[C@H](O)CC[C@]4(C)[C@H]3CC[C@@]21C)C(C)C
REMARK SMILES IDX 6 1 7 2 5 3 4 4 3 5 2 6 1 7 28 8 29 9 30 10 8 11 9 12 26 13
REMARK SMILES IDX 10 14 11 15 25 16 27 17 12 18 24 19 23 20 13 21 21 22 14 23
REMARK SMILES IDX 15 24 20 25 22 26 16 27 19 28 17 29 18 30
REMARK H PARENT 18 31
REMARK Flexibility Score: inf
ROOT
ATOM      1  C   UNL     1     141.543 133.871 150.245  1.00  0.00     0.012 C 
ATOM      2  C   UNL     1     141.390 132.644 151.160  1.00  0.00     0.012 C 
ENDROOT
BRANCH   1   3
ATOM      3  C   UNL     1     140.223 134.123 149.568  1.00  0.00    -0.028 C 
ATOM      4  C   UNL     1     139.190 133.266 149.684  1.00  0.00    -0.027 C 
BRANCH   4   5
ATOM      5  C   UNL     1     137.829 133.404 148.993  1.00  0.00     0.014 C 
BRANCH   5   6
ATOM      6  C   UNL     1     136.718 132.902 149.958  1.00  0.00     0.004 C 
ATOM      7  C   UNL     1     136.826 131.408 150.284  1.00  0.00     0.004 C 
ENDBRANCH   5   6
BRANCH   5   8
ATOM      8  C   UNL     1     137.740 132.722 147.583  1.00  0.00    -0.011 C 
ATOM      9  C   UNL     1     137.493 133.727 146.442  1.00  0.00     0.008 C 
ATOM     10  C   UNL     1     138.970 131.851 147.271  1.00  0.00     0.008 C 
ENDBRANCH   5   8
ENDBRANCH   4   5
ENDBRANCH   1   3
BRANCH   1  11
ATOM     11  C   UNL     1     142.786 133.737 149.296  1.00  0.00     0.002 C 
ATOM     12  C   UNL     1     143.966 133.001 149.932  1.00  0.00     0.005 C 
ATOM     13  C   UNL     1     143.432 134.957 148.562  1.00  0.00    -0.026 C 
ATOM     14  C   UNL     1     145.164 133.278 149.016  1.00  0.00     0.005 C 
ATOM     15  C   UNL     1     144.666 134.264 147.931  1.00  0.00    -0.001 C 
ATOM     16  C   UNL     1     143.919 136.100 149.521  1.00  0.00     0.007 C 
ATOM     17  C   UNL     1     142.480 135.512 147.479  1.00  0.00     0.012 C 
ATOM     18  C   UNL     1     145.736 135.223 147.332  1.00  0.00     0.000 C 
ATOM     19  C   UNL     1     144.931 137.059 148.875  1.00  0.00     0.005 C 
ATOM     20  C   UNL     1     146.182 136.334 148.308  1.00  0.00     0.003 C 
ATOM     21  C   UNL     1     146.949 134.431 146.819  1.00  0.00     0.031 C 
ATOM     22  C   UNL     1     147.232 137.319 147.636  1.00  0.00    -0.008 C 
ATOM     23  C   UNL     1     148.045 135.315 146.314  1.00  0.00    -0.027 C 
ATOM     24  C   UNL     1     148.261 136.565 146.773  1.00  0.00    -0.065 C 
ATOM     25  C   UNL     1     148.018 138.062 148.766  1.00  0.00     0.014 C 
ATOM     26  C   UNL     1     146.524 138.362 146.724  1.00  0.00     0.016 C 
ATOM     27  C   UNL     1     149.495 137.307 146.288  1.00  0.00     0.063 C 
ATOM     28  C   UNL     1     149.208 138.891 148.245  1.00  0.00     0.033 C 
ATOM     29  C   UNL     1     150.199 138.034 147.441  1.00  0.00     0.118 C 
BRANCH  29  30
ATOM     30  O   UNL     1     150.821 137.103 148.292  1.00  0.00    -0.393 OA
ATOM     31  H   UNL     1     151.798 137.252 148.215  1.00  0.00     0.210 HD
ENDBRANCH  29  30
ENDBRANCH   1  11
TORSDOF 6
ENDMDL
MODEL 9
REMARK VINA RESULT:    -6.448      1.697      2.250
REMARK INTER + INTRA:          -9.662
REMARK INTER:                  -8.416
REMARK INTRA:                  -1.245
REMARK UNBOUND:                -1.140
REMARK SMILES CC[C@@H](C=C[C@@H](C)[C@@H]1CC[C@@H]2[C@@H]3CC=C4C[C@H](O)CC[C@]4(C)[C@H]3CC[C@@]21C)C(C)C
REMARK SMILES IDX 6 1 7 2 5 3 4 4 3 5 2 6 1 7 28 8 29 9 30 10 8 11 9 12 26 13
REMARK SMILES IDX 10 14 11 15 25 16 27 17 12 18 24 19 23 20 13 21 21 22 14 23
REMARK SMILES IDX 15 24 20 25 22 26 16 27 19 28 17 29 18 30
REMARK H PARENT 18 31
REMARK Flexibility Score: inf
ROOT
ATOM      1  C   UNL     1     142.704 133.075 146.535  1.00  0.00     0.012 C 
ATOM      2  C   UNL     1     142.466 133.076 145.015  1.00  0.00     0.012 C 
ENDROOT
BRANCH   1   3
ATOM      3  C   UNL     1     141.488 132.493 147.203  1.00  0.00    -0.028 C 
ATOM      4  C   UNL     1     140.450 133.263 147.586  1.00  0.00    -0.027 C 
BRANCH   4   5
ATOM      5  C   UNL     1     139.195 132.777 148.319  1.00  0.00     0.014 C 
BRANCH   5   6
ATOM      6  C   UNL     1     137.938 133.335 147.595  1.00  0.00     0.004 C 
ATOM      7  C   UNL     1     138.180 133.653 146.115  1.00  0.00     0.004 C 
ENDBRANCH   5   6
BRANCH   5   8
ATOM      8  C   UNL     1     139.177 133.084 149.857  1.00  0.00    -0.011 C 
ATOM      9  C   UNL     1     140.106 134.249 150.251  1.00  0.00     0.008 C 
ATOM     10  C   UNL     1     137.754 133.331 150.392  1.00  0.00     0.008 C 
ENDBRANCH   5   8
ENDBRANCH   4   5
ENDBRANCH   1   3
BRANCH   1  11
ATOM     11  C   UNL     1     143.162 134.485 147.052  1.00  0.00     0.002 C 
ATOM     12  C   UNL     1     143.154 135.567 145.972  1.00  0.00     0.005 C 
ATOM     13  C   UNL     1     144.500 134.713 147.829  1.00  0.00    -0.026 C 
ATOM     14  C   UNL     1     143.946 136.740 146.560  1.00  0.00     0.005 C 
ATOM     15  C   UNL     1     144.488 136.259 147.928  1.00  0.00    -0.001 C 
ATOM     16  C   UNL     1     145.782 134.258 147.046  1.00  0.00     0.007 C 
ATOM     17  C   UNL     1     144.443 134.056 149.225  1.00  0.00     0.012 C 
ATOM     18  C   UNL     1     145.821 136.907 148.404  1.00  0.00     0.000 C 
ATOM     19  C   UNL     1     147.084 134.875 147.582  1.00  0.00     0.005 C 
ATOM     20  C   UNL     1     147.057 136.428 147.610  1.00  0.00     0.003 C 
ATOM     21  C   UNL     1     145.719 138.440 148.378  1.00  0.00     0.031 C 
ATOM     22  C   UNL     1     148.398 137.073 148.166  1.00  0.00    -0.008 C 
ATOM     23  C   UNL     1     147.006 139.112 148.742  1.00  0.00    -0.027 C 
ATOM     24  C   UNL     1     148.218 138.560 148.526  1.00  0.00    -0.065 C 
ATOM     25  C   UNL     1     149.495 136.986 147.054  1.00  0.00     0.014 C 
ATOM     26  C   UNL     1     148.894 136.333 149.442  1.00  0.00     0.016 C 
ATOM     27  C   UNL     1     149.453 139.401 148.803  1.00  0.00     0.063 C 
ATOM     28  C   UNL     1     150.780 137.764 147.395  1.00  0.00     0.033 C 
ATOM     29  C   UNL     1     150.495 139.246 147.688  1.00  0.00     0.118 C 
BRANCH  29  30
ATOM     30  O   UNL     1     150.051 139.885 146.517  1.00  0.00    -0.393 OA
ATOM     31  H   UNL     1     150.244 139.272 145.763  1.00  0.00     0.210 HD
ENDBRANCH  29  30
ENDBRANCH   1  11
TORSDOF 6
ENDMDL
