MODEL 1
REMARK VINA RESULT:     3.224      0.000      0.000
REMARK INTER + INTRA:           4.427
REMARK INTER:                   3.884
REMARK INTRA:                   0.543
REMARK UNBOUND:                 0.543
REMARK SMILES O=c1c(O)c(-c2ccc(O)c(O)c2)oc2cc(O)cc(O)c12
REMARK SMILES IDX 5 1 3 2 2 3 1 4 22 5 20 6 19 7 17 8 16 9 15 10 14 11 6 12
REMARK SMILES IDX 7 13 8 14 9 15 13 16 11 17 10 18 12 20 4 22 21 24 18 26
REMARK H PARENT 10 19 12 21 4 23 21 25 18 27
REMARK Flexibility Score: inf
ROOT
ATOM      1  C   UNL     1      21.147   8.466   5.908  1.00  0.00     0.180 A 
ATOM      2  C   UNL     1      20.548   7.204   6.081  1.00  0.00     0.208 A 
ATOM      3  C   UNL     1      21.344   6.054   5.958  1.00  0.00     0.238 A 
ATOM      4  O   UNL     1      20.817   4.916   6.101  1.00  0.00    -0.285 OA
ATOM      5  C   UNL     1      22.722   6.185   5.688  1.00  0.00     0.111 A 
ATOM      6  C   UNL     1      23.593   5.077   5.554  1.00  0.00     0.134 A 
ATOM      7  C   UNL     1      24.955   5.290   5.293  1.00  0.00     0.093 A 
ATOM      8  C   UNL     1      25.460   6.589   5.164  1.00  0.00     0.123 A 
ATOM      9  C   UNL     1      24.605   7.683   5.295  1.00  0.00     0.094 A 
ATOM     10  C   UNL     1      23.245   7.492   5.554  1.00  0.00     0.146 A 
ATOM     11  O   UNL     1      22.452   8.552   5.668  1.00  0.00    -0.452 OA
ENDROOT
BRANCH   1  12
ATOM     12  C   UNL     1      20.371   9.725   6.003  1.00  0.00     0.025 A 
ATOM     13  C   UNL     1      20.993  10.979   5.880  1.00  0.00     0.016 A 
ATOM     14  C   UNL     1      20.246  12.154   5.998  1.00  0.00     0.051 A 
ATOM     15  C   UNL     1      18.869  12.091   6.252  1.00  0.00     0.157 A 
ATOM     16  C   UNL     1      18.995   9.669   6.279  1.00  0.00     0.062 A 
ATOM     17  C   UNL     1      18.244  10.847   6.396  1.00  0.00     0.158 A 
BRANCH  15  18
ATOM     18  O   UNL     1      18.120  13.260   6.368  1.00  0.00    -0.504 OA
ATOM     19  H   UNL     1      17.290  13.302   6.949  1.00  0.00     0.293 HD
ENDBRANCH  15  18
BRANCH  17  20
ATOM     20  O   UNL     1      16.875  10.788   6.657  1.00  0.00    -0.504 OA
ATOM     21  H   UNL     1      16.471  11.237   7.470  1.00  0.00     0.293 HD
ENDBRANCH  17  20
ENDBRANCH   1  12
BRANCH   2  22
ATOM     22  O   UNL     1      19.192   7.103   6.397  1.00  0.00    -0.502 OA
ATOM     23  H   UNL     1      18.463   7.422   5.769  1.00  0.00     0.293 HD
ENDBRANCH   2  22
BRANCH   6  24
ATOM     24  O   UNL     1      23.118   3.770   5.677  1.00  0.00    -0.507 OA
ATOM     25  H   UNL     1      23.288   3.217   6.510  1.00  0.00     0.293 HD
ENDBRANCH   6  24
BRANCH   8  26
ATOM     26  O   UNL     1      26.812   6.802   4.906  1.00  0.00    -0.508 OA
ATOM     27  H   UNL     1      27.482   6.040   4.923  1.00  0.00     0.293 HD
ENDBRANCH   8  26
TORSDOF 6
ENDMDL
MODEL 2
REMARK VINA RESULT:     4.144      1.433      3.169
REMARK INTER + INTRA:           5.535
REMARK INTER:                   5.076
REMARK INTRA:                   0.458
REMARK UNBOUND:                 0.543
REMARK SMILES O=c1c(O)c(-c2ccc(O)c(O)c2)oc2cc(O)cc(O)c12
REMARK SMILES IDX 5 1 3 2 2 3 1 4 22 5 20 6 19 7 17 8 16 9 15 10 14 11 6 12
REMARK SMILES IDX 7 13 8 14 9 15 13 16 11 17 10 18 12 20 4 22 21 24 18 26
REMARK H PARENT 10 19 12 21 4 23 21 25 18 27
REMARK Flexibility Score: inf
ROOT
ATOM      1  C   UNL     1      20.922   8.841   6.022  1.00  0.00     0.180 A 
ATOM      2  C   UNL     1      22.186   9.051   5.437  1.00  0.00     0.208 A 
ATOM      3  C   UNL     1      23.095   7.983   5.387  1.00  0.00     0.238 A 
ATOM      4  O   UNL     1      24.234   8.162   4.875  1.00  0.00    -0.285 OA
ATOM      5  C   UNL     1      22.721   6.724   5.900  1.00  0.00     0.111 A 
ATOM      6  C   UNL     1      23.577   5.596   5.884  1.00  0.00     0.134 A 
ATOM      7  C   UNL     1      23.128   4.374   6.406  1.00  0.00     0.093 A 
ATOM      8  C   UNL     1      21.840   4.259   6.942  1.00  0.00     0.123 A 
ATOM      9  C   UNL     1      20.994   5.368   6.961  1.00  0.00     0.094 A 
ATOM     10  C   UNL     1      21.423   6.595   6.447  1.00  0.00     0.146 A 
ATOM     11  O   UNL     1      20.599   7.636   6.482  1.00  0.00    -0.452 OA
ENDROOT
BRANCH   1  12
ATOM     12  C   UNL     1      19.916   9.923   6.130  1.00  0.00     0.025 A 
ATOM     13  C   UNL     1      18.553   9.637   6.320  1.00  0.00     0.016 A 
ATOM     14  C   UNL     1      17.617  10.672   6.394  1.00  0.00     0.051 A 
ATOM     15  C   UNL     1      18.028  12.005   6.266  1.00  0.00     0.157 A 
ATOM     16  C   UNL     1      20.319  11.259   5.980  1.00  0.00     0.062 A 
ATOM     17  C   UNL     1      19.381  12.299   6.056  1.00  0.00     0.158 A 
BRANCH  15  18
ATOM     18  O   UNL     1      17.099  13.041   6.340  1.00  0.00    -0.504 OA
ATOM     19  H   UNL     1      16.466  13.130   7.127  1.00  0.00     0.293 HD
ENDBRANCH  15  18
BRANCH  17  20
ATOM     20  O   UNL     1      19.787  13.626   5.920  1.00  0.00    -0.504 OA
ATOM     21  H   UNL     1      19.273  14.384   6.353  1.00  0.00     0.293 HD
ENDBRANCH  17  20
ENDBRANCH   1  12
BRANCH   2  22
ATOM     22  O   UNL     1      22.513  10.294   4.892  1.00  0.00    -0.502 OA
ATOM     23  H   UNL     1      21.808  10.971   4.620  1.00  0.00     0.293 HD
ENDBRANCH   2  22
BRANCH   6  24
ATOM     24  O   UNL     1      24.866   5.680   5.354  1.00  0.00    -0.507 OA
ATOM     25  H   UNL     1      25.561   4.962   5.527  1.00  0.00     0.293 HD
ENDBRANCH   6  24
BRANCH   8  26
ATOM     26  O   UNL     1      21.393   3.046   7.460  1.00  0.00    -0.508 OA
ATOM     27  H   UNL     1      20.528   2.980   7.985  1.00  0.00     0.293 HD
ENDBRANCH   8  26
TORSDOF 6
ENDMDL
