MODEL 1
REMARK VINA RESULT:    -6.195      0.000      0.000
REMARK INTER + INTRA:          -7.854
REMARK INTER:                  -7.462
REMARK INTRA:                  -0.392
REMARK UNBOUND:                -0.392
REMARK SMILES O=c1c(O)c(-c2ccc(O)cc2O)oc2cc(O)cc(O)c12
REMARK SMILES IDX 5 1 3 2 2 3 1 4 22 5 20 6 19 7 17 8 16 9 15 10 14 11 6 12
REMARK SMILES IDX 8 13 7 14 9 15 11 16 12 17 10 18 13 20 4 22 21 24 18 26
REMARK H PARENT 10 19 13 21 4 23 21 25 18 27
REMARK Flexibility Score: inf
ROOT
ATOM      1  C   UNL     1       9.261  12.166  37.665  1.00  0.00     0.184 A 
ATOM      2  C   UNL     1       8.618  12.158  38.916  1.00  0.00     0.208 A 
ATOM      3  C   UNL     1       8.625  10.978  39.674  1.00  0.00     0.238 A 
ATOM      4  O   UNL     1       8.050  10.958  40.796  1.00  0.00    -0.285 OA
ATOM      5  C   UNL     1       9.279   9.832  39.173  1.00  0.00     0.111 A 
ATOM      6  C   UNL     1       9.335   8.605  39.875  1.00  0.00     0.134 A 
ATOM      7  C   UNL     1      10.007   7.511  39.311  1.00  0.00     0.093 A 
ATOM      8  C   UNL     1      10.624   7.620  38.062  1.00  0.00     0.123 A 
ATOM      9  C   UNL     1      10.572   8.830  37.364  1.00  0.00     0.094 A 
ATOM     10  C   UNL     1       9.905   9.933  37.908  1.00  0.00     0.146 A 
ATOM     11  O   UNL     1       9.869  11.070  37.224  1.00  0.00    -0.451 OA
ENDROOT
BRANCH   1  12
ATOM     12  C   UNL     1       9.272  13.374  36.813  1.00  0.00     0.063 A 
ATOM     13  C   UNL     1       8.376  14.585  34.901  1.00  0.00     0.047 A 
ATOM     14  C   UNL     1       8.352  13.480  35.755  1.00  0.00     0.020 A 
ATOM     15  C   UNL     1       9.323  15.594  35.085  1.00  0.00     0.119 A 
ATOM     16  C   UNL     1      10.246  15.499  36.134  1.00  0.00     0.093 A 
ATOM     17  C   UNL     1      10.224  14.402  37.004  1.00  0.00     0.130 A 
BRANCH  15  18
ATOM     18  O   UNL     1       9.338  16.688  34.222  1.00  0.00    -0.508 OA
ATOM     19  H   UNL     1       9.069  16.598  33.249  1.00  0.00     0.293 HD
ENDBRANCH  15  18
BRANCH  17  20
ATOM     20  O   UNL     1      11.145  14.375  38.054  1.00  0.00    -0.507 OA
ATOM     21  H   UNL     1      11.239  15.125  38.726  1.00  0.00     0.293 HD
ENDBRANCH  17  20
ENDBRANCH   1  12
BRANCH   2  22
ATOM     22  O   UNL     1       8.001  13.318  39.392  1.00  0.00    -0.502 OA
ATOM     23  H   UNL     1       8.000  14.184  38.868  1.00  0.00     0.293 HD
ENDBRANCH   2  22
BRANCH   6  24
ATOM     24  O   UNL     1       8.730   8.464  41.125  1.00  0.00    -0.507 OA
ATOM     25  H   UNL     1       8.146   7.665  41.347  1.00  0.00     0.293 HD
ENDBRANCH   6  24
BRANCH   8  26
ATOM     26  O   UNL     1      11.286   6.518  37.525  1.00  0.00    -0.508 OA
ATOM     27  H   UNL     1      10.937   6.040  36.703  1.00  0.00     0.293 HD
ENDBRANCH   8  26
TORSDOF 6
ENDMDL
MODEL 2
REMARK VINA RESULT:    -6.118      0.951      1.521
REMARK INTER + INTRA:          -7.762
REMARK INTER:                  -7.396
REMARK INTRA:                  -0.366
REMARK UNBOUND:                -0.392
REMARK SMILES O=c1c(O)c(-c2ccc(O)cc2O)oc2cc(O)cc(O)c12
REMARK SMILES IDX 5 1 3 2 2 3 1 4 22 5 20 6 19 7 17 8 16 9 15 10 14 11 6 12
REMARK SMILES IDX 8 13 7 14 9 15 11 16 12 17 10 18 13 20 4 22 21 24 18 26
REMARK H PARENT 10 19 13 21 4 23 21 25 18 27
REMARK Flexibility Score: inf
ROOT
ATOM      1  C   UNL     1       9.423  11.829  37.917  1.00  0.00     0.184 A 
ATOM      2  C   UNL     1       8.770  11.757  39.160  1.00  0.00     0.208 A 
ATOM      3  C   UNL     1       8.740  10.531  39.840  1.00  0.00     0.238 A 
ATOM      4  O   UNL     1       8.155  10.453  40.954  1.00  0.00    -0.285 OA
ATOM      5  C   UNL     1       9.369   9.403  39.270  1.00  0.00     0.111 A 
ATOM      6  C   UNL     1       9.387   8.132  39.892  1.00  0.00     0.134 A 
ATOM      7  C   UNL     1      10.037   7.060  39.262  1.00  0.00     0.093 A 
ATOM      8  C   UNL     1      10.667   7.234  38.028  1.00  0.00     0.123 A 
ATOM      9  C   UNL     1      10.652   8.487  37.409  1.00  0.00     0.094 A 
ATOM     10  C   UNL     1      10.008   9.569  38.019  1.00  0.00     0.146 A 
ATOM     11  O   UNL     1      10.007  10.749  37.409  1.00  0.00    -0.451 OA
ENDROOT
BRANCH   1  12
ATOM     12  C   UNL     1       9.472  13.090  37.146  1.00  0.00     0.063 A 
ATOM     13  C   UNL     1      10.264  15.383  36.948  1.00  0.00     0.047 A 
ATOM     14  C   UNL     1      10.243  14.163  37.627  1.00  0.00     0.020 A 
ATOM     15  C   UNL     1       9.511  15.553  35.786  1.00  0.00     0.119 A 
ATOM     16  C   UNL     1       8.737  14.492  35.297  1.00  0.00     0.093 A 
ATOM     17  C   UNL     1       8.717  13.261  35.962  1.00  0.00     0.130 A 
BRANCH  15  18
ATOM     18  O   UNL     1       9.538  16.778  35.121  1.00  0.00    -0.508 OA
ATOM     19  H   UNL     1       8.698  17.332  34.998  1.00  0.00     0.293 HD
ENDBRANCH  15  18
BRANCH  17  20
ATOM     20  O   UNL     1       7.956  12.226  35.413  1.00  0.00    -0.507 OA
ATOM     21  H   UNL     1       8.085  11.886  34.468  1.00  0.00     0.293 HD
ENDBRANCH  17  20
ENDBRANCH   1  12
BRANCH   2  22
ATOM     22  O   UNL     1       8.178  12.899  39.706  1.00  0.00    -0.502 OA
ATOM     23  H   UNL     1       8.711  13.733  39.925  1.00  0.00     0.293 HD
ENDBRANCH   2  22
BRANCH   6  24
ATOM     24  O   UNL     1       8.768   7.926  41.125  1.00  0.00    -0.507 OA
ATOM     25  H   UNL     1       7.986   7.290  41.229  1.00  0.00     0.293 HD
ENDBRANCH   6  24
BRANCH   8  26
ATOM     26  O   UNL     1      11.306   6.153  37.425  1.00  0.00    -0.508 OA
ATOM     27  H   UNL     1      12.316   6.068  37.423  1.00  0.00     0.293 HD
ENDBRANCH   8  26
TORSDOF 6
ENDMDL
MODEL 3
REMARK VINA RESULT:    -6.059      1.499      6.411
REMARK INTER + INTRA:          -7.691
REMARK INTER:                  -7.329
REMARK INTRA:                  -0.362
REMARK UNBOUND:                -0.392
REMARK SMILES O=c1c(O)c(-c2ccc(O)cc2O)oc2cc(O)cc(O)c12
REMARK SMILES IDX 5 1 3 2 2 3 1 4 22 5 20 6 19 7 17 8 16 9 15 10 14 11 6 12
REMARK SMILES IDX 8 13 7 14 9 15 11 16 12 17 10 18 13 20 4 22 21 24 18 26
REMARK H PARENT 10 19 13 21 4 23 21 25 18 27
REMARK Flexibility Score: inf
ROOT
ATOM      1  C   UNL     1       9.055  11.212  38.468  1.00  0.00     0.184 A 
ATOM      2  C   UNL     1       8.978  11.998  39.631  1.00  0.00     0.208 A 
ATOM      3  C   UNL     1       8.948  13.394  39.505  1.00  0.00     0.238 A 
ATOM      4  O   UNL     1       8.882  14.110  40.541  1.00  0.00    -0.285 OA
ATOM      5  C   UNL     1       8.988  13.979  38.221  1.00  0.00     0.111 A 
ATOM      6  C   UNL     1       8.959  15.377  38.007  1.00  0.00     0.134 A 
ATOM      7  C   UNL     1       8.998  15.881  36.698  1.00  0.00     0.093 A 
ATOM      8  C   UNL     1       9.066  15.016  35.603  1.00  0.00     0.123 A 
ATOM      9  C   UNL     1       9.096  13.633  35.808  1.00  0.00     0.094 A 
ATOM     10  C   UNL     1       9.058  13.111  37.106  1.00  0.00     0.146 A 
ATOM     11  O   UNL     1       9.089  11.794  37.274  1.00  0.00    -0.451 OA
ENDROOT
BRANCH   1  12
ATOM     12  C   UNL     1       9.108   9.736  38.538  1.00  0.00     0.063 A 
ATOM     13  C   UNL     1       8.019   7.637  39.116  1.00  0.00     0.047 A 
ATOM     14  C   UNL     1       7.979   9.027  38.987  1.00  0.00     0.020 A 
ATOM     15  C   UNL     1       9.186   6.936  38.808  1.00  0.00     0.119 A 
ATOM     16  C   UNL     1      10.317   7.631  38.362  1.00  0.00     0.093 A 
ATOM     17  C   UNL     1      10.286   9.023  38.217  1.00  0.00     0.130 A 
BRANCH  15  18
ATOM     18  O   UNL     1       9.212   5.550  38.946  1.00  0.00    -0.508 OA
ATOM     19  H   UNL     1       9.114   4.936  38.145  1.00  0.00     0.293 HD
ENDBRANCH  15  18
BRANCH  17  20
ATOM     20  O   UNL     1      11.431   9.663  37.735  1.00  0.00    -0.507 OA
ATOM     21  H   UNL     1      11.768  10.543  38.103  1.00  0.00     0.293 HD
ENDBRANCH  17  20
ENDBRANCH   1  12
BRANCH   2  22
ATOM     22  O   UNL     1       8.916  11.385  40.886  1.00  0.00    -0.502 OA
ATOM     23  H   UNL     1       9.636  10.754  41.215  1.00  0.00     0.293 HD
ENDBRANCH   2  22
BRANCH   6  24
ATOM     24  O   UNL     1       8.890  16.267  39.079  1.00  0.00    -0.507 OA
ATOM     25  H   UNL     1       9.498  17.076  39.140  1.00  0.00     0.293 HD
ENDBRANCH   6  24
BRANCH   8  26
ATOM     26  O   UNL     1       9.103  15.543  34.314  1.00  0.00    -0.508 OA
ATOM     27  H   UNL     1       9.706  15.151  33.599  1.00  0.00     0.293 HD
ENDBRANCH   8  26
TORSDOF 6
ENDMDL
MODEL 4
REMARK VINA RESULT:    -5.923      2.227      7.241
REMARK INTER + INTRA:          -7.527
REMARK INTER:                  -7.233
REMARK INTRA:                  -0.294
REMARK UNBOUND:                -0.392
REMARK SMILES O=c1c(O)c(-c2ccc(O)cc2O)oc2cc(O)cc(O)c12
REMARK SMILES IDX 5 1 3 2 2 3 1 4 22 5 20 6 19 7 17 8 16 9 15 10 14 11 6 12
REMARK SMILES IDX 8 13 7 14 9 15 11 16 12 17 10 18 13 20 4 22 21 24 18 26
REMARK H PARENT 10 19 13 21 4 23 21 25 18 27
REMARK Flexibility Score: inf
ROOT
ATOM      1  C   UNL     1       8.859  14.344  37.334  1.00  0.00     0.184 A 
ATOM      2  C   UNL     1       7.632  14.988  37.099  1.00  0.00     0.208 A 
ATOM      3  C   UNL     1       7.603  16.101  36.245  1.00  0.00     0.238 A 
ATOM      4  O   UNL     1       6.508  16.689  36.029  1.00  0.00    -0.285 OA
ATOM      5  C   UNL     1       8.797  16.544  35.638  1.00  0.00     0.111 A 
ATOM      6  C   UNL     1       8.854  17.655  34.763  1.00  0.00     0.134 A 
ATOM      7  C   UNL     1      10.080  18.031  34.195  1.00  0.00     0.093 A 
ATOM      8  C   UNL     1      11.247  17.320  34.485  1.00  0.00     0.123 A 
ATOM      9  C   UNL     1      11.198  16.222  35.349  1.00  0.00     0.094 A 
ATOM     10  C   UNL     1       9.985  15.831  35.926  1.00  0.00     0.146 A 
ATOM     11  O   UNL     1       9.965  14.786  36.745  1.00  0.00    -0.451 OA
ENDROOT
BRANCH   1  12
ATOM     12  C   UNL     1       8.955  13.178  38.238  1.00  0.00     0.063 A 
ATOM     13  C   UNL     1       9.259  10.779  38.520  1.00  0.00     0.047 A 
ATOM     14  C   UNL     1       9.217  11.907  37.696  1.00  0.00     0.020 A 
ATOM     15  C   UNL     1       9.031  10.902  39.891  1.00  0.00     0.119 A 
ATOM     16  C   UNL     1       8.767  12.163  40.442  1.00  0.00     0.093 A 
ATOM     17  C   UNL     1       8.734  13.302  39.629  1.00  0.00     0.130 A 
BRANCH  15  18
ATOM     18  O   UNL     1       9.071   9.768  40.699  1.00  0.00    -0.508 OA
ATOM     19  H   UNL     1       9.422   9.807  41.650  1.00  0.00     0.293 HD
ENDBRANCH  15  18
BRANCH  17  20
ATOM     20  O   UNL     1       8.501  14.539  40.235  1.00  0.00    -0.507 OA
ATOM     21  H   UNL     1       7.833  15.211  39.880  1.00  0.00     0.293 HD
ENDBRANCH  17  20
ENDBRANCH   1  12
BRANCH   2  22
ATOM     22  O   UNL     1       6.464  14.509  37.698  1.00  0.00    -0.502 OA
ATOM     23  H   UNL     1       5.978  15.022  38.424  1.00  0.00     0.293 HD
ENDBRANCH   2  22
BRANCH   6  24
ATOM     24  O   UNL     1       7.706  18.384  34.453  1.00  0.00    -0.507 OA
ATOM     25  H   UNL     1       7.266  18.325  33.541  1.00  0.00     0.293 HD
ENDBRANCH   6  24
BRANCH   8  26
ATOM     26  O   UNL     1      12.452  17.714  33.907  1.00  0.00    -0.508 OA
ATOM     27  H   UNL     1      12.706  18.693  33.827  1.00  0.00     0.293 HD
ENDBRANCH   8  26
TORSDOF 6
ENDMDL
MODEL 5
REMARK VINA RESULT:    -5.891      3.870      7.203
REMARK INTER + INTRA:          -7.489
REMARK INTER:                  -7.194
REMARK INTRA:                  -0.295
REMARK UNBOUND:                -0.392
REMARK SMILES O=c1c(O)c(-c2ccc(O)cc2O)oc2cc(O)cc(O)c12
REMARK SMILES IDX 5 1 3 2 2 3 1 4 22 5 20 6 19 7 17 8 16 9 15 10 14 11 6 12
REMARK SMILES IDX 8 13 7 14 9 15 11 16 12 17 10 18 13 20 4 22 21 24 18 26
REMARK H PARENT 10 19 13 21 4 23 21 25 18 27
REMARK Flexibility Score: inf
ROOT
ATOM      1  C   UNL     1       9.965  17.897  34.366  1.00  0.00     0.184 A 
ATOM      2  C   UNL     1       8.877  17.574  33.537  1.00  0.00     0.208 A 
ATOM      3  C   UNL     1       8.247  16.331  33.698  1.00  0.00     0.238 A 
ATOM      4  O   UNL     1       7.271  16.029  32.958  1.00  0.00    -0.285 OA
ATOM      5  C   UNL     1       8.711  15.439  34.687  1.00  0.00     0.111 A 
ATOM      6  C   UNL     1       8.131  14.168  34.917  1.00  0.00     0.134 A 
ATOM      7  C   UNL     1       8.648  13.339  35.922  1.00  0.00     0.093 A 
ATOM      8  C   UNL     1       9.730  13.753  36.702  1.00  0.00     0.123 A 
ATOM      9  C   UNL     1      10.308  15.007  36.480  1.00  0.00     0.094 A 
ATOM     10  C   UNL     1       9.808  15.849  35.481  1.00  0.00     0.146 A 
ATOM     11  O   UNL     1      10.376  17.034  35.289  1.00  0.00    -0.451 OA
ENDROOT
BRANCH   1  12
ATOM     12  C   UNL     1      10.680  19.184  34.231  1.00  0.00     0.063 A 
ATOM     13  C   UNL     1      12.746  20.382  33.760  1.00  0.00     0.047 A 
ATOM     14  C   UNL     1      12.031  19.185  33.842  1.00  0.00     0.020 A 
ATOM     15  C   UNL     1      12.126  21.593  34.073  1.00  0.00     0.119 A 
ATOM     16  C   UNL     1      10.781  21.605  34.465  1.00  0.00     0.093 A 
ATOM     17  C   UNL     1      10.051  20.413  34.539  1.00  0.00     0.130 A 
BRANCH  15  18
ATOM     18  O   UNL     1      12.853  22.779  33.992  1.00  0.00    -0.508 OA
ATOM     19  H   UNL     1      13.713  22.909  34.512  1.00  0.00     0.293 HD
ENDBRANCH  15  18
BRANCH  17  20
ATOM     20  O   UNL     1       8.703  20.486  34.901  1.00  0.00    -0.507 OA
ATOM     21  H   UNL     1       7.947  20.420  34.232  1.00  0.00     0.293 HD
ENDBRANCH  17  20
ENDBRANCH   1  12
BRANCH   2  22
ATOM     22  O   UNL     1       8.428  18.492  32.583  1.00  0.00    -0.502 OA
ATOM     23  H   UNL     1       8.317  19.477  32.791  1.00  0.00     0.293 HD
ENDBRANCH   2  22
BRANCH   6  24
ATOM     24  O   UNL     1       7.048  13.726  34.156  1.00  0.00    -0.507 OA
ATOM     25  H   UNL     1       7.171  13.348  33.223  1.00  0.00     0.293 HD
ENDBRANCH   6  24
BRANCH   8  26
ATOM     26  O   UNL     1      10.224  12.911  37.695  1.00  0.00    -0.508 OA
ATOM     27  H   UNL     1       9.657  12.167  38.088  1.00  0.00     0.293 HD
ENDBRANCH   8  26
TORSDOF 6
ENDMDL
MODEL 6
REMARK VINA RESULT:    -5.785      8.899     11.186
REMARK INTER + INTRA:          -7.360
REMARK INTER:                  -7.183
REMARK INTRA:                  -0.177
REMARK UNBOUND:                -0.392
REMARK SMILES O=c1c(O)c(-c2ccc(O)cc2O)oc2cc(O)cc(O)c12
REMARK SMILES IDX 5 1 3 2 2 3 1 4 22 5 20 6 19 7 17 8 16 9 15 10 14 11 6 12
REMARK SMILES IDX 8 13 7 14 9 15 11 16 12 17 10 18 13 20 4 22 21 24 18 26
REMARK H PARENT 10 19 13 21 4 23 21 25 18 27
REMARK Flexibility Score: inf
ROOT
ATOM      1  C   UNL     1       8.176  21.735  35.119  1.00  0.00     0.184 A 
ATOM      2  C   UNL     1       8.966  22.896  35.184  1.00  0.00     0.208 A 
ATOM      3  C   UNL     1      10.339  22.799  34.913  1.00  0.00     0.238 A 
ATOM      4  O   UNL     1      11.058  23.833  34.972  1.00  0.00    -0.285 OA
ATOM      5  C   UNL     1      10.894  21.546  34.575  1.00  0.00     0.111 A 
ATOM      6  C   UNL     1      12.267  21.362  34.285  1.00  0.00     0.134 A 
ATOM      7  C   UNL     1      12.742  20.085  33.953  1.00  0.00     0.093 A 
ATOM      8  C   UNL     1      11.875  18.991  33.906  1.00  0.00     0.123 A 
ATOM      9  C   UNL     1      10.517  19.167  34.192  1.00  0.00     0.094 A 
ATOM     10  C   UNL     1      10.023  20.432  34.526  1.00  0.00     0.146 A 
ATOM     11  O   UNL     1       8.730  20.572  34.795  1.00  0.00    -0.451 OA
ENDROOT
BRANCH   1  12
ATOM     12  C   UNL     1       6.727  21.773  35.411  1.00  0.00     0.063 A 
ATOM     13  C   UNL     1       4.558  22.824  35.069  1.00  0.00     0.047 A 
ATOM     14  C   UNL     1       5.920  22.730  34.770  1.00  0.00     0.020 A 
ATOM     15  C   UNL     1       3.986  21.972  36.015  1.00  0.00     0.119 A 
ATOM     16  C   UNL     1       4.780  21.017  36.661  1.00  0.00     0.093 A 
ATOM     17  C   UNL     1       6.144  20.904  36.363  1.00  0.00     0.130 A 
BRANCH  15  18
ATOM     18  O   UNL     1       2.627  22.081  36.306  1.00  0.00    -0.508 OA
ATOM     19  H   UNL     1       2.176  21.459  36.967  1.00  0.00     0.293 HD
ENDBRANCH  15  18
BRANCH  17  20
ATOM     20  O   UNL     1       6.882  19.912  37.011  1.00  0.00    -0.507 OA
ATOM     21  H   UNL     1       6.471  19.251  37.658  1.00  0.00     0.293 HD
ENDBRANCH  17  20
ENDBRANCH   1  12
BRANCH   2  22
ATOM     22  O   UNL     1       8.379  24.125  35.499  1.00  0.00    -0.502 OA
ATOM     23  H   UNL     1       8.764  24.745  36.201  1.00  0.00     0.293 HD
ENDBRANCH   2  22
BRANCH   6  24
ATOM     24  O   UNL     1      13.159  22.434  34.322  1.00  0.00    -0.507 OA
ATOM     25  H   UNL     1      12.873  23.375  34.073  1.00  0.00     0.293 HD
ENDBRANCH   6  24
BRANCH   8  26
ATOM     26  O   UNL     1      12.373  17.734  33.573  1.00  0.00    -0.508 OA
ATOM     27  H   UNL     1      13.013  17.239  34.184  1.00  0.00     0.293 HD
ENDBRANCH   8  26
TORSDOF 6
ENDMDL
MODEL 7
REMARK VINA RESULT:    -5.738      4.530      7.481
REMARK INTER + INTRA:          -7.305
REMARK INTER:                  -6.982
REMARK INTRA:                  -0.323
REMARK UNBOUND:                -0.392
REMARK SMILES O=c1c(O)c(-c2ccc(O)cc2O)oc2cc(O)cc(O)c12
REMARK SMILES IDX 5 1 3 2 2 3 1 4 22 5 20 6 19 7 17 8 16 9 15 10 14 11 6 12
REMARK SMILES IDX 8 13 7 14 9 15 11 16 12 17 10 18 13 20 4 22 21 24 18 26
REMARK H PARENT 10 19 13 21 4 23 21 25 18 27
REMARK Flexibility Score: inf
ROOT
ATOM      1  C   UNL     1       5.571   8.502  39.404  1.00  0.00     0.184 A 
ATOM      2  C   UNL     1       6.493   7.452  39.253  1.00  0.00     0.208 A 
ATOM      3  C   UNL     1       7.833   7.761  38.978  1.00  0.00     0.238 A 
ATOM      4  O   UNL     1       8.670   6.828  38.838  1.00  0.00    -0.285 OA
ATOM      5  C   UNL     1       8.227   9.112  38.866  1.00  0.00     0.111 A 
ATOM      6  C   UNL     1       9.558   9.509  38.594  1.00  0.00     0.134 A 
ATOM      7  C   UNL     1       9.871  10.873  38.501  1.00  0.00     0.093 A 
ATOM      8  C   UNL     1       8.883  11.845  38.675  1.00  0.00     0.123 A 
ATOM      9  C   UNL     1       7.566  11.459  38.944  1.00  0.00     0.094 A 
ATOM     10  C   UNL     1       7.233  10.103  39.039  1.00  0.00     0.146 A 
ATOM     11  O   UNL     1       5.975   9.763  39.294  1.00  0.00    -0.451 OA
ENDROOT
BRANCH   1  12
ATOM     12  C   UNL     1       4.141   8.238  39.677  1.00  0.00     0.063 A 
ATOM     13  C   UNL     1       2.441   7.271  41.125  1.00  0.00     0.047 A 
ATOM     14  C   UNL     1       3.778   7.582  40.867  1.00  0.00     0.020 A 
ATOM     15  C   UNL     1       1.451   7.600  40.198  1.00  0.00     0.119 A 
ATOM     16  C   UNL     1       1.801   8.251  39.008  1.00  0.00     0.093 A 
ATOM     17  C   UNL     1       3.136   8.579  38.743  1.00  0.00     0.130 A 
BRANCH  15  18
ATOM     18  O   UNL     1       0.122   7.278  40.467  1.00  0.00    -0.508 OA
ATOM     19  H   UNL     1      -0.638   7.885  40.180  1.00  0.00     0.293 HD
ENDBRANCH  15  18
BRANCH  17  20
ATOM     20  O   UNL     1       3.426   9.259  37.557  1.00  0.00    -0.507 OA
ATOM     21  H   UNL     1       4.248   9.837  37.438  1.00  0.00     0.293 HD
ENDBRANCH  17  20
ENDBRANCH   1  12
BRANCH   2  22
ATOM     22  O   UNL     1       6.074   6.127  39.395  1.00  0.00    -0.502 OA
ATOM     23  H   UNL     1       6.641   5.426  39.856  1.00  0.00     0.293 HD
ENDBRANCH   2  22
BRANCH   6  24
ATOM     24  O   UNL     1      10.568   8.563  38.416  1.00  0.00    -0.507 OA
ATOM     25  H   UNL     1      10.461   7.781  37.779  1.00  0.00     0.293 HD
ENDBRANCH   6  24
BRANCH   8  26
ATOM     26  O   UNL     1       9.222  13.193  38.578  1.00  0.00    -0.508 OA
ATOM     27  H   UNL     1       8.540  13.891  38.304  1.00  0.00     0.293 HD
ENDBRANCH   8  26
TORSDOF 6
ENDMDL
MODEL 8
REMARK VINA RESULT:    -5.729      2.007      2.966
REMARK INTER + INTRA:          -7.293
REMARK INTER:                  -6.963
REMARK INTRA:                  -0.331
REMARK UNBOUND:                -0.392
REMARK SMILES O=c1c(O)c(-c2ccc(O)cc2O)oc2cc(O)cc(O)c12
REMARK SMILES IDX 5 1 3 2 2 3 1 4 22 5 20 6 19 7 17 8 16 9 15 10 14 11 6 12
REMARK SMILES IDX 8 13 7 14 9 15 11 16 12 17 10 18 13 20 4 22 21 24 18 26
REMARK H PARENT 10 19 13 21 4 23 21 25 18 27
REMARK Flexibility Score: inf
ROOT
ATOM      1  C   UNL     1       8.817  10.485  38.596  1.00  0.00     0.184 A 
ATOM      2  C   UNL     1       7.691   9.738  38.983  1.00  0.00     0.208 A 
ATOM      3  C   UNL     1       7.736   8.340  38.879  1.00  0.00     0.238 A 
ATOM      4  O   UNL     1       6.730   7.659  39.221  1.00  0.00    -0.285 OA
ATOM      5  C   UNL     1       8.906   7.715  38.398  1.00  0.00     0.111 A 
ATOM      6  C   UNL     1       9.034   6.312  38.265  1.00  0.00     0.134 A 
ATOM      7  C   UNL     1      10.233   5.766  37.782  1.00  0.00     0.093 A 
ATOM      8  C   UNL     1      11.302   6.593  37.430  1.00  0.00     0.123 A 
ATOM      9  C   UNL     1      11.181   7.980  37.559  1.00  0.00     0.094 A 
ATOM     10  C   UNL     1       9.994   8.545  38.038  1.00  0.00     0.146 A 
ATOM     11  O   UNL     1       9.904   9.865  38.149  1.00  0.00    -0.451 OA
ENDROOT
BRANCH   1  12
ATOM     12  C   UNL     1       8.822  11.962  38.667  1.00  0.00     0.063 A 
ATOM     13  C   UNL     1       8.943  14.103  37.516  1.00  0.00     0.047 A 
ATOM     14  C   UNL     1       8.881  12.708  37.476  1.00  0.00     0.020 A 
ATOM     15  C   UNL     1       8.956  14.771  38.741  1.00  0.00     0.119 A 
ATOM     16  C   UNL     1       8.900  14.039  39.934  1.00  0.00     0.093 A 
ATOM     17  C   UNL     1       8.826  12.641  39.907  1.00  0.00     0.130 A 
BRANCH  15  18
ATOM     18  O   UNL     1       9.022  16.163  38.764  1.00  0.00    -0.508 OA
ATOM     19  H   UNL     1       9.342  16.691  37.960  1.00  0.00     0.293 HD
ENDBRANCH  15  18
BRANCH  17  20
ATOM     20  O   UNL     1       8.737  11.962  41.125  1.00  0.00    -0.507 OA
ATOM     21  H   UNL     1       9.543  11.749  41.699  1.00  0.00     0.293 HD
ENDBRANCH  17  20
ENDBRANCH   1  12
BRANCH   2  22
ATOM     22  O   UNL     1       6.557  10.388  39.478  1.00  0.00    -0.502 OA
ATOM     23  H   UNL     1       6.252  10.287  40.439  1.00  0.00     0.293 HD
ENDBRANCH   2  22
BRANCH   6  24
ATOM     24  O   UNL     1       7.985   5.459  38.609  1.00  0.00    -0.507 OA
ATOM     25  H   UNL     1       7.842   4.573  38.137  1.00  0.00     0.293 HD
ENDBRANCH   6  24
BRANCH   8  26
ATOM     26  O   UNL     1      12.481   6.025  36.954  1.00  0.00    -0.508 OA
ATOM     27  H   UNL     1      12.670   5.034  37.054  1.00  0.00     0.293 HD
ENDBRANCH   8  26
TORSDOF 6
ENDMDL
MODEL 9
REMARK VINA RESULT:    -5.726      5.189      7.286
REMARK INTER + INTRA:          -7.290
REMARK INTER:                  -6.873
REMARK INTRA:                  -0.417
REMARK UNBOUND:                -0.392
REMARK SMILES O=c1c(O)c(-c2ccc(O)cc2O)oc2cc(O)cc(O)c12
REMARK SMILES IDX 5 1 3 2 2 3 1 4 22 5 20 6 19 7 17 8 16 9 15 10 14 11 6 12
REMARK SMILES IDX 8 13 7 14 9 15 11 16 12 17 10 18 13 20 4 22 21 24 18 26
REMARK H PARENT 10 19 13 21 4 23 21 25 18 27
REMARK Flexibility Score: inf
ROOT
ATOM      1  C   UNL     1       5.552   7.603  39.602  1.00  0.00     0.184 A 
ATOM      2  C   UNL     1       6.445   8.495  40.222  1.00  0.00     0.208 A 
ATOM      3  C   UNL     1       7.816   8.379  39.951  1.00  0.00     0.238 A 
ATOM      4  O   UNL     1       8.627   9.171  40.503  1.00  0.00    -0.285 OA
ATOM      5  C   UNL     1       8.268   7.381  39.061  1.00  0.00     0.111 A 
ATOM      6  C   UNL     1       9.633   7.199  38.732  1.00  0.00     0.134 A 
ATOM      7  C   UNL     1      10.002   6.186  37.836  1.00  0.00     0.093 A 
ATOM      8  C   UNL     1       9.038   5.353  37.264  1.00  0.00     0.123 A 
ATOM      9  C   UNL     1       7.688   5.528  37.585  1.00  0.00     0.094 A 
ATOM     10  C   UNL     1       7.299   6.533  38.478  1.00  0.00     0.146 A 
ATOM     11  O   UNL     1       6.011   6.676  38.768  1.00  0.00    -0.451 OA
ENDROOT
BRANCH   1  12
ATOM     12  C   UNL     1       4.098   7.665  39.862  1.00  0.00     0.063 A 
ATOM     13  C   UNL     1       2.171   6.880  41.125  1.00  0.00     0.047 A 
ATOM     14  C   UNL     1       3.548   6.883  40.893  1.00  0.00     0.020 A 
ATOM     15  C   UNL     1       1.323   7.650  40.327  1.00  0.00     0.119 A 
ATOM     16  C   UNL     1       1.858   8.431  39.295  1.00  0.00     0.093 A 
ATOM     17  C   UNL     1       3.238   8.452  39.060  1.00  0.00     0.130 A 
BRANCH  15  18
ATOM     18  O   UNL     1      -0.050   7.633  40.567  1.00  0.00    -0.508 OA
ATOM     19  H   UNL     1      -0.717   7.486  39.818  1.00  0.00     0.293 HD
ENDBRANCH  15  18
BRANCH  17  20
ATOM     20  O   UNL     1       3.722   9.276  38.041  1.00  0.00    -0.507 OA
ATOM     21  H   UNL     1       3.857   8.957  37.090  1.00  0.00     0.293 HD
ENDBRANCH  17  20
ENDBRANCH   1  12
BRANCH   2  22
ATOM     22  O   UNL     1       5.960   9.487  41.079  1.00  0.00    -0.502 OA
ATOM     23  H   UNL     1       4.971   9.614  41.254  1.00  0.00     0.293 HD
ENDBRANCH   2  22
BRANCH   6  24
ATOM     24  O   UNL     1      10.620   8.015  39.286  1.00  0.00    -0.507 OA
ATOM     25  H   UNL     1      11.576   7.999  38.948  1.00  0.00     0.293 HD
ENDBRANCH   6  24
BRANCH   8  26
ATOM     26  O   UNL     1       9.432   4.356  36.376  1.00  0.00    -0.508 OA
ATOM     27  H   UNL     1       8.883   3.514  36.247  1.00  0.00     0.293 HD
ENDBRANCH   8  26
TORSDOF 6
ENDMDL
