MODEL 1
REMARK VINA RESULT:    -5.035      0.000      0.000
REMARK INTER + INTRA:         -18.717
REMARK INTER:                 -13.275
REMARK INTRA:                  -5.441
REMARK UNBOUND:                -5.441
REMARK SMILES CCCCCCCCCCCCCCCCCCCCCCCCCCCCCC(=O)[O-]
REMARK SMILES IDX 16 1 17 2 18 3 19 4 20 5 21 6 22 7 23 8 24 9 25 10 26 11
REMARK SMILES IDX 27 12 28 13 29 14 30 15 31 16 32 17 15 18 14 19 13 20 12 21
REMARK SMILES IDX 11 22 10 23 9 24 8 25 7 26 6 27 5 28 4 29 3 30 2 31 1 32
REMARK H PARENT
REMARK Flexibility Score: inf
ROOT
ATOM      1  C   UNL     1      46.521  43.584  38.230  1.00  0.00     0.000 C 
ENDROOT
BRANCH   1   2
ATOM      2  C   UNL     1      48.035  43.553  38.514  1.00  0.00     0.000 C 
BRANCH   2   3
ATOM      3  C   UNL     1      48.670  42.149  38.409  1.00  0.00     0.000 C 
BRANCH   3   4
ATOM      4  C   UNL     1      49.457  41.884  37.108  1.00  0.00     0.000 C 
BRANCH   4   5
ATOM      5  C   UNL     1      48.707  41.094  36.017  1.00  0.00     0.000 C 
BRANCH   5   6
ATOM      6  C   UNL     1      47.839  41.978  35.107  1.00  0.00     0.000 C 
BRANCH   6   7
ATOM      7  C   UNL     1      46.333  41.736  35.302  1.00  0.00     0.000 C 
BRANCH   7   8
ATOM      8  C   UNL     1      45.999  40.384  35.971  1.00  0.00     0.000 C 
BRANCH   8   9
ATOM      9  C   UNL     1      44.761  40.477  36.881  1.00  0.00     0.000 C 
BRANCH   9  10
ATOM     10  C   UNL     1      45.128  40.415  38.373  1.00  0.00     0.000 C 
BRANCH  10  11
ATOM     11  C   UNL     1      44.087  39.642  39.202  1.00  0.00     0.000 C 
BRANCH  11  12
ATOM     12  C   UNL     1      44.728  38.500  40.020  1.00  0.00     0.000 C 
BRANCH  12  13
ATOM     13  C   UNL     1      46.026  37.955  39.393  1.00  0.00     0.006 C 
BRANCH  13  14
ATOM     14  C   UNL     1      45.837  36.645  38.614  1.00  0.00     0.053 C 
BRANCH  14  15
ATOM     15  C   UNL     1      46.088  36.829  37.147  1.00  0.00     0.041 C 
ATOM     16  O   UNL     1      47.267  36.886  36.706  1.00  0.00    -0.550 OA
ATOM     17  O   UNL     1      45.019  36.943  36.268  1.00  0.00    -0.550 OA
ENDBRANCH  14  15
ENDBRANCH  13  14
ENDBRANCH  12  13
ENDBRANCH  11  12
ENDBRANCH  10  11
ENDBRANCH   9  10
ENDBRANCH   8   9
ENDBRANCH   7   8
ENDBRANCH   6   7
ENDBRANCH   5   6
ENDBRANCH   4   5
ENDBRANCH   3   4
ENDBRANCH   2   3
ENDBRANCH   1   2
BRANCH   1  18
ATOM     18  C   UNL     1      45.839  44.908  38.627  1.00  0.00     0.000 C 
BRANCH  18  19
ATOM     19  C   UNL     1      46.744  45.787  39.503  1.00  0.00     0.000 C 
BRANCH  19  20
ATOM     20  C   UNL     1      45.911  46.760  40.349  1.00  0.00     0.000 C 
BRANCH  20  21
ATOM     21  C   UNL     1      44.418  46.751  39.974  1.00  0.00     0.000 C 
BRANCH  21  22
ATOM     22  C   UNL     1      43.911  48.023  39.263  1.00  0.00     0.000 C 
BRANCH  22  23
ATOM     23  C   UNL     1      44.601  48.342  37.924  1.00  0.00     0.000 C 
BRANCH  23  24
ATOM     24  C   UNL     1      44.976  49.825  37.785  1.00  0.00    -0.000 C 
BRANCH  24  25
ATOM     25  C   UNL     1      46.439  49.984  37.354  1.00  0.00    -0.000 C 
BRANCH  25  26
ATOM     26  C   UNL     1      47.391  49.575  38.488  1.00  0.00    -0.000 C 
BRANCH  26  27
ATOM     27  C   UNL     1      48.520  48.645  38.014  1.00  0.00    -0.000 C 
BRANCH  27  28
ATOM     28  C   UNL     1      48.220  48.001  36.648  1.00  0.00    -0.000 C 
BRANCH  28  29
ATOM     29  C   UNL     1      48.704  46.544  36.566  1.00  0.00    -0.000 C 
BRANCH  29  30
ATOM     30  C   UNL     1      47.896  45.713  35.554  1.00  0.00    -0.000 C 
BRANCH  30  31
ATOM     31  C   UNL     1      46.458  46.228  35.382  1.00  0.00    -0.003 C 
ATOM     32  C   UNL     1      45.638  45.389  34.401  1.00  0.00     0.004 C 
ENDBRANCH  30  31
ENDBRANCH  29  30
ENDBRANCH  28  29
ENDBRANCH  27  28
ENDBRANCH  26  27
ENDBRANCH  25  26
ENDBRANCH  24  25
ENDBRANCH  23  24
ENDBRANCH  22  23
ENDBRANCH  21  22
ENDBRANCH  20  21
ENDBRANCH  19  20
ENDBRANCH  18  19
ENDBRANCH   1  18
TORSDOF 28
ENDMDL
MODEL 2
REMARK VINA RESULT:    -4.985      1.652      3.905
REMARK INTER + INTRA:         -18.586
REMARK INTER:                 -13.446
REMARK INTRA:                  -5.140
REMARK UNBOUND:                -5.441
REMARK SMILES CCCCCCCCCCCCCCCCCCCCCCCCCCCCCC(=O)[O-]
REMARK SMILES IDX 16 1 17 2 18 3 19 4 20 5 21 6 22 7 23 8 24 9 25 10 26 11
REMARK SMILES IDX 27 12 28 13 29 14 30 15 31 16 32 17 15 18 14 19 13 20 12 21
REMARK SMILES IDX 11 22 10 23 9 24 8 25 7 26 6 27 5 28 4 29 3 30 2 31 1 32
REMARK H PARENT
REMARK Flexibility Score: inf
ROOT
ATOM      1  C   UNL     1      46.095  43.431  37.221  1.00  0.00     0.000 C 
ENDROOT
BRANCH   1   2
ATOM      2  C   UNL     1      46.866  43.065  38.504  1.00  0.00     0.000 C 
BRANCH   2   3
ATOM      3  C   UNL     1      48.395  43.254  38.399  1.00  0.00     0.000 C 
BRANCH   3   4
ATOM      4  C   UNL     1      49.233  42.007  38.752  1.00  0.00     0.000 C 
BRANCH   4   5
ATOM      5  C   UNL     1      49.281  40.902  37.677  1.00  0.00     0.000 C 
BRANCH   5   6
ATOM      6  C   UNL     1      48.269  39.769  37.917  1.00  0.00     0.000 C 
BRANCH   6   7
ATOM      7  C   UNL     1      47.652  39.235  36.613  1.00  0.00     0.000 C 
BRANCH   7   8
ATOM      8  C   UNL     1      47.337  37.723  36.645  1.00  0.00     0.000 C 
BRANCH   8   9
ATOM      9  C   UNL     1      47.136  37.202  38.079  1.00  0.00     0.000 C 
BRANCH   9  10
ATOM     10  C   UNL     1      45.659  37.222  38.506  1.00  0.00     0.000 C 
BRANCH  10  11
ATOM     11  C   UNL     1      45.473  37.696  39.958  1.00  0.00     0.000 C 
BRANCH  11  12
ATOM     12  C   UNL     1      44.514  38.902  40.057  1.00  0.00     0.000 C 
BRANCH  12  13
ATOM     13  C   UNL     1      44.837  40.023  39.049  1.00  0.00     0.006 C 
BRANCH  13  14
ATOM     14  C   UNL     1      43.635  40.916  38.708  1.00  0.00     0.053 C 
BRANCH  14  15
ATOM     15  C   UNL     1      42.734  40.275  37.695  1.00  0.00     0.041 C 
ATOM     16  O   UNL     1      43.218  39.733  36.666  1.00  0.00    -0.550 OA
ATOM     17  O   UNL     1      41.358  40.281  37.887  1.00  0.00    -0.550 OA
ENDBRANCH  14  15
ENDBRANCH  13  14
ENDBRANCH  12  13
ENDBRANCH  11  12
ENDBRANCH  10  11
ENDBRANCH   9  10
ENDBRANCH   8   9
ENDBRANCH   7   8
ENDBRANCH   6   7
ENDBRANCH   5   6
ENDBRANCH   4   5
ENDBRANCH   3   4
ENDBRANCH   2   3
ENDBRANCH   1   2
BRANCH   1  18
ATOM     18  C   UNL     1      46.021  42.287  36.190  1.00  0.00     0.000 C 
BRANCH  18  19
ATOM     19  C   UNL     1      46.773  42.624  34.895  1.00  0.00     0.000 C 
BRANCH  19  20
ATOM     20  C   UNL     1      47.275  44.076  34.915  1.00  0.00     0.000 C 
BRANCH  20  21
ATOM     21  C   UNL     1      46.350  45.038  34.148  1.00  0.00     0.000 C 
BRANCH  21  22
ATOM     22  C   UNL     1      45.656  46.111  35.012  1.00  0.00     0.000 C 
BRANCH  22  23
ATOM     23  C   UNL     1      46.606  47.079  35.741  1.00  0.00     0.000 C 
BRANCH  23  24
ATOM     24  C   UNL     1      46.063  48.514  35.804  1.00  0.00    -0.000 C 
BRANCH  24  25
ATOM     25  C   UNL     1      46.695  49.291  36.965  1.00  0.00    -0.000 C 
BRANCH  25  26
ATOM     26  C   UNL     1      45.630  49.700  37.993  1.00  0.00    -0.000 C 
BRANCH  26  27
ATOM     27  C   UNL     1      44.387  48.797  37.958  1.00  0.00    -0.000 C 
BRANCH  27  28
ATOM     28  C   UNL     1      44.299  47.867  39.181  1.00  0.00    -0.000 C 
BRANCH  28  29
ATOM     29  C   UNL     1      45.012  46.524  38.952  1.00  0.00    -0.000 C 
BRANCH  29  30
ATOM     30  C   UNL     1      46.001  46.183  40.080  1.00  0.00    -0.000 C 
BRANCH  30  31
ATOM     31  C   UNL     1      47.197  47.148  40.127  1.00  0.00    -0.003 C 
ATOM     32  C   UNL     1      48.295  46.785  39.127  1.00  0.00     0.004 C 
ENDBRANCH  30  31
ENDBRANCH  29  30
ENDBRANCH  28  29
ENDBRANCH  27  28
ENDBRANCH  26  27
ENDBRANCH  25  26
ENDBRANCH  24  25
ENDBRANCH  23  24
ENDBRANCH  22  23
ENDBRANCH  21  22
ENDBRANCH  20  21
ENDBRANCH  19  20
ENDBRANCH  18  19
ENDBRANCH   1  18
TORSDOF 28
ENDMDL
MODEL 3
REMARK VINA RESULT:    -4.860      2.967      8.570
REMARK INTER + INTRA:         -18.257
REMARK INTER:                 -12.596
REMARK INTRA:                  -5.661
REMARK UNBOUND:                -5.441
REMARK SMILES CCCCCCCCCCCCCCCCCCCCCCCCCCCCCC(=O)[O-]
REMARK SMILES IDX 16 1 17 2 18 3 19 4 20 5 21 6 22 7 23 8 24 9 25 10 26 11
REMARK SMILES IDX 27 12 28 13 29 14 30 15 31 16 32 17 15 18 14 19 13 20 12 21
REMARK SMILES IDX 11 22 10 23 9 24 8 25 7 26 6 27 5 28 4 29 3 30 2 31 1 32
REMARK H PARENT
REMARK Flexibility Score: inf
ROOT
ATOM      1  C   UNL     1      48.790  43.669  35.109  1.00  0.00     0.000 C 
ENDROOT
BRANCH   1   2
ATOM      2  C   UNL     1      47.306  43.298  35.288  1.00  0.00     0.000 C 
BRANCH   2   3
ATOM      3  C   UNL     1      46.320  44.390  34.820  1.00  0.00     0.000 C 
BRANCH   3   4
ATOM      4  C   UNL     1      46.681  45.826  35.256  1.00  0.00     0.000 C 
BRANCH   4   5
ATOM      5  C   UNL     1      45.793  46.439  36.358  1.00  0.00     0.000 C 
BRANCH   5   6
ATOM      6  C   UNL     1      45.470  47.925  36.130  1.00  0.00     0.000 C 
BRANCH   6   7
ATOM      7  C   UNL     1      45.012  48.639  37.413  1.00  0.00     0.000 C 
BRANCH   7   8
ATOM      8  C   UNL     1      45.638  50.038  37.606  1.00  0.00     0.000 C 
BRANCH   8   9
ATOM      9  C   UNL     1      47.064  50.120  37.031  1.00  0.00     0.000 C 
BRANCH   9  10
ATOM     10  C   UNL     1      48.123  49.610  38.022  1.00  0.00     0.000 C 
BRANCH  10  11
ATOM     11  C   UNL     1      48.893  48.392  37.482  1.00  0.00     0.000 C 
BRANCH  11  12
ATOM     12  C   UNL     1      48.801  47.179  38.433  1.00  0.00     0.000 C 
BRANCH  12  13
ATOM     13  C   UNL     1      47.767  47.364  39.561  1.00  0.00     0.006 C 
BRANCH  13  14
ATOM     14  C   UNL     1      46.896  46.124  39.815  1.00  0.00     0.053 C 
BRANCH  14  15
ATOM     15  C   UNL     1      45.856  46.381  40.864  1.00  0.00     0.041 C 
ATOM     16  O   UNL     1      44.633  46.235  40.597  1.00  0.00    -0.550 OA
ATOM     17  O   UNL     1      46.239  46.785  42.137  1.00  0.00    -0.550 OA
ENDBRANCH  14  15
ENDBRANCH  13  14
ENDBRANCH  12  13
ENDBRANCH  11  12
ENDBRANCH  10  11
ENDBRANCH   9  10
ENDBRANCH   8   9
ENDBRANCH   7   8
ENDBRANCH   6   7
ENDBRANCH   5   6
ENDBRANCH   4   5
ENDBRANCH   3   4
ENDBRANCH   2   3
ENDBRANCH   1   2
BRANCH   1  18
ATOM     18  C   UNL     1      49.662  43.370  36.345  1.00  0.00     0.000 C 
BRANCH  18  19
ATOM     19  C   UNL     1      48.913  43.635  37.660  1.00  0.00     0.000 C 
BRANCH  19  20
ATOM     20  C   UNL     1      49.029  42.433  38.608  1.00  0.00     0.000 C 
BRANCH  20  21
ATOM     21  C   UNL     1      49.395  41.128  37.879  1.00  0.00     0.000 C 
BRANCH  21  22
ATOM     22  C   UNL     1      48.250  40.101  37.755  1.00  0.00     0.000 C 
BRANCH  22  23
ATOM     23  C   UNL     1      47.794  39.801  36.315  1.00  0.00     0.000 C 
BRANCH  23  24
ATOM     24  C   UNL     1      46.668  38.759  36.252  1.00  0.00    -0.000 C 
BRANCH  24  25
ATOM     25  C   UNL     1      46.881  37.653  37.293  1.00  0.00    -0.000 C 
BRANCH  25  26
ATOM     26  C   UNL     1      45.585  37.373  38.067  1.00  0.00    -0.000 C 
BRANCH  26  27
ATOM     27  C   UNL     1      45.633  37.879  39.517  1.00  0.00    -0.000 C 
BRANCH  27  28
ATOM     28  C   UNL     1      45.248  39.365  39.636  1.00  0.00    -0.000 C 
BRANCH  28  29
ATOM     29  C   UNL     1      43.859  39.663  39.047  1.00  0.00    -0.000 C 
BRANCH  29  30
ATOM     30  C   UNL     1      43.748  41.097  38.500  1.00  0.00    -0.000 C 
BRANCH  30  31
ATOM     31  C   UNL     1      45.111  41.684  38.103  1.00  0.00    -0.003 C 
ATOM     32  C   UNL     1      45.306  43.120  38.591  1.00  0.00     0.004 C 
ENDBRANCH  30  31
ENDBRANCH  29  30
ENDBRANCH  28  29
ENDBRANCH  27  28
ENDBRANCH  26  27
ENDBRANCH  25  26
ENDBRANCH  24  25
ENDBRANCH  23  24
ENDBRANCH  22  23
ENDBRANCH  21  22
ENDBRANCH  20  21
ENDBRANCH  19  20
ENDBRANCH  18  19
ENDBRANCH   1  18
TORSDOF 28
ENDMDL
MODEL 4
REMARK VINA RESULT:    -4.849      2.523      7.924
REMARK INTER + INTRA:         -18.227
REMARK INTER:                 -12.473
REMARK INTRA:                  -5.754
REMARK UNBOUND:                -5.441
REMARK SMILES CCCCCCCCCCCCCCCCCCCCCCCCCCCCCC(=O)[O-]
REMARK SMILES IDX 16 1 17 2 18 3 19 4 20 5 21 6 22 7 23 8 24 9 25 10 26 11
REMARK SMILES IDX 27 12 28 13 29 14 30 15 31 16 32 17 15 18 14 19 13 20 12 21
REMARK SMILES IDX 11 22 10 23 9 24 8 25 7 26 6 27 5 28 4 29 3 30 2 31 1 32
REMARK H PARENT
REMARK Flexibility Score: inf
ROOT
ATOM      1  C   UNL     1      48.684  44.234  37.817  1.00  0.00     0.000 C 
ENDROOT
BRANCH   1   2
ATOM      2  C   UNL     1      49.718  43.950  36.711  1.00  0.00     0.000 C 
BRANCH   2   3
ATOM      3  C   UNL     1      49.389  44.609  35.354  1.00  0.00     0.000 C 
BRANCH   3   4
ATOM      4  C   UNL     1      48.319  43.877  34.515  1.00  0.00     0.000 C 
BRANCH   4   5
ATOM      5  C   UNL     1      47.283  44.778  33.812  1.00  0.00     0.000 C 
BRANCH   5   6
ATOM      6  C   UNL     1      45.920  44.815  34.523  1.00  0.00     0.000 C 
BRANCH   6   7
ATOM      7  C   UNL     1      45.964  45.581  35.855  1.00  0.00     0.000 C 
BRANCH   7   8
ATOM      8  C   UNL     1      46.305  47.080  35.703  1.00  0.00     0.000 C 
BRANCH   8   9
ATOM      9  C   UNL     1      47.441  47.515  36.646  1.00  0.00     0.000 C 
BRANCH   9  10
ATOM     10  C   UNL     1      47.159  48.872  37.312  1.00  0.00     0.000 C 
BRANCH  10  11
ATOM     11  C   UNL     1      47.489  48.869  38.815  1.00  0.00     0.000 C 
BRANCH  11  12
ATOM     12  C   UNL     1      47.881  47.463  39.320  1.00  0.00     0.000 C 
BRANCH  12  13
ATOM     13  C   UNL     1      46.818  46.824  40.233  1.00  0.00     0.006 C 
BRANCH  13  14
ATOM     14  C   UNL     1      45.409  46.799  39.622  1.00  0.00     0.053 C 
BRANCH  14  15
ATOM     15  C   UNL     1      44.649  45.571  40.026  1.00  0.00     0.041 C 
ATOM     16  O   UNL     1      43.809  45.622  40.964  1.00  0.00    -0.550 OA
ATOM     17  O   UNL     1      44.873  44.368  39.368  1.00  0.00    -0.550 OA
ENDBRANCH  14  15
ENDBRANCH  13  14
ENDBRANCH  12  13
ENDBRANCH  11  12
ENDBRANCH  10  11
ENDBRANCH   9  10
ENDBRANCH   8   9
ENDBRANCH   7   8
ENDBRANCH   6   7
ENDBRANCH   5   6
ENDBRANCH   4   5
ENDBRANCH   3   4
ENDBRANCH   2   3
ENDBRANCH   1   2
BRANCH   1  18
ATOM     18  C   UNL     1      47.898  42.988  38.272  1.00  0.00     0.000 C 
BRANCH  18  19
ATOM     19  C   UNL     1      48.825  41.819  38.636  1.00  0.00     0.000 C 
BRANCH  19  20
ATOM     20  C   UNL     1      48.381  40.528  37.932  1.00  0.00     0.000 C 
BRANCH  20  21
ATOM     21  C   UNL     1      48.487  40.616  36.399  1.00  0.00     0.000 C 
BRANCH  21  22
ATOM     22  C   UNL     1      47.254  40.106  35.625  1.00  0.00     0.000 C 
BRANCH  22  23
ATOM     23  C   UNL     1      46.055  41.072  35.593  1.00  0.00     0.000 C 
BRANCH  23  24
ATOM     24  C   UNL     1      44.852  40.556  36.395  1.00  0.00    -0.000 C 
BRANCH  24  25
ATOM     25  C   UNL     1      44.553  41.471  37.589  1.00  0.00    -0.000 C 
BRANCH  25  26
ATOM     26  C   UNL     1      44.888  40.769  38.914  1.00  0.00    -0.000 C 
BRANCH  26  27
ATOM     27  C   UNL     1      44.397  39.313  38.959  1.00  0.00    -0.000 C 
BRANCH  27  28
ATOM     28  C   UNL     1      45.175  38.459  39.976  1.00  0.00    -0.000 C 
BRANCH  28  29
ATOM     29  C   UNL     1      46.424  37.805  39.362  1.00  0.00    -0.000 C 
BRANCH  29  30
ATOM     30  C   UNL     1      46.087  36.547  38.542  1.00  0.00    -0.000 C 
BRANCH  30  31
ATOM     31  C   UNL     1      46.465  36.692  37.059  1.00  0.00    -0.003 C 
ATOM     32  C   UNL     1      45.248  36.870  36.149  1.00  0.00     0.004 C 
ENDBRANCH  30  31
ENDBRANCH  29  30
ENDBRANCH  28  29
ENDBRANCH  27  28
ENDBRANCH  26  27
ENDBRANCH  25  26
ENDBRANCH  24  25
ENDBRANCH  23  24
ENDBRANCH  22  23
ENDBRANCH  21  22
ENDBRANCH  20  21
ENDBRANCH  19  20
ENDBRANCH  18  19
ENDBRANCH   1  18
TORSDOF 28
ENDMDL
MODEL 5
REMARK VINA RESULT:    -4.837      1.669      7.006
REMARK INTER + INTRA:         -18.197
REMARK INTER:                 -13.291
REMARK INTRA:                  -4.905
REMARK UNBOUND:                -5.441
REMARK SMILES CCCCCCCCCCCCCCCCCCCCCCCCCCCCCC(=O)[O-]
REMARK SMILES IDX 16 1 17 2 18 3 19 4 20 5 21 6 22 7 23 8 24 9 25 10 26 11
REMARK SMILES IDX 27 12 28 13 29 14 30 15 31 16 32 17 15 18 14 19 13 20 12 21
REMARK SMILES IDX 11 22 10 23 9 24 8 25 7 26 6 27 5 28 4 29 3 30 2 31 1 32
REMARK H PARENT
REMARK Flexibility Score: inf
ROOT
ATOM      1  C   UNL     1      44.984  47.135  39.615  1.00  0.00     0.000 C 
ENDROOT
BRANCH   1   2
ATOM      2  C   UNL     1      44.124  47.828  38.541  1.00  0.00     0.000 C 
BRANCH   2   3
ATOM      3  C   UNL     1      44.817  49.023  37.850  1.00  0.00     0.000 C 
BRANCH   3   4
ATOM      4  C   UNL     1      46.297  49.232  38.235  1.00  0.00     0.000 C 
BRANCH   4   5
ATOM      5  C   UNL     1      47.335  48.809  37.176  1.00  0.00     0.000 C 
BRANCH   5   6
ATOM      6  C   UNL     1      46.706  48.230  35.898  1.00  0.00     0.000 C 
BRANCH   6   7
ATOM      7  C   UNL     1      46.982  46.727  35.727  1.00  0.00     0.000 C 
BRANCH   7   8
ATOM      8  C   UNL     1      45.714  45.886  35.460  1.00  0.00     0.000 C 
BRANCH   8   9
ATOM      9  C   UNL     1      45.940  44.825  34.368  1.00  0.00     0.000 C 
BRANCH   9  10
ATOM     10  C   UNL     1      47.134  43.909  34.684  1.00  0.00     0.000 C 
BRANCH  10  11
ATOM     11  C   UNL     1      46.699  42.470  35.015  1.00  0.00     0.000 C 
BRANCH  11  12
ATOM     12  C   UNL     1      45.863  42.401  36.312  1.00  0.00     0.000 C 
BRANCH  12  13
ATOM     13  C   UNL     1      45.165  41.043  36.516  1.00  0.00     0.006 C 
BRANCH  13  14
ATOM     14  C   UNL     1      44.371  40.944  37.827  1.00  0.00     0.053 C 
BRANCH  14  15
ATOM     15  C   UNL     1      43.030  40.305  37.619  1.00  0.00     0.041 C 
ATOM     16  O   UNL     1      42.124  40.432  38.485  1.00  0.00    -0.550 OA
ATOM     17  O   UNL     1      42.784  39.565  36.470  1.00  0.00    -0.550 OA
ENDBRANCH  14  15
ENDBRANCH  13  14
ENDBRANCH  12  13
ENDBRANCH  11  12
ENDBRANCH  10  11
ENDBRANCH   9  10
ENDBRANCH   8   9
ENDBRANCH   7   8
ENDBRANCH   6   7
ENDBRANCH   5   6
ENDBRANCH   4   5
ENDBRANCH   3   4
ENDBRANCH   2   3
ENDBRANCH   1   2
BRANCH   1  18
ATOM     18  C   UNL     1      44.876  45.597  39.604  1.00  0.00     0.000 C 
BRANCH  18  19
ATOM     19  C   UNL     1      46.120  44.933  38.996  1.00  0.00     0.000 C 
BRANCH  19  20
ATOM     20  C   UNL     1      47.385  45.742  39.317  1.00  0.00     0.000 C 
BRANCH  20  21
ATOM     21  C   UNL     1      48.626  45.238  38.559  1.00  0.00     0.000 C 
BRANCH  21  22
ATOM     22  C   UNL     1      48.541  43.784  38.052  1.00  0.00     0.000 C 
BRANCH  22  23
ATOM     23  C   UNL     1      49.762  42.904  38.380  1.00  0.00     0.000 C 
BRANCH  23  24
ATOM     24  C   UNL     1      49.607  41.460  37.883  1.00  0.00    -0.000 C 
BRANCH  24  25
ATOM     25  C   UNL     1      48.824  40.612  38.893  1.00  0.00    -0.000 C 
BRANCH  25  26
ATOM     26  C   UNL     1      47.866  39.650  38.174  1.00  0.00    -0.000 C 
BRANCH  26  27
ATOM     27  C   UNL     1      47.787  38.271  38.847  1.00  0.00    -0.000 C 
BRANCH  27  28
ATOM     28  C   UNL     1      46.343  37.869  39.202  1.00  0.00    -0.000 C 
BRANCH  28  29
ATOM     29  C   UNL     1      45.880  36.611  38.448  1.00  0.00    -0.000 C 
BRANCH  29  30
ATOM     30  C   UNL     1      45.705  36.860  36.940  1.00  0.00    -0.000 C 
BRANCH  30  31
ATOM     31  C   UNL     1      46.876  36.308  36.111  1.00  0.00    -0.003 C 
ATOM     32  C   UNL     1      47.499  37.357  35.190  1.00  0.00     0.004 C 
ENDBRANCH  30  31
ENDBRANCH  29  30
ENDBRANCH  28  29
ENDBRANCH  27  28
ENDBRANCH  26  27
ENDBRANCH  25  26
ENDBRANCH  24  25
ENDBRANCH  23  24
ENDBRANCH  22  23
ENDBRANCH  21  22
ENDBRANCH  20  21
ENDBRANCH  19  20
ENDBRANCH  18  19
ENDBRANCH   1  18
TORSDOF 28
ENDMDL
MODEL 6
REMARK VINA RESULT:    -4.803      1.202      2.978
REMARK INTER + INTRA:         -18.107
REMARK INTER:                 -12.695
REMARK INTRA:                  -5.412
REMARK UNBOUND:                -5.441
REMARK SMILES CCCCCCCCCCCCCCCCCCCCCCCCCCCCCC(=O)[O-]
REMARK SMILES IDX 16 1 17 2 18 3 19 4 20 5 21 6 22 7 23 8 24 9 25 10 26 11
REMARK SMILES IDX 27 12 28 13 29 14 30 15 31 16 32 17 15 18 14 19 13 20 12 21
REMARK SMILES IDX 11 22 10 23 9 24 8 25 7 26 6 27 5 28 4 29 3 30 2 31 1 32
REMARK H PARENT
REMARK Flexibility Score: inf
ROOT
ATOM      1  C   UNL     1      49.704  42.671  37.772  1.00  0.00     0.000 C 
ENDROOT
BRANCH   1   2
ATOM      2  C   UNL     1      48.857  41.617  38.509  1.00  0.00     0.000 C 
BRANCH   2   3
ATOM      3  C   UNL     1      48.580  40.340  37.686  1.00  0.00     0.000 C 
BRANCH   3   4
ATOM      4  C   UNL     1      48.243  40.582  36.199  1.00  0.00     0.000 C 
BRANCH   4   5
ATOM      5  C   UNL     1      47.103  39.721  35.618  1.00  0.00     0.000 C 
BRANCH   5   6
ATOM      6  C   UNL     1      45.798  40.502  35.393  1.00  0.00     0.000 C 
BRANCH   6   7
ATOM      7  C   UNL     1      44.787  40.314  36.536  1.00  0.00     0.000 C 
BRANCH   7   8
ATOM      8  C   UNL     1      44.879  41.395  37.635  1.00  0.00     0.000 C 
BRANCH   8   9
ATOM      9  C   UNL     1      45.015  40.782  39.041  1.00  0.00     0.000 C 
BRANCH   9  10
ATOM     10  C   UNL     1      44.055  39.601  39.259  1.00  0.00     0.000 C 
BRANCH  10  11
ATOM     11  C   UNL     1      44.761  38.375  39.864  1.00  0.00     0.000 C 
BRANCH  11  12
ATOM     12  C   UNL     1      46.166  38.158  39.262  1.00  0.00     0.000 C 
BRANCH  12  13
ATOM     13  C   UNL     1      46.331  36.788  38.576  1.00  0.00     0.006 C 
BRANCH  13  14
ATOM     14  C   UNL     1      45.564  36.660  37.251  1.00  0.00     0.053 C 
BRANCH  14  15
ATOM     15  C   UNL     1      46.456  36.211  36.132  1.00  0.00     0.041 C 
ATOM     16  O   UNL     1      45.961  35.795  35.051  1.00  0.00    -0.550 OA
ATOM     17  O   UNL     1      47.836  36.249  36.287  1.00  0.00    -0.550 OA
ENDBRANCH  14  15
ENDBRANCH  13  14
ENDBRANCH  12  13
ENDBRANCH  11  12
ENDBRANCH  10  11
ENDBRANCH   9  10
ENDBRANCH   8   9
ENDBRANCH   7   8
ENDBRANCH   6   7
ENDBRANCH   5   6
ENDBRANCH   4   5
ENDBRANCH   3   4
ENDBRANCH   2   3
ENDBRANCH   1   2
BRANCH   1  18
ATOM     18  C   UNL     1      48.994  44.028  37.592  1.00  0.00     0.000 C 
BRANCH  18  19
ATOM     19  C   UNL     1      47.466  43.897  37.669  1.00  0.00     0.000 C 
BRANCH  19  20
ATOM     20  C   UNL     1      46.815  44.277  36.332  1.00  0.00     0.000 C 
BRANCH  20  21
ATOM     21  C   UNL     1      47.065  45.744  35.939  1.00  0.00     0.000 C 
BRANCH  21  22
ATOM     22  C   UNL     1      45.808  46.637  35.897  1.00  0.00     0.000 C 
BRANCH  22  23
ATOM     23  C   UNL     1      46.082  48.149  35.812  1.00  0.00     0.000 C 
BRANCH  23  24
ATOM     24  C   UNL     1      45.221  48.967  36.786  1.00  0.00    -0.000 C 
BRANCH  24  25
ATOM     25  C   UNL     1      46.030  50.112  37.408  1.00  0.00    -0.000 C 
BRANCH  25  26
ATOM     26  C   UNL     1      47.477  49.674  37.679  1.00  0.00    -0.000 C 
BRANCH  26  27
ATOM     27  C   UNL     1      47.666  49.072  39.080  1.00  0.00    -0.000 C 
BRANCH  27  28
ATOM     28  C   UNL     1      47.940  47.558  39.040  1.00  0.00    -0.000 C 
BRANCH  28  29
ATOM     29  C   UNL     1      47.077  46.777  40.046  1.00  0.00    -0.000 C 
BRANCH  29  30
ATOM     30  C   UNL     1      45.579  46.831  39.701  1.00  0.00    -0.000 C 
BRANCH  30  31
ATOM     31  C   UNL     1      44.900  45.456  39.806  1.00  0.00    -0.003 C 
ATOM     32  C   UNL     1      43.687  45.461  40.737  1.00  0.00     0.004 C 
ENDBRANCH  30  31
ENDBRANCH  29  30
ENDBRANCH  28  29
ENDBRANCH  27  28
ENDBRANCH  26  27
ENDBRANCH  25  26
ENDBRANCH  24  25
ENDBRANCH  23  24
ENDBRANCH  22  23
ENDBRANCH  21  22
ENDBRANCH  20  21
ENDBRANCH  19  20
ENDBRANCH  18  19
ENDBRANCH   1  18
TORSDOF 28
ENDMDL
MODEL 7
REMARK VINA RESULT:    -4.802      1.344      3.580
REMARK INTER + INTRA:         -18.103
REMARK INTER:                 -12.561
REMARK INTRA:                  -5.542
REMARK UNBOUND:                -5.441
REMARK SMILES CCCCCCCCCCCCCCCCCCCCCCCCCCCCCC(=O)[O-]
REMARK SMILES IDX 16 1 17 2 18 3 19 4 20 5 21 6 22 7 23 8 24 9 25 10 26 11
REMARK SMILES IDX 27 12 28 13 29 14 30 15 31 16 32 17 15 18 14 19 13 20 12 21
REMARK SMILES IDX 11 22 10 23 9 24 8 25 7 26 6 27 5 28 4 29 3 30 2 31 1 32
REMARK H PARENT
REMARK Flexibility Score: inf
ROOT
ATOM      1  C   UNL     1      49.534  43.685  35.632  1.00  0.00     0.000 C 
ENDROOT
BRANCH   1   2
ATOM      2  C   UNL     1      49.320  44.618  36.839  1.00  0.00     0.000 C 
BRANCH   2   3
ATOM      3  C   UNL     1      48.963  43.886  38.150  1.00  0.00     0.000 C 
BRANCH   3   4
ATOM      4  C   UNL     1      49.745  42.579  38.403  1.00  0.00     0.000 C 
BRANCH   4   5
ATOM      5  C   UNL     1      48.957  41.271  38.191  1.00  0.00     0.000 C 
BRANCH   5   6
ATOM      6  C   UNL     1      47.435  41.444  38.317  1.00  0.00     0.000 C 
BRANCH   6   7
ATOM      7  C   UNL     1      46.707  41.321  36.968  1.00  0.00     0.000 C 
BRANCH   7   8
ATOM      8  C   UNL     1      45.172  41.203  37.094  1.00  0.00     0.000 C 
BRANCH   8   9
ATOM      9  C   UNL     1      44.706  41.245  38.560  1.00  0.00     0.000 C 
BRANCH   9  10
ATOM     10  C   UNL     1      43.647  40.173  38.867  1.00  0.00     0.000 C 
BRANCH  10  11
ATOM     11  C   UNL     1      44.105  39.191  39.959  1.00  0.00     0.000 C 
BRANCH  11  12
ATOM     12  C   UNL     1      45.551  38.700  39.728  1.00  0.00     0.000 C 
BRANCH  12  13
ATOM     13  C   UNL     1      45.628  37.372  38.950  1.00  0.00     0.006 C 
BRANCH  13  14
ATOM     14  C   UNL     1      45.759  37.551  37.429  1.00  0.00     0.053 C 
BRANCH  14  15
ATOM     15  C   UNL     1      47.187  37.462  36.980  1.00  0.00     0.041 C 
ATOM     16  O   UNL     1      47.465  37.048  35.822  1.00  0.00    -0.550 OA
ATOM     17  O   UNL     1      48.211  37.833  37.841  1.00  0.00    -0.550 OA
ENDBRANCH  14  15
ENDBRANCH  13  14
ENDBRANCH  12  13
ENDBRANCH  11  12
ENDBRANCH  10  11
ENDBRANCH   9  10
ENDBRANCH   8   9
ENDBRANCH   7   8
ENDBRANCH   6   7
ENDBRANCH   5   6
ENDBRANCH   4   5
ENDBRANCH   3   4
ENDBRANCH   2   3
ENDBRANCH   1   2
BRANCH   1  18
ATOM     18  C   UNL     1      48.763  44.113  34.367  1.00  0.00     0.000 C 
BRANCH  18  19
ATOM     19  C   UNL     1      47.258  43.828  34.482  1.00  0.00     0.000 C 
BRANCH  19  20
ATOM     20  C   UNL     1      46.449  44.789  33.599  1.00  0.00     0.000 C 
BRANCH  20  21
ATOM     21  C   UNL     1      45.482  45.673  34.406  1.00  0.00     0.000 C 
BRANCH  21  22
ATOM     22  C   UNL     1      46.104  46.381  35.627  1.00  0.00     0.000 C 
BRANCH  22  23
ATOM     23  C   UNL     1      45.340  46.195  36.951  1.00  0.00     0.000 C 
BRANCH  23  24
ATOM     24  C   UNL     1      45.720  44.898  37.681  1.00  0.00    -0.000 C 
BRANCH  24  25
ATOM     25  C   UNL     1      45.257  44.934  39.143  1.00  0.00    -0.000 C 
BRANCH  25  26
ATOM     26  C   UNL     1      45.446  46.335  39.742  1.00  0.00    -0.000 C 
BRANCH  26  27
ATOM     27  C   UNL     1      46.803  46.508  40.443  1.00  0.00    -0.000 C 
BRANCH  27  28
ATOM     28  C   UNL     1      47.508  47.818  40.050  1.00  0.00    -0.000 C 
BRANCH  28  29
ATOM     29  C   UNL     1      48.284  47.696  38.728  1.00  0.00    -0.000 C 
BRANCH  29  30
ATOM     30  C   UNL     1      47.803  48.703  37.668  1.00  0.00    -0.000 C 
BRANCH  30  31
ATOM     31  C   UNL     1      46.980  49.851  38.276  1.00  0.00    -0.003 C 
ATOM     32  C   UNL     1      45.519  49.840  37.825  1.00  0.00     0.004 C 
ENDBRANCH  30  31
ENDBRANCH  29  30
ENDBRANCH  28  29
ENDBRANCH  27  28
ENDBRANCH  26  27
ENDBRANCH  25  26
ENDBRANCH  24  25
ENDBRANCH  23  24
ENDBRANCH  22  23
ENDBRANCH  21  22
ENDBRANCH  20  21
ENDBRANCH  19  20
ENDBRANCH  18  19
ENDBRANCH   1  18
TORSDOF 28
ENDMDL
MODEL 8
REMARK VINA RESULT:    -4.760      2.881      8.034
REMARK INTER + INTRA:         -17.992
REMARK INTER:                 -12.574
REMARK INTRA:                  -5.418
REMARK UNBOUND:                -5.441
REMARK SMILES CCCCCCCCCCCCCCCCCCCCCCCCCCCCCC(=O)[O-]
REMARK SMILES IDX 16 1 17 2 18 3 19 4 20 5 21 6 22 7 23 8 24 9 25 10 26 11
REMARK SMILES IDX 27 12 28 13 29 14 30 15 31 16 32 17 15 18 14 19 13 20 12 21
REMARK SMILES IDX 11 22 10 23 9 24 8 25 7 26 6 27 5 28 4 29 3 30 2 31 1 32
REMARK H PARENT
REMARK Flexibility Score: inf
ROOT
ATOM      1  C   UNL     1      49.685  43.995  36.237  1.00  0.00     0.000 C 
ENDROOT
BRANCH   1   2
ATOM      2  C   UNL     1      49.704  42.860  35.196  1.00  0.00     0.000 C 
BRANCH   2   3
ATOM      3  C   UNL     1      48.739  43.074  34.009  1.00  0.00     0.000 C 
BRANCH   3   4
ATOM      4  C   UNL     1      48.042  44.451  33.974  1.00  0.00     0.000 C 
BRANCH   4   5
ATOM      5  C   UNL     1      46.511  44.436  34.158  1.00  0.00     0.000 C 
BRANCH   5   6
ATOM      6  C   UNL     1      45.964  45.697  34.847  1.00  0.00     0.000 C 
BRANCH   6   7
ATOM      7  C   UNL     1      46.614  45.957  36.217  1.00  0.00     0.000 C 
BRANCH   7   8
ATOM      8  C   UNL     1      47.366  47.303  36.306  1.00  0.00     0.000 C 
BRANCH   8   9
ATOM      9  C   UNL     1      46.409  48.507  36.254  1.00  0.00     0.000 C 
BRANCH   9  10
ATOM     10  C   UNL     1      46.423  49.320  37.559  1.00  0.00     0.000 C 
BRANCH  10  11
ATOM     11  C   UNL     1      45.010  49.543  38.127  1.00  0.00     0.000 C 
BRANCH  11  12
ATOM     12  C   UNL     1      44.181  48.241  38.147  1.00  0.00     0.000 C 
BRANCH  12  13
ATOM     13  C   UNL     1      44.252  47.493  39.493  1.00  0.00     0.006 C 
BRANCH  13  14
ATOM     14  C   UNL     1      45.104  46.215  39.449  1.00  0.00     0.053 C 
BRANCH  14  15
ATOM     15  C   UNL     1      46.378  46.370  40.225  1.00  0.00     0.041 C 
ATOM     16  O   UNL     1      46.347  46.721  41.435  1.00  0.00    -0.550 OA
ATOM     17  O   UNL     1      47.600  46.129  39.610  1.00  0.00    -0.550 OA
ENDBRANCH  14  15
ENDBRANCH  13  14
ENDBRANCH  12  13
ENDBRANCH  11  12
ENDBRANCH  10  11
ENDBRANCH   9  10
ENDBRANCH   8   9
ENDBRANCH   7   8
ENDBRANCH   6   7
ENDBRANCH   5   6
ENDBRANCH   4   5
ENDBRANCH   3   4
ENDBRANCH   2   3
ENDBRANCH   1   2
BRANCH   1  18
ATOM     18  C   UNL     1      49.119  43.575  37.608  1.00  0.00     0.000 C 
BRANCH  18  19
ATOM     19  C   UNL     1      48.880  42.061  37.697  1.00  0.00     0.000 C 
BRANCH  19  20
ATOM     20  C   UNL     1      47.533  41.757  38.369  1.00  0.00     0.000 C 
BRANCH  20  21
ATOM     21  C   UNL     1      46.379  42.605  37.806  1.00  0.00     0.000 C 
BRANCH  21  22
ATOM     22  C   UNL     1      45.613  41.973  36.626  1.00  0.00     0.000 C 
BRANCH  22  23
ATOM     23  C   UNL     1      44.773  40.732  36.981  1.00  0.00     0.000 C 
BRANCH  23  24
ATOM     24  C   UNL     1      43.798  40.983  38.140  1.00  0.00    -0.000 C 
BRANCH  24  25
ATOM     25  C   UNL     1      43.862  39.847  39.168  1.00  0.00    -0.000 C 
BRANCH  25  26
ATOM     26  C   UNL     1      45.275  39.251  39.238  1.00  0.00    -0.000 C 
BRANCH  26  27
ATOM     27  C   UNL     1      45.273  37.740  39.520  1.00  0.00    -0.000 C 
BRANCH  27  28
ATOM     28  C   UNL     1      46.154  36.954  38.532  1.00  0.00    -0.000 C 
BRANCH  28  29
ATOM     29  C   UNL     1      45.663  37.074  37.080  1.00  0.00    -0.000 C 
BRANCH  29  30
ATOM     30  C   UNL     1      46.818  37.269  36.082  1.00  0.00    -0.000 C 
BRANCH  30  31
ATOM     31  C   UNL     1      47.532  38.618  36.263  1.00  0.00    -0.003 C 
ATOM     32  C   UNL     1      47.640  39.413  34.962  1.00  0.00     0.004 C 
ENDBRANCH  30  31
ENDBRANCH  29  30
ENDBRANCH  28  29
ENDBRANCH  27  28
ENDBRANCH  26  27
ENDBRANCH  25  26
ENDBRANCH  24  25
ENDBRANCH  23  24
ENDBRANCH  22  23
ENDBRANCH  21  22
ENDBRANCH  20  21
ENDBRANCH  19  20
ENDBRANCH  18  19
ENDBRANCH   1  18
TORSDOF 28
ENDMDL
MODEL 9
REMARK VINA RESULT:    -4.754      3.364      8.624
REMARK INTER + INTRA:         -17.976
REMARK INTER:                 -12.933
REMARK INTRA:                  -5.043
REMARK UNBOUND:                -5.441
REMARK SMILES CCCCCCCCCCCCCCCCCCCCCCCCCCCCCC(=O)[O-]
REMARK SMILES IDX 16 1 17 2 18 3 19 4 20 5 21 6 22 7 23 8 24 9 25 10 26 11
REMARK SMILES IDX 27 12 28 13 29 14 30 15 31 16 32 17 15 18 14 19 13 20 12 21
REMARK SMILES IDX 11 22 10 23 9 24 8 25 7 26 6 27 5 28 4 29 3 30 2 31 1 32
REMARK H PARENT
REMARK Flexibility Score: inf
ROOT
ATOM      1  C   UNL     1      49.686  43.707  36.624  1.00  0.00     0.000 C 
ENDROOT
BRANCH   1   2
ATOM      2  C   UNL     1      49.460  43.065  35.242  1.00  0.00     0.000 C 
BRANCH   2   3
ATOM      3  C   UNL     1      48.372  43.758  34.393  1.00  0.00     0.000 C 
BRANCH   3   4
ATOM      4  C   UNL     1      46.960  43.759  35.015  1.00  0.00     0.000 C 
BRANCH   4   5
ATOM      5  C   UNL     1      46.028  44.905  34.570  1.00  0.00     0.000 C 
BRANCH   5   6
ATOM      6  C   UNL     1      45.864  46.008  35.628  1.00  0.00     0.000 C 
BRANCH   6   7
ATOM      7  C   UNL     1      46.811  45.829  36.827  1.00  0.00     0.000 C 
BRANCH   7   8
ATOM      8  C   UNL     1      46.141  45.188  38.062  1.00  0.00     0.000 C 
BRANCH   8   9
ATOM      9  C   UNL     1      46.795  45.644  39.379  1.00  0.00     0.000 C 
BRANCH   9  10
ATOM     10  C   UNL     1      45.925  46.656  40.143  1.00  0.00     0.000 C 
BRANCH  10  11
ATOM     11  C   UNL     1      44.478  46.696  39.624  1.00  0.00     0.000 C 
BRANCH  11  12
ATOM     12  C   UNL     1      44.025  48.131  39.276  1.00  0.00     0.000 C 
BRANCH  12  13
ATOM     13  C   UNL     1      44.421  48.568  37.853  1.00  0.00     0.006 C 
BRANCH  13  14
ATOM     14  C   UNL     1      45.228  49.875  37.807  1.00  0.00     0.053 C 
BRANCH  14  15
ATOM     15  C   UNL     1      46.703  49.615  37.738  1.00  0.00     0.041 C 
ATOM     16  O   UNL     1      47.263  49.413  36.627  1.00  0.00    -0.550 OA
ATOM     17  O   UNL     1      47.460  49.593  38.903  1.00  0.00    -0.550 OA
ENDBRANCH  14  15
ENDBRANCH  13  14
ENDBRANCH  12  13
ENDBRANCH  11  12
ENDBRANCH  10  11
ENDBRANCH   9  10
ENDBRANCH   8   9
ENDBRANCH   7   8
ENDBRANCH   6   7
ENDBRANCH   5   6
ENDBRANCH   4   5
ENDBRANCH   3   4
ENDBRANCH   2   3
ENDBRANCH   1   2
BRANCH   1  18
ATOM     18  C   UNL     1      49.121  42.879  37.796  1.00  0.00     0.000 C 
BRANCH  18  19
ATOM     19  C   UNL     1      49.197  41.368  37.528  1.00  0.00     0.000 C 
BRANCH  19  20
ATOM     20  C   UNL     1      47.794  40.745  37.504  1.00  0.00     0.000 C 
BRANCH  20  21
ATOM     21  C   UNL     1      47.461  40.072  36.160  1.00  0.00     0.000 C 
BRANCH  21  22
ATOM     22  C   UNL     1      46.036  40.334  35.629  1.00  0.00     0.000 C 
BRANCH  22  23
ATOM     23  C   UNL     1      45.065  40.962  36.646  1.00  0.00     0.000 C 
BRANCH  23  24
ATOM     24  C   UNL     1      43.845  40.073  36.932  1.00  0.00    -0.000 C 
BRANCH  24  25
ATOM     25  C   UNL     1      43.405  40.198  38.396  1.00  0.00    -0.000 C 
BRANCH  25  26
ATOM     26  C   UNL     1      44.606  40.051  39.343  1.00  0.00    -0.000 C 
BRANCH  26  27
ATOM     27  C   UNL     1      44.813  38.607  39.825  1.00  0.00    -0.000 C 
BRANCH  27  28
ATOM     28  C   UNL     1      46.086  37.967  39.243  1.00  0.00    -0.000 C 
BRANCH  28  29
ATOM     29  C   UNL     1      45.797  36.654  38.496  1.00  0.00    -0.000 C 
BRANCH  29  30
ATOM     30  C   UNL     1      45.651  36.860  36.978  1.00  0.00    -0.000 C 
BRANCH  30  31
ATOM     31  C   UNL     1      46.899  36.414  36.200  1.00  0.00    -0.003 C 
ATOM     32  C   UNL     1      46.574  35.458  35.052  1.00  0.00     0.004 C 
ENDBRANCH  30  31
ENDBRANCH  29  30
ENDBRANCH  28  29
ENDBRANCH  27  28
ENDBRANCH  26  27
ENDBRANCH  25  26
ENDBRANCH  24  25
ENDBRANCH  23  24
ENDBRANCH  22  23
ENDBRANCH  21  22
ENDBRANCH  20  21
ENDBRANCH  19  20
ENDBRANCH  18  19
ENDBRANCH   1  18
TORSDOF 28
ENDMDL
