MODEL 1
REMARK VINA RESULT:    -3.881      0.000      0.000
REMARK INTER + INTRA:          -4.827
REMARK INTER:                  -4.562
REMARK INTRA:                  -0.265
REMARK UNBOUND:                -0.265
REMARK SMILES O=c1cc(-c2ccc(O)c(O)c2)oc2cc(O)cc(O)c12
REMARK SMILES IDX 4 1 3 2 2 3 1 4 21 5 19 6 18 7 16 8 15 9 14 10 13 11 5 12
REMARK SMILES IDX 6 13 7 14 8 15 12 16 10 17 9 18 11 20 20 22 17 24
REMARK H PARENT 9 19 11 21 20 23 17 25
REMARK Flexibility Score: inf
ROOT
ATOM      1  C   UNL     1      12.767   8.356  29.001  1.00  0.00     0.138 A 
ATOM      2  C   UNL     1      13.504   9.164  29.878  1.00  0.00     0.100 A 
ATOM      3  C   UNL     1      12.893  10.266  30.479  1.00  0.00     0.197 A 
ATOM      4  O   UNL     1      13.596  11.003  31.217  1.00  0.00    -0.289 OA
ATOM      5  C   UNL     1      11.527  10.539  30.227  1.00  0.00     0.107 A 
ATOM      6  C   UNL     1      10.790  11.613  30.811  1.00  0.00     0.134 A 
ATOM      7  C   UNL     1       9.468  11.841  30.409  1.00  0.00     0.093 A 
ATOM      8  C   UNL     1       8.837  11.001  29.492  1.00  0.00     0.123 A 
ATOM      9  C   UNL     1       9.533   9.917  28.953  1.00  0.00     0.094 A 
ATOM     10  C   UNL     1      10.864   9.685  29.307  1.00  0.00     0.146 A 
ATOM     11  O   UNL     1      11.495   8.653  28.757  1.00  0.00    -0.456 OA
ENDROOT
BRANCH   1  12
ATOM     12  C   UNL     1      13.365   7.171  28.336  1.00  0.00     0.021 A 
ATOM     13  C   UNL     1      13.494   7.157  26.937  1.00  0.00     0.016 A 
ATOM     14  C   UNL     1      14.059   6.057  26.286  1.00  0.00     0.051 A 
ATOM     15  C   UNL     1      14.514   4.959  27.020  1.00  0.00     0.157 A 
ATOM     16  C   UNL     1      13.838   6.068  29.073  1.00  0.00     0.062 A 
ATOM     17  C   UNL     1      14.407   4.964  28.420  1.00  0.00     0.158 A 
BRANCH  15  18
ATOM     18  O   UNL     1      15.073   3.876  26.343  1.00  0.00    -0.504 OA
ATOM     19  H   UNL     1      14.755   3.594  25.424  1.00  0.00     0.293 HD
ENDBRANCH  15  18
BRANCH  17  20
ATOM     20  O   UNL     1      14.870   3.875  29.159  1.00  0.00    -0.504 OA
ATOM     21  H   UNL     1      15.826   3.826  29.490  1.00  0.00     0.293 HD
ENDBRANCH  17  20
ENDBRANCH   1  12
BRANCH   6  22
ATOM     22  O   UNL     1      11.296  12.466  31.796  1.00  0.00    -0.507 OA
ATOM     23  H   UNL     1      11.690  13.379  31.628  1.00  0.00     0.293 HD
ENDBRANCH   6  22
BRANCH   8  24
ATOM     24  O   UNL     1       7.516  11.250  29.128  1.00  0.00    -0.508 OA
ATOM     25  H   UNL     1       6.831  11.567  29.805  1.00  0.00     0.293 HD
ENDBRANCH   8  24
TORSDOF 5
ENDMDL
MODEL 2
REMARK VINA RESULT:    -3.584      0.998      2.628
REMARK INTER + INTRA:          -4.478
REMARK INTER:                  -4.210
REMARK INTRA:                  -0.268
REMARK UNBOUND:                -0.265
REMARK SMILES O=c1cc(-c2ccc(O)c(O)c2)oc2cc(O)cc(O)c12
REMARK SMILES IDX 4 1 3 2 2 3 1 4 21 5 19 6 18 7 16 8 15 9 14 10 13 11 5 12
REMARK SMILES IDX 6 13 7 14 8 15 12 16 10 17 9 18 11 20 20 22 17 24
REMARK H PARENT 9 19 11 21 20 23 17 25
REMARK Flexibility Score: inf
ROOT
ATOM      1  C   UNL     1      11.962   7.997  28.572  1.00  0.00     0.138 A 
ATOM      2  C   UNL     1      10.620   8.064  28.172  1.00  0.00     0.100 A 
ATOM      3  C   UNL     1       9.817   9.113  28.622  1.00  0.00     0.197 A 
ATOM      4  O   UNL     1       8.604   9.114  28.291  1.00  0.00    -0.289 OA
ATOM      5  C   UNL     1      10.371  10.120  29.448  1.00  0.00     0.107 A 
ATOM      6  C   UNL     1       9.658  11.256  29.939  1.00  0.00     0.134 A 
ATOM      7  C   UNL     1      10.287  12.133  30.830  1.00  0.00     0.093 A 
ATOM      8  C   UNL     1      11.619  11.952  31.202  1.00  0.00     0.123 A 
ATOM      9  C   UNL     1      12.341  10.874  30.689  1.00  0.00     0.094 A 
ATOM     10  C   UNL     1      11.731   9.960  29.826  1.00  0.00     0.146 A 
ATOM     11  O   UNL     1      12.449   8.938  29.374  1.00  0.00    -0.456 OA
ENDROOT
BRANCH   1  12
ATOM     12  C   UNL     1      12.862   6.905  28.122  1.00  0.00     0.021 A 
ATOM     13  C   UNL     1      13.323   6.895  26.795  1.00  0.00     0.016 A 
ATOM     14  C   UNL     1      14.177   5.884  26.346  1.00  0.00     0.051 A 
ATOM     15  C   UNL     1      14.591   4.872  27.216  1.00  0.00     0.157 A 
ATOM     16  C   UNL     1      13.294   5.891  28.999  1.00  0.00     0.062 A 
ATOM     17  C   UNL     1      14.152   4.876  28.549  1.00  0.00     0.158 A 
BRANCH  15  18
ATOM     18  O   UNL     1      15.442   3.876  26.740  1.00  0.00    -0.504 OA
ATOM     19  H   UNL     1      16.447   4.001  26.697  1.00  0.00     0.293 HD
ENDBRANCH  15  18
BRANCH  17  20
ATOM     20  O   UNL     1      14.571   3.875  29.425  1.00  0.00    -0.504 OA
ATOM     21  H   UNL     1      15.534   3.808  29.733  1.00  0.00     0.293 HD
ENDBRANCH  17  20
ENDBRANCH   1  12
BRANCH   6  22
ATOM     22  O   UNL     1       8.348  11.577  29.570  1.00  0.00    -0.507 OA
ATOM     23  H   UNL     1       7.625  11.883  30.202  1.00  0.00     0.293 HD
ENDBRANCH   6  22
BRANCH   8  24
ATOM     24  O   UNL     1      12.216  12.855  32.079  1.00  0.00    -0.508 OA
ATOM     25  H   UNL     1      12.359  13.826  31.824  1.00  0.00     0.293 HD
ENDBRANCH   8  24
TORSDOF 5
ENDMDL
MODEL 3
REMARK VINA RESULT:    -2.079      1.484      7.179
REMARK INTER + INTRA:          -2.709
REMARK INTER:                  -2.427
REMARK INTRA:                  -0.282
REMARK UNBOUND:                -0.265
REMARK SMILES O=c1cc(-c2ccc(O)c(O)c2)oc2cc(O)cc(O)c12
REMARK SMILES IDX 4 1 3 2 2 3 1 4 21 5 19 6 18 7 16 8 15 9 14 10 13 11 5 12
REMARK SMILES IDX 6 13 7 14 8 15 12 16 10 17 9 18 11 20 20 22 17 24
REMARK H PARENT 9 19 11 21 20 23 17 25
REMARK Flexibility Score: inf
ROOT
ATOM      1  C   UNL     1      11.858   7.961  28.878  1.00  0.00     0.138 A 
ATOM      2  C   UNL     1      12.273   7.586  27.593  1.00  0.00     0.100 A 
ATOM      3  C   UNL     1      13.130   6.496  27.434  1.00  0.00     0.197 A 
ATOM      4  O   UNL     1      13.528   6.220  26.273  1.00  0.00    -0.289 OA
ATOM      5  C   UNL     1      13.547   5.757  28.567  1.00  0.00     0.107 A 
ATOM      6  C   UNL     1      14.392   4.607  28.524  1.00  0.00     0.134 A 
ATOM      7  C   UNL     1      14.816   4.018  29.721  1.00  0.00     0.093 A 
ATOM      8  C   UNL     1      14.381   4.497  30.956  1.00  0.00     0.123 A 
ATOM      9  C   UNL     1      13.514   5.590  31.008  1.00  0.00     0.094 A 
ATOM     10  C   UNL     1      13.101   6.222  29.833  1.00  0.00     0.146 A 
ATOM     11  O   UNL     1      12.290   7.270  29.928  1.00  0.00    -0.456 OA
ENDROOT
BRANCH   1  12
ATOM     12  C   UNL     1      10.945   9.109  29.105  1.00  0.00     0.021 A 
ATOM     13  C   UNL     1       9.692   9.129  28.470  1.00  0.00     0.016 A 
ATOM     14  C   UNL     1       8.809  10.193  28.671  1.00  0.00     0.051 A 
ATOM     15  C   UNL     1       9.159  11.251  29.516  1.00  0.00     0.157 A 
ATOM     16  C   UNL     1      11.287  10.170  29.966  1.00  0.00     0.062 A 
ATOM     17  C   UNL     1      10.400  11.238  30.170  1.00  0.00     0.158 A 
BRANCH  15  18
ATOM     18  O   UNL     1       8.258  12.300  29.696  1.00  0.00    -0.504 OA
ATOM     19  H   UNL     1       7.282  12.221  29.438  1.00  0.00     0.293 HD
ENDBRANCH  15  18
BRANCH  17  20
ATOM     20  O   UNL     1      10.750  12.285  31.023  1.00  0.00    -0.504 OA
ATOM     21  H   UNL     1      10.353  13.211  30.918  1.00  0.00     0.293 HD
ENDBRANCH  17  20
ENDBRANCH   1  12
BRANCH   6  22
ATOM     22  O   UNL     1      14.823   3.996  27.342  1.00  0.00    -0.507 OA
ATOM     23  H   UNL     1      14.671   4.357  26.413  1.00  0.00     0.293 HD
ENDBRANCH   6  22
BRANCH   8  24
ATOM     24  O   UNL     1      14.812   3.875  32.125  1.00  0.00    -0.508 OA
ATOM     25  H   UNL     1      14.924   4.392  32.990  1.00  0.00     0.293 HD
ENDBRANCH   8  24
TORSDOF 5
ENDMDL
MODEL 4
REMARK VINA RESULT:    -1.030     15.928     18.528
REMARK INTER + INTRA:          -1.476
REMARK INTER:                  -1.159
REMARK INTRA:                  -0.317
REMARK UNBOUND:                -0.265
REMARK SMILES O=c1cc(-c2ccc(O)c(O)c2)oc2cc(O)cc(O)c12
REMARK SMILES IDX 4 1 3 2 2 3 1 4 21 5 19 6 18 7 16 8 15 9 14 10 13 11 5 12
REMARK SMILES IDX 6 13 7 14 8 15 12 16 10 17 9 18 11 20 20 22 17 24
REMARK H PARENT 9 19 11 21 20 23 17 25
REMARK Flexibility Score: inf
ROOT
ATOM      1  C   UNL     1       4.211  14.069  14.069  1.00  0.00     0.138 A 
ATOM      2  C   UNL     1       3.999  13.020  13.162  1.00  0.00     0.100 A 
ATOM      3  C   UNL     1       4.078  11.699  13.604  1.00  0.00     0.197 A 
ATOM      4  O   UNL     1       3.939  10.781  12.755  1.00  0.00    -0.289 OA
ATOM      5  C   UNL     1       4.336  11.427  14.969  1.00  0.00     0.107 A 
ATOM      6  C   UNL     1       4.405  10.120  15.541  1.00  0.00     0.134 A 
ATOM      7  C   UNL     1       4.765   9.974  16.886  1.00  0.00     0.093 A 
ATOM      8  C   UNL     1       5.000  11.084  17.695  1.00  0.00     0.123 A 
ATOM      9  C   UNL     1       4.885  12.369  17.160  1.00  0.00     0.094 A 
ATOM     10  C   UNL     1       4.564  12.547  15.812  1.00  0.00     0.146 A 
ATOM     11  O   UNL     1       4.483  13.785  15.338  1.00  0.00    -0.456 OA
ENDROOT
BRANCH   1  12
ATOM     12  C   UNL     1       4.136  15.492  13.654  1.00  0.00     0.021 A 
ATOM     13  C   UNL     1       3.981  15.807  12.293  1.00  0.00     0.016 A 
ATOM     14  C   UNL     1       3.900  17.138  11.876  1.00  0.00     0.051 A 
ATOM     15  C   UNL     1       3.962  18.176  12.810  1.00  0.00     0.157 A 
ATOM     16  C   UNL     1       4.184  16.541  14.593  1.00  0.00     0.062 A 
ATOM     17  C   UNL     1       4.101  17.878  14.174  1.00  0.00     0.158 A 
BRANCH  15  18
ATOM     18  O   UNL     1       3.880  19.494  12.363  1.00  0.00    -0.504 OA
ATOM     19  H   UNL     1       4.705  20.054  12.184  1.00  0.00     0.293 HD
ENDBRANCH  15  18
BRANCH  17  20
ATOM     20  O   UNL     1       4.153  18.909  15.112  1.00  0.00    -0.504 OA
ATOM     21  H   UNL     1       3.639  18.860  15.984  1.00  0.00     0.293 HD
ENDBRANCH  17  20
ENDBRANCH   1  12
BRANCH   6  22
ATOM     22  O   UNL     1       4.112   8.944  14.843  1.00  0.00    -0.507 OA
ATOM     23  H   UNL     1       4.377   8.016  15.134  1.00  0.00     0.293 HD
ENDBRANCH   6  22
BRANCH   8  24
ATOM     24  O   UNL     1       5.340  10.900  19.033  1.00  0.00    -0.508 OA
ATOM     25  H   UNL     1       4.803  10.288  19.637  1.00  0.00     0.293 HD
ENDBRANCH   8  24
TORSDOF 5
ENDMDL
