MODEL 1
REMARK VINA RESULT:    -4.770      0.000      0.000
REMARK INTER + INTRA:          -9.853
REMARK INTER:                  -8.116
REMARK INTRA:                  -1.737
REMARK UNBOUND:                -1.737
REMARK SMILES CCCCCCCCCCCCCC(=O)[O-]
REMARK SMILES IDX 8 1 9 2 10 3 11 4 12 5 13 6 14 7 15 8 16 9 7 10 6 11 5 12
REMARK SMILES IDX 4 13 3 14 2 15 1 16
REMARK H PARENT
REMARK Flexibility Score: inf
ROOT
ATOM      1  C   UNL     1      33.676   6.236   8.547  1.00  0.00     0.000 C 
ENDROOT
BRANCH   1   2
ATOM      2  C   UNL     1      34.921   5.333   8.530  1.00  0.00     0.000 C 
BRANCH   2   3
ATOM      3  C   UNL     1      34.882   4.255   9.625  1.00  0.00     0.000 C 
BRANCH   3   4
ATOM      4  C   UNL     1      33.482   3.637   9.794  1.00  0.00     0.000 C 
BRANCH   4   5
ATOM      5  C   UNL     1      33.237   3.113  11.217  1.00  0.00     0.006 C 
BRANCH   5   6
ATOM      6  C   UNL     1      32.934   4.239  12.216  1.00  0.00     0.053 C 
BRANCH   6   7
ATOM      7  C   UNL     1      33.648   3.996  13.508  1.00  0.00     0.041 C 
ATOM      8  O   UNL     1      34.414   4.875  13.983  1.00  0.00    -0.550 OA
ATOM      9  O   UNL     1      33.508   2.779  14.162  1.00  0.00    -0.550 OA
ENDBRANCH   6   7
ENDBRANCH   5   6
ENDBRANCH   4   5
ENDBRANCH   3   4
ENDBRANCH   2   3
ENDBRANCH   1   2
BRANCH   1  10
ATOM     10  C   UNL     1      33.927   7.570   9.266  1.00  0.00     0.000 C 
BRANCH  10  11
ATOM     11  C   UNL     1      33.386   7.574  10.707  1.00  0.00    -0.000 C 
BRANCH  11  12
ATOM     12  C   UNL     1      34.506   7.578  11.761  1.00  0.00    -0.000 C 
BRANCH  12  13
ATOM     13  C   UNL     1      35.900   7.769  11.139  1.00  0.00    -0.000 C 
BRANCH  13  14
ATOM     14  C   UNL     1      36.902   6.696  11.596  1.00  0.00    -0.000 C 
BRANCH  14  15
ATOM     15  C   UNL     1      38.189   6.692  10.757  1.00  0.00    -0.003 C 
ATOM     16  C   UNL     1      39.424   6.794  11.647  1.00  0.00     0.004 C 
ENDBRANCH  14  15
ENDBRANCH  13  14
ENDBRANCH  12  13
ENDBRANCH  11  12
ENDBRANCH  10  11
ENDBRANCH   1  10
TORSDOF 12
ENDMDL
MODEL 2
REMARK VINA RESULT:    -4.713      0.625      1.322
REMARK INTER + INTRA:          -9.755
REMARK INTER:                  -8.013
REMARK INTRA:                  -1.743
REMARK UNBOUND:                -1.737
REMARK SMILES CCCCCCCCCCCCCC(=O)[O-]
REMARK SMILES IDX 8 1 9 2 10 3 11 4 12 5 13 6 14 7 15 8 16 9 7 10 6 11 5 12
REMARK SMILES IDX 4 13 3 14 2 15 1 16
REMARK H PARENT
REMARK Flexibility Score: inf
ROOT
ATOM      1  C   UNL     1      34.990   5.598   8.282  1.00  0.00     0.000 C 
ENDROOT
BRANCH   1   2
ATOM      2  C   UNL     1      34.580   4.259   8.919  1.00  0.00     0.000 C 
BRANCH   2   3
ATOM      3  C   UNL     1      33.054   4.073   8.968  1.00  0.00     0.000 C 
BRANCH   3   4
ATOM      4  C   UNL     1      32.632   2.912   9.886  1.00  0.00     0.000 C 
BRANCH   4   5
ATOM      5  C   UNL     1      33.364   2.933  11.237  1.00  0.00     0.006 C 
BRANCH   5   6
ATOM      6  C   UNL     1      32.864   4.053  12.161  1.00  0.00     0.053 C 
BRANCH   6   7
ATOM      7  C   UNL     1      33.586   4.010  13.471  1.00  0.00     0.041 C 
ATOM      8  O   UNL     1      34.260   5.002  13.855  1.00  0.00    -0.550 OA
ATOM      9  O   UNL     1      33.557   2.858  14.243  1.00  0.00    -0.550 OA
ENDBRANCH   6   7
ENDBRANCH   5   6
ENDBRANCH   4   5
ENDBRANCH   3   4
ENDBRANCH   2   3
ENDBRANCH   1   2
BRANCH   1  10
ATOM     10  C   UNL     1      33.821   6.591   8.195  1.00  0.00     0.000 C 
BRANCH  10  11
ATOM     11  C   UNL     1      33.944   7.738   9.213  1.00  0.00    -0.000 C 
BRANCH  11  12
ATOM     12  C   UNL     1      33.426   7.351  10.609  1.00  0.00    -0.000 C 
BRANCH  12  13
ATOM     13  C   UNL     1      34.371   7.804  11.735  1.00  0.00    -0.000 C 
BRANCH  13  14
ATOM     14  C   UNL     1      35.849   7.765  11.316  1.00  0.00    -0.000 C 
BRANCH  14  15
ATOM     15  C   UNL     1      36.484   6.379  11.510  1.00  0.00    -0.003 C 
ATOM     16  C   UNL     1      37.863   6.312  10.860  1.00  0.00     0.004 C 
ENDBRANCH  14  15
ENDBRANCH  13  14
ENDBRANCH  12  13
ENDBRANCH  11  12
ENDBRANCH  10  11
ENDBRANCH   1  10
TORSDOF 12
ENDMDL
MODEL 3
REMARK VINA RESULT:    -4.683      2.192      4.837
REMARK INTER + INTRA:          -9.705
REMARK INTER:                  -7.820
REMARK INTRA:                  -1.886
REMARK UNBOUND:                -1.737
REMARK SMILES CCCCCCCCCCCCCC(=O)[O-]
REMARK SMILES IDX 8 1 9 2 10 3 11 4 12 5 13 6 14 7 15 8 16 9 7 10 6 11 5 12
REMARK SMILES IDX 4 13 3 14 2 15 1 16
REMARK H PARENT
REMARK Flexibility Score: inf
ROOT
ATOM      1  C   UNL     1      36.172   4.933   9.514  1.00  0.00     0.000 C 
ENDROOT
BRANCH   1   2
ATOM      2  C   UNL     1      36.600   6.308  10.054  1.00  0.00     0.000 C 
BRANCH   2   3
ATOM      3  C   UNL     1      36.583   6.370  11.590  1.00  0.00     0.000 C 
BRANCH   3   4
ATOM      4  C   UNL     1      35.176   6.635  12.153  1.00  0.00     0.000 C 
BRANCH   4   5
ATOM      5  C   UNL     1      34.626   8.010  11.741  1.00  0.00     0.006 C 
BRANCH   5   6
ATOM      6  C   UNL     1      33.156   7.949  11.302  1.00  0.00     0.053 C 
BRANCH   6   7
ATOM      7  C   UNL     1      32.299   8.740  12.240  1.00  0.00     0.041 C 
ATOM      8  O   UNL     1      31.998   8.272  13.370  1.00  0.00    -0.550 OA
ATOM      9  O   UNL     1      31.791   9.971  11.847  1.00  0.00    -0.550 OA
ENDBRANCH   6   7
ENDBRANCH   5   6
ENDBRANCH   4   5
ENDBRANCH   3   4
ENDBRANCH   2   3
ENDBRANCH   1   2
BRANCH   1  10
ATOM     10  C   UNL     1      35.192   5.042   8.336  1.00  0.00     0.000 C 
BRANCH  10  11
ATOM     11  C   UNL     1      33.773   5.430   8.784  1.00  0.00    -0.000 C 
BRANCH  11  12
ATOM     12  C   UNL     1      32.898   4.208   9.111  1.00  0.00    -0.000 C 
BRANCH  12  13
ATOM     13  C   UNL     1      32.472   4.166  10.589  1.00  0.00    -0.000 C 
BRANCH  13  14
ATOM     14  C   UNL     1      33.455   3.370  11.463  1.00  0.00    -0.000 C 
BRANCH  14  15
ATOM     15  C   UNL     1      33.042   3.342  12.943  1.00  0.00    -0.003 C 
ATOM     16  C   UNL     1      32.360   4.646  13.347  1.00  0.00     0.004 C 
ENDBRANCH  14  15
ENDBRANCH  13  14
ENDBRANCH  12  13
ENDBRANCH  11  12
ENDBRANCH  10  11
ENDBRANCH   1  10
TORSDOF 12
ENDMDL
MODEL 4
REMARK VINA RESULT:    -4.653      1.361      3.471
REMARK INTER + INTRA:          -9.653
REMARK INTER:                  -7.850
REMARK INTRA:                  -1.803
REMARK UNBOUND:                -1.737
REMARK SMILES CCCCCCCCCCCCCC(=O)[O-]
REMARK SMILES IDX 8 1 9 2 10 3 11 4 12 5 13 6 14 7 15 8 16 9 7 10 6 11 5 12
REMARK SMILES IDX 4 13 3 14 2 15 1 16
REMARK H PARENT
REMARK Flexibility Score: inf
ROOT
ATOM      1  C   UNL     1      34.324   8.086  11.991  1.00  0.00     0.000 C 
ENDROOT
BRANCH   1   2
ATOM      2  C   UNL     1      32.914   7.705  11.509  1.00  0.00     0.000 C 
BRANCH   2   3
ATOM      3  C   UNL     1      32.339   6.498  12.268  1.00  0.00     0.000 C 
BRANCH   3   4
ATOM      4  C   UNL     1      32.311   5.221  11.409  1.00  0.00     0.000 C 
BRANCH   4   5
ATOM      5  C   UNL     1      32.762   3.976  12.190  1.00  0.00     0.006 C 
BRANCH   5   6
ATOM      6  C   UNL     1      32.617   4.148  13.708  1.00  0.00     0.053 C 
BRANCH   6   7
ATOM      7  C   UNL     1      33.850   3.668  14.407  1.00  0.00     0.041 C 
ATOM      8  O   UNL     1      34.750   4.486  14.736  1.00  0.00    -0.550 OA
ATOM      9  O   UNL     1      34.028   2.314  14.652  1.00  0.00    -0.550 OA
ENDBRANCH   6   7
ENDBRANCH   5   6
ENDBRANCH   4   5
ENDBRANCH   3   4
ENDBRANCH   2   3
ENDBRANCH   1   2
BRANCH   1  10
ATOM     10  C   UNL     1      35.301   6.900  11.949  1.00  0.00     0.000 C 
BRANCH  10  11
ATOM     11  C   UNL     1      36.444   7.113  10.940  1.00  0.00    -0.000 C 
BRANCH  11  12
ATOM     12  C   UNL     1      36.789   5.836  10.156  1.00  0.00    -0.000 C 
BRANCH  12  13
ATOM     13  C   UNL     1      35.553   4.968   9.868  1.00  0.00    -0.000 C 
BRANCH  13  14
ATOM     14  C   UNL     1      35.213   4.904   8.370  1.00  0.00    -0.000 C 
BRANCH  14  15
ATOM     15  C   UNL     1      33.840   5.513   8.048  1.00  0.00    -0.003 C 
ATOM     16  C   UNL     1      33.883   7.036   8.129  1.00  0.00     0.004 C 
ENDBRANCH  14  15
ENDBRANCH  13  14
ENDBRANCH  12  13
ENDBRANCH  11  12
ENDBRANCH  10  11
ENDBRANCH   1  10
TORSDOF 12
ENDMDL
MODEL 5
REMARK VINA RESULT:    -4.642      1.335      3.195
REMARK INTER + INTRA:          -9.635
REMARK INTER:                  -7.618
REMARK INTRA:                  -2.017
REMARK UNBOUND:                -1.737
REMARK SMILES CCCCCCCCCCCCCC(=O)[O-]
REMARK SMILES IDX 8 1 9 2 10 3 11 4 12 5 13 6 14 7 15 8 16 9 7 10 6 11 5 12
REMARK SMILES IDX 4 13 3 14 2 15 1 16
REMARK H PARENT
REMARK Flexibility Score: inf
ROOT
ATOM      1  C   UNL     1      35.849   5.287   9.157  1.00  0.00     0.000 C 
ENDROOT
BRANCH   1   2
ATOM      2  C   UNL     1      34.840   4.225   9.626  1.00  0.00     0.000 C 
BRANCH   2   3
ATOM      3  C   UNL     1      33.382   4.653   9.390  1.00  0.00     0.000 C 
BRANCH   3   4
ATOM      4  C   UNL     1      32.508   4.482  10.646  1.00  0.00     0.000 C 
BRANCH   4   5
ATOM      5  C   UNL     1      33.189   3.625  11.726  1.00  0.00     0.006 C 
BRANCH   5   6
ATOM      6  C   UNL     1      32.763   4.022  13.146  1.00  0.00     0.053 C 
BRANCH   6   7
ATOM      7  C   UNL     1      33.664   3.383  14.157  1.00  0.00     0.041 C 
ATOM      8  O   UNL     1      33.603   2.142  14.364  1.00  0.00    -0.550 OA
ATOM      9  O   UNL     1      34.533   4.165  14.905  1.00  0.00    -0.550 OA
ENDBRANCH   6   7
ENDBRANCH   5   6
ENDBRANCH   4   5
ENDBRANCH   3   4
ENDBRANCH   2   3
ENDBRANCH   1   2
BRANCH   1  10
ATOM     10  C   UNL     1      36.916   5.594  10.219  1.00  0.00     0.000 C 
BRANCH  10  11
ATOM     11  C   UNL     1      36.522   6.771  11.128  1.00  0.00    -0.000 C 
BRANCH  11  12
ATOM     12  C   UNL     1      35.740   6.324  12.374  1.00  0.00    -0.000 C 
BRANCH  12  13
ATOM     13  C   UNL     1      34.462   7.151  12.597  1.00  0.00    -0.000 C 
BRANCH  13  14
ATOM     14  C   UNL     1      33.962   7.823  11.308  1.00  0.00    -0.000 C 
BRANCH  14  15
ATOM     15  C   UNL     1      32.536   8.379  11.444  1.00  0.00    -0.003 C 
ATOM     16  C   UNL     1      32.028   8.240  12.876  1.00  0.00     0.004 C 
ENDBRANCH  14  15
ENDBRANCH  13  14
ENDBRANCH  12  13
ENDBRANCH  11  12
ENDBRANCH  10  11
ENDBRANCH   1  10
TORSDOF 12
ENDMDL
MODEL 6
REMARK VINA RESULT:    -4.585      1.609      3.107
REMARK INTER + INTRA:          -9.538
REMARK INTER:                  -7.887
REMARK INTRA:                  -1.651
REMARK UNBOUND:                -1.737
REMARK SMILES CCCCCCCCCCCCCC(=O)[O-]
REMARK SMILES IDX 8 1 9 2 10 3 11 4 12 5 13 6 14 7 15 8 16 9 7 10 6 11 5 12
REMARK SMILES IDX 4 13 3 14 2 15 1 16
REMARK H PARENT
REMARK Flexibility Score: inf
ROOT
ATOM      1  C   UNL     1      33.456   5.378   8.116  1.00  0.00     0.000 C 
ENDROOT
BRANCH   1   2
ATOM      2  C   UNL     1      32.713   4.032   8.101  1.00  0.00     0.000 C 
BRANCH   2   3
ATOM      3  C   UNL     1      32.833   3.278   9.435  1.00  0.00     0.000 C 
BRANCH   3   4
ATOM      4  C   UNL     1      32.566   4.184  10.650  1.00  0.00     0.000 C 
BRANCH   4   5
ATOM      5  C   UNL     1      33.131   3.601  11.955  1.00  0.00     0.006 C 
BRANCH   5   6
ATOM      6  C   UNL     1      32.973   4.559  13.144  1.00  0.00     0.053 C 
BRANCH   6   7
ATOM      7  C   UNL     1      34.112   4.394  14.101  1.00  0.00     0.041 C 
ATOM      8  O   UNL     1      34.189   3.366  14.823  1.00  0.00    -0.550 OA
ATOM      9  O   UNL     1      35.062   5.399  14.230  1.00  0.00    -0.550 OA
ENDBRANCH   6   7
ENDBRANCH   5   6
ENDBRANCH   4   5
ENDBRANCH   3   4
ENDBRANCH   2   3
ENDBRANCH   1   2
BRANCH   1  10
ATOM     10  C   UNL     1      34.982   5.208   8.070  1.00  0.00     0.000 C 
BRANCH  10  11
ATOM     11  C   UNL     1      35.666   5.666   9.370  1.00  0.00    -0.000 C 
BRANCH  11  12
ATOM     12  C   UNL     1      35.136   7.018   9.876  1.00  0.00    -0.000 C 
BRANCH  12  13
ATOM     13  C   UNL     1      35.331   7.198  11.391  1.00  0.00    -0.000 C 
BRANCH  13  14
ATOM     14  C   UNL     1      34.263   8.108  12.020  1.00  0.00    -0.000 C 
BRANCH  14  15
ATOM     15  C   UNL     1      32.847   7.801  11.508  1.00  0.00    -0.003 C 
ATOM     16  C   UNL     1      31.792   8.501  12.359  1.00  0.00     0.004 C 
ENDBRANCH  14  15
ENDBRANCH  13  14
ENDBRANCH  12  13
ENDBRANCH  11  12
ENDBRANCH  10  11
ENDBRANCH   1  10
TORSDOF 12
ENDMDL
MODEL 7
REMARK VINA RESULT:    -4.547      3.044      4.931
REMARK INTER + INTRA:          -9.473
REMARK INTER:                  -7.790
REMARK INTRA:                  -1.683
REMARK UNBOUND:                -1.737
REMARK SMILES CCCCCCCCCCCCCC(=O)[O-]
REMARK SMILES IDX 8 1 9 2 10 3 11 4 12 5 13 6 14 7 15 8 16 9 7 10 6 11 5 12
REMARK SMILES IDX 4 13 3 14 2 15 1 16
REMARK H PARENT
REMARK Flexibility Score: inf
ROOT
ATOM      1  C   UNL     1      33.040   4.608  13.265  1.00  0.00     0.000 C 
ENDROOT
BRANCH   1   2
ATOM      2  C   UNL     1      32.884   3.162  12.764  1.00  0.00     0.000 C 
BRANCH   2   3
ATOM      3  C   UNL     1      33.224   3.017  11.271  1.00  0.00     0.000 C 
BRANCH   3   4
ATOM      4  C   UNL     1      32.505   4.061  10.399  1.00  0.00     0.000 C 
BRANCH   4   5
ATOM      5  C   UNL     1      32.774   3.862   8.899  1.00  0.00     0.006 C 
BRANCH   5   6
ATOM      6  C   UNL     1      33.977   4.675   8.403  1.00  0.00     0.053 C 
BRANCH   6   7
ATOM      7  C   UNL     1      33.536   5.707   7.413  1.00  0.00     0.041 C 
ATOM      8  O   UNL     1      33.757   6.928   7.631  1.00  0.00    -0.550 OA
ATOM      9  O   UNL     1      32.839   5.326   6.275  1.00  0.00    -0.550 OA
ENDBRANCH   6   7
ENDBRANCH   5   6
ENDBRANCH   4   5
ENDBRANCH   3   4
ENDBRANCH   2   3
ENDBRANCH   1   2
BRANCH   1  10
ATOM     10  C   UNL     1      34.428   4.875  13.869  1.00  0.00     0.000 C 
BRANCH  10  11
ATOM     11  C   UNL     1      35.093   6.133  13.285  1.00  0.00    -0.000 C 
BRANCH  11  12
ATOM     12  C   UNL     1      35.358   6.018  11.774  1.00  0.00    -0.000 C 
BRANCH  12  13
ATOM     13  C   UNL     1      35.031   7.316  11.017  1.00  0.00    -0.000 C 
BRANCH  13  14
ATOM     14  C   UNL     1      33.521   7.598  10.955  1.00  0.00    -0.000 C 
BRANCH  14  15
ATOM     15  C   UNL     1      33.052   8.561  12.056  1.00  0.00    -0.003 C 
ATOM     16  C   UNL     1      31.627   8.238  12.497  1.00  0.00     0.004 C 
ENDBRANCH  14  15
ENDBRANCH  13  14
ENDBRANCH  12  13
ENDBRANCH  11  12
ENDBRANCH  10  11
ENDBRANCH   1  10
TORSDOF 12
ENDMDL
MODEL 8
REMARK VINA RESULT:    -4.524      2.663      3.856
REMARK INTER + INTRA:          -9.434
REMARK INTER:                  -7.430
REMARK INTRA:                  -2.003
REMARK UNBOUND:                -1.737
REMARK SMILES CCCCCCCCCCCCCC(=O)[O-]
REMARK SMILES IDX 8 1 9 2 10 3 11 4 12 5 13 6 14 7 15 8 16 9 7 10 6 11 5 12
REMARK SMILES IDX 4 13 3 14 2 15 1 16
REMARK H PARENT
REMARK Flexibility Score: inf
ROOT
ATOM      1  C   UNL     1      31.786   6.233  12.239  1.00  0.00     0.000 C 
ENDROOT
BRANCH   1   2
ATOM      2  C   UNL     1      32.414   5.128  13.105  1.00  0.00     0.000 C 
BRANCH   2   3
ATOM      3  C   UNL     1      33.642   4.485  12.440  1.00  0.00     0.000 C 
BRANCH   3   4
ATOM      4  C   UNL     1      33.259   3.519  11.305  1.00  0.00     0.000 C 
BRANCH   4   5
ATOM      5  C   UNL     1      34.053   3.781  10.015  1.00  0.00     0.006 C 
BRANCH   5   6
ATOM      6  C   UNL     1      33.144   4.033   8.804  1.00  0.00     0.053 C 
BRANCH   6   7
ATOM      7  C   UNL     1      33.828   4.923   7.814  1.00  0.00     0.041 C 
ATOM      8  O   UNL     1      35.082   4.902   7.706  1.00  0.00    -0.550 OA
ATOM      9  O   UNL     1      33.084   5.810   7.047  1.00  0.00    -0.550 OA
ENDBRANCH   6   7
ENDBRANCH   5   6
ENDBRANCH   4   5
ENDBRANCH   3   4
ENDBRANCH   2   3
ENDBRANCH   1   2
BRANCH   1  10
ATOM     10  C   UNL     1      32.193   7.642  12.697  1.00  0.00     0.000 C 
BRANCH  10  11
ATOM     11  C   UNL     1      32.975   8.410  11.617  1.00  0.00    -0.000 C 
BRANCH  11  12
ATOM     12  C   UNL     1      33.374   7.521  10.427  1.00  0.00    -0.000 C 
BRANCH  12  13
ATOM     13  C   UNL     1      34.899   7.422  10.252  1.00  0.00    -0.000 C 
BRANCH  13  14
ATOM     14  C   UNL     1      35.655   7.521  11.586  1.00  0.00    -0.000 C 
BRANCH  14  15
ATOM     15  C   UNL     1      36.894   6.613  11.635  1.00  0.00    -0.003 C 
ATOM     16  C   UNL     1      37.099   5.895  10.304  1.00  0.00     0.004 C 
ENDBRANCH  14  15
ENDBRANCH  13  14
ENDBRANCH  12  13
ENDBRANCH  11  12
ENDBRANCH  10  11
ENDBRANCH   1  10
TORSDOF 12
ENDMDL
MODEL 9
REMARK VINA RESULT:    -4.470      3.389      5.057
REMARK INTER + INTRA:          -9.342
REMARK INTER:                  -7.375
REMARK INTRA:                  -1.967
REMARK UNBOUND:                -1.737
REMARK SMILES CCCCCCCCCCCCCC(=O)[O-]
REMARK SMILES IDX 8 1 9 2 10 3 11 4 12 5 13 6 14 7 15 8 16 9 7 10 6 11 5 12
REMARK SMILES IDX 4 13 3 14 2 15 1 16
REMARK H PARENT
REMARK Flexibility Score: inf
ROOT
ATOM      1  C   UNL     1      35.802   7.244  11.252  1.00  0.00     0.000 C 
ENDROOT
BRANCH   1   2
ATOM      2  C   UNL     1      35.450   6.696   9.859  1.00  0.00     0.000 C 
BRANCH   2   3
ATOM      3  C   UNL     1      35.879   5.230   9.676  1.00  0.00     0.000 C 
BRANCH   3   4
ATOM      4  C   UNL     1      35.125   4.535   8.529  1.00  0.00     0.000 C 
BRANCH   4   5
ATOM      5  C   UNL     1      33.802   5.237   8.182  1.00  0.00     0.006 C 
BRANCH   5   6
ATOM      6  C   UNL     1      32.716   4.254   7.723  1.00  0.00     0.053 C 
BRANCH   6   7
ATOM      7  C   UNL     1      32.323   4.535   6.306  1.00  0.00     0.041 C 
ATOM      8  O   UNL     1      32.717   5.587   5.737  1.00  0.00    -0.550 OA
ATOM      9  O   UNL     1      31.482   3.661   5.632  1.00  0.00    -0.550 OA
ENDBRANCH   6   7
ENDBRANCH   5   6
ENDBRANCH   4   5
ENDBRANCH   3   4
ENDBRANCH   2   3
ENDBRANCH   1   2
BRANCH   1  10
ATOM     10  C   UNL     1      34.615   7.953  11.922  1.00  0.00     0.000 C 
BRANCH  10  11
ATOM     11  C   UNL     1      33.302   7.771  11.142  1.00  0.00    -0.000 C 
BRANCH  11  12
ATOM     12  C   UNL     1      32.118   7.397  12.050  1.00  0.00    -0.000 C 
BRANCH  12  13
ATOM     13  C   UNL     1      32.243   5.976  12.627  1.00  0.00    -0.000 C 
BRANCH  13  14
ATOM     14  C   UNL     1      32.388   4.906  11.533  1.00  0.00    -0.000 C 
BRANCH  14  15
ATOM     15  C   UNL     1      33.273   3.729  11.970  1.00  0.00    -0.003 C 
ATOM     16  C   UNL     1      33.160   2.564  10.989  1.00  0.00     0.004 C 
ENDBRANCH  14  15
ENDBRANCH  13  14
ENDBRANCH  12  13
ENDBRANCH  11  12
ENDBRANCH  10  11
ENDBRANCH   1  10
TORSDOF 12
ENDMDL
