MODEL 1
REMARK VINA RESULT:    -4.419      0.000      0.000
REMARK INTER + INTRA:          -4.858
REMARK INTER:                  -5.323
REMARK INTRA:                   0.464
REMARK UNBOUND:                 0.464
REMARK SMILES O=c1c(O)c(-c2ccc(O)c(O)c2)oc2cc(O)cc(O)c12
REMARK SMILES IDX 5 1 3 2 2 3 1 4 22 5 20 6 19 7 17 8 16 9 15 10 14 11 6 12
REMARK SMILES IDX 7 13 8 14 9 15 13 16 11 17 10 18 12 20 4 22 21 24 18 26
REMARK H PARENT 10 19 12 21 4 23 21 25 18 27
REMARK Flexibility Score: inf
ROOT
ATOM      1  C   UNL     1     -19.257  27.112  15.989  1.00  0.00     0.180 A 
ATOM      2  C   UNL     1     -19.872  28.379  15.969  1.00  0.00     0.208 A 
ATOM      3  C   UNL     1     -19.065  29.524  15.899  1.00  0.00     0.238 A 
ATOM      4  O   UNL     1     -19.605  30.663  15.870  1.00  0.00    -0.285 OA
ATOM      5  C   UNL     1     -17.661  29.386  15.872  1.00  0.00     0.111 A 
ATOM      6  C   UNL     1     -16.777  30.490  15.805  1.00  0.00     0.134 A 
ATOM      7  C   UNL     1     -15.391  30.271  15.791  1.00  0.00     0.093 A 
ATOM      8  C   UNL     1     -14.874  28.975  15.842  1.00  0.00     0.123 A 
ATOM      9  C   UNL     1     -15.743  27.881  15.906  1.00  0.00     0.094 A 
ATOM     10  C   UNL     1     -17.127  28.078  15.920  1.00  0.00     0.146 A 
ATOM     11  O   UNL     1     -17.930  27.022  15.976  1.00  0.00    -0.452 OA
ENDROOT
BRANCH   1  12
ATOM     12  C   UNL     1     -20.040  25.857  16.043  1.00  0.00     0.025 A 
ATOM     13  C   UNL     1     -19.369  24.625  16.094  1.00  0.00     0.016 A 
ATOM     14  C   UNL     1     -20.088  23.428  16.125  1.00  0.00     0.051 A 
ATOM     15  C   UNL     1     -21.489  23.442  16.088  1.00  0.00     0.157 A 
ATOM     16  C   UNL     1     -21.446  25.868  15.984  1.00  0.00     0.062 A 
ATOM     17  C   UNL     1     -22.170  24.670  16.013  1.00  0.00     0.158 A 
BRANCH  15  18
ATOM     18  O   UNL     1     -22.204  22.247  16.120  1.00  0.00    -0.504 OA
ATOM     19  H   UNL     1     -21.831  21.394  15.719  1.00  0.00     0.293 HD
ENDBRANCH  15  18
BRANCH  17  20
ATOM     20  O   UNL     1     -23.562  24.719  15.959  1.00  0.00    -0.504 OA
ATOM     21  H   UNL     1     -24.056  25.128  15.174  1.00  0.00     0.293 HD
ENDBRANCH  17  20
ENDBRANCH   1  12
BRANCH   2  22
ATOM     22  O   UNL     1     -21.263  28.488  16.048  1.00  0.00    -0.502 OA
ATOM     23  H   UNL     1     -21.808  27.991  16.742  1.00  0.00     0.293 HD
ENDBRANCH   2  22
BRANCH   6  24
ATOM     24  O   UNL     1     -17.262  31.798  15.755  1.00  0.00    -0.507 OA
ATOM     25  H   UNL     1     -16.766  32.532  15.265  1.00  0.00     0.293 HD
ENDBRANCH   6  24
BRANCH   8  26
ATOM     26  O   UNL     1     -13.494  28.785  15.826  1.00  0.00    -0.508 OA
ATOM     27  H   UNL     1     -13.025  28.251  16.549  1.00  0.00     0.293 HD
ENDBRANCH   8  26
TORSDOF 6
ENDMDL
MODEL 2
REMARK VINA RESULT:    -4.297      2.397      7.689
REMARK INTER + INTRA:          -4.712
REMARK INTER:                  -4.388
REMARK INTRA:                  -0.324
REMARK UNBOUND:                 0.464
REMARK SMILES O=c1c(O)c(-c2ccc(O)c(O)c2)oc2cc(O)cc(O)c12
REMARK SMILES IDX 5 1 3 2 2 3 1 4 22 5 20 6 19 7 17 8 16 9 15 10 14 11 6 12
REMARK SMILES IDX 7 13 8 14 9 15 13 16 11 17 10 18 12 20 4 22 21 24 18 26
REMARK H PARENT 10 19 12 21 4 23 21 25 18 27
REMARK Flexibility Score: inf
ROOT
ATOM      1  C   UNL     1     -16.554  29.578  15.293  1.00  0.00     0.180 A 
ATOM      2  C   UNL     1     -16.526  28.175  15.421  1.00  0.00     0.208 A 
ATOM      3  C   UNL     1     -17.729  27.491  15.649  1.00  0.00     0.238 A 
ATOM      4  O   UNL     1     -17.718  26.234  15.753  1.00  0.00    -0.285 OA
ATOM      5  C   UNL     1     -18.933  28.217  15.765  1.00  0.00     0.111 A 
ATOM      6  C   UNL     1     -20.187  27.603  15.998  1.00  0.00     0.134 A 
ATOM      7  C   UNL     1     -21.339  28.396  16.111  1.00  0.00     0.093 A 
ATOM      8  C   UNL     1     -21.262  29.786  15.997  1.00  0.00     0.123 A 
ATOM      9  C   UNL     1     -20.026  30.397  15.766  1.00  0.00     0.094 A 
ATOM     10  C   UNL     1     -18.866  29.625  15.649  1.00  0.00     0.146 A 
ATOM     11  O   UNL     1     -17.706  30.230  15.424  1.00  0.00    -0.452 OA
ENDROOT
BRANCH   1  12
ATOM     12  C   UNL     1     -15.330  30.369  15.034  1.00  0.00     0.025 A 
ATOM     13  C   UNL     1     -14.555  30.817  16.116  1.00  0.00     0.016 A 
ATOM     14  C   UNL     1     -13.407  31.583  15.895  1.00  0.00     0.051 A 
ATOM     15  C   UNL     1     -13.026  31.927  14.592  1.00  0.00     0.157 A 
ATOM     16  C   UNL     1     -14.956  30.734  13.728  1.00  0.00     0.062 A 
ATOM     17  C   UNL     1     -13.808  31.503  13.504  1.00  0.00     0.158 A 
BRANCH  15  18
ATOM     18  O   UNL     1     -11.880  32.689  14.374  1.00  0.00    -0.504 OA
ATOM     19  H   UNL     1     -10.975  32.257  14.230  1.00  0.00     0.293 HD
ENDBRANCH  15  18
BRANCH  17  20
ATOM     20  O   UNL     1     -13.465  31.841  12.195  1.00  0.00    -0.504 OA
ATOM     21  H   UNL     1     -13.695  31.246  11.408  1.00  0.00     0.293 HD
ENDBRANCH  17  20
ENDBRANCH   1  12
BRANCH   2  22
ATOM     22  O   UNL     1     -15.313  27.485  15.351  1.00  0.00    -0.502 OA
ATOM     23  H   UNL     1     -15.263  26.473  15.364  1.00  0.00     0.293 HD
ENDBRANCH   2  22
BRANCH   6  24
ATOM     24  O   UNL     1     -20.298  26.217  16.118  1.00  0.00    -0.507 OA
ATOM     25  H   UNL     1     -20.648  25.642  15.361  1.00  0.00     0.293 HD
ENDBRANCH   6  24
BRANCH   8  26
ATOM     26  O   UNL     1     -22.421  30.550  16.114  1.00  0.00    -0.508 OA
ATOM     27  H   UNL     1     -23.315  30.207  15.783  1.00  0.00     0.293 HD
ENDBRANCH   8  26
TORSDOF 6
ENDMDL
MODEL 3
REMARK VINA RESULT:    -4.151      5.641      9.096
REMARK INTER + INTRA:          -4.536
REMARK INTER:                  -4.671
REMARK INTRA:                   0.134
REMARK UNBOUND:                 0.464
REMARK SMILES O=c1c(O)c(-c2ccc(O)c(O)c2)oc2cc(O)cc(O)c12
REMARK SMILES IDX 5 1 3 2 2 3 1 4 22 5 20 6 19 7 17 8 16 9 15 10 14 11 6 12
REMARK SMILES IDX 7 13 8 14 9 15 13 16 11 17 10 18 12 20 4 22 21 24 18 26
REMARK H PARENT 10 19 12 21 4 23 21 25 18 27
REMARK Flexibility Score: inf
ROOT
ATOM      1  C   UNL     1     -13.823  30.424  11.529  1.00  0.00     0.180 A 
ATOM      2  C   UNL     1     -14.835  30.914  12.378  1.00  0.00     0.208 A 
ATOM      3  C   UNL     1     -15.053  30.281  13.610  1.00  0.00     0.238 A 
ATOM      4  O   UNL     1     -15.948  30.717  14.384  1.00  0.00    -0.285 OA
ATOM      5  C   UNL     1     -14.274  29.159  13.964  1.00  0.00     0.111 A 
ATOM      6  C   UNL     1     -14.433  28.461  15.186  1.00  0.00     0.134 A 
ATOM      7  C   UNL     1     -13.625  27.348  15.462  1.00  0.00     0.093 A 
ATOM      8  C   UNL     1     -12.664  26.920  14.542  1.00  0.00     0.123 A 
ATOM      9  C   UNL     1     -12.502  27.606  13.335  1.00  0.00     0.094 A 
ATOM     10  C   UNL     1     -13.297  28.718  13.042  1.00  0.00     0.146 A 
ATOM     11  O   UNL     1     -13.119  29.355  11.891  1.00  0.00    -0.452 OA
ENDROOT
BRANCH   1  12
ATOM     12  C   UNL     1     -13.521  31.050  10.222  1.00  0.00     0.025 A 
ATOM     13  C   UNL     1     -12.183  31.253   9.847  1.00  0.00     0.016 A 
ATOM     14  C   UNL     1     -11.875  31.860   8.627  1.00  0.00     0.051 A 
ATOM     15  C   UNL     1     -12.898  32.288   7.771  1.00  0.00     0.157 A 
ATOM     16  C   UNL     1     -14.546  31.499   9.370  1.00  0.00     0.062 A 
ATOM     17  C   UNL     1     -14.241  32.110   8.148  1.00  0.00     0.158 A 
BRANCH  15  18
ATOM     18  O   UNL     1     -12.588  32.892   6.554  1.00  0.00    -0.504 OA
ATOM     19  H   UNL     1     -13.099  33.700   6.217  1.00  0.00     0.293 HD
ENDBRANCH  15  18
BRANCH  17  20
ATOM     20  O   UNL     1     -15.283  32.538   7.327  1.00  0.00    -0.504 OA
ATOM     21  H   UNL     1     -15.142  32.749   6.346  1.00  0.00     0.293 HD
ENDBRANCH  17  20
ENDBRANCH   1  12
BRANCH   2  22
ATOM     22  O   UNL     1     -15.625  31.996  11.981  1.00  0.00    -0.502 OA
ATOM     23  H   UNL     1     -15.683  32.300  11.016  1.00  0.00     0.293 HD
ENDBRANCH   2  22
BRANCH   6  24
ATOM     24  O   UNL     1     -15.385  28.863  16.125  1.00  0.00    -0.507 OA
ATOM     25  H   UNL     1     -15.908  29.724  16.018  1.00  0.00     0.293 HD
ENDBRANCH   6  24
BRANCH   8  26
ATOM     26  O   UNL     1     -11.875  25.812  14.841  1.00  0.00    -0.508 OA
ATOM     27  H   UNL     1     -12.278  24.961  15.217  1.00  0.00     0.293 HD
ENDBRANCH   8  26
TORSDOF 6
ENDMDL
MODEL 4
REMARK VINA RESULT:    -4.049      1.704      7.066
REMARK INTER + INTRA:          -4.413
REMARK INTER:                  -4.482
REMARK INTRA:                   0.069
REMARK UNBOUND:                 0.464
REMARK SMILES O=c1c(O)c(-c2ccc(O)c(O)c2)oc2cc(O)cc(O)c12
REMARK SMILES IDX 5 1 3 2 2 3 1 4 22 5 20 6 19 7 17 8 16 9 15 10 14 11 6 12
REMARK SMILES IDX 7 13 8 14 9 15 13 16 11 17 10 18 12 20 4 22 21 24 18 26
REMARK H PARENT 10 19 12 21 4 23 21 25 18 27
REMARK Flexibility Score: inf
ROOT
ATOM      1  C   UNL     1     -17.010  29.291  15.451  1.00  0.00     0.180 A 
ATOM      2  C   UNL     1     -18.168  30.080  15.588  1.00  0.00     0.208 A 
ATOM      3  C   UNL     1     -19.406  29.443  15.765  1.00  0.00     0.238 A 
ATOM      4  O   UNL     1     -20.449  30.139  15.901  1.00  0.00    -0.285 OA
ATOM      5  C   UNL     1     -19.469  28.034  15.780  1.00  0.00     0.111 A 
ATOM      6  C   UNL     1     -20.677  27.315  15.950  1.00  0.00     0.134 A 
ATOM      7  C   UNL     1     -20.658  25.913  15.944  1.00  0.00     0.093 A 
ATOM      8  C   UNL     1     -19.460  25.217  15.772  1.00  0.00     0.123 A 
ATOM      9  C   UNL     1     -18.264  25.921  15.606  1.00  0.00     0.094 A 
ATOM     10  C   UNL     1     -18.261  27.319  15.610  1.00  0.00     0.146 A 
ATOM     11  O   UNL     1     -17.110  27.964  15.455  1.00  0.00    -0.452 OA
ENDROOT
BRANCH   1  12
ATOM     12  C   UNL     1     -15.666  29.888  15.280  1.00  0.00     0.025 A 
ATOM     13  C   UNL     1     -15.271  30.949  16.110  1.00  0.00     0.016 A 
ATOM     14  C   UNL     1     -14.015  31.541  15.952  1.00  0.00     0.051 A 
ATOM     15  C   UNL     1     -13.142  31.093  14.952  1.00  0.00     0.157 A 
ATOM     16  C   UNL     1     -14.796  29.454  14.263  1.00  0.00     0.062 A 
ATOM     17  C   UNL     1     -13.538  30.046  14.101  1.00  0.00     0.158 A 
BRANCH  15  18
ATOM     18  O   UNL     1     -11.890  31.684  14.798  1.00  0.00    -0.504 OA
ATOM     19  H   UNL     1     -11.041  31.131  14.778  1.00  0.00     0.293 HD
ENDBRANCH  15  18
BRANCH  17  20
ATOM     20  O   UNL     1     -12.699  29.587  13.086  1.00  0.00    -0.504 OA
ATOM     21  H   UNL     1     -12.947  28.799  12.499  1.00  0.00     0.293 HD
ENDBRANCH  17  20
ENDBRANCH   1  12
BRANCH   2  22
ATOM     22  O   UNL     1     -18.085  31.473  15.521  1.00  0.00    -0.502 OA
ATOM     23  H   UNL     1     -17.818  31.960  14.673  1.00  0.00     0.293 HD
ENDBRANCH   2  22
BRANCH   6  24
ATOM     24  O   UNL     1     -21.892  27.981  16.122  1.00  0.00    -0.507 OA
ATOM     25  H   UNL     1     -22.080  28.542  16.944  1.00  0.00     0.293 HD
ENDBRANCH   6  24
BRANCH   8  26
ATOM     26  O   UNL     1     -19.469  23.824  15.770  1.00  0.00    -0.508 OA
ATOM     27  H   UNL     1     -19.275  23.292  16.610  1.00  0.00     0.293 HD
ENDBRANCH   8  26
TORSDOF 6
ENDMDL
MODEL 5
REMARK VINA RESULT:    -3.979      5.844      9.764
REMARK INTER + INTRA:          -4.329
REMARK INTER:                  -4.238
REMARK INTRA:                  -0.091
REMARK UNBOUND:                 0.464
REMARK SMILES O=c1c(O)c(-c2ccc(O)c(O)c2)oc2cc(O)cc(O)c12
REMARK SMILES IDX 5 1 3 2 2 3 1 4 22 5 20 6 19 7 17 8 16 9 15 10 14 11 6 12
REMARK SMILES IDX 7 13 8 14 9 15 13 16 11 17 10 18 12 20 4 22 21 24 18 26
REMARK H PARENT 10 19 12 21 4 23 21 25 18 27
REMARK Flexibility Score: inf
ROOT
ATOM      1  C   UNL     1     -13.161  30.982  11.200  1.00  0.00     0.180 A 
ATOM      2  C   UNL     1     -12.499  31.655  12.245  1.00  0.00     0.208 A 
ATOM      3  C   UNL     1     -12.503  31.087  13.528  1.00  0.00     0.238 A 
ATOM      4  O   UNL     1     -11.904  31.675  14.469  1.00  0.00    -0.285 OA
ATOM      5  C   UNL     1     -13.184  29.872  13.749  1.00  0.00     0.111 A 
ATOM      6  C   UNL     1     -13.239  29.235  15.013  1.00  0.00     0.134 A 
ATOM      7  C   UNL     1     -13.944  28.031  15.155  1.00  0.00     0.093 A 
ATOM      8  C   UNL     1     -14.594  27.453  14.062  1.00  0.00     0.123 A 
ATOM      9  C   UNL     1     -14.542  28.077  12.812  1.00  0.00     0.094 A 
ATOM     10  C   UNL     1     -13.843  29.276  12.649  1.00  0.00     0.146 A 
ATOM     11  O   UNL     1     -13.805  29.845  11.450  1.00  0.00    -0.452 OA
ENDROOT
BRANCH   1  12
ATOM     12  C   UNL     1     -13.186  31.508   9.816  1.00  0.00     0.025 A 
ATOM     13  C   UNL     1     -11.976  31.744   9.145  1.00  0.00     0.016 A 
ATOM     14  C   UNL     1     -11.976  32.259   7.846  1.00  0.00     0.051 A 
ATOM     15  C   UNL     1     -13.184  32.561   7.205  1.00  0.00     0.157 A 
ATOM     16  C   UNL     1     -14.397  31.832   9.178  1.00  0.00     0.062 A 
ATOM     17  C   UNL     1     -14.400  32.350   7.877  1.00  0.00     0.158 A 
BRANCH  15  18
ATOM     18  O   UNL     1     -13.181  33.073   5.909  1.00  0.00    -0.504 OA
ATOM     19  H   UNL     1     -13.921  32.856   5.251  1.00  0.00     0.293 HD
ENDBRANCH  15  18
BRANCH  17  20
ATOM     20  O   UNL     1     -15.619  32.654   7.273  1.00  0.00    -0.504 OA
ATOM     21  H   UNL     1     -16.501  32.323   7.645  1.00  0.00     0.293 HD
ENDBRANCH  17  20
ENDBRANCH   1  12
BRANCH   2  22
ATOM     22  O   UNL     1     -11.875  32.883  12.009  1.00  0.00    -0.502 OA
ATOM     23  H   UNL     1     -12.087  33.452  11.198  1.00  0.00     0.293 HD
ENDBRANCH   2  22
BRANCH   6  24
ATOM     24  O   UNL     1     -12.601  29.788  16.125  1.00  0.00    -0.507 OA
ATOM     25  H   UNL     1     -13.000  29.725  17.054  1.00  0.00     0.293 HD
ENDBRANCH   6  24
BRANCH   8  26
ATOM     26  O   UNL     1     -15.288  26.257  14.231  1.00  0.00    -0.508 OA
ATOM     27  H   UNL     1     -14.813  25.402  14.497  1.00  0.00     0.293 HD
ENDBRANCH   8  26
TORSDOF 6
ENDMDL
MODEL 6
REMARK VINA RESULT:    -3.891      2.588      4.400
REMARK INTER + INTRA:          -4.223
REMARK INTER:                  -4.517
REMARK INTRA:                   0.294
REMARK UNBOUND:                 0.464
REMARK SMILES O=c1c(O)c(-c2ccc(O)c(O)c2)oc2cc(O)cc(O)c12
REMARK SMILES IDX 5 1 3 2 2 3 1 4 22 5 20 6 19 7 17 8 16 9 15 10 14 11 6 12
REMARK SMILES IDX 7 13 8 14 9 15 13 16 11 17 10 18 12 20 4 22 21 24 18 26
REMARK H PARENT 10 19 12 21 4 23 21 25 18 27
REMARK Flexibility Score: inf
ROOT
ATOM      1  C   UNL     1     -16.978  29.228  15.480  1.00  0.00     0.180 A 
ATOM      2  C   UNL     1     -16.317  30.458  15.663  1.00  0.00     0.208 A 
ATOM      3  C   UNL     1     -14.931  30.522  15.452  1.00  0.00     0.238 A 
ATOM      4  O   UNL     1     -14.330  31.620  15.603  1.00  0.00    -0.285 OA
ATOM      5  C   UNL     1     -14.228  29.356  15.085  1.00  0.00     0.111 A 
ATOM      6  C   UNL     1     -12.831  29.334  14.857  1.00  0.00     0.134 A 
ATOM      7  C   UNL     1     -12.202  28.131  14.503  1.00  0.00     0.093 A 
ATOM      8  C   UNL     1     -12.940  26.953  14.372  1.00  0.00     0.123 A 
ATOM      9  C   UNL     1     -14.321  26.968  14.594  1.00  0.00     0.094 A 
ATOM     10  C   UNL     1     -14.966  28.157  14.947  1.00  0.00     0.146 A 
ATOM     11  O   UNL     1     -16.279  28.146  15.147  1.00  0.00    -0.452 OA
ENDROOT
BRANCH   1  12
ATOM     12  C   UNL     1     -18.440  29.084  15.664  1.00  0.00     0.025 A 
ATOM     13  C   UNL     1     -18.979  27.820  15.950  1.00  0.00     0.016 A 
ATOM     14  C   UNL     1     -20.358  27.658  16.107  1.00  0.00     0.051 A 
ATOM     15  C   UNL     1     -21.220  28.753  15.966  1.00  0.00     0.157 A 
ATOM     16  C   UNL     1     -19.309  30.178  15.502  1.00  0.00     0.062 A 
ATOM     17  C   UNL     1     -20.691  30.018  15.657  1.00  0.00     0.158 A 
BRANCH  15  18
ATOM     18  O   UNL     1     -22.594  28.589  16.125  1.00  0.00    -0.504 OA
ATOM     19  H   UNL     1     -23.073  28.903  16.961  1.00  0.00     0.293 HD
ENDBRANCH  15  18
BRANCH  17  20
ATOM     20  O   UNL     1     -21.523  31.126  15.495  1.00  0.00    -0.504 OA
ATOM     21  H   UNL     1     -21.248  31.929  14.942  1.00  0.00     0.293 HD
ENDBRANCH  17  20
ENDBRANCH   1  12
BRANCH   2  22
ATOM     22  O   UNL     1     -17.030  31.586  16.076  1.00  0.00    -0.502 OA
ATOM     23  H   UNL     1     -17.072  32.434  15.522  1.00  0.00     0.293 HD
ENDBRANCH   2  22
BRANCH   6  24
ATOM     24  O   UNL     1     -12.064  30.494  14.982  1.00  0.00    -0.507 OA
ATOM     25  H   UNL     1     -11.210  30.628  14.455  1.00  0.00     0.293 HD
ENDBRANCH   6  24
BRANCH   8  26
ATOM     26  O   UNL     1     -12.291  25.772  14.019  1.00  0.00    -0.508 OA
ATOM     27  H   UNL     1     -12.808  24.923  13.822  1.00  0.00     0.293 HD
ENDBRANCH   8  26
TORSDOF 6
ENDMDL
MODEL 7
REMARK VINA RESULT:    -3.638      2.547      4.712
REMARK INTER + INTRA:          -3.918
REMARK INTER:                  -4.382
REMARK INTRA:                   0.464
REMARK UNBOUND:                 0.464
REMARK SMILES O=c1c(O)c(-c2ccc(O)c(O)c2)oc2cc(O)cc(O)c12
REMARK SMILES IDX 5 1 3 2 2 3 1 4 22 5 20 6 19 7 17 8 16 9 15 10 14 11 6 12
REMARK SMILES IDX 7 13 8 14 9 15 13 16 11 17 10 18 12 20 4 22 21 24 18 26
REMARK H PARENT 10 19 12 21 4 23 21 25 18 27
REMARK Flexibility Score: inf
ROOT
ATOM      1  C   UNL     1     -16.876  29.163  15.695  1.00  0.00     0.180 A 
ATOM      2  C   UNL     1     -16.176  27.949  15.560  1.00  0.00     0.208 A 
ATOM      3  C   UNL     1     -14.775  27.977  15.499  1.00  0.00     0.238 A 
ATOM      4  O   UNL     1     -14.136  26.895  15.390  1.00  0.00    -0.285 OA
ATOM      5  C   UNL     1     -14.099  29.214  15.554  1.00  0.00     0.111 A 
ATOM      6  C   UNL     1     -12.689  29.329  15.495  1.00  0.00     0.134 A 
ATOM      7  C   UNL     1     -12.092  30.597  15.546  1.00  0.00     0.093 A 
ATOM      8  C   UNL     1     -12.874  31.749  15.653  1.00  0.00     0.123 A 
ATOM      9  C   UNL     1     -14.267  31.642  15.713  1.00  0.00     0.094 A 
ATOM     10  C   UNL     1     -14.882  30.387  15.665  1.00  0.00     0.146 A 
ATOM     11  O   UNL     1     -16.205  30.312  15.728  1.00  0.00    -0.452 OA
ENDROOT
BRANCH   1  12
ATOM     12  C   UNL     1     -18.353  29.215  15.785  1.00  0.00     0.025 A 
ATOM     13  C   UNL     1     -18.995  30.458  15.904  1.00  0.00     0.016 A 
ATOM     14  C   UNL     1     -20.386  30.529  16.011  1.00  0.00     0.051 A 
ATOM     15  C   UNL     1     -21.156  29.359  16.016  1.00  0.00     0.157 A 
ATOM     16  C   UNL     1     -19.126  28.041  15.812  1.00  0.00     0.062 A 
ATOM     17  C   UNL     1     -20.520  28.108  15.921  1.00  0.00     0.158 A 
BRANCH  15  18
ATOM     18  O   UNL     1     -22.543  29.432  16.121  1.00  0.00    -0.504 OA
ATOM     19  H   UNL     1     -23.150  29.053  15.404  1.00  0.00     0.293 HD
ENDBRANCH  15  18
BRANCH  17  20
ATOM     20  O   UNL     1     -21.256  26.924  15.939  1.00  0.00    -0.504 OA
ATOM     21  H   UNL     1     -21.168  26.225  15.211  1.00  0.00     0.293 HD
ENDBRANCH  17  20
ENDBRANCH   1  12
BRANCH   2  22
ATOM     22  O   UNL     1     -16.872  26.742  15.458  1.00  0.00    -0.502 OA
ATOM     23  H   UNL     1     -17.192  26.373  14.570  1.00  0.00     0.293 HD
ENDBRANCH   2  22
BRANCH   6  24
ATOM     24  O   UNL     1     -11.880  28.196  15.386  1.00  0.00    -0.507 OA
ATOM     25  H   UNL     1     -11.506  27.728  16.203  1.00  0.00     0.293 HD
ENDBRANCH   6  24
BRANCH   8  26
ATOM     26  O   UNL     1     -12.256  32.996  15.702  1.00  0.00    -0.508 OA
ATOM     27  H   UNL     1     -11.569  33.273  15.010  1.00  0.00     0.293 HD
ENDBRANCH   8  26
TORSDOF 6
ENDMDL
MODEL 8
REMARK VINA RESULT:    -3.353      1.383      6.837
REMARK INTER + INTRA:          -3.574
REMARK INTER:                  -4.039
REMARK INTRA:                   0.464
REMARK UNBOUND:                 0.464
REMARK SMILES O=c1c(O)c(-c2ccc(O)c(O)c2)oc2cc(O)cc(O)c12
REMARK SMILES IDX 5 1 3 2 2 3 1 4 22 5 20 6 19 7 17 8 16 9 15 10 14 11 6 12
REMARK SMILES IDX 7 13 8 14 9 15 13 16 11 17 10 18 12 20 4 22 21 24 18 26
REMARK H PARENT 10 19 12 21 4 23 21 25 18 27
REMARK Flexibility Score: inf
ROOT
ATOM      1  C   UNL     1     -17.193  28.366  15.871  1.00  0.00     0.180 A 
ATOM      2  C   UNL     1     -18.336  29.182  15.969  1.00  0.00     0.208 A 
ATOM      3  C   UNL     1     -19.600  28.575  16.022  1.00  0.00     0.238 A 
ATOM      4  O   UNL     1     -20.631  29.295  16.122  1.00  0.00    -0.285 OA
ATOM      5  C   UNL     1     -19.702  27.170  15.954  1.00  0.00     0.111 A 
ATOM      6  C   UNL     1     -20.938  26.481  15.996  1.00  0.00     0.134 A 
ATOM      7  C   UNL     1     -20.957  25.080  15.914  1.00  0.00     0.093 A 
ATOM      8  C   UNL     1     -19.768  24.358  15.789  1.00  0.00     0.123 A 
ATOM      9  C   UNL     1     -18.545  25.033  15.748  1.00  0.00     0.094 A 
ATOM     10  C   UNL     1     -18.504  26.428  15.830  1.00  0.00     0.146 A 
ATOM     11  O   UNL     1     -17.329  27.045  15.794  1.00  0.00    -0.452 OA
ENDROOT
BRANCH   1  12
ATOM     12  C   UNL     1     -15.825  28.930  15.829  1.00  0.00     0.025 A 
ATOM     13  C   UNL     1     -14.725  28.067  15.695  1.00  0.00     0.016 A 
ATOM     14  C   UNL     1     -13.424  28.575  15.674  1.00  0.00     0.051 A 
ATOM     15  C   UNL     1     -13.201  29.952  15.803  1.00  0.00     0.157 A 
ATOM     16  C   UNL     1     -15.596  30.309  15.979  1.00  0.00     0.062 A 
ATOM     17  C   UNL     1     -14.294  30.822  15.961  1.00  0.00     0.158 A 
BRANCH  15  18
ATOM     18  O   UNL     1     -11.903  30.457  15.781  1.00  0.00    -0.504 OA
ATOM     19  H   UNL     1     -11.473  30.855  16.608  1.00  0.00     0.293 HD
ENDBRANCH  15  18
BRANCH  17  20
ATOM     20  O   UNL     1     -14.105  32.196  16.107  1.00  0.00    -0.504 OA
ATOM     21  H   UNL     1     -13.860  32.614  16.997  1.00  0.00     0.293 HD
ENDBRANCH  17  20
ENDBRANCH   1  12
BRANCH   2  22
ATOM     22  O   UNL     1     -18.210  30.573  15.985  1.00  0.00    -0.502 OA
ATOM     23  H   UNL     1     -18.353  31.141  15.158  1.00  0.00     0.293 HD
ENDBRANCH   2  22
BRANCH   6  24
ATOM     24  O   UNL     1     -22.144  27.174  16.119  1.00  0.00    -0.507 OA
ATOM     25  H   UNL     1     -22.875  26.865  16.748  1.00  0.00     0.293 HD
ENDBRANCH   6  24
BRANCH   8  26
ATOM     26  O   UNL     1     -19.815  22.968  15.709  1.00  0.00    -0.508 OA
ATOM     27  H   UNL     1     -20.693  22.474  15.605  1.00  0.00     0.293 HD
ENDBRANCH   8  26
TORSDOF 6
ENDMDL
