MODEL 1
REMARK VINA RESULT:    -4.512      0.000      0.000
REMARK INTER + INTRA:         -10.743
REMARK INTER:                  -8.205
REMARK INTRA:                  -2.538
REMARK UNBOUND:                -2.538
REMARK SMILES CCCCCCCCCCCCCCCC(=O)[O-]
REMARK SMILES IDX 9 1 10 2 11 3 12 4 13 5 14 6 15 7 16 8 17 9 18 10 8 11 7 12
REMARK SMILES IDX 6 13 5 14 4 15 3 16 2 17 1 18
REMARK H PARENT
REMARK Flexibility Score: inf
ROOT
ATOM      1  C   UNL     1       4.757   3.195  12.954  1.00  0.00     0.000 C 
ENDROOT
BRANCH   1   2
ATOM      2  C   UNL     1       4.236   3.689  14.312  1.00  0.00     0.000 C 
BRANCH   2   3
ATOM      3  C   UNL     1       2.937   2.986  14.737  1.00  0.00     0.000 C 
BRANCH   3   4
ATOM      4  C   UNL     1       3.081   2.211  16.057  1.00  0.00     0.000 C 
BRANCH   4   5
ATOM      5  C   UNL     1       4.532   2.139  16.576  1.00  0.00     0.000 C 
BRANCH   5   6
ATOM      6  C   UNL     1       4.683   1.158  17.749  1.00  0.00     0.006 C 
BRANCH   6   7
ATOM      7  C   UNL     1       5.893   0.242  17.547  1.00  0.00     0.053 C 
BRANCH   7   8
ATOM      8  C   UNL     1       5.777  -0.977  18.407  1.00  0.00     0.041 C 
ATOM      9  O   UNL     1       6.672  -1.244  19.251  1.00  0.00    -0.550 OA
ATOM     10  O   UNL     1       4.656  -1.792  18.310  1.00  0.00    -0.550 OA
ENDBRANCH   7   8
ENDBRANCH   6   7
ENDBRANCH   5   6
ENDBRANCH   4   5
ENDBRANCH   3   4
ENDBRANCH   2   3
ENDBRANCH   1   2
BRANCH   1  11
ATOM     11  C   UNL     1       4.870   1.661  12.889  1.00  0.00     0.000 C 
BRANCH  11  12
ATOM     12  C   UNL     1       6.217   1.144  13.422  1.00  0.00    -0.000 C 
BRANCH  12  13
ATOM     13  C   UNL     1       6.209  -0.374  13.669  1.00  0.00    -0.000 C 
BRANCH  13  14
ATOM     14  C   UNL     1       4.812  -0.992  13.501  1.00  0.00    -0.000 C 
BRANCH  14  15
ATOM     15  C   UNL     1       4.380  -1.823  14.723  1.00  0.00    -0.000 C 
BRANCH  15  16
ATOM     16  C   UNL     1       3.005  -1.400  15.267  1.00  0.00    -0.000 C 
BRANCH  16  17
ATOM     17  C   UNL     1       2.179  -0.616  14.236  1.00  0.00    -0.003 C 
ATOM     18  C   UNL     1       0.777  -0.323  14.765  1.00  0.00     0.004 C 
ENDBRANCH  16  17
ENDBRANCH  15  16
ENDBRANCH  14  15
ENDBRANCH  13  14
ENDBRANCH  12  13
ENDBRANCH  11  12
ENDBRANCH   1  11
TORSDOF 14
ENDMDL
MODEL 2
REMARK VINA RESULT:    -4.062      1.859      4.571
REMARK INTER + INTRA:          -9.925
REMARK INTER:                  -7.794
REMARK INTRA:                  -2.131
REMARK UNBOUND:                -2.538
REMARK SMILES CCCCCCCCCCCCCCCC(=O)[O-]
REMARK SMILES IDX 9 1 10 2 11 3 12 4 13 5 14 6 15 7 16 8 17 9 18 10 8 11 7 12
REMARK SMILES IDX 6 13 5 14 4 15 3 16 2 17 1 18
REMARK H PARENT
REMARK Flexibility Score: inf
ROOT
ATOM      1  C   UNL     1       5.244   3.176  13.399  1.00  0.00     0.000 C 
ENDROOT
BRANCH   1   2
ATOM      2  C   UNL     1       5.611   1.779  12.875  1.00  0.00     0.000 C 
BRANCH   2   3
ATOM      3  C   UNL     1       6.620   1.055  13.781  1.00  0.00     0.000 C 
BRANCH   3   4
ATOM      4  C   UNL     1       6.197  -0.386  14.115  1.00  0.00     0.000 C 
BRANCH   4   5
ATOM      5  C   UNL     1       5.217  -0.995  13.091  1.00  0.00     0.000 C 
BRANCH   5   6
ATOM      6  C   UNL     1       3.944  -1.541  13.757  1.00  0.00     0.006 C 
BRANCH   6   7
ATOM      7  C   UNL     1       2.825  -0.496  13.743  1.00  0.00     0.053 C 
BRANCH   7   8
ATOM      8  C   UNL     1       1.823  -0.788  14.814  1.00  0.00     0.041 C 
ATOM      9  O   UNL     1       0.813  -0.049  14.955  1.00  0.00    -0.550 OA
ATOM     10  O   UNL     1       1.978  -1.905  15.626  1.00  0.00    -0.550 OA
ENDBRANCH   7   8
ENDBRANCH   6   7
ENDBRANCH   5   6
ENDBRANCH   4   5
ENDBRANCH   3   4
ENDBRANCH   2   3
ENDBRANCH   1   2
BRANCH   1  11
ATOM     11  C   UNL     1       3.727   3.354  13.586  1.00  0.00     0.000 C 
BRANCH  11  12
ATOM     12  C   UNL     1       3.319   3.438  15.066  1.00  0.00    -0.000 C 
BRANCH  12  13
ATOM     13  C   UNL     1       4.384   2.847  16.006  1.00  0.00    -0.000 C 
BRANCH  13  14
ATOM     14  C   UNL     1       3.898   1.577  16.724  1.00  0.00    -0.000 C 
BRANCH  14  15
ATOM     15  C   UNL     1       5.039   0.823  17.432  1.00  0.00    -0.000 C 
BRANCH  15  16
ATOM     16  C   UNL     1       4.944  -0.700  17.243  1.00  0.00    -0.000 C 
BRANCH  16  17
ATOM     17  C   UNL     1       5.937  -1.467  18.129  1.00  0.00    -0.003 C 
ATOM     18  C   UNL     1       6.116  -0.776  19.478  1.00  0.00     0.004 C 
ENDBRANCH  16  17
ENDBRANCH  15  16
ENDBRANCH  14  15
ENDBRANCH  13  14
ENDBRANCH  12  13
ENDBRANCH  11  12
ENDBRANCH   1  11
TORSDOF 14
ENDMDL
MODEL 3
REMARK VINA RESULT:    -4.002      2.040      3.924
REMARK INTER + INTRA:          -9.816
REMARK INTER:                  -7.687
REMARK INTRA:                  -2.129
REMARK UNBOUND:                -2.538
REMARK SMILES CCCCCCCCCCCCCCCC(=O)[O-]
REMARK SMILES IDX 9 1 10 2 11 3 12 4 13 5 14 6 15 7 16 8 17 9 18 10 8 11 7 12
REMARK SMILES IDX 6 13 5 14 4 15 3 16 2 17 1 18
REMARK H PARENT
REMARK Flexibility Score: inf
ROOT
ATOM      1  C   UNL     1       6.158   1.181  14.136  1.00  0.00     0.000 C 
ENDROOT
BRANCH   1   2
ATOM      2  C   UNL     1       5.454   1.705  12.876  1.00  0.00     0.000 C 
BRANCH   2   3
ATOM      3  C   UNL     1       4.551   2.916  13.165  1.00  0.00     0.000 C 
BRANCH   3   4
ATOM      4  C   UNL     1       4.451   3.243  14.664  1.00  0.00     0.000 C 
BRANCH   4   5
ATOM      5  C   UNL     1       3.078   2.901  15.280  1.00  0.00     0.000 C 
BRANCH   5   6
ATOM      6  C   UNL     1       2.412   1.701  14.589  1.00  0.00     0.006 C 
BRANCH   6   7
ATOM      7  C   UNL     1       2.525   0.439  15.448  1.00  0.00     0.053 C 
BRANCH   7   8
ATOM      8  C   UNL     1       1.454  -0.540  15.085  1.00  0.00     0.041 C 
ATOM      9  O   UNL     1       0.318  -0.131  14.729  1.00  0.00    -0.550 OA
ATOM     10  O   UNL     1       1.725  -1.902  15.094  1.00  0.00    -0.550 OA
ENDBRANCH   7   8
ENDBRANCH   6   7
ENDBRANCH   5   6
ENDBRANCH   4   5
ENDBRANCH   3   4
ENDBRANCH   2   3
ENDBRANCH   1   2
BRANCH   1  11
ATOM     11  C   UNL     1       6.644  -0.271  13.978  1.00  0.00     0.000 C 
BRANCH  11  12
ATOM     12  C   UNL     1       5.504  -1.242  13.630  1.00  0.00    -0.000 C 
BRANCH  12  13
ATOM     13  C   UNL     1       5.017  -2.042  14.850  1.00  0.00    -0.000 C 
BRANCH  13  14
ATOM     14  C   UNL     1       5.878  -1.795  16.099  1.00  0.00    -0.000 C 
BRANCH  14  15
ATOM     15  C   UNL     1       5.033  -1.544  17.361  1.00  0.00    -0.000 C 
BRANCH  15  16
ATOM     16  C   UNL     1       5.586  -0.396  18.222  1.00  0.00    -0.000 C 
BRANCH  16  17
ATOM     17  C   UNL     1       5.113   0.983  17.740  1.00  0.00    -0.003 C 
ATOM     18  C   UNL     1       4.089   1.581  18.701  1.00  0.00     0.004 C 
ENDBRANCH  16  17
ENDBRANCH  15  16
ENDBRANCH  14  15
ENDBRANCH  13  14
ENDBRANCH  12  13
ENDBRANCH  11  12
ENDBRANCH   1  11
TORSDOF 14
ENDMDL
MODEL 4
REMARK VINA RESULT:    -3.926      1.132      3.382
REMARK INTER + INTRA:          -9.677
REMARK INTER:                  -7.933
REMARK INTRA:                  -1.745
REMARK UNBOUND:                -2.538
REMARK SMILES CCCCCCCCCCCCCCCC(=O)[O-]
REMARK SMILES IDX 9 1 10 2 11 3 12 4 13 5 14 6 15 7 16 8 17 9 18 10 8 11 7 12
REMARK SMILES IDX 6 13 5 14 4 15 3 16 2 17 1 18
REMARK H PARENT
REMARK Flexibility Score: inf
ROOT
ATOM      1  C   UNL     1       5.282   1.700  12.880  1.00  0.00     0.000 C 
ENDROOT
BRANCH   1   2
ATOM      2  C   UNL     1       6.406   1.022  13.677  1.00  0.00     0.000 C 
BRANCH   2   3
ATOM      3  C   UNL     1       6.507  -0.485  13.390  1.00  0.00     0.000 C 
BRANCH   3   4
ATOM      4  C   UNL     1       5.134  -1.150  13.200  1.00  0.00     0.000 C 
BRANCH   4   5
ATOM      5  C   UNL     1       4.757  -2.125  14.335  1.00  0.00     0.000 C 
BRANCH   5   6
ATOM      6  C   UNL     1       5.626  -1.926  15.586  1.00  0.00     0.006 C 
BRANCH   6   7
ATOM      7  C   UNL     1       4.804  -1.351  16.742  1.00  0.00     0.053 C 
BRANCH   7   8
ATOM      8  C   UNL     1       5.700  -0.721  17.761  1.00  0.00     0.041 C 
ATOM      9  O   UNL     1       5.894   0.522  17.752  1.00  0.00    -0.550 OA
ATOM     10  O   UNL     1       6.284  -1.502  18.750  1.00  0.00    -0.550 OA
ENDBRANCH   7   8
ENDBRANCH   6   7
ENDBRANCH   5   6
ENDBRANCH   4   5
ENDBRANCH   3   4
ENDBRANCH   2   3
ENDBRANCH   1   2
BRANCH   1  11
ATOM     11  C   UNL     1       5.259   3.227  13.077  1.00  0.00     0.000 C 
BRANCH  11  12
ATOM     12  C   UNL     1       3.835   3.780  13.250  1.00  0.00    -0.000 C 
BRANCH  12  13
ATOM     13  C   UNL     1       3.443   3.949  14.728  1.00  0.00    -0.000 C 
BRANCH  13  14
ATOM     14  C   UNL     1       3.999   2.826  15.618  1.00  0.00    -0.000 C 
BRANCH  14  15
ATOM     15  C   UNL     1       2.917   1.820  16.048  1.00  0.00    -0.000 C 
BRANCH  15  16
ATOM     16  C   UNL     1       2.562   0.822  14.933  1.00  0.00    -0.000 C 
BRANCH  16  17
ATOM     17  C   UNL     1       1.269   0.047  15.224  1.00  0.00    -0.003 C 
ATOM     18  C   UNL     1       1.413  -1.424  14.844  1.00  0.00     0.004 C 
ENDBRANCH  16  17
ENDBRANCH  15  16
ENDBRANCH  14  15
ENDBRANCH  13  14
ENDBRANCH  12  13
ENDBRANCH  11  12
ENDBRANCH   1  11
TORSDOF 14
ENDMDL
MODEL 5
REMARK VINA RESULT:    -3.917      1.185      3.032
REMARK INTER + INTRA:          -9.661
REMARK INTER:                  -7.626
REMARK INTRA:                  -2.035
REMARK UNBOUND:                -2.538
REMARK SMILES CCCCCCCCCCCCCCCC(=O)[O-]
REMARK SMILES IDX 9 1 10 2 11 3 12 4 13 5 14 6 15 7 16 8 17 9 18 10 8 11 7 12
REMARK SMILES IDX 6 13 5 14 4 15 3 16 2 17 1 18
REMARK H PARENT
REMARK Flexibility Score: inf
ROOT
ATOM      1  C   UNL     1       4.725   3.179  12.993  1.00  0.00     0.000 C 
ENDROOT
BRANCH   1   2
ATOM      2  C   UNL     1       5.813   2.094  12.983  1.00  0.00     0.000 C 
BRANCH   2   3
ATOM      3  C   UNL     1       5.288   0.726  13.448  1.00  0.00     0.000 C 
BRANCH   3   4
ATOM      4  C   UNL     1       6.404  -0.205  13.948  1.00  0.00     0.000 C 
BRANCH   4   5
ATOM      5  C   UNL     1       5.976  -1.108  15.124  1.00  0.00     0.000 C 
BRANCH   5   6
ATOM      6  C   UNL     1       5.509  -0.296  16.342  1.00  0.00     0.006 C 
BRANCH   6   7
ATOM      7  C   UNL     1       5.087  -1.218  17.488  1.00  0.00     0.053 C 
BRANCH   7   8
ATOM      8  C   UNL     1       5.522  -0.653  18.803  1.00  0.00     0.041 C 
ATOM      9  O   UNL     1       4.779   0.154  19.422  1.00  0.00    -0.550 OA
ATOM     10  O   UNL     1       6.725  -1.053  19.369  1.00  0.00    -0.550 OA
ENDBRANCH   7   8
ENDBRANCH   6   7
ENDBRANCH   5   6
ENDBRANCH   4   5
ENDBRANCH   3   4
ENDBRANCH   2   3
ENDBRANCH   1   2
BRANCH   1  11
ATOM     11  C   UNL     1       4.441   3.715  14.407  1.00  0.00     0.000 C 
BRANCH  11  12
ATOM     12  C   UNL     1       3.115   3.192  14.983  1.00  0.00    -0.000 C 
BRANCH  12  13
ATOM     13  C   UNL     1       3.318   2.322  16.236  1.00  0.00    -0.000 C 
BRANCH  13  14
ATOM     14  C   UNL     1       2.398   1.090  16.253  1.00  0.00    -0.000 C 
BRANCH  14  15
ATOM     15  C   UNL     1       1.860   0.732  14.856  1.00  0.00    -0.000 C 
BRANCH  15  16
ATOM     16  C   UNL     1       1.125  -0.618  14.837  1.00  0.00    -0.000 C 
BRANCH  16  17
ATOM     17  C   UNL     1       2.065  -1.806  15.091  1.00  0.00    -0.003 C 
ATOM     18  C   UNL     1       2.894  -2.125  13.850  1.00  0.00     0.004 C 
ENDBRANCH  16  17
ENDBRANCH  15  16
ENDBRANCH  14  15
ENDBRANCH  13  14
ENDBRANCH  12  13
ENDBRANCH  11  12
ENDBRANCH   1  11
TORSDOF 14
ENDMDL
MODEL 6
REMARK VINA RESULT:    -3.856      0.985      1.486
REMARK INTER + INTRA:          -9.550
REMARK INTER:                  -7.829
REMARK INTRA:                  -1.721
REMARK UNBOUND:                -2.538
REMARK SMILES CCCCCCCCCCCCCCCC(=O)[O-]
REMARK SMILES IDX 9 1 10 2 11 3 12 4 13 5 14 6 15 7 16 8 17 9 18 10 8 11 7 12
REMARK SMILES IDX 6 13 5 14 4 15 3 16 2 17 1 18
REMARK H PARENT
REMARK Flexibility Score: inf
ROOT
ATOM      1  C   UNL     1       4.213   3.378  14.774  1.00  0.00     0.000 C 
ENDROOT
BRANCH   1   2
ATOM      2  C   UNL     1       2.865   2.681  15.011  1.00  0.00     0.000 C 
BRANCH   2   3
ATOM      3  C   UNL     1       2.805   1.956  16.365  1.00  0.00     0.000 C 
BRANCH   3   4
ATOM      4  C   UNL     1       4.196   1.588  16.908  1.00  0.00     0.000 C 
BRANCH   4   5
ATOM      5  C   UNL     1       4.313   1.711  18.442  1.00  0.00     0.000 C 
BRANCH   5   6
ATOM      6  C   UNL     1       4.892   0.442  19.086  1.00  0.00     0.006 C 
BRANCH   6   7
ATOM      7  C   UNL     1       4.601  -0.792  18.228  1.00  0.00     0.053 C 
BRANCH   7   8
ATOM      8  C   UNL     1       5.859  -1.562  17.974  1.00  0.00     0.041 C 
ATOM      9  O   UNL     1       6.659  -1.796  18.917  1.00  0.00    -0.550 OA
ATOM     10  O   UNL     1       6.123  -2.064  16.706  1.00  0.00    -0.550 OA
ENDBRANCH   7   8
ENDBRANCH   6   7
ENDBRANCH   5   6
ENDBRANCH   4   5
ENDBRANCH   3   4
ENDBRANCH   2   3
ENDBRANCH   1   2
BRANCH   1  11
ATOM     11  C   UNL     1       4.748   3.156  13.348  1.00  0.00     0.000 C 
BRANCH  11  12
ATOM     12  C   UNL     1       5.449   1.798  13.183  1.00  0.00    -0.000 C 
BRANCH  12  13
ATOM     13  C   UNL     1       4.456   0.644  12.960  1.00  0.00    -0.000 C 
BRANCH  13  14
ATOM     14  C   UNL     1       5.073  -0.731  13.263  1.00  0.00    -0.000 C 
BRANCH  14  15
ATOM     15  C   UNL     1       4.016  -1.784  13.641  1.00  0.00    -0.000 C 
BRANCH  15  16
ATOM     16  C   UNL     1       3.246  -1.413  14.919  1.00  0.00    -0.000 C 
BRANCH  16  17
ATOM     17  C   UNL     1       1.748  -1.735  14.820  1.00  0.00    -0.003 C 
ATOM     18  C   UNL     1       0.922  -0.460  14.661  1.00  0.00     0.004 C 
ENDBRANCH  16  17
ENDBRANCH  15  16
ENDBRANCH  14  15
ENDBRANCH  13  14
ENDBRANCH  12  13
ENDBRANCH  11  12
ENDBRANCH   1  11
TORSDOF 14
ENDMDL
MODEL 7
REMARK VINA RESULT:    -3.795      1.830      4.464
REMARK INTER + INTRA:          -9.439
REMARK INTER:                  -7.603
REMARK INTRA:                  -1.836
REMARK UNBOUND:                -2.538
REMARK SMILES CCCCCCCCCCCCCCCC(=O)[O-]
REMARK SMILES IDX 9 1 10 2 11 3 12 4 13 5 14 6 15 7 16 8 17 9 18 10 8 11 7 12
REMARK SMILES IDX 6 13 5 14 4 15 3 16 2 17 1 18
REMARK H PARENT
REMARK Flexibility Score: inf
ROOT
ATOM      1  C   UNL     1       4.221   3.927  13.928  1.00  0.00     0.000 C 
ENDROOT
BRANCH   1   2
ATOM      2  C   UNL     1       5.044   3.151  12.888  1.00  0.00     0.000 C 
BRANCH   2   3
ATOM      3  C   UNL     1       5.476   1.765  13.393  1.00  0.00     0.000 C 
BRANCH   3   4
ATOM      4  C   UNL     1       4.574   0.632  12.875  1.00  0.00     0.000 C 
BRANCH   4   5
ATOM      5  C   UNL     1       5.075  -0.778  13.252  1.00  0.00     0.000 C 
BRANCH   5   6
ATOM      6  C   UNL     1       3.944  -1.679  13.771  1.00  0.00     0.006 C 
BRANCH   6   7
ATOM      7  C   UNL     1       2.583  -0.994  13.621  1.00  0.00     0.053 C 
BRANCH   7   8
ATOM      8  C   UNL     1       1.743  -1.227  14.836  1.00  0.00     0.041 C 
ATOM      9  O   UNL     1       2.109  -2.055  15.710  1.00  0.00    -0.550 OA
ATOM     10  O   UNL     1       0.579  -0.492  15.028  1.00  0.00    -0.550 OA
ENDBRANCH   7   8
ENDBRANCH   6   7
ENDBRANCH   5   6
ENDBRANCH   4   5
ENDBRANCH   3   4
ENDBRANCH   2   3
ENDBRANCH   1   2
BRANCH   1  11
ATOM     11  C   UNL     1       4.324   3.315  15.336  1.00  0.00     0.000 C 
BRANCH  11  12
ATOM     12  C   UNL     1       3.080   2.498  15.719  1.00  0.00    -0.000 C 
BRANCH  12  13
ATOM     13  C   UNL     1       3.431   1.208  16.479  1.00  0.00    -0.000 C 
BRANCH  13  14
ATOM     14  C   UNL     1       4.676   1.367  17.367  1.00  0.00    -0.000 C 
BRANCH  14  15
ATOM     15  C   UNL     1       5.843   0.467  16.920  1.00  0.00    -0.000 C 
BRANCH  15  16
ATOM     16  C   UNL     1       5.460  -1.021  16.888  1.00  0.00    -0.000 C 
BRANCH  16  17
ATOM     17  C   UNL     1       5.394  -1.644  18.291  1.00  0.00    -0.003 C 
ATOM     18  C   UNL     1       6.342  -0.932  19.252  1.00  0.00     0.004 C 
ENDBRANCH  16  17
ENDBRANCH  15  16
ENDBRANCH  14  15
ENDBRANCH  13  14
ENDBRANCH  12  13
ENDBRANCH  11  12
ENDBRANCH   1  11
TORSDOF 14
ENDMDL
MODEL 8
REMARK VINA RESULT:    -3.744      2.251      5.261
REMARK INTER + INTRA:          -9.347
REMARK INTER:                  -7.090
REMARK INTRA:                  -2.257
REMARK UNBOUND:                -2.538
REMARK SMILES CCCCCCCCCCCCCCCC(=O)[O-]
REMARK SMILES IDX 9 1 10 2 11 3 12 4 13 5 14 6 15 7 16 8 17 9 18 10 8 11 7 12
REMARK SMILES IDX 6 13 5 14 4 15 3 16 2 17 1 18
REMARK H PARENT
REMARK Flexibility Score: inf
ROOT
ATOM      1  C   UNL     1       4.530   0.166  19.280  1.00  0.00     0.000 C 
ENDROOT
BRANCH   1   2
ATOM      2  C   UNL     1       6.014  -0.226  19.237  1.00  0.00     0.000 C 
BRANCH   2   3
ATOM      3  C   UNL     1       6.253  -1.553  18.498  1.00  0.00     0.000 C 
BRANCH   3   4
ATOM      4  C   UNL     1       5.192  -1.836  17.421  1.00  0.00     0.000 C 
BRANCH   4   5
ATOM      5  C   UNL     1       5.667  -1.520  15.987  1.00  0.00     0.000 C 
BRANCH   5   6
ATOM      6  C   UNL     1       4.500  -1.441  14.991  1.00  0.00     0.006 C 
BRANCH   6   7
ATOM      7  C   UNL     1       3.160  -1.329  15.722  1.00  0.00     0.053 C 
BRANCH   7   8
ATOM      8  C   UNL     1       2.162  -0.602  14.877  1.00  0.00     0.041 C 
ATOM      9  O   UNL     1       2.253  -0.633  13.622  1.00  0.00    -0.550 OA
ATOM     10  O   UNL     1       1.102   0.068  15.474  1.00  0.00    -0.550 OA
ENDBRANCH   7   8
ENDBRANCH   6   7
ENDBRANCH   5   6
ENDBRANCH   4   5
ENDBRANCH   3   4
ENDBRANCH   2   3
ENDBRANCH   1   2
BRANCH   1  11
ATOM     11  C   UNL     1       4.300   1.640  18.903  1.00  0.00     0.000 C 
BRANCH  11  12
ATOM     12  C   UNL     1       3.800   1.811  17.459  1.00  0.00    -0.000 C 
BRANCH  12  13
ATOM     13  C   UNL     1       4.952   1.913  16.444  1.00  0.00    -0.000 C 
BRANCH  13  14
ATOM     14  C   UNL     1       4.744   3.049  15.429  1.00  0.00    -0.000 C 
BRANCH  14  15
ATOM     15  C   UNL     1       3.713   2.691  14.343  1.00  0.00    -0.000 C 
BRANCH  15  16
ATOM     16  C   UNL     1       4.346   1.962  13.147  1.00  0.00    -0.000 C 
BRANCH  16  17
ATOM     17  C   UNL     1       5.859   2.201  13.043  1.00  0.00    -0.003 C 
ATOM     18  C   UNL     1       6.626   0.881  13.045  1.00  0.00     0.004 C 
ENDBRANCH  16  17
ENDBRANCH  15  16
ENDBRANCH  14  15
ENDBRANCH  13  14
ENDBRANCH  12  13
ENDBRANCH  11  12
ENDBRANCH   1  11
TORSDOF 14
ENDMDL
MODEL 9
REMARK VINA RESULT:    -3.546      1.324      3.853
REMARK INTER + INTRA:          -8.986
REMARK INTER:                  -6.984
REMARK INTRA:                  -2.003
REMARK UNBOUND:                -2.538
REMARK SMILES CCCCCCCCCCCCCCCC(=O)[O-]
REMARK SMILES IDX 9 1 10 2 11 3 12 4 13 5 14 6 15 7 16 8 17 9 18 10 8 11 7 12
REMARK SMILES IDX 6 13 5 14 4 15 3 16 2 17 1 18
REMARK H PARENT
REMARK Flexibility Score: inf
ROOT
ATOM      1  C   UNL     1       5.037   0.761  13.356  1.00  0.00     0.000 C 
ENDROOT
BRANCH   1   2
ATOM      2  C   UNL     1       6.404   0.289  13.874  1.00  0.00     0.000 C 
BRANCH   2   3
ATOM      3  C   UNL     1       6.699  -1.176  13.510  1.00  0.00     0.000 C 
BRANCH   3   4
ATOM      4  C   UNL     1       6.842  -2.081  14.745  1.00  0.00     0.000 C 
BRANCH   4   5
ATOM      5  C   UNL     1       5.578  -2.124  15.629  1.00  0.00     0.000 C 
BRANCH   5   6
ATOM      6  C   UNL     1       5.874  -1.736  17.086  1.00  0.00     0.006 C 
BRANCH   6   7
ATOM      7  C   UNL     1       5.313  -0.349  17.410  1.00  0.00     0.053 C 
BRANCH   7   8
ATOM      8  C   UNL     1       5.374  -0.089  18.882  1.00  0.00     0.041 C 
ATOM      9  O   UNL     1       6.228  -0.680  19.594  1.00  0.00    -0.550 OA
ATOM     10  O   UNL     1       4.521   0.842  19.460  1.00  0.00    -0.550 OA
ENDBRANCH   7   8
ENDBRANCH   6   7
ENDBRANCH   5   6
ENDBRANCH   4   5
ENDBRANCH   3   4
ENDBRANCH   2   3
ENDBRANCH   1   2
BRANCH   1  11
ATOM     11  C   UNL     1       4.118  -0.410  12.968  1.00  0.00     0.000 C 
BRANCH  11  12
ATOM     12  C   UNL     1       2.695  -0.259  13.531  1.00  0.00    -0.000 C 
BRANCH  12  13
ATOM     13  C   UNL     1       2.625  -0.545  15.040  1.00  0.00    -0.000 C 
BRANCH  13  14
ATOM     14  C   UNL     1       1.909   0.570  15.819  1.00  0.00    -0.000 C 
BRANCH  14  15
ATOM     15  C   UNL     1       2.372   1.977  15.399  1.00  0.00    -0.000 C 
BRANCH  15  16
ATOM     16  C   UNL     1       3.646   2.423  16.134  1.00  0.00    -0.000 C 
BRANCH  16  17
ATOM     17  C   UNL     1       4.318   3.633  15.469  1.00  0.00    -0.003 C 
ATOM     18  C   UNL     1       3.687   3.935  14.113  1.00  0.00     0.004 C 
ENDBRANCH  16  17
ENDBRANCH  15  16
ENDBRANCH  14  15
ENDBRANCH  13  14
ENDBRANCH  12  13
ENDBRANCH  11  12
ENDBRANCH   1  11
TORSDOF 14
ENDMDL
