MODEL 1
REMARK VINA RESULT:    -3.486      0.000      0.000
REMARK INTER + INTRA:         -11.529
REMARK INTER:                  -7.562
REMARK INTRA:                  -3.967
REMARK UNBOUND:                -3.967
REMARK SMILES CCCCCCCCCCCCCCCCCCCCCC(=O)[O-]
REMARK SMILES IDX 12 1 11 2 10 3 9 4 8 5 7 6 6 7 5 8 4 9 3 10 2 11 1 12 13 13
REMARK SMILES IDX 14 14 15 15 16 16 17 17 18 18 19 19 20 20 21 21 22 22 23 23
REMARK SMILES IDX 24 24
REMARK H PARENT
REMARK Flexibility Score: inf
ROOT
ATOM      1  C   UNL     1       4.839  -2.587   0.701  1.00  0.00     0.000 C 
ENDROOT
BRANCH   1   2
ATOM      2  C   UNL     1       4.386  -3.637  -0.331  1.00  0.00     0.000 C 
BRANCH   2   3
ATOM      3  C   UNL     1       5.376  -4.806  -0.466  1.00  0.00     0.000 C 
BRANCH   3   4
ATOM      4  C   UNL     1       5.071  -5.959   0.504  1.00  0.00    -0.000 C 
BRANCH   4   5
ATOM      5  C   UNL     1       6.047  -5.954   1.689  1.00  0.00    -0.000 C 
BRANCH   5   6
ATOM      6  C   UNL     1       5.403  -5.447   2.994  1.00  0.00    -0.000 C 
BRANCH   6   7
ATOM      7  C   UNL     1       4.481  -6.459   3.701  1.00  0.00    -0.000 C 
BRANCH   7   8
ATOM      8  C   UNL     1       3.028  -5.970   3.809  1.00  0.00    -0.000 C 
BRANCH   8   9
ATOM      9  C   UNL     1       2.872  -4.567   3.211  1.00  0.00    -0.000 C 
BRANCH   9  10
ATOM     10  C   UNL     1       1.706  -4.520   2.212  1.00  0.00    -0.000 C 
BRANCH  10  11
ATOM     11  C   UNL     1       1.493  -5.855   1.484  1.00  0.00    -0.003 C 
ATOM     12  C   UNL     1       1.439  -5.698  -0.035  1.00  0.00     0.004 C 
ENDBRANCH  10  11
ENDBRANCH   9  10
ENDBRANCH   8   9
ENDBRANCH   7   8
ENDBRANCH   6   7
ENDBRANCH   5   6
ENDBRANCH   4   5
ENDBRANCH   3   4
ENDBRANCH   2   3
ENDBRANCH   1   2
BRANCH   1  13
ATOM     13  C   UNL     1       5.071  -1.204   0.055  1.00  0.00     0.000 C 
BRANCH  13  14
ATOM     14  C   UNL     1       5.488  -1.270  -1.421  1.00  0.00     0.000 C 
BRANCH  14  15
ATOM     15  C   UNL     1       6.980  -0.968  -1.644  1.00  0.00     0.000 C 
BRANCH  15  16
ATOM     16  C   UNL     1       7.848  -2.240  -1.702  1.00  0.00     0.000 C 
BRANCH  16  17
ATOM     17  C   UNL     1       8.853  -2.366  -0.530  1.00  0.00     0.000 C 
BRANCH  17  18
ATOM     18  C   UNL     1       8.271  -3.139   0.669  1.00  0.00     0.000 C 
BRANCH  18  19
ATOM     19  C   UNL     1       8.413  -2.369   2.001  1.00  0.00     0.000 C 
BRANCH  19  20
ATOM     20  C   UNL     1       8.618  -0.856   1.787  1.00  0.00     0.006 C 
BRANCH  20  21
ATOM     21  C   UNL     1       7.495   0.012   2.379  1.00  0.00     0.053 C 
BRANCH  21  22
ATOM     22  C   UNL     1       8.026   1.291   2.959  1.00  0.00     0.041 C 
ATOM     23  O   UNL     1       7.297   2.321   2.986  1.00  0.00    -0.550 OA
ATOM     24  O   UNL     1       9.326   1.355   3.448  1.00  0.00    -0.550 OA
ENDBRANCH  21  22
ENDBRANCH  20  21
ENDBRANCH  19  20
ENDBRANCH  18  19
ENDBRANCH  17  18
ENDBRANCH  16  17
ENDBRANCH  15  16
ENDBRANCH  14  15
ENDBRANCH  13  14
ENDBRANCH   1  13
TORSDOF 20
ENDMDL
MODEL 2
REMARK VINA RESULT:    -3.391      4.015      7.406
REMARK INTER + INTRA:         -11.323
REMARK INTER:                  -7.582
REMARK INTRA:                  -3.741
REMARK UNBOUND:                -3.967
REMARK SMILES CCCCCCCCCCCCCCCCCCCCCC(=O)[O-]
REMARK SMILES IDX 12 1 11 2 10 3 9 4 8 5 7 6 6 7 5 8 4 9 3 10 2 11 1 12 13 13
REMARK SMILES IDX 14 14 15 15 16 16 17 17 18 18 19 19 20 20 21 21 22 22 23 23
REMARK SMILES IDX 24 24
REMARK H PARENT
REMARK Flexibility Score: inf
ROOT
ATOM      1  C   UNL     1       3.264  -5.609   3.724  1.00  0.00     0.000 C 
ENDROOT
BRANCH   1   2
ATOM      2  C   UNL     1       4.760  -5.880   3.972  1.00  0.00     0.000 C 
BRANCH   2   3
ATOM      3  C   UNL     1       5.589  -5.879   2.676  1.00  0.00     0.000 C 
BRANCH   3   4
ATOM      4  C   UNL     1       6.722  -4.840   2.694  1.00  0.00    -0.000 C 
BRANCH   4   5
ATOM      5  C   UNL     1       6.623  -3.897   1.487  1.00  0.00    -0.000 C 
BRANCH   5   6
ATOM      6  C   UNL     1       7.353  -2.558   1.709  1.00  0.00    -0.000 C 
BRANCH   6   7
ATOM      7  C   UNL     1       6.624  -1.320   1.153  1.00  0.00    -0.000 C 
BRANCH   7   8
ATOM      8  C   UNL     1       5.441  -1.681   0.242  1.00  0.00    -0.000 C 
BRANCH   8   9
ATOM      9  C   UNL     1       5.440  -0.821  -1.028  1.00  0.00    -0.000 C 
BRANCH   9  10
ATOM     10  C   UNL     1       5.492  -1.699  -2.288  1.00  0.00    -0.000 C 
BRANCH  10  11
ATOM     11  C   UNL     1       6.186  -3.047  -2.045  1.00  0.00    -0.003 C 
ATOM     12  C   UNL     1       7.693  -2.990  -2.295  1.00  0.00     0.004 C 
ENDBRANCH  10  11
ENDBRANCH   9  10
ENDBRANCH   8   9
ENDBRANCH   7   8
ENDBRANCH   6   7
ENDBRANCH   5   6
ENDBRANCH   4   5
ENDBRANCH   3   4
ENDBRANCH   2   3
ENDBRANCH   1   2
BRANCH   1  13
ATOM     13  C   UNL     1       3.043  -4.414   2.771  1.00  0.00     0.000 C 
BRANCH  13  14
ATOM     14  C   UNL     1       1.706  -4.461   2.016  1.00  0.00     0.000 C 
BRANCH  14  15
ATOM     15  C   UNL     1       1.872  -4.683   0.504  1.00  0.00     0.000 C 
BRANCH  15  16
ATOM     16  C   UNL     1       3.336  -4.563   0.036  1.00  0.00     0.000 C 
BRANCH  16  17
ATOM     17  C   UNL     1       3.975  -5.913  -0.374  1.00  0.00     0.000 C 
BRANCH  17  18
ATOM     18  C   UNL     1       2.964  -7.075  -0.363  1.00  0.00     0.000 C 
BRANCH  18  19
ATOM     19  C   UNL     1       3.261  -8.115   0.741  1.00  0.00     0.000 C 
BRANCH  19  20
ATOM     20  C   UNL     1       2.061  -8.331   1.683  1.00  0.00     0.006 C 
BRANCH  20  21
ATOM     21  C   UNL     1       0.704  -7.974   1.053  1.00  0.00     0.053 C 
BRANCH  21  22
ATOM     22  C   UNL     1      -0.353  -7.748   2.094  1.00  0.00     0.041 C 
ATOM     23  O   UNL     1      -1.557  -8.033   1.843  1.00  0.00    -0.550 OA
ATOM     24  O   UNL     1      -0.018  -7.205   3.330  1.00  0.00    -0.550 OA
ENDBRANCH  21  22
ENDBRANCH  20  21
ENDBRANCH  19  20
ENDBRANCH  18  19
ENDBRANCH  17  18
ENDBRANCH  16  17
ENDBRANCH  15  16
ENDBRANCH  14  15
ENDBRANCH  13  14
ENDBRANCH   1  13
TORSDOF 20
ENDMDL
MODEL 3
REMARK VINA RESULT:    -3.361      1.256      2.277
REMARK INTER + INTRA:         -11.258
REMARK INTER:                  -8.020
REMARK INTRA:                  -3.238
REMARK UNBOUND:                -3.967
REMARK SMILES CCCCCCCCCCCCCCCCCCCCCC(=O)[O-]
REMARK SMILES IDX 12 1 11 2 10 3 9 4 8 5 7 6 6 7 5 8 4 9 3 10 2 11 1 12 13 13
REMARK SMILES IDX 14 14 15 15 16 16 17 17 18 18 19 19 20 20 21 21 22 22 23 23
REMARK SMILES IDX 24 24
REMARK H PARENT
REMARK Flexibility Score: inf
ROOT
ATOM      1  C   UNL     1       5.256  -1.034  -1.339  1.00  0.00     0.000 C 
ENDROOT
BRANCH   1   2
ATOM      2  C   UNL     1       5.846  -2.431  -1.611  1.00  0.00     0.000 C 
BRANCH   2   3
ATOM      3  C   UNL     1       5.101  -3.549  -0.862  1.00  0.00     0.000 C 
BRANCH   3   4
ATOM      4  C   UNL     1       4.783  -3.181   0.596  1.00  0.00    -0.000 C 
BRANCH   4   5
ATOM      5  C   UNL     1       5.115  -4.343   1.542  1.00  0.00    -0.000 C 
BRANCH   5   6
ATOM      6  C   UNL     1       3.898  -4.821   2.356  1.00  0.00    -0.000 C 
BRANCH   6   7
ATOM      7  C   UNL     1       2.571  -4.117   2.017  1.00  0.00    -0.000 C 
BRANCH   7   8
ATOM      8  C   UNL     1       1.543  -5.059   1.369  1.00  0.00    -0.000 C 
BRANCH   8   9
ATOM      9  C   UNL     1       1.589  -4.958  -0.160  1.00  0.00    -0.000 C 
BRANCH   9  10
ATOM     10  C   UNL     1       1.558  -6.351  -0.806  1.00  0.00    -0.000 C 
BRANCH  10  11
ATOM     11  C   UNL     1       2.580  -7.316  -0.187  1.00  0.00    -0.003 C 
ATOM     12  C   UNL     1       3.995  -7.101  -0.721  1.00  0.00     0.004 C 
ENDBRANCH  10  11
ENDBRANCH   9  10
ENDBRANCH   8   9
ENDBRANCH   7   8
ENDBRANCH   6   7
ENDBRANCH   5   6
ENDBRANCH   4   5
ENDBRANCH   3   4
ENDBRANCH   2   3
ENDBRANCH   1   2
BRANCH   1  13
ATOM     13  C   UNL     1       6.144   0.091  -1.913  1.00  0.00     0.000 C 
BRANCH  13  14
ATOM     14  C   UNL     1       7.467   0.285  -1.156  1.00  0.00     0.000 C 
BRANCH  14  15
ATOM     15  C   UNL     1       8.701  -0.127  -1.976  1.00  0.00     0.000 C 
BRANCH  15  16
ATOM     16  C   UNL     1       9.369  -1.413  -1.450  1.00  0.00     0.000 C 
BRANCH  16  17
ATOM     17  C   UNL     1       9.564  -1.433   0.087  1.00  0.00     0.000 C 
BRANCH  17  18
ATOM     18  C   UNL     1       8.736  -2.534   0.775  1.00  0.00     0.000 C 
BRANCH  18  19
ATOM     19  C   UNL     1       7.871  -1.995   1.936  1.00  0.00     0.000 C 
BRANCH  19  20
ATOM     20  C   UNL     1       8.440  -0.694   2.538  1.00  0.00     0.006 C 
BRANCH  20  21
ATOM     21  C   UNL     1       7.484   0.506   2.438  1.00  0.00     0.053 C 
BRANCH  21  22
ATOM     22  C   UNL     1       8.026   1.711   3.151  1.00  0.00     0.041 C 
ATOM     23  O   UNL     1       9.030   1.598   3.907  1.00  0.00    -0.550 OA
ATOM     24  O   UNL     1       7.412   2.951   3.002  1.00  0.00    -0.550 OA
ENDBRANCH  21  22
ENDBRANCH  20  21
ENDBRANCH  19  20
ENDBRANCH  18  19
ENDBRANCH  17  18
ENDBRANCH  16  17
ENDBRANCH  15  16
ENDBRANCH  14  15
ENDBRANCH  13  14
ENDBRANCH   1  13
TORSDOF 20
ENDMDL
MODEL 4
REMARK VINA RESULT:    -3.356      2.830      6.903
REMARK INTER + INTRA:         -11.248
REMARK INTER:                  -8.491
REMARK INTRA:                  -2.757
REMARK UNBOUND:                -3.967
REMARK SMILES CCCCCCCCCCCCCCCCCCCCCC(=O)[O-]
REMARK SMILES IDX 12 1 11 2 10 3 9 4 8 5 7 6 6 7 5 8 4 9 3 10 2 11 1 12 13 13
REMARK SMILES IDX 14 14 15 15 16 16 17 17 18 18 19 19 20 20 21 21 22 22 23 23
REMARK SMILES IDX 24 24
REMARK H PARENT
REMARK Flexibility Score: inf
ROOT
ATOM      1  C   UNL     1       5.247  -0.519  -2.278  1.00  0.00     0.000 C 
ENDROOT
BRANCH   1   2
ATOM      2  C   UNL     1       6.188   0.700  -2.262  1.00  0.00     0.000 C 
BRANCH   2   3
ATOM      3  C   UNL     1       7.451   0.468  -1.416  1.00  0.00     0.000 C 
BRANCH   3   4
ATOM      4  C   UNL     1       8.736   0.915  -2.129  1.00  0.00    -0.000 C 
BRANCH   4   5
ATOM      5  C   UNL     1       9.794  -0.198  -2.107  1.00  0.00    -0.000 C 
BRANCH   5   6
ATOM      6  C   UNL     1       9.185  -1.607  -2.238  1.00  0.00    -0.000 C 
BRANCH   6   7
ATOM      7  C   UNL     1       9.625  -2.609  -1.154  1.00  0.00    -0.000 C 
BRANCH   7   8
ATOM      8  C   UNL     1       8.624  -2.709   0.009  1.00  0.00    -0.000 C 
BRANCH   8   9
ATOM      9  C   UNL     1       9.333  -2.561   1.361  1.00  0.00    -0.000 C 
BRANCH   9  10
ATOM     10  C   UNL     1       8.344  -2.138   2.458  1.00  0.00    -0.000 C 
BRANCH  10  11
ATOM     11  C   UNL     1       7.388  -1.027   2.000  1.00  0.00    -0.003 C 
ATOM     12  C   UNL     1       7.909   0.372   2.329  1.00  0.00     0.004 C 
ENDBRANCH  10  11
ENDBRANCH   9  10
ENDBRANCH   8   9
ENDBRANCH   7   8
ENDBRANCH   6   7
ENDBRANCH   5   6
ENDBRANCH   4   5
ENDBRANCH   3   4
ENDBRANCH   2   3
ENDBRANCH   1   2
BRANCH   1  13
ATOM     13  C   UNL     1       5.241  -1.263  -0.925  1.00  0.00     0.000 C 
BRANCH  13  14
ATOM     14  C   UNL     1       5.177  -2.792  -1.057  1.00  0.00     0.000 C 
BRANCH  14  15
ATOM     15  C   UNL     1       4.747  -3.495   0.242  1.00  0.00     0.000 C 
BRANCH  15  16
ATOM     16  C   UNL     1       3.822  -4.702  -0.008  1.00  0.00     0.000 C 
BRANCH  16  17
ATOM     17  C   UNL     1       2.317  -4.389   0.187  1.00  0.00     0.000 C 
BRANCH  17  18
ATOM     18  C   UNL     1       1.549  -5.553   0.839  1.00  0.00     0.000 C 
BRANCH  18  19
ATOM     19  C   UNL     1       1.293  -5.331   2.346  1.00  0.00     0.000 C 
BRANCH  19  20
ATOM     20  C   UNL     1       2.414  -4.514   3.019  1.00  0.00     0.006 C 
BRANCH  20  21
ATOM     21  C   UNL     1       3.283  -5.333   3.988  1.00  0.00     0.053 C 
BRANCH  21  22
ATOM     22  C   UNL     1       4.468  -5.941   3.295  1.00  0.00     0.041 C 
ATOM     23  O   UNL     1       4.347  -7.039   2.683  1.00  0.00    -0.550 OA
ATOM     24  O   UNL     1       5.708  -5.313   3.342  1.00  0.00    -0.550 OA
ENDBRANCH  21  22
ENDBRANCH  20  21
ENDBRANCH  19  20
ENDBRANCH  18  19
ENDBRANCH  17  18
ENDBRANCH  16  17
ENDBRANCH  15  16
ENDBRANCH  14  15
ENDBRANCH  13  14
ENDBRANCH   1  13
TORSDOF 20
ENDMDL
MODEL 5
REMARK VINA RESULT:    -3.307      2.655      3.486
REMARK INTER + INTRA:         -11.140
REMARK INTER:                  -7.420
REMARK INTRA:                  -3.720
REMARK UNBOUND:                -3.967
REMARK SMILES CCCCCCCCCCCCCCCCCCCCCC(=O)[O-]
REMARK SMILES IDX 12 1 11 2 10 3 9 4 8 5 7 6 6 7 5 8 4 9 3 10 2 11 1 12 13 13
REMARK SMILES IDX 14 14 15 15 16 16 17 17 18 18 19 19 20 20 21 21 22 22 23 23
REMARK SMILES IDX 24 24
REMARK H PARENT
REMARK Flexibility Score: inf
ROOT
ATOM      1  C   UNL     1       6.338  -2.443  -2.139  1.00  0.00     0.000 C 
ENDROOT
BRANCH   1   2
ATOM      2  C   UNL     1       5.744  -3.427  -1.113  1.00  0.00     0.000 C 
BRANCH   2   3
ATOM      3  C   UNL     1       4.605  -2.808  -0.284  1.00  0.00     0.000 C 
BRANCH   3   4
ATOM      4  C   UNL     1       4.508  -3.402   1.130  1.00  0.00    -0.000 C 
BRANCH   4   5
ATOM      5  C   UNL     1       5.051  -4.837   1.163  1.00  0.00    -0.000 C 
BRANCH   5   6
ATOM      6  C   UNL     1       5.485  -5.283   2.573  1.00  0.00    -0.000 C 
BRANCH   6   7
ATOM      7  C   UNL     1       4.342  -5.780   3.479  1.00  0.00    -0.000 C 
BRANCH   7   8
ATOM      8  C   UNL     1       3.224  -6.488   2.697  1.00  0.00    -0.000 C 
BRANCH   8   9
ATOM      9  C   UNL     1       1.841  -6.023   3.169  1.00  0.00    -0.000 C 
BRANCH   9  10
ATOM     10  C   UNL     1       0.882  -5.851   1.982  1.00  0.00    -0.000 C 
BRANCH  10  11
ATOM     11  C   UNL     1       1.548  -6.152   0.631  1.00  0.00    -0.003 C 
ATOM     12  C   UNL     1       1.542  -4.951  -0.312  1.00  0.00     0.004 C 
ENDBRANCH  10  11
ENDBRANCH   9  10
ENDBRANCH   8   9
ENDBRANCH   7   8
ENDBRANCH   6   7
ENDBRANCH   5   6
ENDBRANCH   4   5
ENDBRANCH   3   4
ENDBRANCH   2   3
ENDBRANCH   1   2
BRANCH   1  13
ATOM     13  C   UNL     1       5.511  -1.143  -2.239  1.00  0.00     0.000 C 
BRANCH  13  14
ATOM     14  C   UNL     1       6.294   0.122  -1.859  1.00  0.00     0.000 C 
BRANCH  14  15
ATOM     15  C   UNL     1       7.697  -0.177  -1.304  1.00  0.00     0.000 C 
BRANCH  15  16
ATOM     16  C   UNL     1       7.886   0.313   0.146  1.00  0.00     0.000 C 
BRANCH  16  17
ATOM     17  C   UNL     1       7.044  -0.469   1.185  1.00  0.00     0.000 C 
BRANCH  17  18
ATOM     18  C   UNL     1       7.913  -1.156   2.255  1.00  0.00     0.000 C 
BRANCH  18  19
ATOM     19  C   UNL     1       7.973  -2.690   2.082  1.00  0.00     0.000 C 
BRANCH  19  20
ATOM     20  C   UNL     1       9.318  -3.162   1.494  1.00  0.00     0.006 C 
BRANCH  20  21
ATOM     21  C   UNL     1       9.309  -3.310  -0.036  1.00  0.00     0.053 C 
BRANCH  21  22
ATOM     22  C   UNL     1       9.263  -4.750  -0.457  1.00  0.00     0.041 C 
ATOM     23  O   UNL     1      10.026  -5.164  -1.373  1.00  0.00    -0.550 OA
ATOM     24  O   UNL     1       8.366  -5.629   0.141  1.00  0.00    -0.550 OA
ENDBRANCH  21  22
ENDBRANCH  20  21
ENDBRANCH  19  20
ENDBRANCH  18  19
ENDBRANCH  17  18
ENDBRANCH  16  17
ENDBRANCH  15  16
ENDBRANCH  14  15
ENDBRANCH  13  14
ENDBRANCH   1  13
TORSDOF 20
ENDMDL
MODEL 6
REMARK VINA RESULT:    -3.293      2.877      6.578
REMARK INTER + INTRA:         -11.110
REMARK INTER:                  -8.179
REMARK INTRA:                  -2.931
REMARK UNBOUND:                -3.967
REMARK SMILES CCCCCCCCCCCCCCCCCCCCCC(=O)[O-]
REMARK SMILES IDX 12 1 11 2 10 3 9 4 8 5 7 6 6 7 5 8 4 9 3 10 2 11 1 12 13 13
REMARK SMILES IDX 14 14 15 15 16 16 17 17 18 18 19 19 20 20 21 21 22 22 23 23
REMARK SMILES IDX 24 24
REMARK H PARENT
REMARK Flexibility Score: inf
ROOT
ATOM      1  C   UNL     1       5.432  -1.807  -1.379  1.00  0.00     0.000 C 
ENDROOT
BRANCH   1   2
ATOM      2  C   UNL     1       5.539  -0.529  -2.231  1.00  0.00     0.000 C 
BRANCH   2   3
ATOM      3  C   UNL     1       6.747   0.343  -1.849  1.00  0.00     0.000 C 
BRANCH   3   4
ATOM      4  C   UNL     1       8.062  -0.451  -1.795  1.00  0.00    -0.000 C 
BRANCH   4   5
ATOM      5  C   UNL     1       8.713  -0.344  -0.409  1.00  0.00    -0.000 C 
BRANCH   5   6
ATOM      6  C   UNL     1       8.148   0.818   0.432  1.00  0.00    -0.000 C 
BRANCH   6   7
ATOM      7  C   UNL     1       8.069   0.547   1.946  1.00  0.00    -0.000 C 
BRANCH   7   8
ATOM      8  C   UNL     1       7.733  -0.917   2.274  1.00  0.00    -0.000 C 
BRANCH   8   9
ATOM      9  C   UNL     1       8.885  -1.592   3.028  1.00  0.00    -0.000 C 
BRANCH   9  10
ATOM     10  C   UNL     1       9.208  -2.968   2.426  1.00  0.00    -0.000 C 
BRANCH  10  11
ATOM     11  C   UNL     1       7.998  -3.611   1.733  1.00  0.00    -0.003 C 
ATOM     12  C   UNL     1       7.272  -4.617   2.625  1.00  0.00     0.004 C 
ENDBRANCH  10  11
ENDBRANCH   9  10
ENDBRANCH   8   9
ENDBRANCH   7   8
ENDBRANCH   6   7
ENDBRANCH   5   6
ENDBRANCH   4   5
ENDBRANCH   3   4
ENDBRANCH   2   3
ENDBRANCH   1   2
BRANCH   1  13
ATOM     13  C   UNL     1       5.070  -1.495   0.089  1.00  0.00     0.000 C 
BRANCH  13  14
ATOM     14  C   UNL     1       4.566  -2.713   0.878  1.00  0.00     0.000 C 
BRANCH  14  15
ATOM     15  C   UNL     1       4.598  -4.017   0.064  1.00  0.00     0.000 C 
BRANCH  15  16
ATOM     16  C   UNL     1       3.463  -4.989   0.442  1.00  0.00     0.000 C 
BRANCH  16  17
ATOM     17  C   UNL     1       2.207  -4.289   1.021  1.00  0.00     0.000 C 
BRANCH  17  18
ATOM     18  C   UNL     1       2.003  -4.582   2.519  1.00  0.00     0.000 C 
BRANCH  18  19
ATOM     19  C   UNL     1       2.840  -5.783   3.013  1.00  0.00     0.000 C 
BRANCH  19  20
ATOM     20  C   UNL     1       3.863  -5.381   4.094  1.00  0.00     0.006 C 
BRANCH  20  21
ATOM     21  C   UNL     1       3.875  -6.316   5.315  1.00  0.00     0.053 C 
BRANCH  21  22
ATOM     22  C   UNL     1       4.965  -5.956   6.283  1.00  0.00     0.041 C 
ATOM     23  O   UNL     1       4.908  -4.868   6.921  1.00  0.00    -0.550 OA
ATOM     24  O   UNL     1       6.052  -6.805   6.465  1.00  0.00    -0.550 OA
ENDBRANCH  21  22
ENDBRANCH  20  21
ENDBRANCH  19  20
ENDBRANCH  18  19
ENDBRANCH  17  18
ENDBRANCH  16  17
ENDBRANCH  15  16
ENDBRANCH  14  15
ENDBRANCH  13  14
ENDBRANCH   1  13
TORSDOF 20
ENDMDL
MODEL 7
REMARK VINA RESULT:    -3.244      3.236      7.259
REMARK INTER + INTRA:         -11.005
REMARK INTER:                  -7.776
REMARK INTRA:                  -3.228
REMARK UNBOUND:                -3.967
REMARK SMILES CCCCCCCCCCCCCCCCCCCCCC(=O)[O-]
REMARK SMILES IDX 12 1 11 2 10 3 9 4 8 5 7 6 6 7 5 8 4 9 3 10 2 11 1 12 13 13
REMARK SMILES IDX 14 14 15 15 16 16 17 17 18 18 19 19 20 20 21 21 22 22 23 23
REMARK SMILES IDX 24 24
REMARK H PARENT
REMARK Flexibility Score: inf
ROOT
ATOM      1  C   UNL     1       5.823  -5.822   0.844  1.00  0.00     0.000 C 
ENDROOT
BRANCH   1   2
ATOM      2  C   UNL     1       5.638  -4.478   0.114  1.00  0.00     0.000 C 
BRANCH   2   3
ATOM      3  C   UNL     1       5.271  -3.328   1.067  1.00  0.00     0.000 C 
BRANCH   3   4
ATOM      4  C   UNL     1       4.893  -2.037   0.324  1.00  0.00    -0.000 C 
BRANCH   4   5
ATOM      5  C   UNL     1       5.362  -2.085  -1.137  1.00  0.00    -0.000 C 
BRANCH   5   6
ATOM      6  C   UNL     1       5.351  -0.702  -1.817  1.00  0.00    -0.000 C 
BRANCH   6   7
ATOM      7  C   UNL     1       6.708   0.027  -1.831  1.00  0.00    -0.000 C 
BRANCH   7   8
ATOM      8  C   UNL     1       7.867  -0.857  -1.343  1.00  0.00    -0.000 C 
BRANCH   8   9
ATOM      9  C   UNL     1       8.747  -0.107  -0.336  1.00  0.00    -0.000 C 
BRANCH   9  10
ATOM     10  C   UNL     1       9.251  -1.052   0.766  1.00  0.00    -0.000 C 
BRANCH  10  11
ATOM     11  C   UNL     1       8.201  -1.307   1.857  1.00  0.00    -0.003 C 
ATOM     12  C   UNL     1       7.496  -0.028   2.308  1.00  0.00     0.004 C 
ENDBRANCH  10  11
ENDBRANCH   9  10
ENDBRANCH   8   9
ENDBRANCH   7   8
ENDBRANCH   6   7
ENDBRANCH   5   6
ENDBRANCH   4   5
ENDBRANCH   3   4
ENDBRANCH   2   3
ENDBRANCH   1   2
BRANCH   1  13
ATOM     13  C   UNL     1       4.658  -6.797   0.564  1.00  0.00     0.000 C 
BRANCH  13  14
ATOM     14  C   UNL     1       3.663  -6.290  -0.490  1.00  0.00     0.000 C 
BRANCH  14  15
ATOM     15  C   UNL     1       2.220  -6.193   0.035  1.00  0.00     0.000 C 
BRANCH  15  16
ATOM     16  C   UNL     1       1.873  -4.793   0.580  1.00  0.00     0.000 C 
BRANCH  16  17
ATOM     17  C   UNL     1       1.423  -4.793   2.062  1.00  0.00     0.000 C 
BRANCH  17  18
ATOM     18  C   UNL     1       2.593  -4.565   3.037  1.00  0.00     0.000 C 
BRANCH  18  19
ATOM     19  C   UNL     1       3.052  -5.865   3.734  1.00  0.00     0.000 C 
BRANCH  19  20
ATOM     20  C   UNL     1       4.471  -5.745   4.326  1.00  0.00     0.006 C 
BRANCH  20  21
ATOM     21  C   UNL     1       4.495  -5.602   5.857  1.00  0.00     0.053 C 
BRANCH  21  22
ATOM     22  C   UNL     1       4.902  -6.881   6.530  1.00  0.00     0.041 C 
ATOM     23  O   UNL     1       5.626  -7.713   5.917  1.00  0.00    -0.550 OA
ATOM     24  O   UNL     1       4.466  -7.166   7.820  1.00  0.00    -0.550 OA
ENDBRANCH  21  22
ENDBRANCH  20  21
ENDBRANCH  19  20
ENDBRANCH  18  19
ENDBRANCH  17  18
ENDBRANCH  16  17
ENDBRANCH  15  16
ENDBRANCH  14  15
ENDBRANCH  13  14
ENDBRANCH   1  13
TORSDOF 20
ENDMDL
MODEL 8
REMARK VINA RESULT:    -3.217      3.202      7.002
REMARK INTER + INTRA:         -10.945
REMARK INTER:                  -7.087
REMARK INTRA:                  -3.858
REMARK UNBOUND:                -3.967
REMARK SMILES CCCCCCCCCCCCCCCCCCCCCC(=O)[O-]
REMARK SMILES IDX 12 1 11 2 10 3 9 4 8 5 7 6 6 7 5 8 4 9 3 10 2 11 1 12 13 13
REMARK SMILES IDX 14 14 15 15 16 16 17 17 18 18 19 19 20 20 21 21 22 22 23 23
REMARK SMILES IDX 24 24
REMARK H PARENT
REMARK Flexibility Score: inf
ROOT
ATOM      1  C   UNL     1       5.179  -1.674   0.018  1.00  0.00     0.000 C 
ENDROOT
BRANCH   1   2
ATOM      2  C   UNL     1       5.999  -2.035  -1.236  1.00  0.00     0.000 C 
BRANCH   2   3
ATOM      3  C   UNL     1       6.855  -0.863  -1.746  1.00  0.00     0.000 C 
BRANCH   3   4
ATOM      4  C   UNL     1       8.360  -1.178  -1.737  1.00  0.00    -0.000 C 
BRANCH   4   5
ATOM      5  C   UNL     1       9.100  -0.300  -0.718  1.00  0.00    -0.000 C 
BRANCH   5   6
ATOM      6  C   UNL     1       8.175   0.708  -0.010  1.00  0.00    -0.000 C 
BRANCH   6   7
ATOM      7  C   UNL     1       7.879   0.393   1.468  1.00  0.00    -0.000 C 
BRANCH   7   8
ATOM      8  C   UNL     1       9.141   0.023   2.265  1.00  0.00    -0.000 C 
BRANCH   8   9
ATOM      9  C   UNL     1       8.923  -1.258   3.079  1.00  0.00    -0.000 C 
BRANCH   9  10
ATOM     10  C   UNL     1       8.162  -2.311   2.258  1.00  0.00    -0.000 C 
BRANCH  10  11
ATOM     11  C   UNL     1       9.035  -3.518   1.886  1.00  0.00    -0.003 C 
ATOM     12  C   UNL     1       8.834  -3.969   0.440  1.00  0.00     0.004 C 
ENDBRANCH  10  11
ENDBRANCH   9  10
ENDBRANCH   8   9
ENDBRANCH   7   8
ENDBRANCH   6   7
ENDBRANCH   5   6
ENDBRANCH   4   5
ENDBRANCH   3   4
ENDBRANCH   2   3
ENDBRANCH   1   2
BRANCH   1  13
ATOM     13  C   UNL     1       4.667  -2.930   0.755  1.00  0.00     0.000 C 
BRANCH  13  14
ATOM     14  C   UNL     1       4.854  -4.234  -0.036  1.00  0.00     0.000 C 
BRANCH  14  15
ATOM     15  C   UNL     1       5.299  -5.416   0.841  1.00  0.00     0.000 C 
BRANCH  15  16
ATOM     16  C   UNL     1       5.783  -4.978   2.238  1.00  0.00     0.000 C 
BRANCH  16  17
ATOM     17  C   UNL     1       5.168  -5.799   3.399  1.00  0.00     0.000 C 
BRANCH  17  18
ATOM     18  C   UNL     1       3.671  -6.092   3.189  1.00  0.00     0.000 C 
BRANCH  18  19
ATOM     19  C   UNL     1       2.773  -4.875   3.502  1.00  0.00     0.000 C 
BRANCH  19  20
ATOM     20  C   UNL     1       1.821  -4.531   2.339  1.00  0.00     0.006 C 
BRANCH  20  21
ATOM     21  C   UNL     1       1.240  -5.764   1.628  1.00  0.00     0.053 C 
BRANCH  21  22
ATOM     22  C   UNL     1       1.508  -5.734   0.151  1.00  0.00     0.041 C 
ATOM     23  O   UNL     1       1.351  -4.662  -0.497  1.00  0.00    -0.550 OA
ATOM     24  O   UNL     1       1.907  -6.889  -0.515  1.00  0.00    -0.550 OA
ENDBRANCH  21  22
ENDBRANCH  20  21
ENDBRANCH  19  20
ENDBRANCH  18  19
ENDBRANCH  17  18
ENDBRANCH  16  17
ENDBRANCH  15  16
ENDBRANCH  14  15
ENDBRANCH  13  14
ENDBRANCH   1  13
TORSDOF 20
ENDMDL
MODEL 9
REMARK VINA RESULT:    -3.206      3.462      6.668
REMARK INTER + INTRA:         -10.922
REMARK INTER:                  -7.816
REMARK INTRA:                  -3.106
REMARK UNBOUND:                -3.967
REMARK SMILES CCCCCCCCCCCCCCCCCCCCCC(=O)[O-]
REMARK SMILES IDX 12 1 11 2 10 3 9 4 8 5 7 6 6 7 5 8 4 9 3 10 2 11 1 12 13 13
REMARK SMILES IDX 14 14 15 15 16 16 17 17 18 18 19 19 20 20 21 21 22 22 23 23
REMARK SMILES IDX 24 24
REMARK H PARENT
REMARK Flexibility Score: inf
ROOT
ATOM      1  C   UNL     1       5.618  -0.521  -1.887  1.00  0.00     0.000 C 
ENDROOT
BRANCH   1   2
ATOM      2  C   UNL     1       6.845   0.407  -1.802  1.00  0.00     0.000 C 
BRANCH   2   3
ATOM      3  C   UNL     1       7.967  -0.169  -0.922  1.00  0.00     0.000 C 
BRANCH   3   4
ATOM      4  C   UNL     1       8.072   0.530   0.442  1.00  0.00    -0.000 C 
BRANCH   4   5
ATOM      5  C   UNL     1       7.459  -0.334   1.553  1.00  0.00    -0.000 C 
BRANCH   5   6
ATOM      6  C   UNL     1       8.492  -0.781   2.606  1.00  0.00    -0.000 C 
BRANCH   6   7
ATOM      7  C   UNL     1       8.614  -2.305   2.791  1.00  0.00    -0.000 C 
BRANCH   7   8
ATOM      8  C   UNL     1       8.933  -3.043   1.481  1.00  0.00    -0.000 C 
BRANCH   8   9
ATOM      9  C   UNL     1       8.019  -4.261   1.297  1.00  0.00    -0.000 C 
BRANCH   9  10
ATOM     10  C   UNL     1       7.177  -4.513   2.557  1.00  0.00    -0.000 C 
BRANCH  10  11
ATOM     11  C   UNL     1       6.122  -5.611   2.356  1.00  0.00    -0.003 C 
ATOM     12  C   UNL     1       6.268  -6.333   1.018  1.00  0.00     0.004 C 
ENDBRANCH  10  11
ENDBRANCH   9  10
ENDBRANCH   8   9
ENDBRANCH   7   8
ENDBRANCH   6   7
ENDBRANCH   5   6
ENDBRANCH   4   5
ENDBRANCH   3   4
ENDBRANCH   2   3
ENDBRANCH   1   2
BRANCH   1  13
ATOM     13  C   UNL     1       6.011  -1.967  -2.258  1.00  0.00     0.000 C 
BRANCH  13  14
ATOM     14  C   UNL     1       5.608  -3.010  -1.205  1.00  0.00     0.000 C 
BRANCH  14  15
ATOM     15  C   UNL     1       5.238  -2.389   0.152  1.00  0.00     0.000 C 
BRANCH  15  16
ATOM     16  C   UNL     1       4.032  -3.080   0.820  1.00  0.00     0.000 C 
BRANCH  16  17
ATOM     17  C   UNL     1       3.407  -4.211  -0.035  1.00  0.00     0.000 C 
BRANCH  17  18
ATOM     18  C   UNL     1       2.238  -4.915   0.678  1.00  0.00     0.000 C 
BRANCH  18  19
ATOM     19  C   UNL     1       2.125  -4.527   2.169  1.00  0.00     0.000 C 
BRANCH  19  20
ATOM     20  C   UNL     1       0.976  -5.265   2.883  1.00  0.00     0.006 C 
BRANCH  20  21
ATOM     21  C   UNL     1       1.111  -6.796   2.859  1.00  0.00     0.053 C 
BRANCH  21  22
ATOM     22  C   UNL     1       1.957  -7.300   3.992  1.00  0.00     0.041 C 
ATOM     23  O   UNL     1       3.212  -7.174   3.948  1.00  0.00    -0.550 OA
ATOM     24  O   UNL     1       1.367  -7.927   5.085  1.00  0.00    -0.550 OA
ENDBRANCH  21  22
ENDBRANCH  20  21
ENDBRANCH  19  20
ENDBRANCH  18  19
ENDBRANCH  17  18
ENDBRANCH  16  17
ENDBRANCH  15  16
ENDBRANCH  14  15
ENDBRANCH  13  14
ENDBRANCH   1  13
TORSDOF 20
ENDMDL
