MODEL 1
REMARK VINA RESULT:    -5.349      0.000      0.000
REMARK INTER + INTRA:          -5.506
REMARK INTER:                  -5.506
REMARK INTRA:                   0.000
REMARK UNBOUND:                 0.000
REMARK SMILES CC1(C)[C@H]2CC[C@](C)(C2)[C@H]1O
REMARK SMILES IDX 1 1 2 2 4 3 5 4 6 5 7 6 9 7 10 8 8 9 3 10 11 11
REMARK H PARENT 11 12
REMARK Flexibility Score: inf
ROOT
ATOM      1  C   UNL     1     117.901 121.165 120.002  1.00  0.00     0.014 C 
ATOM      2  C   UNL     1     118.908 120.324 119.179  1.00  0.00    -0.006 C 
ATOM      3  C   UNL     1     118.214 119.763 117.890  1.00  0.00    -0.002 C 
ATOM      4  C   UNL     1     119.245 119.148 116.921  1.00  0.00     0.005 C 
ATOM      5  C   UNL     1     119.726 117.902 117.681  1.00  0.00     0.010 C 
ATOM      6  C   UNL     1     118.827 117.904 118.941  1.00  0.00    -0.006 C 
ATOM      7  C   UNL     1     117.546 118.498 118.397  1.00  0.00     0.013 C 
ATOM      8  C   UNL     1     119.287 119.006 119.933  1.00  0.00     0.126 C 
ATOM      9  C   UNL     1     118.647 116.520 119.577  1.00  0.00     0.014 C 
ATOM     10  C   UNL     1     120.127 121.234 118.874  1.00  0.00     0.014 C 
ENDROOT
BRANCH   8  11
ATOM     11  O   UNL     1     120.661 118.916 120.222  1.00  0.00    -0.392 OA
ATOM     12  H   UNL     1     120.735 118.714 121.191  1.00  0.00     0.211 HD
ENDBRANCH   8  11
TORSDOF 1
ENDMDL
MODEL 2
REMARK VINA RESULT:    -5.348      1.474      2.366
REMARK INTER + INTRA:          -5.505
REMARK INTER:                  -5.505
REMARK INTRA:                   0.000
REMARK UNBOUND:                 0.000
REMARK SMILES CC1(C)[C@H]2CC[C@](C)(C2)[C@H]1O
REMARK SMILES IDX 1 1 2 2 4 3 5 4 6 5 7 6 9 7 10 8 8 9 3 10 11 11
REMARK H PARENT 11 12
REMARK Flexibility Score: inf
ROOT
ATOM      1  C   UNL     1     116.458 117.875 120.019  1.00  0.00     0.014 C 
ATOM      2  C   UNL     1     117.292 118.877 119.182  1.00  0.00    -0.006 C 
ATOM      3  C   UNL     1     117.821 118.180 117.881  1.00  0.00    -0.002 C 
ATOM      4  C   UNL     1     118.428 119.207 116.902  1.00  0.00     0.005 C 
ATOM      5  C   UNL     1     119.692 119.675 117.639  1.00  0.00     0.010 C 
ATOM      6  C   UNL     1     119.707 118.773 118.897  1.00  0.00    -0.006 C 
ATOM      7  C   UNL     1     119.090 117.499 118.363  1.00  0.00     0.013 C 
ATOM      8  C   UNL     1     118.628 119.241 119.911  1.00  0.00     0.126 C 
ATOM      9  C   UNL     1     121.100 118.578 119.506  1.00  0.00     0.014 C 
ATOM     10  C   UNL     1     116.388 120.104 118.897  1.00  0.00     0.014 C 
ENDROOT
BRANCH   8  11
ATOM     11  O   UNL     1     118.736 120.613 120.201  1.00  0.00    -0.392 OA
ATOM     12  H   UNL     1     119.372 120.994 119.540  1.00  0.00     0.211 HD
ENDBRANCH   8  11
TORSDOF 1
ENDMDL
MODEL 3
REMARK VINA RESULT:    -5.343      1.458      3.353
REMARK INTER + INTRA:          -5.499
REMARK INTER:                  -5.499
REMARK INTRA:                   0.000
REMARK UNBOUND:                 0.000
REMARK SMILES CC1(C)[C@H]2CC[C@](C)(C2)[C@H]1O
REMARK SMILES IDX 1 1 2 2 4 3 5 4 6 5 7 6 9 7 10 8 8 9 3 10 11 11
REMARK H PARENT 11 12
REMARK Flexibility Score: inf
ROOT
ATOM      1  C   UNL     1     119.724 116.508 120.015  1.00  0.00     0.014 C 
ATOM      2  C   UNL     1     118.702 117.329 119.190  1.00  0.00    -0.006 C 
ATOM      3  C   UNL     1     119.378 117.870 117.883  1.00  0.00    -0.002 C 
ATOM      4  C   UNL     1     118.331 118.462 116.915  1.00  0.00     0.005 C 
ATOM      5  C   UNL     1     117.853 119.719 117.659  1.00  0.00     0.010 C 
ATOM      6  C   UNL     1     118.767 119.745 118.907  1.00  0.00    -0.006 C 
ATOM      7  C   UNL     1     120.045 119.148 118.359  1.00  0.00     0.013 C 
ATOM      8  C   UNL     1     118.325 118.657 119.924  1.00  0.00     0.126 C 
ATOM      9  C   UNL     1     118.947 121.140 119.516  1.00  0.00     0.014 C 
ATOM     10  C   UNL     1     117.485 116.406 118.916  1.00  0.00     0.014 C 
ENDROOT
BRANCH   8  11
ATOM     11  O   UNL     1     116.954 118.745 120.228  1.00  0.00    -0.392 OA
ATOM     12  H   UNL     1     116.474 118.804 119.361  1.00  0.00     0.211 HD
ENDBRANCH   8  11
TORSDOF 1
ENDMDL
MODEL 4
REMARK VINA RESULT:    -5.331      1.468      2.357
REMARK INTER + INTRA:          -5.487
REMARK INTER:                  -5.487
REMARK INTRA:                   0.000
REMARK UNBOUND:                 0.000
REMARK SMILES CC1(C)[C@H]2CC[C@](C)(C2)[C@H]1O
REMARK SMILES IDX 1 1 2 2 4 3 5 4 6 5 7 6 9 7 10 8 8 9 3 10 11 11
REMARK H PARENT 11 12
REMARK Flexibility Score: inf
ROOT
ATOM      1  C   UNL     1     121.144 119.756 120.028  1.00  0.00     0.014 C 
ATOM      2  C   UNL     1     120.322 118.759 119.174  1.00  0.00    -0.006 C 
ATOM      3  C   UNL     1     119.772 119.475 117.893  1.00  0.00    -0.002 C 
ATOM      4  C   UNL     1     119.178 118.458 116.894  1.00  0.00     0.005 C 
ATOM      5  C   UNL     1     117.927 117.950 117.629  1.00  0.00     0.010 C 
ATOM      6  C   UNL     1     117.905 118.823 118.907  1.00  0.00    -0.006 C 
ATOM      7  C   UNL     1     118.493 120.121 118.398  1.00  0.00     0.013 C 
ATOM      8  C   UNL     1     118.999 118.352 119.903  1.00  0.00     0.126 C 
ATOM      9  C   UNL     1     116.512 118.977 119.529  1.00  0.00     0.014 C 
ATOM     10  C   UNL     1     121.248 117.555 118.855  1.00  0.00     0.014 C 
ENDROOT
BRANCH   8  11
ATOM     11  O   UNL     1     118.919 116.972 120.162  1.00  0.00    -0.392 OA
ATOM     12  H   UNL     1     118.488 116.874 121.051  1.00  0.00     0.211 HD
ENDBRANCH   8  11
TORSDOF 1
ENDMDL
MODEL 5
REMARK VINA RESULT:    -5.025      1.644      2.830
REMARK INTER + INTRA:          -5.172
REMARK INTER:                  -5.172
REMARK INTRA:                   0.000
REMARK UNBOUND:                 0.000
REMARK SMILES CC1(C)[C@H]2CC[C@](C)(C2)[C@H]1O
REMARK SMILES IDX 1 1 2 2 4 3 5 4 6 5 7 6 9 7 10 8 8 9 3 10 11 11
REMARK H PARENT 11 12
REMARK Flexibility Score: inf
ROOT
ATOM      1  C   UNL     1     119.855 120.921 119.907  1.00  0.00     0.014 C 
ATOM      2  C   UNL     1     118.852 119.790 119.571  1.00  0.00    -0.006 C 
ATOM      3  C   UNL     1     119.603 118.417 119.474  1.00  0.00    -0.002 C 
ATOM      4  C   UNL     1     118.608 117.239 119.403  1.00  0.00     0.005 C 
ATOM      5  C   UNL     1     117.955 117.427 118.025  1.00  0.00     0.010 C 
ATOM      6  C   UNL     1     118.738 118.625 117.437  1.00  0.00    -0.006 C 
ATOM      7  C   UNL     1     120.109 118.417 118.042  1.00  0.00     0.013 C 
ATOM      8  C   UNL     1     118.293 119.949 118.118  1.00  0.00     0.126 C 
ATOM      9  C   UNL     1     118.739 118.675 115.905  1.00  0.00     0.014 C 
ATOM     10  C   UNL     1     117.750 119.812 120.662  1.00  0.00     0.014 C 
ENDROOT
BRANCH   8  11
ATOM     11  O   UNL     1     116.898 120.117 118.083  1.00  0.00    -0.392 OA
ATOM     12  H   UNL     1     116.676 120.470 117.182  1.00  0.00     0.211 HD
ENDBRANCH   8  11
TORSDOF 1
ENDMDL
MODEL 6
REMARK VINA RESULT:    -5.014      1.699      2.834
REMARK INTER + INTRA:          -5.160
REMARK INTER:                  -5.160
REMARK INTRA:                   0.000
REMARK UNBOUND:                 0.000
REMARK SMILES CC1(C)[C@H]2CC[C@](C)(C2)[C@H]1O
REMARK SMILES IDX 1 1 2 2 4 3 5 4 6 5 7 6 9 7 10 8 8 9 3 10 11 11
REMARK H PARENT 11 12
REMARK Flexibility Score: inf
ROOT
ATOM      1  C   UNL     1     116.843 119.882 120.061  1.00  0.00     0.014 C 
ATOM      2  C   UNL     1     117.964 118.888 119.666  1.00  0.00    -0.006 C 
ATOM      3  C   UNL     1     119.325 119.649 119.502  1.00  0.00    -0.002 C 
ATOM      4  C   UNL     1     120.506 118.664 119.370  1.00  0.00     0.005 C 
ATOM      5  C   UNL     1     120.253 118.011 118.003  1.00  0.00     0.010 C 
ATOM      6  C   UNL     1     119.021 118.786 117.477  1.00  0.00    -0.006 C 
ATOM      7  C   UNL     1     119.250 120.158 118.073  1.00  0.00     0.013 C 
ATOM      8  C   UNL     1     117.737 118.331 118.223  1.00  0.00     0.126 C 
ATOM      9  C   UNL     1     118.894 118.788 115.949  1.00  0.00     0.014 C 
ATOM     10  C   UNL     1     118.005 117.785 120.756  1.00  0.00     0.014 C 
ENDROOT
BRANCH   8  11
ATOM     11  O   UNL     1     117.577 116.934 118.194  1.00  0.00    -0.392 OA
ATOM     12  H   UNL     1     116.602 116.757 118.255  1.00  0.00     0.211 HD
ENDBRANCH   8  11
TORSDOF 1
ENDMDL
MODEL 7
REMARK VINA RESULT:    -4.995      1.624      2.888
REMARK INTER + INTRA:          -5.141
REMARK INTER:                  -5.141
REMARK INTRA:                   0.000
REMARK UNBOUND:                 0.000
REMARK SMILES CC1(C)[C@H]2CC[C@](C)(C2)[C@H]1O
REMARK SMILES IDX 1 1 2 2 4 3 5 4 6 5 7 6 9 7 10 8 8 9 3 10 11 11
REMARK H PARENT 11 12
REMARK Flexibility Score: inf
ROOT
ATOM      1  C   UNL     1     120.698 117.479 119.849  1.00  0.00     0.014 C 
ATOM      2  C   UNL     1     119.641 118.565 119.526  1.00  0.00    -0.006 C 
ATOM      3  C   UNL     1     118.231 117.905 119.340  1.00  0.00    -0.002 C 
ATOM      4  C   UNL     1     117.117 118.971 119.280  1.00  0.00     0.005 C 
ATOM      5  C   UNL     1     117.397 119.683 117.948  1.00  0.00     0.010 C 
ATOM      6  C   UNL     1     118.570 118.860 117.362  1.00  0.00    -0.006 C 
ATOM      7  C   UNL     1     118.257 117.474 117.884  1.00  0.00     0.013 C 
ATOM      8  C   UNL     1     119.889 119.187 118.113  1.00  0.00     0.126 C 
ATOM      9  C   UNL     1     118.679 118.935 115.835  1.00  0.00     0.014 C 
ATOM     10  C   UNL     1     119.685 119.606 120.676  1.00  0.00     0.014 C 
ENDROOT
BRANCH   8  11
ATOM     11  O   UNL     1     120.140 120.570 118.159  1.00  0.00    -0.392 OA
ATOM     12  H   UNL     1     119.581 120.985 117.452  1.00  0.00     0.211 HD
ENDBRANCH   8  11
TORSDOF 1
ENDMDL
MODEL 8
REMARK VINA RESULT:    -4.840      1.555      2.591
REMARK INTER + INTRA:          -4.982
REMARK INTER:                  -4.982
REMARK INTRA:                   0.000
REMARK UNBOUND:                 0.000
REMARK SMILES CC1(C)[C@H]2CC[C@](C)(C2)[C@H]1O
REMARK SMILES IDX 1 1 2 2 4 3 5 4 6 5 7 6 9 7 10 8 8 9 3 10 11 11
REMARK H PARENT 11 12
REMARK Flexibility Score: inf
ROOT
ATOM      1  C   UNL     1     120.647 121.904 118.577  1.00  0.00     0.014 C 
ATOM      2  C   UNL     1     120.051 120.701 119.350  1.00  0.00    -0.006 C 
ATOM      3  C   UNL     1     119.829 119.493 118.374  1.00  0.00    -0.002 C 
ATOM      4  C   UNL     1     119.489 118.202 119.149  1.00  0.00     0.005 C 
ATOM      5  C   UNL     1     118.097 118.506 119.723  1.00  0.00     0.010 C 
ATOM      6  C   UNL     1     117.770 119.889 119.111  1.00  0.00    -0.006 C 
ATOM      7  C   UNL     1     118.469 119.800 117.772  1.00  0.00     0.013 C 
ATOM      8  C   UNL     1     118.590 121.002 119.819  1.00  0.00     0.126 C 
ATOM      9  C   UNL     1     116.269 120.184 119.007  1.00  0.00     0.014 C 
ATOM     10  C   UNL     1     121.022 120.377 120.516  1.00  0.00     0.014 C 
ENDROOT
BRANCH   8  11
ATOM     11  O   UNL     1     118.444 120.956 121.217  1.00  0.00    -0.392 OA
ATOM     12  H   UNL     1     119.344 120.773 121.592  1.00  0.00     0.211 HD
ENDBRANCH   8  11
TORSDOF 1
ENDMDL
MODEL 9
REMARK VINA RESULT:    -4.639      1.645      3.325
REMARK INTER + INTRA:          -4.774
REMARK INTER:                  -4.774
REMARK INTRA:                   0.000
REMARK UNBOUND:                 0.000
REMARK SMILES CC1(C)[C@H]2CC[C@](C)(C2)[C@H]1O
REMARK SMILES IDX 1 1 2 2 4 3 5 4 6 5 7 6 9 7 10 8 8 9 3 10 11 11
REMARK H PARENT 11 12
REMARK Flexibility Score: inf
ROOT
ATOM      1  C   UNL     1     120.870 117.634 118.851  1.00  0.00     0.014 C 
ATOM      2  C   UNL     1     119.561 117.650 119.679  1.00  0.00    -0.006 C 
ATOM      3  C   UNL     1     118.452 116.816 118.949  1.00  0.00    -0.002 C 
ATOM      4  C   UNL     1     117.228 116.590 119.862  1.00  0.00     0.005 C 
ATOM      5  C   UNL     1     116.636 118.002 119.993  1.00  0.00     0.010 C 
ATOM      6  C   UNL     1     117.533 118.837 119.047  1.00  0.00    -0.006 C 
ATOM      7  C   UNL     1     117.868 117.823 117.975  1.00  0.00     0.013 C 
ATOM      8  C   UNL     1     118.924 119.079 119.694  1.00  0.00     0.126 C 
ATOM      9  C   UNL     1     116.859 120.105 118.511  1.00  0.00     0.014 C 
ATOM     10  C   UNL     1     119.904 117.111 121.093  1.00  0.00     0.014 C 
ENDROOT
BRANCH   8  11
ATOM     11  O   UNL     1     118.816 119.617 120.989  1.00  0.00    -0.392 OA
ATOM     12  H   UNL     1     117.851 119.610 121.221  1.00  0.00     0.211 HD
ENDBRANCH   8  11
TORSDOF 1
ENDMDL
