MODEL 1
REMARK VINA RESULT:    -5.717      0.000      0.000
REMARK INTER + INTRA:          -6.470
REMARK INTER:                  -6.218
REMARK INTRA:                  -0.252
REMARK UNBOUND:                -0.252
REMARK SMILES C[C@@H]1[C@@H](C)CC[C@@]2(C(=O)[O-])CC[C@@]3(C)C(=CC[C@@H]4[C@@]5(C)CC[C@@H](O)C(C)(C)[C@H]5CC[C@@]43C)[C@@H]12
REMARK SMILES IDX 7 1 6 2 11 3 33 4 5 5 12 6 15 7 2 8 3 9 13 10 16 11 1 12
REMARK SMILES IDX 4 13 14 14 31 15 17 16 18 17 30 18 32 19 19 20 29 21 28 22
REMARK SMILES IDX 21 23 20 24 25 25 22 26 23 27 26 28 27 29 8 30 9 31 10 32
REMARK SMILES IDX 24 33
REMARK H PARENT 24 34
REMARK Flexibility Score: inf
ROOT
ATOM      1  C   UNL     1       2.421   3.047   0.630  1.00  0.00     0.017 C 
ATOM      2  C   UNL     1       3.051   2.047   1.651  1.00  0.00     0.014 C 
ATOM      3  C   UNL     1       0.891   3.191   0.968  1.00  0.00     0.014 C 
ATOM      4  C   UNL     1       3.197   4.432   0.667  1.00  0.00     0.030 C 
ATOM      5  C   UNL     1       4.567   2.199   1.732  1.00  0.00     0.004 C 
ATOM      6  C   UNL     1       0.460   4.537   1.578  1.00  0.00     0.013 C 
ATOM      7  C   UNL     1       2.311   5.600   0.224  1.00  0.00    -0.063 C 
ATOM      8  C   UNL     1       3.927   4.699   2.024  1.00  0.00    -0.003 C 
ATOM      9  C   UNL     1       4.952   3.561   2.355  1.00  0.00    -0.011 C 
ATOM     10  C   UNL     1       0.925   5.835   0.818  1.00  0.00    -0.006 C 
ATOM     11  C   UNL     1       2.807   6.504  -0.641  1.00  0.00    -0.027 C 
ATOM     12  C   UNL     1       4.661   6.059   2.019  1.00  0.00     0.008 C 
ATOM     13  C   UNL     1       5.144   3.418   3.875  1.00  0.00     0.008 C 
ATOM     14  C   UNL     1       1.105   6.900   1.949  1.00  0.00     0.017 C 
ATOM     15  C   UNL     1      -0.106   6.315  -0.364  1.00  0.00    -0.020 C 
ATOM     16  C   UNL     1       2.000   7.684  -1.104  1.00  0.00     0.032 C 
ATOM     17  C   UNL     1       0.559   7.257  -1.489  1.00  0.00     0.006 C 
ATOM     18  C   UNL     1      -1.357   7.019   0.243  1.00  0.00     0.008 C 
ATOM     19  C   UNL     1      -0.620   5.052  -1.120  1.00  0.00     0.012 C 
ATOM     20  C   UNL     1      -0.354   8.452  -2.097  1.00  0.00    -0.025 C 
ATOM     21  C   UNL     1      -1.190   8.540   0.369  1.00  0.00     0.005 C 
ATOM     22  C   UNL     1      -1.183   9.254  -0.999  1.00  0.00     0.003 C 
ATOM     23  C   UNL     1      -1.344   7.863  -3.145  1.00  0.00     0.010 C 
ATOM     24  C   UNL     1       0.580   9.433  -2.883  1.00  0.00     0.012 C 
ATOM     25  C   UNL     1      -2.631   9.796  -1.432  1.00  0.00    -0.006 C 
ATOM     26  C   UNL     1      -2.238   8.903  -3.851  1.00  0.00     0.033 C 
ATOM     27  C   UNL     1      -2.650  10.107  -2.961  1.00  0.00     0.120 C 
ATOM     28  C   UNL     1      -2.902  11.124  -0.675  1.00  0.00     0.014 C 
ATOM     29  C   UNL     1      -3.813   8.840  -1.088  1.00  0.00     0.014 C 
ENDROOT
BRANCH   1  30
ATOM     30  C   UNL     1       2.542   2.404  -0.760  1.00  0.00     0.048 C 
ATOM     31  O   UNL     1       1.744   1.489  -1.105  1.00  0.00    -0.550 OA
ATOM     32  O   UNL     1       3.581   2.734  -1.630  1.00  0.00    -0.550 OA
ENDBRANCH   1  30
BRANCH  27  33
ATOM     33  O   UNL     1      -3.882  10.649  -3.383  1.00  0.00    -0.393 OA
ATOM     34  H   UNL     1      -3.706  11.440  -3.954  1.00  0.00     0.210 HD
ENDBRANCH  27  33
TORSDOF 2
ENDMDL
MODEL 2
REMARK VINA RESULT:    -5.115      4.428      6.977
REMARK INTER + INTRA:          -5.816
REMARK INTER:                  -5.815
REMARK INTRA:                  -0.001
REMARK UNBOUND:                -0.252
REMARK SMILES C[C@@H]1[C@@H](C)CC[C@@]2(C(=O)[O-])CC[C@@]3(C)C(=CC[C@@H]4[C@@]5(C)CC[C@@H](O)C(C)(C)[C@H]5CC[C@@]43C)[C@@H]12
REMARK SMILES IDX 7 1 6 2 11 3 33 4 5 5 12 6 15 7 2 8 3 9 13 10 16 11 1 12
REMARK SMILES IDX 4 13 14 14 31 15 17 16 18 17 30 18 32 19 19 20 29 21 28 22
REMARK SMILES IDX 21 23 20 24 25 25 22 26 23 27 26 28 27 29 8 30 9 31 10 32
REMARK SMILES IDX 24 33
REMARK H PARENT 24 34
REMARK Flexibility Score: inf
ROOT
ATOM      1  C   UNL     1       2.044   3.234   0.099  1.00  0.00     0.017 C 
ATOM      2  C   UNL     1       3.419   3.975   0.120  1.00  0.00     0.014 C 
ATOM      3  C   UNL     1       1.887   2.455   1.456  1.00  0.00     0.014 C 
ATOM      4  C   UNL     1       0.867   4.267  -0.163  1.00  0.00     0.030 C 
ATOM      5  C   UNL     1       3.465   5.116  -0.891  1.00  0.00     0.004 C 
ATOM      6  C   UNL     1       0.845   3.018   2.439  1.00  0.00     0.013 C 
ATOM      7  C   UNL     1      -0.465   3.781   0.417  1.00  0.00    -0.063 C 
ATOM      8  C   UNL     1       1.220   5.731   0.261  1.00  0.00    -0.003 C 
ATOM      9  C   UNL     1       2.495   6.251  -0.487  1.00  0.00    -0.011 C 
ATOM     10  C   UNL     1      -0.591   3.297   1.857  1.00  0.00    -0.006 C 
ATOM     11  C   UNL     1      -1.577   3.878  -0.335  1.00  0.00    -0.027 C 
ATOM     12  C   UNL     1       0.046   6.700  -0.002  1.00  0.00     0.008 C 
ATOM     13  C   UNL     1       3.232   7.309   0.353  1.00  0.00     0.008 C 
ATOM     14  C   UNL     1      -1.113   4.515   2.688  1.00  0.00     0.017 C 
ATOM     15  C   UNL     1      -1.592   1.998   1.916  1.00  0.00    -0.020 C 
ATOM     16  C   UNL     1      -2.919   3.437   0.176  1.00  0.00     0.032 C 
ATOM     17  C   UNL     1      -2.823   2.056   0.877  1.00  0.00     0.006 C 
ATOM     18  C   UNL     1      -2.130   1.776   3.361  1.00  0.00     0.008 C 
ATOM     19  C   UNL     1      -0.778   0.724   1.535  1.00  0.00     0.012 C 
ATOM     20  C   UNL     1      -4.245   1.455   1.372  1.00  0.00    -0.025 C 
ATOM     21  C   UNL     1      -3.460   2.498   3.627  1.00  0.00     0.005 C 
ATOM     22  C   UNL     1      -4.641   1.871   2.857  1.00  0.00     0.003 C 
ATOM     23  C   UNL     1      -4.211  -0.099   1.277  1.00  0.00     0.010 C 
ATOM     24  C   UNL     1      -5.353   1.928   0.372  1.00  0.00     0.012 C 
ATOM     25  C   UNL     1      -5.452   0.791   3.725  1.00  0.00    -0.006 C 
ATOM     26  C   UNL     1      -5.527  -0.805   1.662  1.00  0.00     0.033 C 
ATOM     27  C   UNL     1      -6.330  -0.098   2.788  1.00  0.00     0.120 C 
ATOM     28  C   UNL     1      -6.405   1.551   4.686  1.00  0.00     0.014 C 
ATOM     29  C   UNL     1      -4.563  -0.128   4.617  1.00  0.00     0.014 C 
ENDROOT
BRANCH   1  30
ATOM     30  C   UNL     1       2.109   2.202  -1.037  1.00  0.00     0.048 C 
ATOM     31  O   UNL     1       1.249   1.280  -1.104  1.00  0.00    -0.550 OA
ATOM     32  O   UNL     1       3.158   2.191  -1.956  1.00  0.00    -0.550 OA
ENDBRANCH   1  30
BRANCH  27  33
ATOM     33  O   UNL     1      -7.114  -1.023   3.507  1.00  0.00    -0.393 OA
ATOM     34  H   UNL     1      -6.629  -1.886   3.556  1.00  0.00     0.210 HD
ENDBRANCH  27  33
TORSDOF 2
ENDMDL
MODEL 3
REMARK VINA RESULT:    -5.056      3.785      6.273
REMARK INTER + INTRA:          -5.752
REMARK INTER:                  -5.782
REMARK INTRA:                   0.030
REMARK UNBOUND:                -0.252
REMARK SMILES C[C@@H]1[C@@H](C)CC[C@@]2(C(=O)[O-])CC[C@@]3(C)C(=CC[C@@H]4[C@@]5(C)CC[C@@H](O)C(C)(C)[C@H]5CC[C@@]43C)[C@@H]12
REMARK SMILES IDX 7 1 6 2 11 3 33 4 5 5 12 6 15 7 2 8 3 9 13 10 16 11 1 12
REMARK SMILES IDX 4 13 14 14 31 15 17 16 18 17 30 18 32 19 19 20 29 21 28 22
REMARK SMILES IDX 21 23 20 24 25 25 22 26 23 27 26 28 27 29 8 30 9 31 10 32
REMARK SMILES IDX 24 33
REMARK H PARENT 24 34
REMARK Flexibility Score: inf
ROOT
ATOM      1  C   UNL     1       1.356   3.093  -0.168  1.00  0.00     0.017 C 
ATOM      2  C   UNL     1       0.006   2.311  -0.240  1.00  0.00     0.014 C 
ATOM      3  C   UNL     1       1.096   4.564  -0.659  1.00  0.00     0.014 C 
ATOM      4  C   UNL     1       1.952   3.026   1.302  1.00  0.00     0.030 C 
ATOM      5  C   UNL     1       0.024   1.066   0.643  1.00  0.00     0.004 C 
ATOM      6  C   UNL     1       1.142   5.655   0.426  1.00  0.00     0.013 C 
ATOM      7  C   UNL     1       2.856   4.224   1.612  1.00  0.00    -0.063 C 
ATOM      8  C   UNL     1       0.867   2.779   2.402  1.00  0.00    -0.003 C 
ATOM      9  C   UNL     1       0.079   1.451   2.140  1.00  0.00    -0.011 C 
ATOM     10  C   UNL     1       2.409   5.661   1.363  1.00  0.00    -0.006 C 
ATOM     11  C   UNL     1       4.040   4.009   2.214  1.00  0.00    -0.027 C 
ATOM     12  C   UNL     1       1.489   2.731   3.816  1.00  0.00     0.008 C 
ATOM     13  C   UNL     1      -1.342   1.530   2.723  1.00  0.00     0.008 C 
ATOM     14  C   UNL     1       1.873   6.199   2.730  1.00  0.00     0.017 C 
ATOM     15  C   UNL     1       3.665   6.534   0.772  1.00  0.00    -0.020 C 
ATOM     16  C   UNL     1       4.969   5.138   2.562  1.00  0.00     0.032 C 
ATOM     17  C   UNL     1       5.102   6.135   1.381  1.00  0.00     0.006 C 
ATOM     18  C   UNL     1       3.417   8.061   0.958  1.00  0.00     0.008 C 
ATOM     19  C   UNL     1       3.771   6.278  -0.763  1.00  0.00     0.012 C 
ATOM     20  C   UNL     1       6.165   7.334   1.632  1.00  0.00    -0.025 C 
ATOM     21  C   UNL     1       3.984   8.606   2.277  1.00  0.00     0.005 C 
ATOM     22  C   UNL     1       5.527   8.634   2.295  1.00  0.00     0.003 C 
ATOM     23  C   UNL     1       6.826   7.730   0.279  1.00  0.00     0.010 C 
ATOM     24  C   UNL     1       7.319   6.785   2.537  1.00  0.00     0.012 C 
ATOM     25  C   UNL     1       6.134  10.051   1.848  1.00  0.00    -0.006 C 
ATOM     26  C   UNL     1       7.907   8.825   0.380  1.00  0.00     0.033 C 
ATOM     27  C   UNL     1       7.642   9.894   1.475  1.00  0.00     0.120 C 
ATOM     28  C   UNL     1       6.045  11.024   3.055  1.00  0.00     0.014 C 
ATOM     29  C   UNL     1       5.383  10.738   0.668  1.00  0.00     0.014 C 
ENDROOT
BRANCH   1  30
ATOM     30  C   UNL     1       2.316   2.422  -1.162  1.00  0.00     0.048 C 
ATOM     31  O   UNL     1       1.982   1.348  -1.735  1.00  0.00    -0.550 OA
ATOM     32  O   UNL     1       3.601   2.915  -1.385  1.00  0.00    -0.550 OA
ENDBRANCH   1  30
BRANCH  27  33
ATOM     33  O   UNL     1       8.242  11.124   1.137  1.00  0.00    -0.393 OA
ATOM     34  H   UNL     1       9.040  11.260   1.709  1.00  0.00     0.210 HD
ENDBRANCH  27  33
TORSDOF 2
ENDMDL
MODEL 4
REMARK VINA RESULT:    -4.943      4.228      7.943
REMARK INTER + INTRA:          -5.628
REMARK INTER:                  -5.422
REMARK INTRA:                  -0.206
REMARK UNBOUND:                -0.252
REMARK SMILES C[C@@H]1[C@@H](C)CC[C@@]2(C(=O)[O-])CC[C@@]3(C)C(=CC[C@@H]4[C@@]5(C)CC[C@@H](O)C(C)(C)[C@H]5CC[C@@]43C)[C@@H]12
REMARK SMILES IDX 7 1 6 2 11 3 33 4 5 5 12 6 15 7 2 8 3 9 13 10 16 11 1 12
REMARK SMILES IDX 4 13 14 14 31 15 17 16 18 17 30 18 32 19 19 20 29 21 28 22
REMARK SMILES IDX 21 23 20 24 25 25 22 26 23 27 26 28 27 29 8 30 9 31 10 32
REMARK SMILES IDX 24 33
REMARK H PARENT 24 34
REMARK Flexibility Score: inf
ROOT
ATOM      1  C   UNL     1       2.646   3.935   0.776  1.00  0.00     0.017 C 
ATOM      2  C   UNL     1       3.476   5.249   0.623  1.00  0.00     0.014 C 
ATOM      3  C   UNL     1       2.446   3.660   2.312  1.00  0.00     0.014 C 
ATOM      4  C   UNL     1       1.275   4.054  -0.016  1.00  0.00     0.030 C 
ATOM      5  C   UNL     1       3.317   5.861  -0.766  1.00  0.00     0.004 C 
ATOM      6  C   UNL     1       1.020   3.867   2.853  1.00  0.00     0.013 C 
ATOM      7  C   UNL     1       0.187   3.153   0.576  1.00  0.00    -0.063 C 
ATOM      8  C   UNL     1       0.801   5.532  -0.217  1.00  0.00    -0.003 C 
ATOM      9  C   UNL     1       1.876   6.378  -0.981  1.00  0.00    -0.011 C 
ATOM     10  C   UNL     1      -0.142   3.153   2.066  1.00  0.00    -0.006 C 
ATOM     11  C   UNL     1      -0.569   2.411  -0.254  1.00  0.00    -0.027 C 
ATOM     12  C   UNL     1      -0.539   5.601  -0.983  1.00  0.00     0.008 C 
ATOM     13  C   UNL     1       1.780   7.865  -0.597  1.00  0.00     0.008 C 
ATOM     14  C   UNL     1      -1.370   4.104   2.245  1.00  0.00     0.017 C 
ATOM     15  C   UNL     1      -0.435   1.618   2.566  1.00  0.00    -0.020 C 
ATOM     16  C   UNL     1      -1.664   1.517   0.255  1.00  0.00     0.032 C 
ATOM     17  C   UNL     1      -1.186   0.694   1.481  1.00  0.00     0.006 C 
ATOM     18  C   UNL     1      -1.228   1.612   3.906  1.00  0.00     0.008 C 
ATOM     19  C   UNL     1       0.930   0.917   2.844  1.00  0.00     0.012 C 
ATOM     20  C   UNL     1      -2.274  -0.373   2.036  1.00  0.00    -0.025 C 
ATOM     21  C   UNL     1      -2.750   1.570   3.705  1.00  0.00     0.005 C 
ATOM     22  C   UNL     1      -3.240   0.214   3.157  1.00  0.00     0.003 C 
ATOM     23  C   UNL     1      -1.532  -1.616   2.611  1.00  0.00     0.010 C 
ATOM     24  C   UNL     1      -3.117  -0.892   0.822  1.00  0.00     0.012 C 
ATOM     25  C   UNL     1      -3.713  -0.796   4.313  1.00  0.00    -0.006 C 
ATOM     26  C   UNL     1      -2.451  -2.744   3.122  1.00  0.00     0.033 C 
ATOM     27  C   UNL     1      -3.781  -2.253   3.756  1.00  0.00     0.120 C 
ATOM     28  C   UNL     1      -5.144  -0.393   4.760  1.00  0.00     0.014 C 
ATOM     29  C   UNL     1      -2.826  -0.778   5.595  1.00  0.00     0.014 C 
ENDROOT
BRANCH   1  30
ATOM     30  C   UNL     1       3.498   2.796   0.197  1.00  0.00     0.048 C 
ATOM     31  O   UNL     1       4.275   2.142   0.948  1.00  0.00    -0.550 OA
ATOM     32  O   UNL     1       3.517   2.519  -1.170  1.00  0.00    -0.550 OA
ENDBRANCH   1  30
BRANCH  27  33
ATOM     33  O   UNL     1      -4.254  -3.172   4.714  1.00  0.00    -0.393 OA
ATOM     34  H   UNL     1      -4.160  -2.772   5.616  1.00  0.00     0.210 HD
ENDBRANCH  27  33
TORSDOF 2
ENDMDL
MODEL 5
REMARK VINA RESULT:    -4.833      3.690      6.214
REMARK INTER + INTRA:          -5.509
REMARK INTER:                  -5.377
REMARK INTRA:                  -0.132
REMARK UNBOUND:                -0.252
REMARK SMILES C[C@@H]1[C@@H](C)CC[C@@]2(C(=O)[O-])CC[C@@]3(C)C(=CC[C@@H]4[C@@]5(C)CC[C@@H](O)C(C)(C)[C@H]5CC[C@@]43C)[C@@H]12
REMARK SMILES IDX 7 1 6 2 11 3 33 4 5 5 12 6 15 7 2 8 3 9 13 10 16 11 1 12
REMARK SMILES IDX 4 13 14 14 31 15 17 16 18 17 30 18 32 19 19 20 29 21 28 22
REMARK SMILES IDX 21 23 20 24 25 25 22 26 23 27 26 28 27 29 8 30 9 31 10 32
REMARK SMILES IDX 24 33
REMARK H PARENT 24 34
REMARK Flexibility Score: inf
ROOT
ATOM      1  C   UNL     1       4.729   7.624   1.519  1.00  0.00     0.017 C 
ATOM      2  C   UNL     1       5.464   9.001   1.456  1.00  0.00     0.014 C 
ATOM      3  C   UNL     1       3.328   7.849   2.196  1.00  0.00     0.014 C 
ATOM      4  C   UNL     1       4.622   6.990   0.067  1.00  0.00     0.030 C 
ATOM      5  C   UNL     1       6.580   9.000   0.416  1.00  0.00     0.004 C 
ATOM      6  C   UNL     1       2.105   7.736   1.268  1.00  0.00     0.013 C 
ATOM      7  C   UNL     1       3.427   6.039  -0.059  1.00  0.00    -0.063 C 
ATOM      8  C   UNL     1       4.681   8.053  -1.080  1.00  0.00    -0.003 C 
ATOM      9  C   UNL     1       6.002   8.891  -1.015  1.00  0.00    -0.011 C 
ATOM     10  C   UNL     1       2.021   6.445   0.370  1.00  0.00    -0.006 C 
ATOM     11  C   UNL     1       3.604   4.847  -0.658  1.00  0.00    -0.027 C 
ATOM     12  C   UNL     1       4.564   7.395  -2.473  1.00  0.00     0.008 C 
ATOM     13  C   UNL     1       5.795  10.293  -1.615  1.00  0.00     0.008 C 
ATOM     14  C   UNL     1       1.287   6.925  -0.926  1.00  0.00     0.017 C 
ATOM     15  C   UNL     1       1.280   5.177   1.100  1.00  0.00    -0.020 C 
ATOM     16  C   UNL     1       2.474   3.872  -0.831  1.00  0.00     0.032 C 
ATOM     17  C   UNL     1       1.648   3.738   0.476  1.00  0.00     0.006 C 
ATOM     18  C   UNL     1      -0.266   5.369   1.113  1.00  0.00     0.008 C 
ATOM     19  C   UNL     1       1.742   5.121   2.589  1.00  0.00     0.012 C 
ATOM     20  C   UNL     1       0.466   2.630   0.411  1.00  0.00    -0.025 C 
ATOM     21  C   UNL     1      -0.960   4.748  -0.108  1.00  0.00     0.005 C 
ATOM     22  C   UNL     1      -0.933   3.205  -0.087  1.00  0.00     0.003 C 
ATOM     23  C   UNL     1       0.277   1.992   1.819  1.00  0.00     0.010 C 
ATOM     24  C   UNL     1       0.931   1.470  -0.533  1.00  0.00     0.012 C 
ATOM     25  C   UNL     1      -2.256   2.564   0.559  1.00  0.00    -0.006 C 
ATOM     26  C   UNL     1      -0.782   0.873   1.890  1.00  0.00     0.033 C 
ATOM     27  C   UNL     1      -1.995   1.073   0.942  1.00  0.00     0.120 C 
ATOM     28  C   UNL     1      -3.383   2.588  -0.509  1.00  0.00     0.014 C 
ATOM     29  C   UNL     1      -2.807   3.324   1.803  1.00  0.00     0.014 C 
ENDROOT
BRANCH   1  30
ATOM     30  C   UNL     1       5.560   6.715   2.437  1.00  0.00     0.048 C 
ATOM     31  O   UNL     1       5.408   5.462   2.391  1.00  0.00    -0.550 OA
ATOM     32  O   UNL     1       6.420   7.238   3.401  1.00  0.00    -0.550 OA
ENDBRANCH   1  30
BRANCH  27  33
ATOM     33  O   UNL     1      -3.147   0.441   1.454  1.00  0.00    -0.393 OA
ATOM     34  H   UNL     1      -3.316   0.778   2.371  1.00  0.00     0.210 HD
ENDBRANCH  27  33
TORSDOF 2
ENDMDL
MODEL 6
REMARK VINA RESULT:    -4.646      1.690      8.046
REMARK INTER + INTRA:          -5.306
REMARK INTER:                  -5.072
REMARK INTRA:                  -0.234
REMARK UNBOUND:                -0.252
REMARK SMILES C[C@@H]1[C@@H](C)CC[C@@]2(C(=O)[O-])CC[C@@]3(C)C(=CC[C@@H]4[C@@]5(C)CC[C@@H](O)C(C)(C)[C@H]5CC[C@@]43C)[C@@H]12
REMARK SMILES IDX 7 1 6 2 11 3 33 4 5 5 12 6 15 7 2 8 3 9 13 10 16 11 1 12
REMARK SMILES IDX 4 13 14 14 31 15 17 16 18 17 30 18 32 19 19 20 29 21 28 22
REMARK SMILES IDX 21 23 20 24 25 25 22 26 23 27 26 28 27 29 8 30 9 31 10 32
REMARK SMILES IDX 24 33
REMARK H PARENT 24 34
REMARK Flexibility Score: inf
ROOT
ATOM      1  C   UNL     1      -1.499   9.633  -2.455  1.00  0.00     0.017 C 
ATOM      2  C   UNL     1      -2.296  10.969  -2.596  1.00  0.00     0.014 C 
ATOM      3  C   UNL     1      -0.219   9.918  -1.587  1.00  0.00     0.014 C 
ATOM      4  C   UNL     1      -2.428   8.502  -1.839  1.00  0.00     0.030 C 
ATOM      5  C   UNL     1      -3.752  10.723  -2.984  1.00  0.00     0.004 C 
ATOM      6  C   UNL     1      -0.222   9.322  -0.168  1.00  0.00     0.013 C 
ATOM      7  C   UNL     1      -1.617   7.432  -1.100  1.00  0.00    -0.063 C 
ATOM      8  C   UNL     1      -3.614   9.066  -0.989  1.00  0.00    -0.003 C 
ATOM      9  C   UNL     1      -4.518  10.025  -1.836  1.00  0.00    -0.011 C 
ATOM     10  C   UNL     1      -0.572   7.791  -0.048  1.00  0.00    -0.006 C 
ATOM     11  C   UNL     1      -1.905   6.134  -1.310  1.00  0.00    -0.027 C 
ATOM     12  C   UNL     1      -4.484   7.933  -0.402  1.00  0.00     0.008 C 
ATOM     13  C   UNL     1      -5.203  11.071  -0.938  1.00  0.00     0.008 C 
ATOM     14  C   UNL     1      -1.283   7.666   1.339  1.00  0.00     0.017 C 
ATOM     15  C   UNL     1       0.726   6.801  -0.201  1.00  0.00    -0.020 C 
ATOM     16  C   UNL     1      -1.164   5.033  -0.607  1.00  0.00     0.032 C 
ATOM     17  C   UNL     1       0.367   5.290  -0.630  1.00  0.00     0.006 C 
ATOM     18  C   UNL     1       1.576   6.792   1.105  1.00  0.00     0.008 C 
ATOM     19  C   UNL     1       1.643   7.353  -1.334  1.00  0.00     0.012 C 
ATOM     20  C   UNL     1       1.255   4.099   0.021  1.00  0.00    -0.025 C 
ATOM     21  C   UNL     1       1.162   5.685   2.086  1.00  0.00     0.005 C 
ATOM     22  C   UNL     1       1.529   4.275   1.580  1.00  0.00     0.003 C 
ATOM     23  C   UNL     1       2.620   4.007  -0.723  1.00  0.00     0.010 C 
ATOM     24  C   UNL     1       0.523   2.740  -0.242  1.00  0.00     0.012 C 
ATOM     25  C   UNL     1       2.944   3.758   2.133  1.00  0.00    -0.006 C 
ATOM     26  C   UNL     1       3.547   2.871  -0.244  1.00  0.00     0.033 C 
ATOM     27  C   UNL     1       3.449   2.557   1.274  1.00  0.00     0.120 C 
ATOM     28  C   UNL     1       2.745   3.249   3.587  1.00  0.00     0.014 C 
ATOM     29  C   UNL     1       4.056   4.849   2.194  1.00  0.00     0.014 C 
ENDROOT
BRANCH   1  30
ATOM     30  C   UNL     1      -1.039   9.235  -3.865  1.00  0.00     0.048 C 
ATOM     31  O   UNL     1      -1.543   8.227  -4.434  1.00  0.00    -0.550 OA
ATOM     32  O   UNL     1       0.002   9.902  -4.511  1.00  0.00    -0.550 OA
ENDBRANCH   1  30
BRANCH  27  33
ATOM     33  O   UNL     1       4.661   2.022   1.758  1.00  0.00    -0.393 OA
ATOM     34  H   UNL     1       4.507   1.645   2.661  1.00  0.00     0.210 HD
ENDBRANCH  27  33
TORSDOF 2
ENDMDL
MODEL 7
REMARK VINA RESULT:    -4.492      3.619      6.167
REMARK INTER + INTRA:          -5.138
REMARK INTER:                  -4.878
REMARK INTRA:                  -0.260
REMARK UNBOUND:                -0.252
REMARK SMILES C[C@@H]1[C@@H](C)CC[C@@]2(C(=O)[O-])CC[C@@]3(C)C(=CC[C@@H]4[C@@]5(C)CC[C@@H](O)C(C)(C)[C@H]5CC[C@@]43C)[C@@H]12
REMARK SMILES IDX 7 1 6 2 11 3 33 4 5 5 12 6 15 7 2 8 3 9 13 10 16 11 1 12
REMARK SMILES IDX 4 13 14 14 31 15 17 16 18 17 30 18 32 19 19 20 29 21 28 22
REMARK SMILES IDX 21 23 20 24 25 25 22 26 23 27 26 28 27 29 8 30 9 31 10 32
REMARK SMILES IDX 24 33
REMARK H PARENT 24 34
REMARK Flexibility Score: inf
ROOT
ATOM      1  C   UNL     1       4.171   7.566   0.025  1.00  0.00     0.017 C 
ATOM      2  C   UNL     1       5.599   8.057  -0.374  1.00  0.00     0.014 C 
ATOM      3  C   UNL     1       3.668   6.573  -1.085  1.00  0.00     0.014 C 
ATOM      4  C   UNL     1       4.198   6.916   1.474  1.00  0.00     0.030 C 
ATOM      5  C   UNL     1       6.362   8.617   0.824  1.00  0.00     0.004 C 
ATOM      6  C   UNL     1       3.595   5.090  -0.679  1.00  0.00     0.013 C 
ATOM      7  C   UNL     1       3.079   5.887   1.663  1.00  0.00    -0.063 C 
ATOM      8  C   UNL     1       5.606   6.370   1.883  1.00  0.00    -0.003 C 
ATOM      9  C   UNL     1       6.691   7.499   1.840  1.00  0.00    -0.011 C 
ATOM     10  C   UNL     1       2.834   4.764   0.660  1.00  0.00    -0.006 C 
ATOM     11  C   UNL     1       2.354   5.913   2.797  1.00  0.00    -0.027 C 
ATOM     12  C   UNL     1       5.584   5.738   3.293  1.00  0.00     0.008 C 
ATOM     13  C   UNL     1       8.085   6.912   1.555  1.00  0.00     0.008 C 
ATOM     14  C   UNL     1       3.567   3.503   1.223  1.00  0.00     0.017 C 
ATOM     15  C   UNL     1       1.220   4.541   0.467  1.00  0.00    -0.020 C 
ATOM     16  C   UNL     1       1.253   4.925   3.057  1.00  0.00     0.032 C 
ATOM     17  C   UNL     1       0.351   4.754   1.806  1.00  0.00     0.006 C 
ATOM     18  C   UNL     1       0.922   3.138  -0.140  1.00  0.00     0.008 C 
ATOM     19  C   UNL     1       0.690   5.597  -0.551  1.00  0.00     0.012 C 
ATOM     20  C   UNL     1      -0.926   3.778   2.030  1.00  0.00    -0.025 C 
ATOM     21  C   UNL     1       0.689   2.057   0.926  1.00  0.00     0.005 C 
ATOM     22  C   UNL     1      -0.638   2.250   1.688  1.00  0.00     0.003 C 
ATOM     23  C   UNL     1      -2.115   4.275   1.155  1.00  0.00     0.010 C 
ATOM     24  C   UNL     1      -1.393   3.914   3.518  1.00  0.00     0.012 C 
ATOM     25  C   UNL     1      -1.850   1.403   1.062  1.00  0.00    -0.006 C 
ATOM     26  C   UNL     1      -3.421   3.470   1.315  1.00  0.00     0.033 C 
ATOM     27  C   UNL     1      -3.214   1.954   1.584  1.00  0.00     0.120 C 
ATOM     28  C   UNL     1      -1.719  -0.068   1.543  1.00  0.00     0.014 C 
ATOM     29  C   UNL     1      -1.876   1.360  -0.496  1.00  0.00     0.014 C 
ENDROOT
BRANCH   1  30
ATOM     30  C   UNL     1       3.254   8.798   0.011  1.00  0.00     0.048 C 
ATOM     31  O   UNL     1       2.918   9.323  -1.086  1.00  0.00    -0.550 OA
ATOM     32  O   UNL     1       2.853   9.425   1.191  1.00  0.00    -0.550 OA
ENDBRANCH   1  30
BRANCH  27  33
ATOM     33  O   UNL     1      -4.311   1.203   1.114  1.00  0.00    -0.393 OA
ATOM     34  H   UNL     1      -4.433   1.383   0.148  1.00  0.00     0.210 HD
ENDBRANCH  27  33
TORSDOF 2
ENDMDL
MODEL 8
REMARK VINA RESULT:    -4.418      3.420      5.786
REMARK INTER + INTRA:          -5.058
REMARK INTER:                  -4.797
REMARK INTRA:                  -0.261
REMARK UNBOUND:                -0.252
REMARK SMILES C[C@@H]1[C@@H](C)CC[C@@]2(C(=O)[O-])CC[C@@]3(C)C(=CC[C@@H]4[C@@]5(C)CC[C@@H](O)C(C)(C)[C@H]5CC[C@@]43C)[C@@H]12
REMARK SMILES IDX 7 1 6 2 11 3 33 4 5 5 12 6 15 7 2 8 3 9 13 10 16 11 1 12
REMARK SMILES IDX 4 13 14 14 31 15 17 16 18 17 30 18 32 19 19 20 29 21 28 22
REMARK SMILES IDX 21 23 20 24 25 25 22 26 23 27 26 28 27 29 8 30 9 31 10 32
REMARK SMILES IDX 24 33
REMARK H PARENT 24 34
REMARK Flexibility Score: inf
ROOT
ATOM      1  C   UNL     1      -0.333   3.138   3.410  1.00  0.00     0.017 C 
ATOM      2  C   UNL     1      -0.694   1.768   4.067  1.00  0.00     0.014 C 
ATOM      3  C   UNL     1       1.211   3.375   3.589  1.00  0.00     0.014 C 
ATOM      4  C   UNL     1      -0.792   3.156   1.890  1.00  0.00     0.030 C 
ATOM      5  C   UNL     1      -2.018   1.219   3.545  1.00  0.00     0.004 C 
ATOM      6  C   UNL     1       2.062   3.264   2.311  1.00  0.00     0.013 C 
ATOM      7  C   UNL     1       0.048   4.121   1.047  1.00  0.00    -0.063 C 
ATOM      8  C   UNL     1      -0.901   1.730   1.257  1.00  0.00    -0.003 C 
ATOM      9  C   UNL     1      -1.904   0.827   2.053  1.00  0.00    -0.011 C 
ATOM     10  C   UNL     1       1.573   4.096   1.066  1.00  0.00    -0.006 C 
ATOM     11  C   UNL     1      -0.575   4.950   0.188  1.00  0.00    -0.027 C 
ATOM     12  C   UNL     1      -1.340   1.794  -0.223  1.00  0.00     0.008 C 
ATOM     13  C   UNL     1      -1.531  -0.660   1.919  1.00  0.00     0.008 C 
ATOM     14  C   UNL     1       2.015   3.241  -0.166  1.00  0.00     0.017 C 
ATOM     15  C   UNL     1       2.150   5.631   1.028  1.00  0.00    -0.020 C 
ATOM     16  C   UNL     1       0.186   5.910  -0.681  1.00  0.00     0.032 C 
ATOM     17  C   UNL     1       1.281   6.649   0.132  1.00  0.00     0.006 C 
ATOM     18  C   UNL     1       3.637   5.654   0.563  1.00  0.00     0.008 C 
ATOM     19  C   UNL     1       2.119   6.211   2.475  1.00  0.00     0.012 C 
ATOM     20  C   UNL     1       2.088   7.780  -0.706  1.00  0.00    -0.025 C 
ATOM     21  C   UNL     1       3.791   5.825  -0.955  1.00  0.00     0.005 C 
ATOM     22  C   UNL     1       3.391   7.235  -1.439  1.00  0.00     0.003 C 
ATOM     23  C   UNL     1       2.495   8.939   0.252  1.00  0.00     0.010 C 
ATOM     24  C   UNL     1       1.108   8.406  -1.755  1.00  0.00     0.012 C 
ATOM     25  C   UNL     1       4.640   8.238  -1.547  1.00  0.00    -0.006 C 
ATOM     26  C   UNL     1       3.222  10.119  -0.427  1.00  0.00     0.033 C 
ATOM     27  C   UNL     1       4.136   9.714  -1.615  1.00  0.00     0.120 C 
ATOM     28  C   UNL     1       5.397   7.936  -2.869  1.00  0.00     0.014 C 
ATOM     29  C   UNL     1       5.684   8.105  -0.397  1.00  0.00     0.014 C 
ENDROOT
BRANCH   1  30
ATOM     30  C   UNL     1      -1.076   4.224   4.203  1.00  0.00     0.048 C 
ATOM     31  O   UNL     1      -0.701   4.521   5.371  1.00  0.00    -0.550 OA
ATOM     32  O   UNL     1      -2.227   4.835   3.706  1.00  0.00    -0.550 OA
ENDBRANCH   1  30
BRANCH  27  33
ATOM     33  O   UNL     1       5.191  10.635  -1.777  1.00  0.00    -0.393 OA
ATOM     34  H   UNL     1       5.579  10.523  -2.682  1.00  0.00     0.210 HD
ENDBRANCH  27  33
TORSDOF 2
ENDMDL
MODEL 9
REMARK VINA RESULT:    -4.395      3.556      6.064
REMARK INTER + INTRA:          -5.033
REMARK INTER:                  -4.772
REMARK INTRA:                  -0.261
REMARK UNBOUND:                -0.252
REMARK SMILES C[C@@H]1[C@@H](C)CC[C@@]2(C(=O)[O-])CC[C@@]3(C)C(=CC[C@@H]4[C@@]5(C)CC[C@@H](O)C(C)(C)[C@H]5CC[C@@]43C)[C@@H]12
REMARK SMILES IDX 7 1 6 2 11 3 33 4 5 5 12 6 15 7 2 8 3 9 13 10 16 11 1 12
REMARK SMILES IDX 4 13 14 14 31 15 17 16 18 17 30 18 32 19 19 20 29 21 28 22
REMARK SMILES IDX 21 23 20 24 25 25 22 26 23 27 26 28 27 29 8 30 9 31 10 32
REMARK SMILES IDX 24 33
REMARK H PARENT 24 34
REMARK Flexibility Score: inf
ROOT
ATOM      1  C   UNL     1       0.484   2.186   0.984  1.00  0.00     0.017 C 
ATOM      2  C   UNL     1      -0.428   1.004   0.525  1.00  0.00     0.014 C 
ATOM      3  C   UNL     1       1.647   2.342  -0.063  1.00  0.00     0.014 C 
ATOM      4  C   UNL     1      -0.377   3.509   1.157  1.00  0.00     0.030 C 
ATOM      5  C   UNL     1      -1.811   1.071   1.167  1.00  0.00     0.004 C 
ATOM      6  C   UNL     1       1.577   3.587  -0.966  1.00  0.00     0.013 C 
ATOM      7  C   UNL     1       0.467   4.774   0.969  1.00  0.00    -0.063 C 
ATOM      8  C   UNL     1      -1.685   3.515   0.298  1.00  0.00    -0.003 C 
ATOM      9  C   UNL     1      -2.602   2.293   0.644  1.00  0.00    -0.011 C 
ATOM     10  C   UNL     1       1.373   4.970  -0.242  1.00  0.00    -0.006 C 
ATOM     11  C   UNL     1       0.331   5.785   1.848  1.00  0.00    -0.027 C 
ATOM     12  C   UNL     1      -2.486   4.823   0.488  1.00  0.00     0.008 C 
ATOM     13  C   UNL     1      -3.466   1.893  -0.564  1.00  0.00     0.008 C 
ATOM     14  C   UNL     1       0.558   5.825  -1.267  1.00  0.00     0.017 C 
ATOM     15  C   UNL     1       2.773   5.685   0.227  1.00  0.00    -0.020 C 
ATOM     16  C   UNL     1       1.114   7.060   1.716  1.00  0.00     0.032 C 
ATOM     17  C   UNL     1       2.607   6.768   1.408  1.00  0.00     0.006 C 
ATOM     18  C   UNL     1       3.499   6.335  -0.988  1.00  0.00     0.008 C 
ATOM     19  C   UNL     1       3.727   4.589   0.791  1.00  0.00     0.012 C 
ATOM     20  C   UNL     1       3.549   8.087   1.348  1.00  0.00    -0.025 C 
ATOM     21  C   UNL     1       3.113   7.806  -1.205  1.00  0.00     0.005 C 
ATOM     22  C   UNL     1       3.663   8.734  -0.102  1.00  0.00     0.003 C 
ATOM     23  C   UNL     1       4.977   7.725   1.853  1.00  0.00     0.010 C 
ATOM     24  C   UNL     1       2.983   9.141   2.359  1.00  0.00     0.012 C 
ATOM     25  C   UNL     1       5.069   9.405  -0.491  1.00  0.00    -0.006 C 
ATOM     26  C   UNL     1       5.967   8.907   1.906  1.00  0.00     0.033 C 
ATOM     27  C   UNL     1       5.766   9.966   0.788  1.00  0.00     0.120 C 
ATOM     28  C   UNL     1       4.793  10.602  -1.442  1.00  0.00     0.014 C 
ATOM     29  C   UNL     1       6.056   8.461  -1.242  1.00  0.00     0.014 C 
ENDROOT
BRANCH   1  30
ATOM     30  C   UNL     1       1.106   1.777   2.328  1.00  0.00     0.048 C 
ATOM     31  O   UNL     1       2.001   0.888   2.365  1.00  0.00    -0.550 OA
ATOM     32  O   UNL     1       0.640   2.292   3.537  1.00  0.00    -0.550 OA
ENDBRANCH   1  30
BRANCH  27  33
ATOM     33  O   UNL     1       6.978  10.625   0.493  1.00  0.00    -0.393 OA
ATOM     34  H   UNL     1       7.731  10.083   0.841  1.00  0.00     0.210 HD
ENDBRANCH  27  33
TORSDOF 2
ENDMDL
