MODEL 1
REMARK VINA RESULT:    -5.012      0.000      0.000
REMARK INTER + INTRA:         -10.639
REMARK INTER:                  -9.114
REMARK INTRA:                  -1.525
REMARK UNBOUND:                -1.525
REMARK SMILES CCCCCCCCCCCCCCCC(=O)[O-]
REMARK SMILES IDX 9 1 10 2 11 3 12 4 13 5 14 6 15 7 16 8 17 9 18 10 8 11 7 12
REMARK SMILES IDX 6 13 5 14 4 15 3 16 2 17 1 18
REMARK H PARENT
REMARK Flexibility Score: inf
ROOT
ATOM      1  C   UNL     1     255.336 260.447 244.914  1.00  0.00     0.000 C 
ENDROOT
BRANCH   1   2
ATOM      2  C   UNL     1     256.474 261.292 245.509  1.00  0.00     0.000 C 
BRANCH   2   3
ATOM      3  C   UNL     1     257.764 261.214 244.678  1.00  0.00     0.000 C 
BRANCH   3   4
ATOM      4  C   UNL     1     259.003 261.208 245.588  1.00  0.00     0.000 C 
BRANCH   4   5
ATOM      5  C   UNL     1     258.648 261.170 247.086  1.00  0.00     0.000 C 
BRANCH   5   6
ATOM      6  C   UNL     1     259.610 261.948 248.001  1.00  0.00     0.006 C 
BRANCH   6   7
ATOM      7  C   UNL     1     259.410 261.627 249.489  1.00  0.00     0.053 C 
BRANCH   7   8
ATOM      8  C   UNL     1     259.759 262.815 250.329  1.00  0.00     0.041 C 
ATOM      9  O   UNL     1     259.558 262.794 251.571  1.00  0.00    -0.550 OA
ATOM     10  O   UNL     1     260.263 263.965 249.733  1.00  0.00    -0.550 OA
ENDBRANCH   7   8
ENDBRANCH   6   7
ENDBRANCH   5   6
ENDBRANCH   4   5
ENDBRANCH   3   4
ENDBRANCH   2   3
ENDBRANCH   1   2
BRANCH   1  11
ATOM     11  C   UNL     1     254.410 259.860 245.990  1.00  0.00     0.000 C 
BRANCH  11  12
ATOM     12  C   UNL     1     253.456 260.932 246.537  1.00  0.00    -0.000 C 
BRANCH  12  13
ATOM     13  C   UNL     1     253.605 261.146 248.054  1.00  0.00    -0.000 C 
BRANCH  13  14
ATOM     14  C   UNL     1     254.674 260.266 248.733  1.00  0.00    -0.000 C 
BRANCH  14  15
ATOM     15  C   UNL     1     255.788 261.037 249.469  1.00  0.00    -0.000 C 
BRANCH  15  16
ATOM     16  C   UNL     1     255.906 260.731 250.971  1.00  0.00    -0.000 C 
BRANCH  16  17
ATOM     17  C   UNL     1     255.753 261.982 251.848  1.00  0.00    -0.003 C 
ATOM     18  C   UNL     1     254.282 262.353 252.024  1.00  0.00     0.004 C 
ENDBRANCH  16  17
ENDBRANCH  15  16
ENDBRANCH  14  15
ENDBRANCH  13  14
ENDBRANCH  12  13
ENDBRANCH  11  12
ENDBRANCH   1  11
TORSDOF 14
ENDMDL
MODEL 2
REMARK VINA RESULT:    -4.941      5.739      8.556
REMARK INTER + INTRA:         -10.509
REMARK INTER:                  -8.445
REMARK INTRA:                  -2.065
REMARK UNBOUND:                -1.525
REMARK SMILES CCCCCCCCCCCCCCCC(=O)[O-]
REMARK SMILES IDX 9 1 10 2 11 3 12 4 13 5 14 6 15 7 16 8 17 9 18 10 8 11 7 12
REMARK SMILES IDX 6 13 5 14 4 15 3 16 2 17 1 18
REMARK H PARENT
REMARK Flexibility Score: inf
ROOT
ATOM      1  C   UNL     1     252.081 257.931 247.621  1.00  0.00     0.000 C 
ENDROOT
BRANCH   1   2
ATOM      2  C   UNL     1     251.665 259.252 246.955  1.00  0.00     0.000 C 
BRANCH   2   3
ATOM      3  C   UNL     1     250.161 259.533 247.086  1.00  0.00     0.000 C 
BRANCH   3   4
ATOM      4  C   UNL     1     249.386 258.241 247.391  1.00  0.00     0.000 C 
BRANCH   4   5
ATOM      5  C   UNL     1     248.457 257.811 246.241  1.00  0.00     0.000 C 
BRANCH   5   6
ATOM      6  C   UNL     1     248.513 256.314 245.886  1.00  0.00     0.006 C 
BRANCH   6   7
ATOM      7  C   UNL     1     249.478 255.524 246.781  1.00  0.00     0.053 C 
BRANCH   7   8
ATOM      8  C   UNL     1     250.630 255.010 245.978  1.00  0.00     0.041 C 
ATOM      9  O   UNL     1     250.663 255.186 244.732  1.00  0.00    -0.550 OA
ATOM     10  O   UNL     1     251.645 254.292 246.598  1.00  0.00    -0.550 OA
ENDBRANCH   7   8
ENDBRANCH   6   7
ENDBRANCH   5   6
ENDBRANCH   4   5
ENDBRANCH   3   4
ENDBRANCH   2   3
ENDBRANCH   1   2
BRANCH   1  11
ATOM     11  C   UNL     1     253.425 257.401 247.099  1.00  0.00     0.000 C 
BRANCH  11  12
ATOM     12  C   UNL     1     254.348 257.007 248.262  1.00  0.00    -0.000 C 
BRANCH  12  13
ATOM     13  C   UNL     1     255.430 258.062 248.550  1.00  0.00    -0.000 C 
BRANCH  13  14
ATOM     14  C   UNL     1     254.954 259.274 249.374  1.00  0.00    -0.000 C 
BRANCH  14  15
ATOM     15  C   UNL     1     254.866 260.603 248.597  1.00  0.00    -0.000 C 
BRANCH  15  16
ATOM     16  C   UNL     1     255.544 260.593 247.216  1.00  0.00    -0.000 C 
BRANCH  16  17
ATOM     17  C   UNL     1     254.593 261.010 246.084  1.00  0.00    -0.003 C 
ATOM     18  C   UNL     1     254.741 260.089 244.875  1.00  0.00     0.004 C 
ENDBRANCH  16  17
ENDBRANCH  15  16
ENDBRANCH  14  15
ENDBRANCH  13  14
ENDBRANCH  12  13
ENDBRANCH  11  12
ENDBRANCH   1  11
TORSDOF 14
ENDMDL
MODEL 3
REMARK VINA RESULT:    -4.889      1.618      4.848
REMARK INTER + INTRA:         -10.415
REMARK INTER:                  -8.749
REMARK INTRA:                  -1.666
REMARK UNBOUND:                -1.525
REMARK SMILES CCCCCCCCCCCCCCCC(=O)[O-]
REMARK SMILES IDX 9 1 10 2 11 3 12 4 13 5 14 6 15 7 16 8 17 9 18 10 8 11 7 12
REMARK SMILES IDX 6 13 5 14 4 15 3 16 2 17 1 18
REMARK H PARENT
REMARK Flexibility Score: inf
ROOT
ATOM      1  C   UNL     1     256.376 260.913 245.095  1.00  0.00     0.000 C 
ENDROOT
BRANCH   1   2
ATOM      2  C   UNL     1     256.029 260.871 246.592  1.00  0.00     0.000 C 
BRANCH   2   3
ATOM      3  C   UNL     1     254.516 260.790 246.846  1.00  0.00     0.000 C 
BRANCH   3   4
ATOM      4  C   UNL     1     254.203 260.943 248.343  1.00  0.00     0.000 C 
BRANCH   4   5
ATOM      5  C   UNL     1     255.447 260.785 249.237  1.00  0.00     0.000 C 
BRANCH   5   6
ATOM      6  C   UNL     1     255.150 260.594 250.735  1.00  0.00     0.006 C 
BRANCH   6   7
ATOM      7  C   UNL     1     255.037 261.921 251.496  1.00  0.00     0.053 C 
BRANCH   7   8
ATOM      8  C   UNL     1     256.318 262.225 252.207  1.00  0.00     0.041 C 
ATOM      9  O   UNL     1     257.309 262.666 251.568  1.00  0.00    -0.550 OA
ATOM     10  O   UNL     1     256.434 261.974 253.569  1.00  0.00    -0.550 OA
ENDBRANCH   7   8
ENDBRANCH   6   7
ENDBRANCH   5   6
ENDBRANCH   4   5
ENDBRANCH   3   4
ENDBRANCH   2   3
ENDBRANCH   1   2
BRANCH   1  11
ATOM     11  C   UNL     1     257.848 261.269 244.838  1.00  0.00     0.000 C 
BRANCH  11  12
ATOM     12  C   UNL     1     258.016 262.780 244.618  1.00  0.00    -0.000 C 
BRANCH  12  13
ATOM     13  C   UNL     1     258.357 263.538 245.913  1.00  0.00    -0.000 C 
BRANCH  13  14
ATOM     14  C   UNL     1     259.474 262.902 246.764  1.00  0.00    -0.000 C 
BRANCH  14  15
ATOM     15  C   UNL     1     259.035 262.400 248.153  1.00  0.00    -0.000 C 
BRANCH  15  16
ATOM     16  C   UNL     1     259.758 261.134 248.645  1.00  0.00    -0.000 C 
BRANCH  16  17
ATOM     17  C   UNL     1     259.417 259.891 247.810  1.00  0.00    -0.003 C 
ATOM     18  C   UNL     1     260.593 259.482 246.928  1.00  0.00     0.004 C 
ENDBRANCH  16  17
ENDBRANCH  15  16
ENDBRANCH  14  15
ENDBRANCH  13  14
ENDBRANCH  12  13
ENDBRANCH  11  12
ENDBRANCH   1  11
TORSDOF 14
ENDMDL
MODEL 4
REMARK VINA RESULT:    -4.862      2.631      4.117
REMARK INTER + INTRA:         -10.366
REMARK INTER:                  -9.187
REMARK INTRA:                  -1.179
REMARK UNBOUND:                -1.525
REMARK SMILES CCCCCCCCCCCCCCCC(=O)[O-]
REMARK SMILES IDX 9 1 10 2 11 3 12 4 13 5 14 6 15 7 16 8 17 9 18 10 8 11 7 12
REMARK SMILES IDX 6 13 5 14 4 15 3 16 2 17 1 18
REMARK H PARENT
REMARK Flexibility Score: inf
ROOT
ATOM      1  C   UNL     1     253.929 260.892 248.371  1.00  0.00     0.000 C 
ENDROOT
BRANCH   1   2
ATOM      2  C   UNL     1     253.721 260.929 246.849  1.00  0.00     0.000 C 
BRANCH   2   3
ATOM      3  C   UNL     1     254.611 259.922 246.105  1.00  0.00     0.000 C 
BRANCH   3   4
ATOM      4  C   UNL     1     255.695 260.645 245.290  1.00  0.00     0.000 C 
BRANCH   4   5
ATOM      5  C   UNL     1     256.750 261.336 246.172  1.00  0.00     0.000 C 
BRANCH   5   6
ATOM      6  C   UNL     1     258.178 261.338 245.596  1.00  0.00     0.006 C 
BRANCH   6   7
ATOM      7  C   UNL     1     258.266 262.016 244.222  1.00  0.00     0.053 C 
BRANCH   7   8
ATOM      8  C   UNL     1     258.652 263.453 244.373  1.00  0.00     0.041 C 
ATOM      9  O   UNL     1     259.851 263.806 244.224  1.00  0.00    -0.550 OA
ATOM     10  O   UNL     1     257.696 264.397 244.727  1.00  0.00    -0.550 OA
ENDBRANCH   7   8
ENDBRANCH   6   7
ENDBRANCH   5   6
ENDBRANCH   4   5
ENDBRANCH   3   4
ENDBRANCH   2   3
ENDBRANCH   1   2
BRANCH   1  11
ATOM     11  C   UNL     1     254.829 259.731 248.819  1.00  0.00     0.000 C 
BRANCH  11  12
ATOM     12  C   UNL     1     255.438 260.011 250.200  1.00  0.00    -0.000 C 
BRANCH  12  13
ATOM     13  C   UNL     1     256.371 261.235 250.205  1.00  0.00    -0.000 C 
BRANCH  13  14
ATOM     14  C   UNL     1     256.243 262.145 251.443  1.00  0.00    -0.000 C 
BRANCH  14  15
ATOM     15  C   UNL     1     255.009 261.881 252.327  1.00  0.00    -0.000 C 
BRANCH  15  16
ATOM     16  C   UNL     1     255.252 262.018 253.840  1.00  0.00    -0.000 C 
BRANCH  16  17
ATOM     17  C   UNL     1     254.502 260.959 254.661  1.00  0.00    -0.003 C 
ATOM     18  C   UNL     1     253.324 260.387 253.877  1.00  0.00     0.004 C 
ENDBRANCH  16  17
ENDBRANCH  15  16
ENDBRANCH  14  15
ENDBRANCH  13  14
ENDBRANCH  12  13
ENDBRANCH  11  12
ENDBRANCH   1  11
TORSDOF 14
ENDMDL
MODEL 5
REMARK VINA RESULT:    -4.859      2.337      5.134
REMARK INTER + INTRA:         -10.361
REMARK INTER:                  -8.490
REMARK INTRA:                  -1.871
REMARK UNBOUND:                -1.525
REMARK SMILES CCCCCCCCCCCCCCCC(=O)[O-]
REMARK SMILES IDX 9 1 10 2 11 3 12 4 13 5 14 6 15 7 16 8 17 9 18 10 8 11 7 12
REMARK SMILES IDX 6 13 5 14 4 15 3 16 2 17 1 18
REMARK H PARENT
REMARK Flexibility Score: inf
ROOT
ATOM      1  C   UNL     1     252.623 259.006 246.767  1.00  0.00     0.000 C 
ENDROOT
BRANCH   1   2
ATOM      2  C   UNL     1     252.829 258.022 247.930  1.00  0.00     0.000 C 
BRANCH   2   3
ATOM      3  C   UNL     1     254.074 257.142 247.748  1.00  0.00     0.000 C 
BRANCH   3   4
ATOM      4  C   UNL     1     255.269 257.713 248.528  1.00  0.00     0.000 C 
BRANCH   4   5
ATOM      5  C   UNL     1     254.849 258.695 249.637  1.00  0.00     0.000 C 
BRANCH   5   6
ATOM      6  C   UNL     1     255.739 259.943 249.771  1.00  0.00     0.006 C 
BRANCH   6   7
ATOM      7  C   UNL     1     254.944 261.212 250.106  1.00  0.00     0.053 C 
BRANCH   7   8
ATOM      8  C   UNL     1     255.295 261.701 251.475  1.00  0.00     0.041 C 
ATOM      9  O   UNL     1     256.469 262.077 251.732  1.00  0.00    -0.550 OA
ATOM     10  O   UNL     1     254.339 261.697 252.482  1.00  0.00    -0.550 OA
ENDBRANCH   7   8
ENDBRANCH   6   7
ENDBRANCH   5   6
ENDBRANCH   4   5
ENDBRANCH   3   4
ENDBRANCH   2   3
ENDBRANCH   1   2
BRANCH   1  11
ATOM     11  C   UNL     1     252.708 260.474 247.211  1.00  0.00     0.000 C 
BRANCH  11  12
ATOM     12  C   UNL     1     253.760 261.235 246.390  1.00  0.00    -0.000 C 
BRANCH  12  13
ATOM     13  C   UNL     1     254.980 260.367 246.032  1.00  0.00    -0.000 C 
BRANCH  13  14
ATOM     14  C   UNL     1     256.336 261.097 246.090  1.00  0.00    -0.000 C 
BRANCH  14  15
ATOM     15  C   UNL     1     257.086 261.196 244.747  1.00  0.00    -0.000 C 
BRANCH  15  16
ATOM     16  C   UNL     1     258.482 261.838 244.828  1.00  0.00    -0.000 C 
BRANCH  16  17
ATOM     17  C   UNL     1     258.487 263.152 245.623  1.00  0.00    -0.003 C 
ATOM     18  C   UNL     1     257.829 264.278 244.829  1.00  0.00     0.004 C 
ENDBRANCH  16  17
ENDBRANCH  15  16
ENDBRANCH  14  15
ENDBRANCH  13  14
ENDBRANCH  12  13
ENDBRANCH  11  12
ENDBRANCH   1  11
TORSDOF 14
ENDMDL
MODEL 6
REMARK VINA RESULT:    -4.834      2.463      5.135
REMARK INTER + INTRA:         -10.316
REMARK INTER:                  -8.621
REMARK INTRA:                  -1.695
REMARK UNBOUND:                -1.525
REMARK SMILES CCCCCCCCCCCCCCCC(=O)[O-]
REMARK SMILES IDX 9 1 10 2 11 3 12 4 13 5 14 6 15 7 16 8 17 9 18 10 8 11 7 12
REMARK SMILES IDX 6 13 5 14 4 15 3 16 2 17 1 18
REMARK H PARENT
REMARK Flexibility Score: inf
ROOT
ATOM      1  C   UNL     1     254.389 259.570 245.432  1.00  0.00     0.000 C 
ENDROOT
BRANCH   1   2
ATOM      2  C   UNL     1     253.896 258.870 246.707  1.00  0.00     0.000 C 
BRANCH   2   3
ATOM      3  C   UNL     1     255.004 258.705 247.758  1.00  0.00     0.000 C 
BRANCH   3   4
ATOM      4  C   UNL     1     254.406 258.496 249.158  1.00  0.00     0.000 C 
BRANCH   4   5
ATOM      5  C   UNL     1     255.099 259.343 250.241  1.00  0.00     0.000 C 
BRANCH   5   6
ATOM      6  C   UNL     1     255.161 260.852 249.944  1.00  0.00     0.006 C 
BRANCH   6   7
ATOM      7  C   UNL     1     255.862 261.651 251.051  1.00  0.00     0.053 C 
BRANCH   7   8
ATOM      8  C   UNL     1     254.947 261.836 252.219  1.00  0.00     0.041 C 
ATOM      9  O   UNL     1     253.971 262.627 252.141  1.00  0.00    -0.550 OA
ATOM     10  O   UNL     1     255.200 261.171 253.413  1.00  0.00    -0.550 OA
ENDBRANCH   7   8
ENDBRANCH   6   7
ENDBRANCH   5   6
ENDBRANCH   4   5
ENDBRANCH   3   4
ENDBRANCH   2   3
ENDBRANCH   1   2
BRANCH   1  11
ATOM     11  C   UNL     1     255.144 260.875 245.726  1.00  0.00     0.000 C 
BRANCH  11  12
ATOM     12  C   UNL     1     256.433 260.961 244.895  1.00  0.00    -0.000 C 
BRANCH  12  13
ATOM     13  C   UNL     1     257.676 261.266 245.751  1.00  0.00    -0.000 C 
BRANCH  13  14
ATOM     14  C   UNL     1     257.413 261.368 247.266  1.00  0.00    -0.000 C 
BRANCH  14  15
ATOM     15  C   UNL     1     258.458 260.675 248.162  1.00  0.00    -0.000 C 
BRANCH  15  16
ATOM     16  C   UNL     1     259.895 260.688 247.613  1.00  0.00    -0.000 C 
BRANCH  16  17
ATOM     17  C   UNL     1     260.438 259.278 247.334  1.00  0.00    -0.003 C 
ATOM     18  C   UNL     1     260.740 259.090 245.850  1.00  0.00     0.004 C 
ENDBRANCH  16  17
ENDBRANCH  15  16
ENDBRANCH  14  15
ENDBRANCH  13  14
ENDBRANCH  12  13
ENDBRANCH  11  12
ENDBRANCH   1  11
TORSDOF 14
ENDMDL
MODEL 7
REMARK VINA RESULT:    -4.817      2.365      3.314
REMARK INTER + INTRA:         -10.284
REMARK INTER:                  -8.288
REMARK INTRA:                  -1.996
REMARK UNBOUND:                -1.525
REMARK SMILES CCCCCCCCCCCCCCCC(=O)[O-]
REMARK SMILES IDX 9 1 10 2 11 3 12 4 13 5 14 6 15 7 16 8 17 9 18 10 8 11 7 12
REMARK SMILES IDX 6 13 5 14 4 15 3 16 2 17 1 18
REMARK H PARENT
REMARK Flexibility Score: inf
ROOT
ATOM      1  C   UNL     1     253.096 259.874 246.695  1.00  0.00     0.000 C 
ENDROOT
BRANCH   1   2
ATOM      2  C   UNL     1     254.086 259.182 245.745  1.00  0.00     0.000 C 
BRANCH   2   3
ATOM      3  C   UNL     1     254.893 260.180 244.901  1.00  0.00     0.000 C 
BRANCH   3   4
ATOM      4  C   UNL     1     255.722 261.113 245.799  1.00  0.00     0.000 C 
BRANCH   4   5
ATOM      5  C   UNL     1     257.174 261.278 245.314  1.00  0.00     0.000 C 
BRANCH   5   6
ATOM      6  C   UNL     1     257.966 262.402 246.008  1.00  0.00     0.006 C 
BRANCH   6   7
ATOM      7  C   UNL     1     258.284 262.090 247.476  1.00  0.00     0.053 C 
BRANCH   7   8
ATOM      8  C   UNL     1     259.600 261.388 247.586  1.00  0.00     0.041 C 
ATOM      9  O   UNL     1     259.873 260.709 248.611  1.00  0.00    -0.550 OA
ATOM     10  O   UNL     1     260.547 261.523 246.578  1.00  0.00    -0.550 OA
ENDBRANCH   7   8
ENDBRANCH   6   7
ENDBRANCH   5   6
ENDBRANCH   4   5
ENDBRANCH   3   4
ENDBRANCH   2   3
ENDBRANCH   1   2
BRANCH   1  11
ATOM     11  C   UNL     1     251.903 258.979 247.062  1.00  0.00     0.000 C 
BRANCH  11  12
ATOM     12  C   UNL     1     252.288 257.494 246.988  1.00  0.00    -0.000 C 
BRANCH  12  13
ATOM     13  C   UNL     1     252.913 256.973 248.295  1.00  0.00    -0.000 C 
BRANCH  13  14
ATOM     14  C   UNL     1     254.302 256.325 248.137  1.00  0.00    -0.000 C 
BRANCH  14  15
ATOM     15  C   UNL     1     255.469 257.113 248.765  1.00  0.00    -0.000 C 
BRANCH  15  16
ATOM     16  C   UNL     1     255.058 258.390 249.519  1.00  0.00    -0.000 C 
BRANCH  16  17
ATOM     17  C   UNL     1     255.880 259.618 249.100  1.00  0.00    -0.003 C 
ATOM     18  C   UNL     1     255.183 260.912 249.513  1.00  0.00     0.004 C 
ENDBRANCH  16  17
ENDBRANCH  15  16
ENDBRANCH  14  15
ENDBRANCH  13  14
ENDBRANCH  12  13
ENDBRANCH  11  12
ENDBRANCH   1  11
TORSDOF 14
ENDMDL
MODEL 8
REMARK VINA RESULT:    -4.788      1.970      3.171
REMARK INTER + INTRA:         -10.232
REMARK INTER:                  -8.535
REMARK INTRA:                  -1.698
REMARK UNBOUND:                -1.525
REMARK SMILES CCCCCCCCCCCCCCCC(=O)[O-]
REMARK SMILES IDX 9 1 10 2 11 3 12 4 13 5 14 6 15 7 16 8 17 9 18 10 8 11 7 12
REMARK SMILES IDX 6 13 5 14 4 15 3 16 2 17 1 18
REMARK H PARENT
REMARK Flexibility Score: inf
ROOT
ATOM      1  C   UNL     1     255.963 260.859 247.553  1.00  0.00     0.000 C 
ENDROOT
BRANCH   1   2
ATOM      2  C   UNL     1     255.995 261.059 246.029  1.00  0.00     0.000 C 
BRANCH   2   3
ATOM      3  C   UNL     1     257.122 262.001 245.580  1.00  0.00     0.000 C 
BRANCH   3   4
ATOM      4  C   UNL     1     258.181 261.241 244.766  1.00  0.00     0.000 C 
BRANCH   4   5
ATOM      5  C   UNL     1     259.347 260.725 245.630  1.00  0.00     0.000 C 
BRANCH   5   6
ATOM      6  C   UNL     1     259.601 261.524 246.921  1.00  0.00     0.006 C 
BRANCH   6   7
ATOM      7  C   UNL     1     259.680 260.634 248.168  1.00  0.00     0.053 C 
BRANCH   7   8
ATOM      8  C   UNL     1     259.567 261.463 249.408  1.00  0.00     0.041 C 
ATOM      9  O   UNL     1     258.436 261.812 249.837  1.00  0.00    -0.550 OA
ATOM     10  O   UNL     1     260.714 261.892 250.065  1.00  0.00    -0.550 OA
ENDBRANCH   7   8
ENDBRANCH   6   7
ENDBRANCH   5   6
ENDBRANCH   4   5
ENDBRANCH   3   4
ENDBRANCH   2   3
ENDBRANCH   1   2
BRANCH   1  11
ATOM     11  C   UNL     1     254.534 260.843 248.118  1.00  0.00     0.000 C 
BRANCH  11  12
ATOM     12  C   UNL     1     253.497 260.857 246.986  1.00  0.00    -0.000 C 
BRANCH  12  13
ATOM     13  C   UNL     1     252.756 259.515 246.839  1.00  0.00    -0.000 C 
BRANCH  13  14
ATOM     14  C   UNL     1     253.584 258.383 246.200  1.00  0.00    -0.000 C 
BRANCH  14  15
ATOM     15  C   UNL     1     253.177 256.956 246.619  1.00  0.00    -0.000 C 
BRANCH  15  16
ATOM     16  C   UNL     1     253.637 256.535 248.025  1.00  0.00    -0.000 C 
BRANCH  16  17
ATOM     17  C   UNL     1     255.062 257.008 248.351  1.00  0.00    -0.003 C 
ATOM     18  C   UNL     1     255.124 257.654 249.732  1.00  0.00     0.004 C 
ENDBRANCH  16  17
ENDBRANCH  15  16
ENDBRANCH  14  15
ENDBRANCH  13  14
ENDBRANCH  12  13
ENDBRANCH  11  12
ENDBRANCH   1  11
TORSDOF 14
ENDMDL
MODEL 9
REMARK VINA RESULT:    -4.782      1.683      2.559
REMARK INTER + INTRA:         -10.221
REMARK INTER:                  -8.557
REMARK INTRA:                  -1.664
REMARK UNBOUND:                -1.525
REMARK SMILES CCCCCCCCCCCCCCCC(=O)[O-]
REMARK SMILES IDX 9 1 10 2 11 3 12 4 13 5 14 6 15 7 16 8 17 9 18 10 8 11 7 12
REMARK SMILES IDX 6 13 5 14 4 15 3 16 2 17 1 18
REMARK H PARENT
REMARK Flexibility Score: inf
ROOT
ATOM      1  C   UNL     1     254.124 258.569 246.161  1.00  0.00     0.000 C 
ENDROOT
BRANCH   1   2
ATOM      2  C   UNL     1     254.027 259.999 245.607  1.00  0.00     0.000 C 
BRANCH   2   3
ATOM      3  C   UNL     1     255.229 260.376 244.729  1.00  0.00     0.000 C 
BRANCH   3   4
ATOM      4  C   UNL     1     256.260 261.187 245.530  1.00  0.00     0.000 C 
BRANCH   4   5
ATOM      5  C   UNL     1     257.673 261.130 244.922  1.00  0.00     0.000 C 
BRANCH   5   6
ATOM      6  C   UNL     1     258.795 261.656 245.835  1.00  0.00     0.006 C 
BRANCH   6   7
ATOM      7  C   UNL     1     258.363 261.778 247.303  1.00  0.00     0.053 C 
BRANCH   7   8
ATOM      8  C   UNL     1     259.224 260.918 248.172  1.00  0.00     0.041 C 
ATOM      9  O   UNL     1     259.593 261.329 249.304  1.00  0.00    -0.550 OA
ATOM     10  O   UNL     1     259.660 259.681 247.714  1.00  0.00    -0.550 OA
ENDBRANCH   7   8
ENDBRANCH   6   7
ENDBRANCH   5   6
ENDBRANCH   4   5
ENDBRANCH   3   4
ENDBRANCH   2   3
ENDBRANCH   1   2
BRANCH   1  11
ATOM     11  C   UNL     1     253.678 258.470 247.628  1.00  0.00     0.000 C 
BRANCH  11  12
ATOM     12  C   UNL     1     254.854 258.073 248.533  1.00  0.00    -0.000 C 
BRANCH  12  13
ATOM     13  C   UNL     1     255.879 259.207 248.711  1.00  0.00    -0.000 C 
BRANCH  13  14
ATOM     14  C   UNL     1     255.278 260.571 249.107  1.00  0.00    -0.000 C 
BRANCH  14  15
ATOM     15  C   UNL     1     255.796 261.154 250.437  1.00  0.00    -0.000 C 
BRANCH  15  16
ATOM     16  C   UNL     1     255.318 260.416 251.699  1.00  0.00    -0.000 C 
BRANCH  16  17
ATOM     17  C   UNL     1     254.811 261.370 252.790  1.00  0.00    -0.003 C 
ATOM     18  C   UNL     1     254.126 262.590 252.179  1.00  0.00     0.004 C 
ENDBRANCH  16  17
ENDBRANCH  15  16
ENDBRANCH  14  15
ENDBRANCH  13  14
ENDBRANCH  12  13
ENDBRANCH  11  12
ENDBRANCH   1  11
TORSDOF 14
ENDMDL
