MODEL 1
REMARK VINA RESULT:    -4.543      0.000      0.000
REMARK INTER + INTRA:          -4.965
REMARK INTER:                  -4.808
REMARK INTRA:                  -0.156
REMARK UNBOUND:                -0.156
REMARK SMILES CC1=CC[C@H](C(C)C)C=C1
REMARK SMILES IDX 1 1 2 2 3 3 4 4 5 5 9 6 10 7 6 8 7 9 8 10
REMARK H PARENT
REMARK Flexibility Score: inf
ROOT
ATOM      1  C   UNL     1     146.118 147.995 133.371  1.00  0.00     0.044 C 
ATOM      2  C   UNL     1     146.226 146.794 132.479  1.00  0.00    -0.055 C 
ATOM      3  C   UNL     1     145.574 146.757 131.306  1.00  0.00    -0.023 C 
ATOM      4  C   UNL     1     145.795 145.610 130.354  1.00  0.00     0.035 C 
ATOM      5  C   UNL     1     145.993 144.278 131.121  1.00  0.00     0.018 C 
ATOM      6  C   UNL     1     147.039 144.501 132.199  1.00  0.00    -0.023 C 
ATOM      7  C   UNL     1     147.101 145.662 132.864  1.00  0.00    -0.001 C 
ENDROOT
BRANCH   5   8
ATOM      8  C   UNL     1     144.673 143.721 131.743  1.00  0.00    -0.010 C 
ATOM      9  C   UNL     1     144.946 142.997 133.075  1.00  0.00     0.008 C 
ATOM     10  C   UNL     1     143.947 142.752 130.791  1.00  0.00     0.008 C 
ENDBRANCH   5   8
TORSDOF 1
ENDMDL
MODEL 2
REMARK VINA RESULT:    -4.512      1.243      3.905
REMARK INTER + INTRA:          -4.933
REMARK INTER:                  -4.740
REMARK INTRA:                  -0.192
REMARK UNBOUND:                -0.156
REMARK SMILES CC1=CC[C@H](C(C)C)C=C1
REMARK SMILES IDX 1 1 2 2 3 3 4 4 5 5 9 6 10 7 6 8 7 9 8 10
REMARK H PARENT
REMARK Flexibility Score: inf
ROOT
ATOM      1  C   UNL     1     144.962 142.697 133.399  1.00  0.00     0.044 C 
ATOM      2  C   UNL     1     144.748 143.897 132.526  1.00  0.00    -0.055 C 
ATOM      3  C   UNL     1     145.362 143.989 131.335  1.00  0.00    -0.023 C 
ATOM      4  C   UNL     1     145.038 145.128 130.403  1.00  0.00     0.035 C 
ATOM      5  C   UNL     1     144.773 146.436 131.192  1.00  0.00     0.018 C 
ATOM      6  C   UNL     1     143.776 146.133 132.295  1.00  0.00    -0.023 C 
ATOM      7  C   UNL     1     143.811 144.964 132.948  1.00  0.00    -0.001 C 
ENDROOT
BRANCH   5   8
ATOM      8  C   UNL     1     146.071 147.074 131.782  1.00  0.00    -0.010 C 
ATOM      9  C   UNL     1     145.767 147.867 133.067  1.00  0.00     0.008 C 
ATOM     10  C   UNL     1     146.769 148.008 130.776  1.00  0.00     0.008 C 
ENDBRANCH   5   8
TORSDOF 1
ENDMDL
MODEL 3
REMARK VINA RESULT:    -4.393      1.503      4.135
REMARK INTER + INTRA:          -4.806
REMARK INTER:                  -4.572
REMARK INTRA:                  -0.234
REMARK UNBOUND:                -0.156
REMARK SMILES CC1=CC[C@H](C(C)C)C=C1
REMARK SMILES IDX 1 1 2 2 3 3 4 4 5 5 9 6 10 7 6 8 7 9 8 10
REMARK H PARENT
REMARK Flexibility Score: inf
ROOT
ATOM      1  C   UNL     1     143.805 142.657 131.006  1.00  0.00     0.044 C 
ATOM      2  C   UNL     1     144.205 143.462 132.207  1.00  0.00    -0.055 C 
ATOM      3  C   UNL     1     143.440 144.484 132.624  1.00  0.00    -0.023 C 
ATOM      4  C   UNL     1     143.772 145.201 133.908  1.00  0.00     0.035 C 
ATOM      5  C   UNL     1     145.306 145.306 134.108  1.00  0.00     0.018 C 
ATOM      6  C   UNL     1     145.908 143.928 133.903  1.00  0.00    -0.023 C 
ATOM      7  C   UNL     1     145.419 143.098 132.973  1.00  0.00    -0.001 C 
ENDROOT
BRANCH   5   8
ATOM      8  C   UNL     1     145.981 146.349 133.160  1.00  0.00    -0.010 C 
ATOM      9  C   UNL     1     147.484 146.056 132.992  1.00  0.00     0.008 C 
ATOM     10  C   UNL     1     145.810 147.792 133.670  1.00  0.00     0.008 C 
ENDBRANCH   5   8
TORSDOF 1
ENDMDL
MODEL 4
REMARK VINA RESULT:    -4.384      1.720      2.650
REMARK INTER + INTRA:          -4.796
REMARK INTER:                  -4.545
REMARK INTRA:                  -0.251
REMARK UNBOUND:                -0.156
REMARK SMILES CC1=CC[C@H](C(C)C)C=C1
REMARK SMILES IDX 1 1 2 2 3 3 4 4 5 5 9 6 10 7 6 8 7 9 8 10
REMARK H PARENT
REMARK Flexibility Score: inf
ROOT
ATOM      1  C   UNL     1     146.965 148.135 131.021  1.00  0.00     0.044 C 
ATOM      2  C   UNL     1     146.570 147.284 132.192  1.00  0.00    -0.055 C 
ATOM      3  C   UNL     1     147.338 146.249 132.569  1.00  0.00    -0.023 C 
ATOM      4  C   UNL     1     147.011 145.484 133.825  1.00  0.00     0.035 C 
ATOM      5  C   UNL     1     145.478 145.368 134.026  1.00  0.00     0.018 C 
ATOM      6  C   UNL     1     144.873 146.752 133.875  1.00  0.00    -0.023 C 
ATOM      7  C   UNL     1     145.358 147.617 132.975  1.00  0.00    -0.001 C 
ENDROOT
BRANCH   5   8
ATOM      8  C   UNL     1     144.802 144.361 133.042  1.00  0.00    -0.010 C 
ATOM      9  C   UNL     1     143.280 144.588 132.972  1.00  0.00     0.008 C 
ATOM     10  C   UNL     1     145.068 142.896 133.437  1.00  0.00     0.008 C 
ENDBRANCH   5   8
TORSDOF 1
ENDMDL
MODEL 5
REMARK VINA RESULT:    -4.311      1.667      3.202
REMARK INTER + INTRA:          -4.720
REMARK INTER:                  -5.263
REMARK INTRA:                   0.543
REMARK UNBOUND:                -0.156
REMARK SMILES CC1=CC[C@H](C(C)C)C=C1
REMARK SMILES IDX 1 1 2 2 3 3 4 4 5 5 9 6 10 7 6 8 7 9 8 10
REMARK H PARENT
REMARK Flexibility Score: inf
ROOT
ATOM      1  C   UNL     1     142.843 145.799 134.074  1.00  0.00     0.044 C 
ATOM      2  C   UNL     1     143.562 145.307 132.853  1.00  0.00    -0.055 C 
ATOM      3  C   UNL     1     143.994 144.037 132.785  1.00  0.00    -0.023 C 
ATOM      4  C   UNL     1     144.593 143.509 131.507  1.00  0.00     0.035 C 
ATOM      5  C   UNL     1     145.422 144.603 130.786  1.00  0.00     0.018 C 
ATOM      6  C   UNL     1     144.574 145.859 130.693  1.00  0.00    -0.023 C 
ATOM      7  C   UNL     1     143.751 146.205 131.691  1.00  0.00    -0.001 C 
ENDROOT
BRANCH   5   8
ATOM      8  C   UNL     1     146.784 144.908 131.488  1.00  0.00    -0.010 C 
ATOM      9  C   UNL     1     147.113 143.842 132.550  1.00  0.00     0.008 C 
ATOM     10  C   UNL     1     146.793 146.295 132.157  1.00  0.00     0.008 C 
ENDBRANCH   5   8
TORSDOF 1
ENDMDL
MODEL 6
REMARK VINA RESULT:    -4.308      1.250      2.479
REMARK INTER + INTRA:          -4.716
REMARK INTER:                  -5.262
REMARK INTRA:                   0.546
REMARK UNBOUND:                -0.156
REMARK SMILES CC1=CC[C@H](C(C)C)C=C1
REMARK SMILES IDX 1 1 2 2 3 3 4 4 5 5 9 6 10 7 6 8 7 9 8 10
REMARK H PARENT
REMARK Flexibility Score: inf
ROOT
ATOM      1  C   UNL     1     147.859 144.987 134.093  1.00  0.00     0.044 C 
ATOM      2  C   UNL     1     147.139 145.487 132.877  1.00  0.00    -0.055 C 
ATOM      3  C   UNL     1     146.711 146.758 132.815  1.00  0.00    -0.023 C 
ATOM      4  C   UNL     1     146.112 147.293 131.539  1.00  0.00     0.035 C 
ATOM      5  C   UNL     1     145.277 146.206 130.816  1.00  0.00     0.018 C 
ATOM      6  C   UNL     1     146.120 144.947 130.716  1.00  0.00    -0.023 C 
ATOM      7  C   UNL     1     146.945 144.594 131.711  1.00  0.00    -0.001 C 
ENDROOT
BRANCH   5   8
ATOM      8  C   UNL     1     143.916 145.903 131.520  1.00  0.00    -0.010 C 
ATOM      9  C   UNL     1     143.594 146.964 132.589  1.00  0.00     0.008 C 
ATOM     10  C   UNL     1     143.902 144.512 132.181  1.00  0.00     0.008 C 
ENDBRANCH   5   8
TORSDOF 1
ENDMDL
MODEL 7
REMARK VINA RESULT:    -4.307      1.640      2.589
REMARK INTER + INTRA:          -4.715
REMARK INTER:                  -5.253
REMARK INTRA:                   0.538
REMARK UNBOUND:                -0.156
REMARK SMILES CC1=CC[C@H](C(C)C)C=C1
REMARK SMILES IDX 1 1 2 2 3 3 4 4 5 5 9 6 10 7 6 8 7 9 8 10
REMARK H PARENT
REMARK Flexibility Score: inf
ROOT
ATOM      1  C   UNL     1     146.929 147.623 132.251  1.00  0.00     0.044 C 
ATOM      2  C   UNL     1     145.606 146.984 132.551  1.00  0.00    -0.055 C 
ATOM      3  C   UNL     1     145.309 146.594 133.801  1.00  0.00    -0.023 C 
ATOM      4  C   UNL     1     143.930 146.079 134.125  1.00  0.00     0.035 C 
ATOM      5  C   UNL     1     143.350 145.258 132.945  1.00  0.00     0.018 C 
ATOM      6  C   UNL     1     143.510 146.072 131.674  1.00  0.00    -0.023 C 
ATOM      7  C   UNL     1     144.596 146.831 131.479  1.00  0.00    -0.001 C 
ENDROOT
BRANCH   5   8
ATOM      8  C   UNL     1     144.014 143.853 132.787  1.00  0.00    -0.010 C 
ATOM      9  C   UNL     1     145.083 143.617 133.871  1.00  0.00     0.008 C 
ATOM     10  C   UNL     1     144.662 143.670 131.402  1.00  0.00     0.008 C 
ENDBRANCH   5   8
TORSDOF 1
ENDMDL
MODEL 8
REMARK VINA RESULT:    -4.288      1.756      3.558
REMARK INTER + INTRA:          -4.695
REMARK INTER:                  -4.459
REMARK INTRA:                  -0.235
REMARK UNBOUND:                -0.156
REMARK SMILES CC1=CC[C@H](C(C)C)C=C1
REMARK SMILES IDX 1 1 2 2 3 3 4 4 5 5 9 6 10 7 6 8 7 9 8 10
REMARK H PARENT
REMARK Flexibility Score: inf
ROOT
ATOM      1  C   UNL     1     147.971 143.864 130.891  1.00  0.00     0.044 C 
ATOM      2  C   UNL     1     147.138 144.131 132.109  1.00  0.00    -0.055 C 
ATOM      3  C   UNL     1     145.972 143.489 132.288  1.00  0.00    -0.023 C 
ATOM      4  C   UNL     1     145.206 143.657 133.576  1.00  0.00     0.035 C 
ATOM      5  C   UNL     1     145.335 145.105 134.116  1.00  0.00     0.018 C 
ATOM      6  C   UNL     1     146.806 145.480 134.125  1.00  0.00    -0.023 C 
ATOM      7  C   UNL     1     147.625 145.064 133.150  1.00  0.00    -0.001 C 
ENDROOT
BRANCH   5   8
ATOM      8  C   UNL     1     144.505 146.145 133.297  1.00  0.00    -0.010 C 
ATOM      9  C   UNL     1     145.050 147.572 133.497  1.00  0.00     0.008 C 
ATOM     10  C   UNL     1     143.013 146.125 133.677  1.00  0.00     0.008 C 
ENDBRANCH   5   8
TORSDOF 1
ENDMDL
MODEL 9
REMARK VINA RESULT:    -4.277      2.044      3.376
REMARK INTER + INTRA:          -4.684
REMARK INTER:                  -4.423
REMARK INTRA:                  -0.261
REMARK UNBOUND:                -0.156
REMARK SMILES CC1=CC[C@H](C(C)C)C=C1
REMARK SMILES IDX 1 1 2 2 3 3 4 4 5 5 9 6 10 7 6 8 7 9 8 10
REMARK H PARENT
REMARK Flexibility Score: inf
ROOT
ATOM      1  C   UNL     1     142.811 146.878 130.786  1.00  0.00     0.044 C 
ATOM      2  C   UNL     1     143.610 146.637 132.032  1.00  0.00    -0.055 C 
ATOM      3  C   UNL     1     144.805 147.226 132.197  1.00  0.00    -0.023 C 
ATOM      4  C   UNL     1     145.540 147.091 133.506  1.00  0.00     0.035 C 
ATOM      5  C   UNL     1     145.327 145.684 134.123  1.00  0.00     0.018 C 
ATOM      6  C   UNL     1     143.839 145.386 134.125  1.00  0.00    -0.023 C 
ATOM      7  C   UNL     1     143.058 145.789 133.114  1.00  0.00    -0.001 C 
ENDROOT
BRANCH   5   8
ATOM      8  C   UNL     1     146.113 144.558 133.378  1.00  0.00    -0.010 C 
ATOM      9  C   UNL     1     145.620 143.162 133.801  1.00  0.00     0.008 C 
ATOM     10  C   UNL     1     147.630 144.647 133.629  1.00  0.00     0.008 C 
ENDBRANCH   5   8
TORSDOF 1
ENDMDL
