MODEL 1
REMARK VINA RESULT:    -5.280      0.000      0.000
REMARK INTER + INTRA:          -6.330
REMARK INTER:                  -6.206
REMARK INTRA:                  -0.124
REMARK UNBOUND:                -0.124
REMARK SMILES O=C([O-])C=Cc1ccc(O)c(O)c1
REMARK SMILES IDX 6 1 13 2 7 3 11 4 8 5 9 6 5 7 4 8 2 9 1 10 3 11 12 12 10 14
REMARK H PARENT 12 13 10 15
REMARK Flexibility Score: inf
ROOT
ATOM      1  C   UNL     1     -12.242 -46.710  -3.184  1.00  0.00    -0.022 A 
ATOM      2  C   UNL     1     -12.791 -46.346  -1.938  1.00  0.00     0.058 A 
ATOM      3  C   UNL     1     -12.593 -47.948  -3.745  1.00  0.00     0.012 A 
ATOM      4  C   UNL     1     -13.691 -47.197  -1.280  1.00  0.00     0.157 A 
ATOM      5  C   UNL     1     -13.492 -48.795  -3.091  1.00  0.00     0.051 A 
ATOM      6  C   UNL     1     -14.046 -48.425  -1.863  1.00  0.00     0.157 A 
ENDROOT
BRANCH   1   7
ATOM      7  C   UNL     1     -11.277 -45.849  -3.914  1.00  0.00     0.010 C 
ATOM      8  C   UNL     1     -10.191 -45.303  -3.348  1.00  0.00     0.025 C 
BRANCH   8   9
ATOM      9  C   UNL     1      -9.261 -44.444  -4.101  1.00  0.00     0.064 C 
ATOM     10  O   UNL     1      -8.347 -44.940  -4.813  1.00  0.00    -0.545 OA
ATOM     11  O   UNL     1      -9.392 -43.064  -4.024  1.00  0.00    -0.545 OA
ENDBRANCH   8   9
ENDBRANCH   1   7
BRANCH   4  12
ATOM     12  O   UNL     1     -14.233 -46.828  -0.049  1.00  0.00    -0.504 OA
ATOM     13  H   UNL     1     -14.117 -47.404   0.776  1.00  0.00     0.293 HD
ENDBRANCH   4  12
BRANCH   6  14
ATOM     14  O   UNL     1     -14.941 -49.290  -1.234  1.00  0.00    -0.504 OA
ATOM     15  H   UNL     1     -14.996 -49.369  -0.226  1.00  0.00     0.293 HD
ENDBRANCH   6  14
TORSDOF 4
ENDMDL
MODEL 2
REMARK VINA RESULT:    -5.266      7.408      9.021
REMARK INTER + INTRA:          -6.314
REMARK INTER:                  -6.186
REMARK INTRA:                  -0.128
REMARK UNBOUND:                -0.124
REMARK SMILES O=C([O-])C=Cc1ccc(O)c(O)c1
REMARK SMILES IDX 6 1 13 2 7 3 11 4 8 5 9 6 5 7 4 8 2 9 1 10 3 11 12 12 10 14
REMARK H PARENT 12 13 10 15
REMARK Flexibility Score: inf
ROOT
ATOM      1  C   UNL     1     -13.499 -42.527 -10.001  1.00  0.00    -0.022 A 
ATOM      2  C   UNL     1     -13.204 -41.183  -9.696  1.00  0.00     0.058 A 
ATOM      3  C   UNL     1     -14.836 -42.895 -10.221  1.00  0.00     0.012 A 
ATOM      4  C   UNL     1     -14.227 -40.224  -9.638  1.00  0.00     0.157 A 
ATOM      5  C   UNL     1     -15.855 -41.940 -10.166  1.00  0.00     0.051 A 
ATOM      6  C   UNL     1     -15.558 -40.605  -9.879  1.00  0.00     0.157 A 
ENDROOT
BRANCH   1   7
ATOM      7  C   UNL     1     -12.454 -43.580 -10.062  1.00  0.00     0.010 C 
ATOM      8  C   UNL     1     -11.857 -44.101  -8.981  1.00  0.00     0.025 C 
BRANCH   8   9
ATOM      9  C   UNL     1     -10.816 -45.137  -9.081  1.00  0.00     0.064 C 
ATOM     10  O   UNL     1     -10.113 -45.257 -10.120  1.00  0.00    -0.545 OA
ATOM     11  O   UNL     1     -10.604 -45.998  -8.012  1.00  0.00    -0.545 OA
ENDBRANCH   8   9
ENDBRANCH   1   7
BRANCH   4  12
ATOM     12  O   UNL     1     -13.926 -38.895  -9.340  1.00  0.00    -0.504 OA
ATOM     13  H   UNL     1     -13.374 -38.323  -9.968  1.00  0.00     0.293 HD
ENDBRANCH   4  12
BRANCH   6  14
ATOM     14  O   UNL     1     -16.595 -39.675  -9.831  1.00  0.00    -0.504 OA
ATOM     15  H   UNL     1     -17.540 -39.934  -9.577  1.00  0.00     0.293 HD
ENDBRANCH   6  14
TORSDOF 4
ENDMDL
MODEL 3
REMARK VINA RESULT:    -5.197      3.964      6.241
REMARK INTER + INTRA:          -6.232
REMARK INTER:                  -6.110
REMARK INTRA:                  -0.123
REMARK UNBOUND:                -0.124
REMARK SMILES O=C([O-])C=Cc1ccc(O)c(O)c1
REMARK SMILES IDX 6 1 13 2 7 3 11 4 8 5 9 6 5 7 4 8 2 9 1 10 3 11 12 12 10 14
REMARK H PARENT 12 13 10 15
REMARK Flexibility Score: inf
ROOT
ATOM      1  C   UNL     1     -15.475 -46.842  -3.065  1.00  0.00    -0.022 A 
ATOM      2  C   UNL     1     -14.969 -46.212  -4.221  1.00  0.00     0.058 A 
ATOM      3  C   UNL     1     -15.110 -48.172  -2.803  1.00  0.00     0.012 A 
ATOM      4  C   UNL     1     -14.096 -46.896  -5.080  1.00  0.00     0.157 A 
ATOM      5  C   UNL     1     -14.239 -48.852  -3.658  1.00  0.00     0.051 A 
ATOM      6  C   UNL     1     -13.727 -48.221  -4.794  1.00  0.00     0.157 A 
ENDROOT
BRANCH   1   7
ATOM      7  C   UNL     1     -16.409 -46.165  -2.131  1.00  0.00     0.010 C 
ATOM      8  C   UNL     1     -17.460 -45.432  -2.529  1.00  0.00     0.025 C 
BRANCH   8   9
ATOM      9  C   UNL     1     -18.360 -44.765  -1.574  1.00  0.00     0.064 C 
ATOM     10  O   UNL     1     -19.309 -45.389  -1.029  1.00  0.00    -0.545 OA
ATOM     11  O   UNL     1     -18.159 -43.426  -1.268  1.00  0.00    -0.545 OA
ENDBRANCH   8   9
ENDBRANCH   1   7
BRANCH   4  12
ATOM     12  O   UNL     1     -13.596 -46.264  -6.219  1.00  0.00    -0.504 OA
ATOM     13  H   UNL     1     -12.942 -46.727  -6.839  1.00  0.00     0.293 HD
ENDBRANCH   4  12
BRANCH   6  14
ATOM     14  O   UNL     1     -12.859 -48.925  -5.628  1.00  0.00    -0.504 OA
ATOM     15  H   UNL     1     -13.005 -48.987  -6.628  1.00  0.00     0.293 HD
ENDBRANCH   6  14
TORSDOF 4
ENDMDL
MODEL 4
REMARK VINA RESULT:    -5.195      4.356      6.294
REMARK INTER + INTRA:          -6.230
REMARK INTER:                  -6.077
REMARK INTRA:                  -0.153
REMARK UNBOUND:                -0.124
REMARK SMILES O=C([O-])C=Cc1ccc(O)c(O)c1
REMARK SMILES IDX 6 1 13 2 7 3 11 4 8 5 9 6 5 7 4 8 2 9 1 10 3 11 12 12 10 14
REMARK H PARENT 12 13 10 15
REMARK Flexibility Score: inf
ROOT
ATOM      1  C   UNL     1     -16.238 -45.857  -3.036  1.00  0.00    -0.022 A 
ATOM      2  C   UNL     1     -16.475 -44.994  -4.124  1.00  0.00     0.058 A 
ATOM      3  C   UNL     1     -16.822 -45.559  -1.794  1.00  0.00     0.012 A 
ATOM      4  C   UNL     1     -17.301 -43.869  -3.975  1.00  0.00     0.157 A 
ATOM      5  C   UNL     1     -17.647 -44.441  -1.646  1.00  0.00     0.051 A 
ATOM      6  C   UNL     1     -17.893 -43.595  -2.730  1.00  0.00     0.157 A 
ENDROOT
BRANCH   1   7
ATOM      7  C   UNL     1     -15.363 -47.052  -3.140  1.00  0.00     0.010 C 
ATOM      8  C   UNL     1     -15.160 -47.916  -2.135  1.00  0.00     0.025 C 
BRANCH   8   9
ATOM      9  C   UNL     1     -14.276 -49.086  -2.272  1.00  0.00     0.064 C 
ATOM     10  O   UNL     1     -13.942 -49.771  -1.268  1.00  0.00    -0.545 OA
ATOM     11  O   UNL     1     -13.801 -49.439  -3.528  1.00  0.00    -0.545 OA
ENDBRANCH   8   9
ENDBRANCH   1   7
BRANCH   4  12
ATOM     12  O   UNL     1     -17.535 -43.022  -5.059  1.00  0.00    -0.504 OA
ATOM     13  H   UNL     1     -18.239 -43.234  -5.755  1.00  0.00     0.293 HD
ENDBRANCH   4  12
BRANCH   6  14
ATOM     14  O   UNL     1     -18.720 -42.488  -2.553  1.00  0.00    -0.504 OA
ATOM     15  H   UNL     1     -18.610 -41.640  -3.096  1.00  0.00     0.293 HD
ENDBRANCH   6  14
TORSDOF 4
ENDMDL
MODEL 5
REMARK VINA RESULT:    -5.152      1.704      5.626
REMARK INTER + INTRA:          -6.180
REMARK INTER:                  -6.056
REMARK INTRA:                  -0.124
REMARK UNBOUND:                -0.124
REMARK SMILES O=C([O-])C=Cc1ccc(O)c(O)c1
REMARK SMILES IDX 6 1 13 2 7 3 11 4 8 5 9 6 5 7 4 8 2 9 1 10 3 11 12 12 10 14
REMARK H PARENT 12 13 10 15
REMARK Flexibility Score: inf
ROOT
ATOM      1  C   UNL     1     -11.386 -45.805  -3.357  1.00  0.00    -0.022 A 
ATOM      2  C   UNL     1     -11.185 -45.210  -2.095  1.00  0.00     0.058 A 
ATOM      3  C   UNL     1     -10.836 -45.189  -4.493  1.00  0.00     0.012 A 
ATOM      4  C   UNL     1     -10.427 -44.036  -1.974  1.00  0.00     0.157 A 
ATOM      5  C   UNL     1     -10.079 -44.021  -4.372  1.00  0.00     0.051 A 
ATOM      6  C   UNL     1      -9.868 -43.442  -3.118  1.00  0.00     0.157 A 
ENDROOT
BRANCH   1   7
ATOM      7  C   UNL     1     -12.190 -47.040  -3.539  1.00  0.00     0.010 C 
ATOM      8  C   UNL     1     -12.898 -47.619  -2.559  1.00  0.00     0.025 C 
BRANCH   8   9
ATOM      9  C   UNL     1     -13.674 -48.852  -2.773  1.00  0.00     0.064 C 
ATOM     10  O   UNL     1     -14.392 -49.000  -3.798  1.00  0.00    -0.545 OA
ATOM     11  O   UNL     1     -13.615 -49.868  -1.829  1.00  0.00    -0.545 OA
ENDBRANCH   8   9
ENDBRANCH   1   7
BRANCH   4  12
ATOM     12  O   UNL     1     -10.229 -43.456  -0.721  1.00  0.00    -0.504 OA
ATOM     13  H   UNL     1     -10.950 -42.902  -0.273  1.00  0.00     0.293 HD
ENDBRANCH   4  12
BRANCH   6  14
ATOM     14  O   UNL     1      -9.108 -42.277  -3.028  1.00  0.00    -0.504 OA
ATOM     15  H   UNL     1      -8.494 -41.975  -3.775  1.00  0.00     0.293 HD
ENDBRANCH   6  14
TORSDOF 4
ENDMDL
MODEL 6
REMARK VINA RESULT:    -5.073      6.223      9.303
REMARK INTER + INTRA:          -6.087
REMARK INTER:                  -5.942
REMARK INTRA:                  -0.145
REMARK UNBOUND:                -0.124
REMARK SMILES O=C([O-])C=Cc1ccc(O)c(O)c1
REMARK SMILES IDX 6 1 13 2 7 3 11 4 8 5 9 6 5 7 4 8 2 9 1 10 3 11 12 12 10 14
REMARK H PARENT 12 13 10 15
REMARK Flexibility Score: inf
ROOT
ATOM      1  C   UNL     1     -14.232 -44.051   3.284  1.00  0.00    -0.022 A 
ATOM      2  C   UNL     1     -13.692 -43.748   2.019  1.00  0.00     0.058 A 
ATOM      3  C   UNL     1     -13.474 -43.768   4.432  1.00  0.00     0.012 A 
ATOM      4  C   UNL     1     -12.427 -43.150   1.909  1.00  0.00     0.157 A 
ATOM      5  C   UNL     1     -12.216 -43.171   4.323  1.00  0.00     0.051 A 
ATOM      6  C   UNL     1     -11.688 -42.857   3.067  1.00  0.00     0.157 A 
ENDROOT
BRANCH   1   7
ATOM      7  C   UNL     1     -15.561 -44.693   3.452  1.00  0.00     0.010 C 
ATOM      8  C   UNL     1     -16.369 -44.470   4.499  1.00  0.00     0.025 C 
BRANCH   8   9
ATOM      9  C   UNL     1     -17.675 -45.134   4.638  1.00  0.00     0.064 C 
ATOM     10  O   UNL     1     -18.635 -44.851   3.873  1.00  0.00    -0.545 OA
ATOM     11  O   UNL     1     -17.853 -46.088   5.631  1.00  0.00    -0.545 OA
ENDBRANCH   8   9
ENDBRANCH   1   7
BRANCH   4  12
ATOM     12  O   UNL     1     -11.901 -42.850   0.652  1.00  0.00    -0.504 OA
ATOM     13  H   UNL     1     -11.530 -43.572   0.046  1.00  0.00     0.293 HD
ENDBRANCH   4  12
BRANCH   6  14
ATOM     14  O   UNL     1     -10.430 -42.261   2.990  1.00  0.00    -0.504 OA
ATOM     15  H   UNL     1      -9.575 -42.804   2.995  1.00  0.00     0.293 HD
ENDBRANCH   6  14
TORSDOF 4
ENDMDL
MODEL 7
REMARK VINA RESULT:    -4.973      7.129      8.582
REMARK INTER + INTRA:          -5.969
REMARK INTER:                  -5.846
REMARK INTRA:                  -0.122
REMARK UNBOUND:                -0.124
REMARK SMILES O=C([O-])C=Cc1ccc(O)c(O)c1
REMARK SMILES IDX 6 1 13 2 7 3 11 4 8 5 9 6 5 7 4 8 2 9 1 10 3 11 12 12 10 14
REMARK H PARENT 12 13 10 15
REMARK Flexibility Score: inf
ROOT
ATOM      1  C   UNL     1     -17.725 -44.545   1.851  1.00  0.00    -0.022 A 
ATOM      2  C   UNL     1     -18.979 -44.294   2.445  1.00  0.00     0.058 A 
ATOM      3  C   UNL     1     -16.638 -44.875   2.675  1.00  0.00     0.012 A 
ATOM      4  C   UNL     1     -19.142 -44.397   3.835  1.00  0.00     0.157 A 
ATOM      5  C   UNL     1     -16.801 -44.980   4.059  1.00  0.00     0.051 A 
ATOM      6  C   UNL     1     -18.048 -44.746   4.644  1.00  0.00     0.157 A 
ENDROOT
BRANCH   1   7
ATOM      7  C   UNL     1     -17.499 -44.438   0.388  1.00  0.00     0.010 C 
ATOM      8  C   UNL     1     -18.477 -44.219  -0.503  1.00  0.00     0.025 C 
BRANCH   8   9
ATOM      9  C   UNL     1     -18.217 -44.130  -1.950  1.00  0.00     0.064 C 
ATOM     10  O   UNL     1     -18.263 -43.025  -2.554  1.00  0.00    -0.545 OA
ATOM     11  O   UNL     1     -17.915 -45.284  -2.661  1.00  0.00    -0.545 OA
ENDBRANCH   8   9
ENDBRANCH   1   7
BRANCH   4  12
ATOM     12  O   UNL     1     -20.387 -44.151   4.414  1.00  0.00    -0.504 OA
ATOM     13  H   UNL     1     -20.903 -43.301   4.221  1.00  0.00     0.293 HD
ENDBRANCH   4  12
BRANCH   6  14
ATOM     14  O   UNL     1     -18.181 -44.859   6.027  1.00  0.00    -0.504 OA
ATOM     15  H   UNL     1     -18.127 -44.055   6.641  1.00  0.00     0.293 HD
ENDBRANCH   6  14
TORSDOF 4
ENDMDL
MODEL 8
REMARK VINA RESULT:    -4.909      1.524      5.945
REMARK INTER + INTRA:          -5.894
REMARK INTER:                  -5.743
REMARK INTRA:                  -0.151
REMARK UNBOUND:                -0.124
REMARK SMILES O=C([O-])C=Cc1ccc(O)c(O)c1
REMARK SMILES IDX 6 1 13 2 7 3 11 4 8 5 9 6 5 7 4 8 2 9 1 10 3 11 12 12 10 14
REMARK H PARENT 12 13 10 15
REMARK Flexibility Score: inf
ROOT
ATOM      1  C   UNL     1     -11.258 -45.759  -3.405  1.00  0.00    -0.022 A 
ATOM      2  C   UNL     1     -10.485 -45.155  -4.417  1.00  0.00     0.058 A 
ATOM      3  C   UNL     1     -11.244 -45.201  -2.116  1.00  0.00     0.012 A 
ATOM      4  C   UNL     1      -9.734 -44.000  -4.146  1.00  0.00     0.157 A 
ATOM      5  C   UNL     1     -10.498 -44.051  -1.847  1.00  0.00     0.051 A 
ATOM      6  C   UNL     1      -9.745 -43.444  -2.856  1.00  0.00     0.157 A 
ENDROOT
BRANCH   1   7
ATOM      7  C   UNL     1     -12.059 -46.987  -3.638  1.00  0.00     0.010 C 
ATOM      8  C   UNL     1     -12.902 -47.509  -2.735  1.00  0.00     0.025 C 
BRANCH   8   9
ATOM      9  C   UNL     1     -13.673 -48.735  -2.997  1.00  0.00     0.064 C 
ATOM     10  O   UNL     1     -13.656 -49.701  -2.188  1.00  0.00    -0.545 OA
ATOM     11  O   UNL     1     -14.432 -48.830  -4.156  1.00  0.00    -0.545 OA
ENDBRANCH   8   9
ENDBRANCH   1   7
BRANCH   4  12
ATOM     12  O   UNL     1      -8.976 -43.406  -5.155  1.00  0.00    -0.504 OA
ATOM     13  H   UNL     1      -8.600 -42.470  -5.054  1.00  0.00     0.293 HD
ENDBRANCH   4  12
BRANCH   6  14
ATOM     14  O   UNL     1      -9.012 -42.297  -2.559  1.00  0.00    -0.504 OA
ATOM     15  H   UNL     1      -8.748 -42.056  -1.611  1.00  0.00     0.293 HD
ENDBRANCH   6  14
TORSDOF 4
ENDMDL
MODEL 9
REMARK VINA RESULT:    -4.893      1.179      2.113
REMARK INTER + INTRA:          -5.875
REMARK INTER:                  -5.727
REMARK INTRA:                  -0.148
REMARK UNBOUND:                -0.124
REMARK SMILES O=C([O-])C=Cc1ccc(O)c(O)c1
REMARK SMILES IDX 6 1 13 2 7 3 11 4 8 5 9 6 5 7 4 8 2 9 1 10 3 11 12 12 10 14
REMARK H PARENT 12 13 10 15
REMARK Flexibility Score: inf
ROOT
ATOM      1  C   UNL     1     -12.292 -46.753  -3.782  1.00  0.00    -0.022 A 
ATOM      2  C   UNL     1     -12.896 -47.769  -4.549  1.00  0.00     0.058 A 
ATOM      3  C   UNL     1     -12.766 -46.511  -2.483  1.00  0.00     0.012 A 
ATOM      4  C   UNL     1     -13.937 -48.543  -4.014  1.00  0.00     0.157 A 
ATOM      5  C   UNL     1     -13.801 -47.282  -1.948  1.00  0.00     0.051 A 
ATOM      6  C   UNL     1     -14.388 -48.300  -2.705  1.00  0.00     0.157 A 
ENDROOT
BRANCH   1   7
ATOM      7  C   UNL     1     -11.196 -45.901  -4.308  1.00  0.00     0.010 C 
ATOM      8  C   UNL     1     -10.332 -45.235  -3.529  1.00  0.00     0.025 C 
BRANCH   8   9
ATOM      9  C   UNL     1      -9.262 -44.389  -4.085  1.00  0.00     0.064 C 
ATOM     10  O   UNL     1      -8.337 -44.883  -4.782  1.00  0.00    -0.545 OA
ATOM     11  O   UNL     1      -9.274 -43.023  -3.836  1.00  0.00    -0.545 OA
ENDBRANCH   8   9
ENDBRANCH   1   7
BRANCH   4  12
ATOM     12  O   UNL     1     -14.527 -49.550  -4.778  1.00  0.00    -0.504 OA
ATOM     13  H   UNL     1     -15.521 -49.738  -4.731  1.00  0.00     0.293 HD
ENDBRANCH   4  12
BRANCH   6  14
ATOM     14  O   UNL     1     -15.418 -49.054  -2.146  1.00  0.00    -0.504 OA
ATOM     15  H   UNL     1     -16.364 -48.699  -2.067  1.00  0.00     0.293 HD
ENDBRANCH   6  14
TORSDOF 4
ENDMDL
