MODEL 1
REMARK VINA RESULT:    -6.393      0.000      0.000
REMARK INTER + INTRA:         -17.409
REMARK INTER:                 -14.615
REMARK INTRA:                  -2.795
REMARK UNBOUND:                -2.795
REMARK SMILES CCCCCCCCCCCCCCCCCCCCCCCC(=O)[O-]
REMARK SMILES IDX 13 1 14 2 15 3 16 4 17 5 18 6 19 7 20 8 21 9 22 10 23 11
REMARK SMILES IDX 24 12 25 13 26 14 12 15 11 16 10 17 9 18 8 19 7 20 6 21 5 22
REMARK SMILES IDX 4 23 3 24 2 25 1 26
REMARK H PARENT
REMARK Flexibility Score: inf
ROOT
ATOM      1  C   UNL     1       9.879 -32.570  21.347  1.00  0.00     0.000 C 
ENDROOT
BRANCH   1   2
ATOM      2  C   UNL     1      11.287 -31.971  21.255  1.00  0.00     0.000 C 
BRANCH   2   3
ATOM      3  C   UNL     1      11.230 -30.437  21.200  1.00  0.00     0.000 C 
BRANCH   3   4
ATOM      4  C   UNL     1      11.476 -29.787  22.571  1.00  0.00     0.000 C 
BRANCH   4   5
ATOM      5  C   UNL     1      12.541 -30.530  23.394  1.00  0.00     0.000 C 
BRANCH   5   6
ATOM      6  C   UNL     1      12.100 -30.785  24.846  1.00  0.00     0.000 C 
BRANCH   6   7
ATOM      7  C   UNL     1      10.572 -30.931  25.009  1.00  0.00     0.000 C 
BRANCH   7   8
ATOM      8  C   UNL     1      10.105 -32.387  24.844  1.00  0.00     0.000 C 
BRANCH   8   9
ATOM      9  C   UNL     1      11.163 -33.404  25.325  1.00  0.00     0.000 C 
BRANCH   9  10
ATOM     10  C   UNL     1      11.856 -34.167  24.181  1.00  0.00     0.006 C 
BRANCH  10  11
ATOM     11  C   UNL     1      12.412 -35.541  24.585  1.00  0.00     0.053 C 
BRANCH  11  12
ATOM     12  C   UNL     1      13.908 -35.543  24.678  1.00  0.00     0.041 C 
ATOM     13  O   UNL     1      14.538 -34.460  24.820  1.00  0.00    -0.550 OA
ATOM     14  O   UNL     1      14.610 -36.741  24.613  1.00  0.00    -0.550 OA
ENDBRANCH  11  12
ENDBRANCH  10  11
ENDBRANCH   9  10
ENDBRANCH   8   9
ENDBRANCH   7   8
ENDBRANCH   6   7
ENDBRANCH   5   6
ENDBRANCH   4   5
ENDBRANCH   3   4
ENDBRANCH   2   3
ENDBRANCH   1   2
BRANCH   1  15
ATOM     15  C   UNL     1       8.808 -31.474  21.268  1.00  0.00     0.000 C 
BRANCH  15  16
ATOM     16  C   UNL     1       7.388 -32.005  21.530  1.00  0.00     0.000 C 
BRANCH  16  17
ATOM     17  C   UNL     1       6.759 -31.473  22.835  1.00  0.00     0.000 C 
BRANCH  17  18
ATOM     18  C   UNL     1       7.437 -30.182  23.319  1.00  0.00    -0.000 C 
BRANCH  18  19
ATOM     19  C   UNL     1       6.906 -29.764  24.698  1.00  0.00    -0.000 C 
BRANCH  19  20
ATOM     20  C   UNL     1       5.397 -30.022  24.867  1.00  0.00    -0.000 C 
BRANCH  20  21
ATOM     21  C   UNL     1       4.651 -29.004  25.749  1.00  0.00    -0.000 C 
BRANCH  21  22
ATOM     22  C   UNL     1       3.160 -28.882  25.396  1.00  0.00    -0.000 C 
BRANCH  22  23
ATOM     23  C   UNL     1       2.838 -29.370  23.972  1.00  0.00    -0.000 C 
BRANCH  23  24
ATOM     24  C   UNL     1       1.794 -28.533  23.207  1.00  0.00    -0.000 C 
BRANCH  24  25
ATOM     25  C   UNL     1       0.531 -29.300  22.779  1.00  0.00    -0.003 C 
ATOM     26  C   UNL     1       0.503 -30.738  23.295  1.00  0.00     0.004 C 
ENDBRANCH  24  25
ENDBRANCH  23  24
ENDBRANCH  22  23
ENDBRANCH  21  22
ENDBRANCH  20  21
ENDBRANCH  19  20
ENDBRANCH  18  19
ENDBRANCH  17  18
ENDBRANCH  16  17
ENDBRANCH  15  16
ENDBRANCH   1  15
TORSDOF 22
ENDMDL
MODEL 2
REMARK VINA RESULT:    -6.320      4.338      8.832
REMARK INTER + INTRA:         -17.243
REMARK INTER:                 -14.148
REMARK INTRA:                  -3.094
REMARK UNBOUND:                -2.795
REMARK SMILES CCCCCCCCCCCCCCCCCCCCCCCC(=O)[O-]
REMARK SMILES IDX 13 1 14 2 15 3 16 4 17 5 18 6 19 7 20 8 21 9 22 10 23 11
REMARK SMILES IDX 24 12 25 13 26 14 12 15 11 16 10 17 9 18 8 19 7 20 6 21 5 22
REMARK SMILES IDX 4 23 3 24 2 25 1 26
REMARK H PARENT
REMARK Flexibility Score: inf
ROOT
ATOM      1  C   UNL     1      10.707 -33.101  21.245  1.00  0.00     0.000 C 
ENDROOT
BRANCH   1   2
ATOM      2  C   UNL     1       9.386 -32.356  21.025  1.00  0.00     0.000 C 
BRANCH   2   3
ATOM      3  C   UNL     1       9.536 -30.862  21.350  1.00  0.00     0.000 C 
BRANCH   3   4
ATOM      4  C   UNL     1       8.207 -30.098  21.244  1.00  0.00     0.000 C 
BRANCH   4   5
ATOM      5  C   UNL     1       7.731 -29.550  22.600  1.00  0.00     0.000 C 
BRANCH   5   6
ATOM      6  C   UNL     1       7.278 -30.660  23.564  1.00  0.00     0.000 C 
BRANCH   6   7
ATOM      7  C   UNL     1       6.375 -30.151  24.708  1.00  0.00     0.000 C 
BRANCH   7   8
ATOM      8  C   UNL     1       4.967 -29.776  24.216  1.00  0.00     0.000 C 
BRANCH   8   9
ATOM      9  C   UNL     1       4.117 -29.105  25.317  1.00  0.00     0.000 C 
BRANCH   9  10
ATOM     10  C   UNL     1       2.707 -28.695  24.850  1.00  0.00     0.006 C 
BRANCH  10  11
ATOM     11  C   UNL     1       2.179 -29.505  23.656  1.00  0.00     0.053 C 
BRANCH  11  12
ATOM     12  C   UNL     1       0.873 -30.175  23.958  1.00  0.00     0.041 C 
ATOM     13  O   UNL     1       0.328 -30.921  23.101  1.00  0.00    -0.550 OA
ATOM     14  O   UNL     1       0.257 -29.982  25.189  1.00  0.00    -0.550 OA
ENDBRANCH  11  12
ENDBRANCH  10  11
ENDBRANCH   9  10
ENDBRANCH   8   9
ENDBRANCH   7   8
ENDBRANCH   6   7
ENDBRANCH   5   6
ENDBRANCH   4   5
ENDBRANCH   3   4
ENDBRANCH   2   3
ENDBRANCH   1   2
BRANCH   1  15
ATOM     15  C   UNL     1      11.881 -32.120  21.356  1.00  0.00     0.000 C 
BRANCH  15  16
ATOM     16  C   UNL     1      13.231 -32.824  21.578  1.00  0.00     0.000 C 
BRANCH  16  17
ATOM     17  C   UNL     1      13.696 -32.821  23.050  1.00  0.00     0.000 C 
BRANCH  17  18
ATOM     18  C   UNL     1      13.224 -34.070  23.808  1.00  0.00    -0.000 C 
BRANCH  18  19
ATOM     19  C   UNL     1      13.445 -33.914  25.320  1.00  0.00    -0.000 C 
BRANCH  19  20
ATOM     20  C   UNL     1      12.369 -33.048  26.001  1.00  0.00    -0.000 C 
BRANCH  20  21
ATOM     21  C   UNL     1      10.965 -33.130  25.372  1.00  0.00    -0.000 C 
BRANCH  21  22
ATOM     22  C   UNL     1      10.510 -31.802  24.744  1.00  0.00    -0.000 C 
BRANCH  22  23
ATOM     23  C   UNL     1      11.447 -30.627  25.080  1.00  0.00    -0.000 C 
BRANCH  23  24
ATOM     24  C   UNL     1      11.898 -29.779  23.874  1.00  0.00    -0.000 C 
BRANCH  24  25
ATOM     25  C   UNL     1      13.357 -29.294  23.928  1.00  0.00    -0.003 C 
ATOM     26  C   UNL     1      13.741 -28.710  25.287  1.00  0.00     0.004 C 
ENDBRANCH  24  25
ENDBRANCH  23  24
ENDBRANCH  22  23
ENDBRANCH  21  22
ENDBRANCH  20  21
ENDBRANCH  19  20
ENDBRANCH  18  19
ENDBRANCH  17  18
ENDBRANCH  16  17
ENDBRANCH  15  16
ENDBRANCH   1  15
TORSDOF 22
ENDMDL
MODEL 3
REMARK VINA RESULT:    -6.161      2.221      3.175
REMARK INTER + INTRA:         -16.880
REMARK INTER:                 -13.714
REMARK INTRA:                  -3.167
REMARK UNBOUND:                -2.795
REMARK SMILES CCCCCCCCCCCCCCCCCCCCCCCC(=O)[O-]
REMARK SMILES IDX 13 1 14 2 15 3 16 4 17 5 18 6 19 7 20 8 21 9 22 10 23 11
REMARK SMILES IDX 24 12 25 13 26 14 12 15 11 16 10 17 9 18 8 19 7 20 6 21 5 22
REMARK SMILES IDX 4 23 3 24 2 25 1 26
REMARK H PARENT
REMARK Flexibility Score: inf
ROOT
ATOM      1  C   UNL     1       9.398 -32.383  21.190  1.00  0.00     0.000 C 
ENDROOT
BRANCH   1   2
ATOM      2  C   UNL     1      10.699 -33.160  21.422  1.00  0.00     0.000 C 
BRANCH   2   3
ATOM      3  C   UNL     1      11.903 -32.210  21.492  1.00  0.00     0.000 C 
BRANCH   3   4
ATOM      4  C   UNL     1      13.240 -32.957  21.615  1.00  0.00     0.000 C 
BRANCH   4   5
ATOM      5  C   UNL     1      13.837 -32.871  23.029  1.00  0.00     0.000 C 
BRANCH   5   6
ATOM      6  C   UNL     1      13.656 -34.170  23.832  1.00  0.00     0.000 C 
BRANCH   6   7
ATOM      7  C   UNL     1      12.272 -34.289  24.505  1.00  0.00     0.000 C 
BRANCH   7   8
ATOM      8  C   UNL     1      11.979 -33.110  25.448  1.00  0.00     0.000 C 
BRANCH   8   9
ATOM      9  C   UNL     1      10.727 -32.312  25.023  1.00  0.00     0.000 C 
BRANCH   9  10
ATOM     10  C   UNL     1      11.016 -30.837  24.687  1.00  0.00     0.006 C 
BRANCH  10  11
ATOM     11  C   UNL     1      12.343 -30.310  25.253  1.00  0.00     0.053 C 
BRANCH  11  12
ATOM     12  C   UNL     1      13.026 -29.365  24.311  1.00  0.00     0.041 C 
ATOM     13  O   UNL     1      13.946 -28.609  24.725  1.00  0.00    -0.550 OA
ATOM     14  O   UNL     1      12.653 -29.321  22.973  1.00  0.00    -0.550 OA
ENDBRANCH  11  12
ENDBRANCH  10  11
ENDBRANCH   9  10
ENDBRANCH   8   9
ENDBRANCH   7   8
ENDBRANCH   6   7
ENDBRANCH   5   6
ENDBRANCH   4   5
ENDBRANCH   3   4
ENDBRANCH   2   3
ENDBRANCH   1   2
BRANCH   1  15
ATOM     15  C   UNL     1       9.650 -30.869  21.212  1.00  0.00     0.000 C 
BRANCH  15  16
ATOM     16  C   UNL     1       8.351 -30.046  21.181  1.00  0.00     0.000 C 
BRANCH  16  17
ATOM     17  C   UNL     1       7.947 -29.475  22.557  1.00  0.00     0.000 C 
BRANCH  17  18
ATOM     18  C   UNL     1       6.750 -30.221  23.164  1.00  0.00    -0.000 C 
BRANCH  18  19
ATOM     19  C   UNL     1       7.165 -31.004  24.418  1.00  0.00    -0.000 C 
BRANCH  19  20
ATOM     20  C   UNL     1       6.496 -30.482  25.704  1.00  0.00    -0.000 C 
BRANCH  20  21
ATOM     21  C   UNL     1       5.673 -29.192  25.539  1.00  0.00    -0.000 C 
BRANCH  21  22
ATOM     22  C   UNL     1       4.203 -29.359  25.956  1.00  0.00    -0.000 C 
BRANCH  22  23
ATOM     23  C   UNL     1       3.230 -28.585  25.049  1.00  0.00    -0.000 C 
BRANCH  23  24
ATOM     24  C   UNL     1       2.590 -29.408  23.914  1.00  0.00    -0.000 C 
BRANCH  24  25
ATOM     25  C   UNL     1       1.101 -29.741  24.109  1.00  0.00    -0.003 C 
ATOM     26  C   UNL     1       0.580 -30.762  23.099  1.00  0.00     0.004 C 
ENDBRANCH  24  25
ENDBRANCH  23  24
ENDBRANCH  22  23
ENDBRANCH  21  22
ENDBRANCH  20  21
ENDBRANCH  19  20
ENDBRANCH  18  19
ENDBRANCH  17  18
ENDBRANCH  16  17
ENDBRANCH  15  16
ENDBRANCH   1  15
TORSDOF 22
ENDMDL
MODEL 4
REMARK VINA RESULT:    -6.152      4.455      9.215
REMARK INTER + INTRA:         -16.859
REMARK INTER:                 -14.232
REMARK INTRA:                  -2.628
REMARK UNBOUND:                -2.795
REMARK SMILES CCCCCCCCCCCCCCCCCCCCCCCC(=O)[O-]
REMARK SMILES IDX 13 1 14 2 15 3 16 4 17 5 18 6 19 7 20 8 21 9 22 10 23 11
REMARK SMILES IDX 24 12 25 13 26 14 12 15 11 16 10 17 9 18 8 19 7 20 6 21 5 22
REMARK SMILES IDX 4 23 3 24 2 25 1 26
REMARK H PARENT
REMARK Flexibility Score: inf
ROOT
ATOM      1  C   UNL     1       8.871 -30.968  20.742  1.00  0.00     0.000 C 
ENDROOT
BRANCH   1   2
ATOM      2  C   UNL     1       7.786 -30.242  21.546  1.00  0.00     0.000 C 
BRANCH   2   3
ATOM      3  C   UNL     1       8.407 -29.361  22.639  1.00  0.00     0.000 C 
BRANCH   3   4
ATOM      4  C   UNL     1       8.676 -30.134  23.940  1.00  0.00     0.000 C 
BRANCH   4   5
ATOM      5  C   UNL     1       7.589 -31.179  24.241  1.00  0.00     0.000 C 
BRANCH   5   6
ATOM      6  C   UNL     1       6.881 -30.931  25.584  1.00  0.00     0.000 C 
BRANCH   6   7
ATOM      7  C   UNL     1       6.130 -29.584  25.645  1.00  0.00     0.000 C 
BRANCH   7   8
ATOM      8  C   UNL     1       4.880 -29.574  24.748  1.00  0.00     0.000 C 
BRANCH   8   9
ATOM      9  C   UNL     1       3.654 -28.953  25.453  1.00  0.00     0.000 C 
BRANCH   9  10
ATOM     10  C   UNL     1       2.504 -28.592  24.493  1.00  0.00     0.006 C 
BRANCH  10  11
ATOM     11  C   UNL     1       2.062 -29.744  23.578  1.00  0.00     0.053 C 
BRANCH  11  12
ATOM     12  C   UNL     1       0.704 -30.266  23.939  1.00  0.00     0.041 C 
ATOM     13  O   UNL     1       0.032 -30.923  23.099  1.00  0.00    -0.550 OA
ATOM     14  O   UNL     1       0.180 -30.034  25.205  1.00  0.00    -0.550 OA
ENDBRANCH  11  12
ENDBRANCH  10  11
ENDBRANCH   9  10
ENDBRANCH   8   9
ENDBRANCH   7   8
ENDBRANCH   6   7
ENDBRANCH   5   6
ENDBRANCH   4   5
ENDBRANCH   3   4
ENDBRANCH   2   3
ENDBRANCH   1   2
BRANCH   1  15
ATOM     15  C   UNL     1       8.814 -32.482  20.982  1.00  0.00     0.000 C 
BRANCH  15  16
ATOM     16  C   UNL     1      10.187 -33.162  20.844  1.00  0.00     0.000 C 
BRANCH  16  17
ATOM     17  C   UNL     1      11.079 -33.015  22.095  1.00  0.00     0.000 C 
BRANCH  17  18
ATOM     18  C   UNL     1      12.230 -32.022  21.872  1.00  0.00    -0.000 C 
BRANCH  18  19
ATOM     19  C   UNL     1      12.008 -30.731  22.673  1.00  0.00    -0.000 C 
BRANCH  19  20
ATOM     20  C   UNL     1      13.181 -30.395  23.613  1.00  0.00    -0.000 C 
BRANCH  20  21
ATOM     21  C   UNL     1      12.854 -30.447  25.117  1.00  0.00    -0.000 C 
BRANCH  21  22
ATOM     22  C   UNL     1      11.937 -31.623  25.491  1.00  0.00    -0.000 C 
BRANCH  22  23
ATOM     23  C   UNL     1      12.715 -32.856  25.987  1.00  0.00    -0.000 C 
BRANCH  23  24
ATOM     24  C   UNL     1      13.331 -33.735  24.881  1.00  0.00    -0.000 C 
BRANCH  24  25
ATOM     25  C   UNL     1      14.446 -34.686  25.350  1.00  0.00    -0.003 C 
ATOM     26  C   UNL     1      14.412 -36.039  24.641  1.00  0.00     0.004 C 
ENDBRANCH  24  25
ENDBRANCH  23  24
ENDBRANCH  22  23
ENDBRANCH  21  22
ENDBRANCH  20  21
ENDBRANCH  19  20
ENDBRANCH  18  19
ENDBRANCH  17  18
ENDBRANCH  16  17
ENDBRANCH  15  16
ENDBRANCH   1  15
TORSDOF 22
ENDMDL
MODEL 5
REMARK VINA RESULT:    -6.034      4.157      8.405
REMARK INTER + INTRA:         -16.590
REMARK INTER:                 -13.002
REMARK INTRA:                  -3.588
REMARK UNBOUND:                -2.795
REMARK SMILES CCCCCCCCCCCCCCCCCCCCCCCC(=O)[O-]
REMARK SMILES IDX 13 1 14 2 15 3 16 4 17 5 18 6 19 7 20 8 21 9 22 10 23 11
REMARK SMILES IDX 24 12 25 13 26 14 12 15 11 16 10 17 9 18 8 19 7 20 6 21 5 22
REMARK SMILES IDX 4 23 3 24 2 25 1 26
REMARK H PARENT
REMARK Flexibility Score: inf
ROOT
ATOM      1  C   UNL     1      12.928 -32.414  21.628  1.00  0.00     0.000 C 
ENDROOT
BRANCH   1   2
ATOM      2  C   UNL     1      11.526 -32.962  21.915  1.00  0.00     0.000 C 
BRANCH   2   3
ATOM      3  C   UNL     1      10.447 -32.078  21.272  1.00  0.00     0.000 C 
BRANCH   3   4
ATOM      4  C   UNL     1       9.070 -32.761  21.231  1.00  0.00     0.000 C 
BRANCH   4   5
ATOM      5  C   UNL     1       7.915 -31.774  21.464  1.00  0.00     0.000 C 
BRANCH   5   6
ATOM      6  C   UNL     1       8.378 -30.308  21.479  1.00  0.00     0.000 C 
BRANCH   6   7
ATOM      7  C   UNL     1       7.817 -29.497  22.666  1.00  0.00     0.000 C 
BRANCH   7   8
ATOM      8  C   UNL     1       6.592 -30.171  23.305  1.00  0.00     0.000 C 
BRANCH   8   9
ATOM      9  C   UNL     1       6.420 -29.794  24.793  1.00  0.00     0.000 C 
BRANCH   9  10
ATOM     10  C   UNL     1       4.985 -29.377  25.166  1.00  0.00     0.006 C 
BRANCH  10  11
ATOM     11  C   UNL     1       3.934 -29.708  24.095  1.00  0.00     0.053 C 
BRANCH  11  12
ATOM     12  C   UNL     1       2.629 -29.015  24.347  1.00  0.00     0.041 C 
ATOM     13  O   UNL     1       2.180 -28.182  23.515  1.00  0.00    -0.550 OA
ATOM     14  O   UNL     1       1.903 -29.291  25.500  1.00  0.00    -0.550 OA
ENDBRANCH  11  12
ENDBRANCH  10  11
ENDBRANCH   9  10
ENDBRANCH   8   9
ENDBRANCH   7   8
ENDBRANCH   6   7
ENDBRANCH   5   6
ENDBRANCH   4   5
ENDBRANCH   3   4
ENDBRANCH   2   3
ENDBRANCH   1   2
BRANCH   1  15
ATOM     15  C   UNL     1      13.957 -32.996  22.606  1.00  0.00     0.000 C 
BRANCH  15  16
ATOM     16  C   UNL     1      13.349 -34.027  23.572  1.00  0.00     0.000 C 
BRANCH  16  17
ATOM     17  C   UNL     1      13.960 -33.983  24.989  1.00  0.00     0.000 C 
BRANCH  17  18
ATOM     18  C   UNL     1      12.897 -33.733  26.069  1.00  0.00    -0.000 C 
BRANCH  18  19
ATOM     19  C   UNL     1      11.573 -34.422  25.710  1.00  0.00    -0.000 C 
BRANCH  19  20
ATOM     20  C   UNL     1      10.409 -33.431  25.523  1.00  0.00    -0.000 C 
BRANCH  20  21
ATOM     21  C   UNL     1      10.750 -31.956  25.807  1.00  0.00    -0.000 C 
BRANCH  21  22
ATOM     22  C   UNL     1      10.104 -30.987  24.803  1.00  0.00    -0.000 C 
BRANCH  22  23
ATOM     23  C   UNL     1      11.127 -30.059  24.122  1.00  0.00    -0.000 C 
BRANCH  23  24
ATOM     24  C   UNL     1      12.593 -30.263  24.556  1.00  0.00    -0.000 C 
BRANCH  24  25
ATOM     25  C   UNL     1      13.502 -29.035  24.376  1.00  0.00    -0.003 C 
ATOM     26  C   UNL     1      14.099 -28.537  25.691  1.00  0.00     0.004 C 
ENDBRANCH  24  25
ENDBRANCH  23  24
ENDBRANCH  22  23
ENDBRANCH  21  22
ENDBRANCH  20  21
ENDBRANCH  19  20
ENDBRANCH  18  19
ENDBRANCH  17  18
ENDBRANCH  16  17
ENDBRANCH  15  16
ENDBRANCH   1  15
TORSDOF 22
ENDMDL
MODEL 6
REMARK VINA RESULT:    -5.834      4.385      8.964
REMARK INTER + INTRA:         -16.133
REMARK INTER:                 -12.914
REMARK INTRA:                  -3.219
REMARK UNBOUND:                -2.795
REMARK SMILES CCCCCCCCCCCCCCCCCCCCCCCC(=O)[O-]
REMARK SMILES IDX 13 1 14 2 15 3 16 4 17 5 18 6 19 7 20 8 21 9 22 10 23 11
REMARK SMILES IDX 24 12 25 13 26 14 12 15 11 16 10 17 9 18 8 19 7 20 6 21 5 22
REMARK SMILES IDX 4 23 3 24 2 25 1 26
REMARK H PARENT
REMARK Flexibility Score: inf
ROOT
ATOM      1  C   UNL     1       9.009 -31.404  20.841  1.00  0.00     0.000 C 
ENDROOT
BRANCH   1   2
ATOM      2  C   UNL     1       8.480 -30.753  22.124  1.00  0.00     0.000 C 
BRANCH   2   3
ATOM      3  C   UNL     1       7.114 -31.336  22.514  1.00  0.00     0.000 C 
BRANCH   3   4
ATOM      4  C   UNL     1       6.789 -31.135  24.003  1.00  0.00     0.000 C 
BRANCH   4   5
ATOM      5  C   UNL     1       7.081 -29.704  24.483  1.00  0.00     0.000 C 
BRANCH   5   6
ATOM      6  C   UNL     1       6.523 -29.423  25.889  1.00  0.00     0.000 C 
BRANCH   6   7
ATOM      7  C   UNL     1       5.017 -29.734  26.026  1.00  0.00     0.000 C 
BRANCH   7   8
ATOM      8  C   UNL     1       4.151 -28.823  25.140  1.00  0.00     0.000 C 
BRANCH   8   9
ATOM      9  C   UNL     1       3.210 -29.624  24.214  1.00  0.00     0.000 C 
BRANCH   9  10
ATOM     10  C   UNL     1       2.286 -28.740  23.354  1.00  0.00     0.006 C 
BRANCH  10  11
ATOM     11  C   UNL     1       0.874 -28.557  23.931  1.00  0.00     0.053 C 
BRANCH  11  12
ATOM     12  C   UNL     1       0.285 -29.849  24.410  1.00  0.00     0.041 C 
ATOM     13  O   UNL     1       0.089 -30.797  23.603  1.00  0.00    -0.550 OA
ATOM     14  O   UNL     1      -0.046 -30.011  25.751  1.00  0.00    -0.550 OA
ENDBRANCH  11  12
ENDBRANCH  10  11
ENDBRANCH   9  10
ENDBRANCH   8   9
ENDBRANCH   7   8
ENDBRANCH   6   7
ENDBRANCH   5   6
ENDBRANCH   4   5
ENDBRANCH   3   4
ENDBRANCH   2   3
ENDBRANCH   1   2
BRANCH   1  15
ATOM     15  C   UNL     1       9.359 -32.879  21.075  1.00  0.00     0.000 C 
BRANCH  15  16
ATOM     16  C   UNL     1      10.688 -33.068  21.827  1.00  0.00     0.000 C 
BRANCH  16  17
ATOM     17  C   UNL     1      11.870 -32.305  21.194  1.00  0.00     0.000 C 
BRANCH  17  18
ATOM     18  C   UNL     1      13.210 -32.662  21.854  1.00  0.00    -0.000 C 
BRANCH  18  19
ATOM     19  C   UNL     1      13.360 -31.960  23.211  1.00  0.00    -0.000 C 
BRANCH  19  20
ATOM     20  C   UNL     1      12.788 -30.530  23.218  1.00  0.00    -0.000 C 
BRANCH  20  21
ATOM     21  C   UNL     1      11.642 -30.286  24.216  1.00  0.00    -0.000 C 
BRANCH  21  22
ATOM     22  C   UNL     1      11.594 -31.330  25.343  1.00  0.00    -0.000 C 
BRANCH  22  23
ATOM     23  C   UNL     1      10.242 -32.062  25.426  1.00  0.00    -0.000 C 
BRANCH  23  24
ATOM     24  C   UNL     1      10.329 -33.595  25.564  1.00  0.00    -0.000 C 
BRANCH  24  25
ATOM     25  C   UNL     1      11.746 -34.181  25.435  1.00  0.00    -0.003 C 
ATOM     26  C   UNL     1      11.790 -35.452  24.589  1.00  0.00     0.004 C 
ENDBRANCH  24  25
ENDBRANCH  23  24
ENDBRANCH  22  23
ENDBRANCH  21  22
ENDBRANCH  20  21
ENDBRANCH  19  20
ENDBRANCH  18  19
ENDBRANCH  17  18
ENDBRANCH  16  17
ENDBRANCH  15  16
ENDBRANCH   1  15
TORSDOF 22
ENDMDL
MODEL 7
REMARK VINA RESULT:    -5.822      2.339      3.449
REMARK INTER + INTRA:         -16.105
REMARK INTER:                 -14.163
REMARK INTRA:                  -1.942
REMARK UNBOUND:                -2.795
REMARK SMILES CCCCCCCCCCCCCCCCCCCCCCCC(=O)[O-]
REMARK SMILES IDX 13 1 14 2 15 3 16 4 17 5 18 6 19 7 20 8 21 9 22 10 23 11
REMARK SMILES IDX 24 12 25 13 26 14 12 15 11 16 10 17 9 18 8 19 7 20 6 21 5 22
REMARK SMILES IDX 4 23 3 24 2 25 1 26
REMARK H PARENT
REMARK Flexibility Score: inf
ROOT
ATOM      1  C   UNL     1       8.582 -30.617  21.402  1.00  0.00     0.000 C 
ENDROOT
BRANCH   1   2
ATOM      2  C   UNL     1       9.441 -31.472  20.463  1.00  0.00     0.000 C 
BRANCH   2   3
ATOM      3  C   UNL     1       9.327 -32.962  20.816  1.00  0.00     0.000 C 
BRANCH   3   4
ATOM      4  C   UNL     1      10.665 -33.566  21.271  1.00  0.00     0.000 C 
BRANCH   4   5
ATOM      5  C   UNL     1      11.524 -32.567  22.064  1.00  0.00     0.000 C 
BRANCH   5   6
ATOM      6  C   UNL     1      13.033 -32.776  21.846  1.00  0.00     0.000 C 
BRANCH   6   7
ATOM      7  C   UNL     1      13.804 -33.093  23.144  1.00  0.00     0.000 C 
BRANCH   7   8
ATOM      8  C   UNL     1      12.863 -33.408  24.319  1.00  0.00     0.000 C 
BRANCH   8   9
ATOM      9  C   UNL     1      12.954 -32.354  25.445  1.00  0.00     0.000 C 
BRANCH   9  10
ATOM     10  C   UNL     1      12.214 -31.041  25.127  1.00  0.00     0.006 C 
BRANCH  10  11
ATOM     11  C   UNL     1      13.110 -29.793  25.143  1.00  0.00     0.053 C 
BRANCH  11  12
ATOM     12  C   UNL     1      13.240 -29.169  23.787  1.00  0.00     0.041 C 
ATOM     13  O   UNL     1      14.187 -28.376  23.540  1.00  0.00    -0.550 OA
ATOM     14  O   UNL     1      12.317 -29.465  22.791  1.00  0.00    -0.550 OA
ENDBRANCH  11  12
ENDBRANCH  10  11
ENDBRANCH   9  10
ENDBRANCH   8   9
ENDBRANCH   7   8
ENDBRANCH   6   7
ENDBRANCH   5   6
ENDBRANCH   4   5
ENDBRANCH   3   4
ENDBRANCH   2   3
ENDBRANCH   1   2
BRANCH   1  15
ATOM     15  C   UNL     1       7.356 -31.399  21.891  1.00  0.00     0.000 C 
BRANCH  15  16
ATOM     16  C   UNL     1       7.192 -31.359  23.420  1.00  0.00     0.000 C 
BRANCH  16  17
ATOM     17  C   UNL     1       7.899 -30.160  24.087  1.00  0.00     0.000 C 
BRANCH  17  18
ATOM     18  C   UNL     1       7.049 -29.535  25.203  1.00  0.00    -0.000 C 
BRANCH  18  19
ATOM     19  C   UNL     1       5.571 -29.458  24.793  1.00  0.00    -0.000 C 
BRANCH  19  20
ATOM     20  C   UNL     1       4.620 -29.299  25.994  1.00  0.00    -0.000 C 
BRANCH  20  21
ATOM     21  C   UNL     1       3.248 -28.678  25.668  1.00  0.00    -0.000 C 
BRANCH  21  22
ATOM     22  C   UNL     1       2.794 -28.950  24.225  1.00  0.00    -0.000 C 
BRANCH  22  23
ATOM     23  C   UNL     1       1.630 -28.045  23.781  1.00  0.00    -0.000 C 
BRANCH  23  24
ATOM     24  C   UNL     1       0.220 -28.579  24.103  1.00  0.00    -0.000 C 
BRANCH  24  25
ATOM     25  C   UNL     1       0.133 -30.100  24.320  1.00  0.00    -0.003 C 
ATOM     26  C   UNL     1      -0.125 -30.872  23.027  1.00  0.00     0.004 C 
ENDBRANCH  24  25
ENDBRANCH  23  24
ENDBRANCH  22  23
ENDBRANCH  21  22
ENDBRANCH  20  21
ENDBRANCH  19  20
ENDBRANCH  18  19
ENDBRANCH  17  18
ENDBRANCH  16  17
ENDBRANCH  15  16
ENDBRANCH   1  15
TORSDOF 22
ENDMDL
MODEL 8
REMARK VINA RESULT:    -5.793      4.370      9.156
REMARK INTER + INTRA:         -16.038
REMARK INTER:                 -13.308
REMARK INTRA:                  -2.730
REMARK UNBOUND:                -2.795
REMARK SMILES CCCCCCCCCCCCCCCCCCCCCCCC(=O)[O-]
REMARK SMILES IDX 13 1 14 2 15 3 16 4 17 5 18 6 19 7 20 8 21 9 22 10 23 11
REMARK SMILES IDX 24 12 25 13 26 14 12 15 11 16 10 17 9 18 8 19 7 20 6 21 5 22
REMARK SMILES IDX 4 23 3 24 2 25 1 26
REMARK H PARENT
REMARK Flexibility Score: inf
ROOT
ATOM      1  C   UNL     1      10.407 -32.105  21.148  1.00  0.00     0.000 C 
ENDROOT
BRANCH   1   2
ATOM      2  C   UNL     1       9.372 -31.920  22.264  1.00  0.00     0.000 C 
BRANCH   2   3
ATOM      3  C   UNL     1       7.996 -31.560  21.684  1.00  0.00     0.000 C 
BRANCH   3   4
ATOM      4  C   UNL     1       7.849 -30.056  21.404  1.00  0.00     0.000 C 
BRANCH   4   5
ATOM      5  C   UNL     1       7.392 -29.266  22.641  1.00  0.00     0.000 C 
BRANCH   5   6
ATOM      6  C   UNL     1       6.672 -30.147  23.677  1.00  0.00     0.000 C 
BRANCH   6   7
ATOM      7  C   UNL     1       6.573 -29.499  25.074  1.00  0.00     0.000 C 
BRANCH   7   8
ATOM      8  C   UNL     1       5.211 -29.753  25.740  1.00  0.00     0.000 C 
BRANCH   8   9
ATOM      9  C   UNL     1       4.190 -28.634  25.440  1.00  0.00     0.000 C 
BRANCH   9  10
ATOM     10  C   UNL     1       2.749 -29.144  25.244  1.00  0.00     0.006 C 
BRANCH  10  11
ATOM     11  C   UNL     1       2.456 -29.678  23.834  1.00  0.00     0.053 C 
BRANCH  11  12
ATOM     12  C   UNL     1       0.986 -29.785  23.561  1.00  0.00     0.041 C 
ATOM     13  O   UNL     1       0.496 -29.286  22.513  1.00  0.00    -0.550 OA
ATOM     14  O   UNL     1       0.155 -30.440  24.462  1.00  0.00    -0.550 OA
ENDBRANCH  11  12
ENDBRANCH  10  11
ENDBRANCH   9  10
ENDBRANCH   8   9
ENDBRANCH   7   8
ENDBRANCH   6   7
ENDBRANCH   5   6
ENDBRANCH   4   5
ENDBRANCH   3   4
ENDBRANCH   2   3
ENDBRANCH   1   2
BRANCH   1  15
ATOM     15  C   UNL     1      11.485 -31.015  21.212  1.00  0.00     0.000 C 
BRANCH  15  16
ATOM     16  C   UNL     1      11.273 -30.030  22.374  1.00  0.00     0.000 C 
BRANCH  16  17
ATOM     17  C   UNL     1      12.575 -29.653  23.112  1.00  0.00     0.000 C 
BRANCH  17  18
ATOM     18  C   UNL     1      12.536 -30.051  24.595  1.00  0.00    -0.000 C 
BRANCH  18  19
ATOM     19  C   UNL     1      11.255 -30.831  24.923  1.00  0.00    -0.000 C 
BRANCH  19  20
ATOM     20  C   UNL     1      11.503 -32.033  25.854  1.00  0.00    -0.000 C 
BRANCH  20  21
ATOM     21  C   UNL     1      10.892 -33.366  25.381  1.00  0.00    -0.000 C 
BRANCH  21  22
ATOM     22  C   UNL     1      11.936 -34.483  25.226  1.00  0.00    -0.000 C 
BRANCH  22  23
ATOM     23  C   UNL     1      13.384 -33.958  25.239  1.00  0.00    -0.000 C 
BRANCH  23  24
ATOM     24  C   UNL     1      14.144 -34.087  23.904  1.00  0.00    -0.000 C 
BRANCH  24  25
ATOM     25  C   UNL     1      13.943 -32.918  22.924  1.00  0.00    -0.003 C 
ATOM     26  C   UNL     1      14.813 -33.032  21.674  1.00  0.00     0.004 C 
ENDBRANCH  24  25
ENDBRANCH  23  24
ENDBRANCH  22  23
ENDBRANCH  21  22
ENDBRANCH  20  21
ENDBRANCH  19  20
ENDBRANCH  18  19
ENDBRANCH  17  18
ENDBRANCH  16  17
ENDBRANCH  15  16
ENDBRANCH   1  15
TORSDOF 22
ENDMDL
MODEL 9
REMARK VINA RESULT:    -5.791      1.566      3.024
REMARK INTER + INTRA:         -16.032
REMARK INTER:                 -13.232
REMARK INTRA:                  -2.800
REMARK UNBOUND:                -2.795
REMARK SMILES CCCCCCCCCCCCCCCCCCCCCCCC(=O)[O-]
REMARK SMILES IDX 13 1 14 2 15 3 16 4 17 5 18 6 19 7 20 8 21 9 22 10 23 11
REMARK SMILES IDX 24 12 25 13 26 14 12 15 11 16 10 17 9 18 8 19 7 20 6 21 5 22
REMARK SMILES IDX 4 23 3 24 2 25 1 26
REMARK H PARENT
REMARK Flexibility Score: inf
ROOT
ATOM      1  C   UNL     1       8.736 -29.081  22.357  1.00  0.00     0.000 C 
ENDROOT
BRANCH   1   2
ATOM      2  C   UNL     1       7.767 -30.046  21.665  1.00  0.00     0.000 C 
BRANCH   2   3
ATOM      3  C   UNL     1       8.519 -31.005  20.729  1.00  0.00     0.000 C 
BRANCH   3   4
ATOM      4  C   UNL     1       8.652 -32.419  21.315  1.00  0.00     0.000 C 
BRANCH   4   5
ATOM      5  C   UNL     1       9.914 -33.146  20.823  1.00  0.00     0.000 C 
BRANCH   5   6
ATOM      6  C   UNL     1      11.000 -33.253  21.907  1.00  0.00     0.000 C 
BRANCH   6   7
ATOM      7  C   UNL     1      12.255 -32.407  21.605  1.00  0.00     0.000 C 
BRANCH   7   8
ATOM      8  C   UNL     1      13.132 -32.201  22.852  1.00  0.00     0.000 C 
BRANCH   8   9
ATOM      9  C   UNL     1      14.101 -33.380  23.093  1.00  0.00     0.000 C 
BRANCH   9  10
ATOM     10  C   UNL     1      14.011 -33.976  24.511  1.00  0.00     0.006 C 
BRANCH  10  11
ATOM     11  C   UNL     1      13.550 -35.440  24.551  1.00  0.00     0.053 C 
BRANCH  11  12
ATOM     12  C   UNL     1      12.075 -35.564  24.786  1.00  0.00     0.041 C 
ATOM     13  O   UNL     1      11.459 -36.605  24.430  1.00  0.00    -0.550 OA
ATOM     14  O   UNL     1      11.377 -34.533  25.404  1.00  0.00    -0.550 OA
ENDBRANCH  11  12
ENDBRANCH  10  11
ENDBRANCH   9  10
ENDBRANCH   8   9
ENDBRANCH   7   8
ENDBRANCH   6   7
ENDBRANCH   5   6
ENDBRANCH   4   5
ENDBRANCH   3   4
ENDBRANCH   2   3
ENDBRANCH   1   2
BRANCH   1  15
ATOM     15  C   UNL     1       9.993 -29.816  22.842  1.00  0.00     0.000 C 
BRANCH  15  16
ATOM     16  C   UNL     1      10.015 -30.021  24.367  1.00  0.00     0.000 C 
BRANCH  16  17
ATOM     17  C   UNL     1       9.897 -31.499  24.794  1.00  0.00     0.000 C 
BRANCH  17  18
ATOM     18  C   UNL     1       8.798 -31.712  25.845  1.00  0.00    -0.000 C 
BRANCH  18  19
ATOM     19  C   UNL     1       7.403 -31.522  25.231  1.00  0.00    -0.000 C 
BRANCH  19  20
ATOM     20  C   UNL     1       6.586 -30.413  25.921  1.00  0.00    -0.000 C 
BRANCH  20  21
ATOM     21  C   UNL     1       5.840 -29.459  24.971  1.00  0.00    -0.000 C 
BRANCH  21  22
ATOM     22  C   UNL     1       4.349 -29.312  25.315  1.00  0.00    -0.000 C 
BRANCH  22  23
ATOM     23  C   UNL     1       3.440 -29.354  24.073  1.00  0.00    -0.000 C 
BRANCH  23  24
ATOM     24  C   UNL     1       1.938 -29.545  24.362  1.00  0.00    -0.000 C 
BRANCH  24  25
ATOM     25  C   UNL     1       1.034 -29.575  23.117  1.00  0.00    -0.003 C 
ATOM     26  C   UNL     1       0.056 -30.748  23.119  1.00  0.00     0.004 C 
ENDBRANCH  24  25
ENDBRANCH  23  24
ENDBRANCH  22  23
ENDBRANCH  21  22
ENDBRANCH  20  21
ENDBRANCH  19  20
ENDBRANCH  18  19
ENDBRANCH  17  18
ENDBRANCH  16  17
ENDBRANCH  15  16
ENDBRANCH   1  15
TORSDOF 22
ENDMDL
