MODEL 1
REMARK VINA RESULT:    -5.605      0.000      0.000
REMARK INTER + INTRA:         -13.325
REMARK INTER:                 -10.847
REMARK INTRA:                  -2.478
REMARK UNBOUND:                -2.478
REMARK SMILES CCCCCCCCCCCCCCCCCC(=O)[O-]
REMARK SMILES IDX 10 1 11 2 12 3 13 4 14 5 15 6 16 7 17 8 18 9 19 10 20 11
REMARK SMILES IDX 9 12 8 13 7 14 6 15 5 16 4 17 3 18 2 19 1 20
REMARK H PARENT
REMARK Flexibility Score: inf
ROOT
ATOM      1  C   UNL     1      -7.677  -4.465  15.387  1.00  0.00     0.000 C 
ENDROOT
BRANCH   1   2
ATOM      2  C   UNL     1      -8.006  -3.097  15.997  1.00  0.00     0.000 C 
BRANCH   2   3
ATOM      3  C   UNL     1      -8.373  -3.228  17.481  1.00  0.00     0.000 C 
BRANCH   3   4
ATOM      4  C   UNL     1      -9.825  -2.817  17.779  1.00  0.00     0.000 C 
BRANCH   4   5
ATOM      5  C   UNL     1     -10.715  -2.742  16.520  1.00  0.00     0.000 C 
BRANCH   5   6
ATOM      6  C   UNL     1     -12.109  -3.344  16.757  1.00  0.00     0.000 C 
BRANCH   6   7
ATOM      7  C   UNL     1     -12.891  -3.453  15.443  1.00  0.00     0.006 C 
BRANCH   7   8
ATOM      8  C   UNL     1     -12.038  -2.999  14.254  1.00  0.00     0.053 C 
BRANCH   8   9
ATOM      9  C   UNL     1     -12.791  -2.015  13.416  1.00  0.00     0.041 C 
ATOM     10  O   UNL     1     -13.960  -1.672  13.735  1.00  0.00    -0.550 OA
ATOM     11  O   UNL     1     -12.219  -1.511  12.254  1.00  0.00    -0.550 OA
ENDBRANCH   8   9
ENDBRANCH   7   8
ENDBRANCH   6   7
ENDBRANCH   5   6
ENDBRANCH   4   5
ENDBRANCH   3   4
ENDBRANCH   2   3
ENDBRANCH   1   2
BRANCH   1  12
ATOM     12  C   UNL     1      -8.918  -5.089  14.732  1.00  0.00     0.000 C 
BRANCH  12  13
ATOM     13  C   UNL     1      -9.581  -6.157  15.615  1.00  0.00    -0.000 C 
BRANCH  13  14
ATOM     14  C   UNL     1     -10.979  -6.555  15.119  1.00  0.00    -0.000 C 
BRANCH  14  15
ATOM     15  C   UNL     1     -10.979  -6.773  13.598  1.00  0.00    -0.000 C 
BRANCH  15  16
ATOM     16  C   UNL     1     -12.383  -6.666  12.982  1.00  0.00    -0.000 C 
BRANCH  16  17
ATOM     17  C   UNL     1     -12.476  -5.564  11.911  1.00  0.00    -0.000 C 
BRANCH  17  18
ATOM     18  C   UNL     1     -11.140  -5.322  11.184  1.00  0.00    -0.000 C 
BRANCH  18  19
ATOM     19  C   UNL     1     -11.231  -5.302   9.648  1.00  0.00    -0.003 C 
ATOM     20  C   UNL     1     -12.450  -6.051   9.110  1.00  0.00     0.004 C 
ENDBRANCH  18  19
ENDBRANCH  17  18
ENDBRANCH  16  17
ENDBRANCH  15  16
ENDBRANCH  14  15
ENDBRANCH  13  14
ENDBRANCH  12  13
ENDBRANCH   1  12
TORSDOF 16
ENDMDL
MODEL 2
REMARK VINA RESULT:    -5.516      1.810      4.138
REMARK INTER + INTRA:         -13.153
REMARK INTER:                 -10.027
REMARK INTRA:                  -3.126
REMARK UNBOUND:                -2.478
REMARK SMILES CCCCCCCCCCCCCCCCCC(=O)[O-]
REMARK SMILES IDX 10 1 11 2 12 3 13 4 14 5 15 6 16 7 17 8 18 9 19 10 20 11
REMARK SMILES IDX 9 12 8 13 7 14 6 15 5 16 4 17 3 18 2 19 1 20
REMARK H PARENT
REMARK Flexibility Score: inf
ROOT
ATOM      1  C   UNL     1     -12.392  -6.650  13.286  1.00  0.00     0.000 C 
ENDROOT
BRANCH   1   2
ATOM      2  C   UNL     1     -11.173  -7.434  13.786  1.00  0.00     0.000 C 
BRANCH   2   3
ATOM      3  C   UNL     1     -10.703  -6.913  15.151  1.00  0.00     0.000 C 
BRANCH   3   4
ATOM      4  C   UNL     1     -11.614  -5.812  15.717  1.00  0.00     0.000 C 
BRANCH   4   5
ATOM      5  C   UNL     1     -10.887  -4.470  15.953  1.00  0.00     0.000 C 
BRANCH   5   6
ATOM      6  C   UNL     1     -11.868  -3.304  16.149  1.00  0.00     0.000 C 
BRANCH   6   7
ATOM      7  C   UNL     1     -13.166  -3.540  15.367  1.00  0.00     0.006 C 
BRANCH   7   8
ATOM      8  C   UNL     1     -13.347  -2.488  14.269  1.00  0.00     0.053 C 
BRANCH   8   9
ATOM      9  C   UNL     1     -13.987  -3.097  13.062  1.00  0.00     0.041 C 
ATOM     10  O   UNL     1     -13.654  -2.719  11.908  1.00  0.00    -0.550 OA
ATOM     11  O   UNL     1     -14.988  -4.049  13.211  1.00  0.00    -0.550 OA
ENDBRANCH   8   9
ENDBRANCH   7   8
ENDBRANCH   6   7
ENDBRANCH   5   6
ENDBRANCH   4   5
ENDBRANCH   3   4
ENDBRANCH   2   3
ENDBRANCH   1   2
BRANCH   1  12
ATOM     12  C   UNL     1     -12.111  -6.007  11.920  1.00  0.00     0.000 C 
BRANCH  12  13
ATOM     13  C   UNL     1     -10.864  -5.109  11.933  1.00  0.00    -0.000 C 
BRANCH  13  14
ATOM     14  C   UNL     1      -9.738  -5.644  11.034  1.00  0.00    -0.000 C 
BRANCH  14  15
ATOM     15  C   UNL     1      -8.429  -5.789  11.825  1.00  0.00    -0.000 C 
BRANCH  15  16
ATOM     16  C   UNL     1      -8.412  -4.941  13.107  1.00  0.00    -0.000 C 
BRANCH  16  17
ATOM     17  C   UNL     1      -7.276  -3.903  13.113  1.00  0.00    -0.000 C 
BRANCH  17  18
ATOM     18  C   UNL     1      -7.784  -2.457  12.966  1.00  0.00    -0.000 C 
BRANCH  18  19
ATOM     19  C   UNL     1      -9.132  -2.169  13.652  1.00  0.00    -0.003 C 
ATOM     20  C   UNL     1     -10.104  -1.395  12.762  1.00  0.00     0.004 C 
ENDBRANCH  18  19
ENDBRANCH  17  18
ENDBRANCH  16  17
ENDBRANCH  15  16
ENDBRANCH  14  15
ENDBRANCH  13  14
ENDBRANCH  12  13
ENDBRANCH   1  12
TORSDOF 16
ENDMDL
MODEL 3
REMARK VINA RESULT:    -5.504      2.258      5.454
REMARK INTER + INTRA:         -13.130
REMARK INTER:                 -10.634
REMARK INTRA:                  -2.496
REMARK UNBOUND:                -2.478
REMARK SMILES CCCCCCCCCCCCCCCCCC(=O)[O-]
REMARK SMILES IDX 10 1 11 2 12 3 13 4 14 5 15 6 16 7 17 8 18 9 19 10 20 11
REMARK SMILES IDX 9 12 8 13 7 14 6 15 5 16 4 17 3 18 2 19 1 20
REMARK H PARENT
REMARK Flexibility Score: inf
ROOT
ATOM      1  C   UNL     1      -9.549  -1.099  12.944  1.00  0.00     0.000 C 
ENDROOT
BRANCH   1   2
ATOM      2  C   UNL     1      -9.406  -2.616  13.117  1.00  0.00     0.000 C 
BRANCH   2   3
ATOM      3  C   UNL     1      -7.930  -3.024  13.215  1.00  0.00     0.000 C 
BRANCH   3   4
ATOM      4  C   UNL     1      -7.727  -4.548  13.194  1.00  0.00     0.000 C 
BRANCH   4   5
ATOM      5  C   UNL     1      -9.015  -5.338  12.881  1.00  0.00     0.000 C 
BRANCH   5   6
ATOM      6  C   UNL     1      -8.932  -6.077  11.536  1.00  0.00     0.000 C 
BRANCH   6   7
ATOM      7  C   UNL     1     -10.018  -5.586  10.571  1.00  0.00     0.006 C 
BRANCH   7   8
ATOM      8  C   UNL     1     -11.374  -5.481  11.276  1.00  0.00     0.053 C 
BRANCH   8   9
ATOM      9  C   UNL     1     -12.474  -5.325  10.274  1.00  0.00     0.041 C 
ATOM     10  O   UNL     1     -12.391  -5.884   9.149  1.00  0.00    -0.550 OA
ATOM     11  O   UNL     1     -13.570  -4.521  10.564  1.00  0.00    -0.550 OA
ENDBRANCH   8   9
ENDBRANCH   7   8
ENDBRANCH   6   7
ENDBRANCH   5   6
ENDBRANCH   4   5
ENDBRANCH   3   4
ENDBRANCH   2   3
ENDBRANCH   1   2
BRANCH   1  12
ATOM     12  C   UNL     1     -10.869  -0.746  12.243  1.00  0.00     0.000 C 
BRANCH  12  13
ATOM     13  C   UNL     1     -11.830  -1.942  12.154  1.00  0.00    -0.000 C 
BRANCH  13  14
ATOM     14  C   UNL     1     -13.252  -1.597  12.623  1.00  0.00    -0.000 C 
BRANCH  14  15
ATOM     15  C   UNL     1     -13.541  -2.217  13.998  1.00  0.00    -0.000 C 
BRANCH  15  16
ATOM     16  C   UNL     1     -13.170  -3.708  14.067  1.00  0.00    -0.000 C 
BRANCH  16  17
ATOM     17  C   UNL     1     -12.103  -4.002  15.136  1.00  0.00    -0.000 C 
BRANCH  17  18
ATOM     18  C   UNL     1     -12.475  -3.445  16.523  1.00  0.00    -0.000 C 
BRANCH  18  19
ATOM     19  C   UNL     1     -11.289  -2.921  17.352  1.00  0.00    -0.003 C 
ATOM     20  C   UNL     1      -9.954  -3.015  16.615  1.00  0.00     0.004 C 
ENDBRANCH  18  19
ENDBRANCH  17  18
ENDBRANCH  16  17
ENDBRANCH  15  16
ENDBRANCH  14  15
ENDBRANCH  13  14
ENDBRANCH  12  13
ENDBRANCH   1  12
TORSDOF 16
ENDMDL
MODEL 4
REMARK VINA RESULT:    -5.499      1.435      4.453
REMARK INTER + INTRA:         -13.121
REMARK INTER:                 -10.275
REMARK INTRA:                  -2.846
REMARK UNBOUND:                -2.478
REMARK SMILES CCCCCCCCCCCCCCCCCC(=O)[O-]
REMARK SMILES IDX 10 1 11 2 12 3 13 4 14 5 15 6 16 7 17 8 18 9 19 10 20 11
REMARK SMILES IDX 9 12 8 13 7 14 6 15 5 16 4 17 3 18 2 19 1 20
REMARK H PARENT
REMARK Flexibility Score: inf
ROOT
ATOM      1  C   UNL     1      -7.699  -4.469  14.559  1.00  0.00     0.000 C 
ENDROOT
BRANCH   1   2
ATOM      2  C   UNL     1      -8.454  -4.257  13.241  1.00  0.00     0.000 C 
BRANCH   2   3
ATOM      3  C   UNL     1      -8.238  -5.438  12.286  1.00  0.00     0.000 C 
BRANCH   3   4
ATOM      4  C   UNL     1      -9.499  -5.798  11.483  1.00  0.00     0.000 C 
BRANCH   4   5
ATOM      5  C   UNL     1     -10.713  -4.901  11.807  1.00  0.00     0.000 C 
BRANCH   5   6
ATOM      6  C   UNL     1     -12.049  -5.606  11.524  1.00  0.00     0.000 C 
BRANCH   6   7
ATOM      7  C   UNL     1     -13.124  -4.599  11.098  1.00  0.00     0.006 C 
BRANCH   7   8
ATOM      8  C   UNL     1     -12.990  -3.288  11.880  1.00  0.00     0.053 C 
BRANCH   8   9
ATOM      9  C   UNL     1     -14.004  -3.227  12.977  1.00  0.00     0.041 C 
ATOM     10  O   UNL     1     -14.917  -4.091  13.046  1.00  0.00    -0.550 OA
ATOM     11  O   UNL     1     -13.971  -2.186  13.898  1.00  0.00    -0.550 OA
ENDBRANCH   8   9
ENDBRANCH   7   8
ENDBRANCH   6   7
ENDBRANCH   5   6
ENDBRANCH   4   5
ENDBRANCH   3   4
ENDBRANCH   2   3
ENDBRANCH   1   2
BRANCH   1  12
ATOM     12  C   UNL     1      -7.209  -3.132  15.135  1.00  0.00     0.000 C 
BRANCH  12  13
ATOM     13  C   UNL     1      -7.516  -2.986  16.634  1.00  0.00    -0.000 C 
BRANCH  13  14
ATOM     14  C   UNL     1      -8.801  -3.719  17.051  1.00  0.00    -0.000 C 
BRANCH  14  15
ATOM     15  C   UNL     1      -9.930  -2.719  17.346  1.00  0.00    -0.000 C 
BRANCH  15  16
ATOM     16  C   UNL     1     -11.303  -3.218  16.869  1.00  0.00    -0.000 C 
BRANCH  16  17
ATOM     17  C   UNL     1     -11.262  -3.781  15.437  1.00  0.00    -0.000 C 
BRANCH  17  18
ATOM     18  C   UNL     1     -11.764  -5.235  15.351  1.00  0.00    -0.000 C 
BRANCH  18  19
ATOM     19  C   UNL     1     -10.673  -6.309  15.512  1.00  0.00    -0.003 C 
ATOM     20  C   UNL     1     -10.852  -7.492  14.561  1.00  0.00     0.004 C 
ENDBRANCH  18  19
ENDBRANCH  17  18
ENDBRANCH  16  17
ENDBRANCH  15  16
ENDBRANCH  14  15
ENDBRANCH  13  14
ENDBRANCH  12  13
ENDBRANCH   1  12
TORSDOF 16
ENDMDL
MODEL 5
REMARK VINA RESULT:    -5.465      1.432      4.760
REMARK INTER + INTRA:         -13.054
REMARK INTER:                 -10.080
REMARK INTRA:                  -2.974
REMARK UNBOUND:                -2.478
REMARK SMILES CCCCCCCCCCCCCCCCCC(=O)[O-]
REMARK SMILES IDX 10 1 11 2 12 3 13 4 14 5 15 6 16 7 17 8 18 9 19 10 20 11
REMARK SMILES IDX 9 12 8 13 7 14 6 15 5 16 4 17 3 18 2 19 1 20
REMARK H PARENT
REMARK Flexibility Score: inf
ROOT
ATOM      1  C   UNL     1     -12.128  -4.847  15.830  1.00  0.00     0.000 C 
ENDROOT
BRANCH   1   2
ATOM      2  C   UNL     1     -10.946  -5.798  15.604  1.00  0.00     0.000 C 
BRANCH   2   3
ATOM      3  C   UNL     1     -11.138  -6.622  14.324  1.00  0.00     0.000 C 
BRANCH   3   4
ATOM      4  C   UNL     1     -10.125  -6.266  13.224  1.00  0.00     0.000 C 
BRANCH   4   5
ATOM      5  C   UNL     1     -10.770  -5.629  11.974  1.00  0.00     0.000 C 
BRANCH   5   6
ATOM      6  C   UNL     1     -12.294  -5.495  12.112  1.00  0.00     0.000 C 
BRANCH   6   7
ATOM      7  C   UNL     1     -12.722  -4.022  12.082  1.00  0.00     0.006 C 
BRANCH   7   8
ATOM      8  C   UNL     1     -11.509  -3.100  11.925  1.00  0.00     0.053 C 
BRANCH   8   9
ATOM      9  C   UNL     1     -11.775  -1.773  12.562  1.00  0.00     0.041 C 
ATOM     10  O   UNL     1     -10.866  -0.904  12.620  1.00  0.00    -0.550 OA
ATOM     11  O   UNL     1     -13.013  -1.513  13.136  1.00  0.00    -0.550 OA
ENDBRANCH   8   9
ENDBRANCH   7   8
ENDBRANCH   6   7
ENDBRANCH   5   6
ENDBRANCH   4   5
ENDBRANCH   3   4
ENDBRANCH   2   3
ENDBRANCH   1   2
BRANCH   1  12
ATOM     12  C   UNL     1     -11.649  -3.393  15.950  1.00  0.00     0.000 C 
BRANCH  12  13
ATOM     13  C   UNL     1     -11.284  -3.007  17.392  1.00  0.00    -0.000 C 
BRANCH  13  14
ATOM     14  C   UNL     1      -9.937  -2.273  17.487  1.00  0.00    -0.000 C 
BRANCH  14  15
ATOM     15  C   UNL     1      -8.786  -3.267  17.705  1.00  0.00    -0.000 C 
BRANCH  15  16
ATOM     16  C   UNL     1      -7.667  -3.117  16.661  1.00  0.00    -0.000 C 
BRANCH  16  17
ATOM     17  C   UNL     1      -7.923  -3.956  15.396  1.00  0.00    -0.000 C 
BRANCH  17  18
ATOM     18  C   UNL     1      -8.415  -3.109  14.207  1.00  0.00    -0.000 C 
BRANCH  18  19
ATOM     19  C   UNL     1      -7.545  -3.201  12.940  1.00  0.00    -0.003 C 
ATOM     20  C   UNL     1      -6.868  -4.561  12.776  1.00  0.00     0.004 C 
ENDBRANCH  18  19
ENDBRANCH  17  18
ENDBRANCH  16  17
ENDBRANCH  15  16
ENDBRANCH  14  15
ENDBRANCH  13  14
ENDBRANCH  12  13
ENDBRANCH   1  12
TORSDOF 16
ENDMDL
MODEL 6
REMARK VINA RESULT:    -5.453      1.819      3.373
REMARK INTER + INTRA:         -13.031
REMARK INTER:                 -10.251
REMARK INTRA:                  -2.780
REMARK UNBOUND:                -2.478
REMARK SMILES CCCCCCCCCCCCCCCCCC(=O)[O-]
REMARK SMILES IDX 10 1 11 2 12 3 13 4 14 5 15 6 16 7 17 8 18 9 19 10 20 11
REMARK SMILES IDX 9 12 8 13 7 14 6 15 5 16 4 17 3 18 2 19 1 20
REMARK H PARENT
REMARK Flexibility Score: inf
ROOT
ATOM      1  C   UNL     1     -11.043  -3.396  15.934  1.00  0.00     0.000 C 
ENDROOT
BRANCH   1   2
ATOM      2  C   UNL     1     -11.113  -2.818  17.352  1.00  0.00     0.000 C 
BRANCH   2   3
ATOM      3  C   UNL     1      -9.708  -2.602  17.929  1.00  0.00     0.000 C 
BRANCH   3   4
ATOM      4  C   UNL     1      -8.675  -3.602  17.382  1.00  0.00     0.000 C 
BRANCH   4   5
ATOM      5  C   UNL     1      -7.581  -2.945  16.513  1.00  0.00     0.000 C 
BRANCH   5   6
ATOM      6  C   UNL     1      -7.347  -3.706  15.199  1.00  0.00     0.000 C 
BRANCH   6   7
ATOM      7  C   UNL     1      -7.238  -2.738  14.015  1.00  0.00     0.006 C 
BRANCH   7   8
ATOM      8  C   UNL     1      -8.589  -2.576  13.310  1.00  0.00     0.053 C 
BRANCH   8   9
ATOM      9  C   UNL     1      -8.915  -1.127  13.130  1.00  0.00     0.041 C 
ATOM     10  O   UNL     1      -8.012  -0.256  13.242  1.00  0.00    -0.550 OA
ATOM     11  O   UNL     1     -10.225  -0.734  12.887  1.00  0.00    -0.550 OA
ENDBRANCH   8   9
ENDBRANCH   7   8
ENDBRANCH   6   7
ENDBRANCH   5   6
ENDBRANCH   4   5
ENDBRANCH   3   4
ENDBRANCH   2   3
ENDBRANCH   1   2
BRANCH   1  12
ATOM     12  C   UNL     1     -12.040  -4.552  15.760  1.00  0.00     0.000 C 
BRANCH  12  13
ATOM     13  C   UNL     1     -11.374  -5.931  15.886  1.00  0.00    -0.000 C 
BRANCH  13  14
ATOM     14  C   UNL     1     -10.100  -6.055  15.036  1.00  0.00    -0.000 C 
BRANCH  14  15
ATOM     15  C   UNL     1     -10.396  -6.763  13.705  1.00  0.00    -0.000 C 
BRANCH  15  16
ATOM     16  C   UNL     1      -9.974  -5.930  12.483  1.00  0.00    -0.000 C 
BRANCH  16  17
ATOM     17  C   UNL     1     -11.154  -5.621  11.544  1.00  0.00    -0.000 C 
BRANCH  17  18
ATOM     18  C   UNL     1     -12.524  -5.821  12.218  1.00  0.00    -0.000 C 
BRANCH  18  19
ATOM     19  C   UNL     1     -13.419  -4.568  12.256  1.00  0.00    -0.003 C 
ATOM     20  C   UNL     1     -12.623  -3.265  12.315  1.00  0.00     0.004 C 
ENDBRANCH  18  19
ENDBRANCH  17  18
ENDBRANCH  16  17
ENDBRANCH  15  16
ENDBRANCH  14  15
ENDBRANCH  13  14
ENDBRANCH  12  13
ENDBRANCH   1  12
TORSDOF 16
ENDMDL
MODEL 7
REMARK VINA RESULT:    -5.446      1.602      3.053
REMARK INTER + INTRA:         -13.018
REMARK INTER:                 -10.069
REMARK INTRA:                  -2.950
REMARK UNBOUND:                -2.478
REMARK SMILES CCCCCCCCCCCCCCCCCC(=O)[O-]
REMARK SMILES IDX 10 1 11 2 12 3 13 4 14 5 15 6 16 7 17 8 18 9 19 10 20 11
REMARK SMILES IDX 9 12 8 13 7 14 6 15 5 16 4 17 3 18 2 19 1 20
REMARK H PARENT
REMARK Flexibility Score: inf
ROOT
ATOM      1  C   UNL     1      -9.249  -2.611  16.960  1.00  0.00     0.000 C 
ENDROOT
BRANCH   1   2
ATOM      2  C   UNL     1      -8.477  -3.912  16.709  1.00  0.00     0.000 C 
BRANCH   2   3
ATOM      3  C   UNL     1      -8.144  -4.076  15.220  1.00  0.00     0.000 C 
BRANCH   3   4
ATOM      4  C   UNL     1      -8.178  -2.747  14.448  1.00  0.00     0.000 C 
BRANCH   4   5
ATOM      5  C   UNL     1      -9.372  -2.628  13.476  1.00  0.00     0.000 C 
BRANCH   5   6
ATOM      6  C   UNL     1      -9.474  -1.230  12.849  1.00  0.00     0.000 C 
BRANCH   6   7
ATOM      7  C   UNL     1     -10.902  -0.945  12.368  1.00  0.00     0.006 C 
BRANCH   7   8
ATOM      8  C   UNL     1     -11.821  -2.143  12.630  1.00  0.00     0.053 C 
BRANCH   8   9
ATOM      9  C   UNL     1     -13.247  -1.700  12.714  1.00  0.00     0.041 C 
ATOM     10  O   UNL     1     -13.821  -1.218  11.702  1.00  0.00    -0.550 OA
ATOM     11  O   UNL     1     -13.929  -1.774  13.922  1.00  0.00    -0.550 OA
ENDBRANCH   8   9
ENDBRANCH   7   8
ENDBRANCH   6   7
ENDBRANCH   5   6
ENDBRANCH   4   5
ENDBRANCH   3   4
ENDBRANCH   2   3
ENDBRANCH   1   2
BRANCH   1  12
ATOM     12  C   UNL     1     -10.641  -2.901  17.541  1.00  0.00     0.000 C 
BRANCH  12  13
ATOM     13  C   UNL     1     -11.730  -2.978  16.459  1.00  0.00    -0.000 C 
BRANCH  13  14
ATOM     14  C   UNL     1     -12.225  -4.412  16.216  1.00  0.00    -0.000 C 
BRANCH  14  15
ATOM     15  C   UNL     1     -11.737  -4.937  14.858  1.00  0.00    -0.000 C 
BRANCH  15  16
ATOM     16  C   UNL     1     -11.004  -6.284  14.971  1.00  0.00    -0.000 C 
BRANCH  16  17
ATOM     17  C   UNL     1     -10.644  -6.877  13.597  1.00  0.00    -0.000 C 
BRANCH  17  18
ATOM     18  C   UNL     1     -11.210  -6.056  12.423  1.00  0.00    -0.000 C 
BRANCH  18  19
ATOM     19  C   UNL     1     -10.164  -5.574  11.402  1.00  0.00    -0.003 C 
ATOM     20  C   UNL     1      -8.737  -5.978  11.771  1.00  0.00     0.004 C 
ENDBRANCH  18  19
ENDBRANCH  17  18
ENDBRANCH  16  17
ENDBRANCH  15  16
ENDBRANCH  14  15
ENDBRANCH  13  14
ENDBRANCH  12  13
ENDBRANCH   1  12
TORSDOF 16
ENDMDL
MODEL 8
REMARK VINA RESULT:    -5.395      1.889      4.699
REMARK INTER + INTRA:         -12.919
REMARK INTER:                  -9.902
REMARK INTRA:                  -3.017
REMARK UNBOUND:                -2.478
REMARK SMILES CCCCCCCCCCCCCCCCCC(=O)[O-]
REMARK SMILES IDX 10 1 11 2 12 3 13 4 14 5 15 6 16 7 17 8 18 9 19 10 20 11
REMARK SMILES IDX 9 12 8 13 7 14 6 15 5 16 4 17 3 18 2 19 1 20
REMARK H PARENT
REMARK Flexibility Score: inf
ROOT
ATOM      1  C   UNL     1     -11.133  -3.764  15.653  1.00  0.00     0.000 C 
ENDROOT
BRANCH   1   2
ATOM      2  C   UNL     1     -12.122  -4.926  15.804  1.00  0.00     0.000 C 
BRANCH   2   3
ATOM      3  C   UNL     1     -11.383  -6.262  15.957  1.00  0.00     0.000 C 
BRANCH   3   4
ATOM      4  C   UNL     1     -10.126  -6.356  15.077  1.00  0.00     0.000 C 
BRANCH   4   5
ATOM      5  C   UNL     1     -10.383  -7.008  13.702  1.00  0.00     0.000 C 
BRANCH   5   6
ATOM      6  C   UNL     1      -9.772  -6.195  12.550  1.00  0.00     0.000 C 
BRANCH   6   7
ATOM      7  C   UNL     1     -10.836  -5.331  11.862  1.00  0.00     0.006 C 
BRANCH   7   8
ATOM      8  C   UNL     1     -12.241  -5.894  12.101  1.00  0.00     0.053 C 
BRANCH   8   9
ATOM      9  C   UNL     1     -13.272  -4.829  11.898  1.00  0.00     0.041 C 
ATOM     10  O   UNL     1     -13.969  -4.428  12.867  1.00  0.00    -0.550 OA
ATOM     11  O   UNL     1     -13.499  -4.314  10.628  1.00  0.00    -0.550 OA
ENDBRANCH   8   9
ENDBRANCH   7   8
ENDBRANCH   6   7
ENDBRANCH   5   6
ENDBRANCH   4   5
ENDBRANCH   3   4
ENDBRANCH   2   3
ENDBRANCH   1   2
BRANCH   1  12
ATOM     12  C   UNL     1     -10.935  -3.032  16.989  1.00  0.00     0.000 C 
BRANCH  12  13
ATOM     13  C   UNL     1      -9.493  -2.536  17.184  1.00  0.00    -0.000 C 
BRANCH  13  14
ATOM     14  C   UNL     1      -8.446  -3.602  16.826  1.00  0.00    -0.000 C 
BRANCH  14  15
ATOM     15  C   UNL     1      -7.464  -3.072  15.770  1.00  0.00    -0.000 C 
BRANCH  15  16
ATOM     16  C   UNL     1      -7.504  -3.881  14.463  1.00  0.00    -0.000 C 
BRANCH  16  17
ATOM     17  C   UNL     1      -7.889  -3.020  13.247  1.00  0.00    -0.000 C 
BRANCH  17  18
ATOM     18  C   UNL     1      -7.869  -1.510  13.553  1.00  0.00    -0.000 C 
BRANCH  18  19
ATOM     19  C   UNL     1      -9.185  -0.769  13.253  1.00  0.00    -0.003 C 
ATOM     20  C   UNL     1     -10.288  -1.692  12.736  1.00  0.00     0.004 C 
ENDBRANCH  18  19
ENDBRANCH  17  18
ENDBRANCH  16  17
ENDBRANCH  15  16
ENDBRANCH  14  15
ENDBRANCH  13  14
ENDBRANCH  12  13
ENDBRANCH   1  12
TORSDOF 16
ENDMDL
MODEL 9
REMARK VINA RESULT:    -5.366      1.752      3.766
REMARK INTER + INTRA:         -12.864
REMARK INTER:                 -10.025
REMARK INTRA:                  -2.839
REMARK UNBOUND:                -2.478
REMARK SMILES CCCCCCCCCCCCCCCCCC(=O)[O-]
REMARK SMILES IDX 10 1 11 2 12 3 13 4 14 5 15 6 16 7 17 8 18 9 19 10 20 11
REMARK SMILES IDX 9 12 8 13 7 14 6 15 5 16 4 17 3 18 2 19 1 20
REMARK H PARENT
REMARK Flexibility Score: inf
ROOT
ATOM      1  C   UNL     1     -11.244  -3.549  15.928  1.00  0.00     0.000 C 
ENDROOT
BRANCH   1   2
ATOM      2  C   UNL     1     -10.451  -2.915  17.077  1.00  0.00     0.000 C 
BRANCH   2   3
ATOM      3  C   UNL     1      -8.984  -3.364  17.047  1.00  0.00     0.000 C 
BRANCH   3   4
ATOM      4  C   UNL     1      -8.765  -4.643  16.223  1.00  0.00     0.000 C 
BRANCH   4   5
ATOM      5  C   UNL     1      -7.652  -4.510  15.161  1.00  0.00     0.000 C 
BRANCH   5   6
ATOM      6  C   UNL     1      -7.380  -3.045  14.785  1.00  0.00     0.000 C 
BRANCH   6   7
ATOM      7  C   UNL     1      -7.788  -2.764  13.334  1.00  0.00     0.006 C 
BRANCH   7   8
ATOM      8  C   UNL     1      -9.299  -2.545  13.220  1.00  0.00     0.053 C 
BRANCH   8   9
ATOM      9  C   UNL     1      -9.596  -1.121  12.871  1.00  0.00     0.041 C 
ATOM     10  O   UNL     1      -8.831  -0.200  13.260  1.00  0.00    -0.550 OA
ATOM     11  O   UNL     1     -10.745  -0.805  12.155  1.00  0.00    -0.550 OA
ENDBRANCH   8   9
ENDBRANCH   7   8
ENDBRANCH   6   7
ENDBRANCH   5   6
ENDBRANCH   4   5
ENDBRANCH   3   4
ENDBRANCH   2   3
ENDBRANCH   1   2
BRANCH   1  12
ATOM     12  C   UNL     1     -12.726  -3.702  16.301  1.00  0.00     0.000 C 
BRANCH  12  13
ATOM     13  C   UNL     1     -13.670  -3.236  15.181  1.00  0.00    -0.000 C 
BRANCH  13  14
ATOM     14  C   UNL     1     -12.939  -2.997  13.851  1.00  0.00    -0.000 C 
BRANCH  14  15
ATOM     15  C   UNL     1     -13.758  -3.543  12.671  1.00  0.00    -0.000 C 
BRANCH  15  16
ATOM     16  C   UNL     1     -12.875  -4.021  11.507  1.00  0.00    -0.000 C 
BRANCH  16  17
ATOM     17  C   UNL     1     -12.447  -5.492  11.656  1.00  0.00    -0.000 C 
BRANCH  17  18
ATOM     18  C   UNL     1     -10.936  -5.653  11.908  1.00  0.00    -0.000 C 
BRANCH  18  19
ATOM     19  C   UNL     1     -10.558  -6.089  13.336  1.00  0.00    -0.003 C 
ATOM     20  C   UNL     1     -11.714  -6.747  14.087  1.00  0.00     0.004 C 
ENDBRANCH  18  19
ENDBRANCH  17  18
ENDBRANCH  16  17
ENDBRANCH  15  16
ENDBRANCH  14  15
ENDBRANCH  13  14
ENDBRANCH  12  13
ENDBRANCH   1  12
TORSDOF 16
ENDMDL
