MODEL 1
REMARK VINA RESULT:    -3.282      0.000      0.000
REMARK INTER + INTRA:          -7.345
REMARK INTER:                  -5.585
REMARK INTRA:                  -1.760
REMARK UNBOUND:                -1.760
REMARK SMILES CCCCCCCCCCCCCC(=O)[O-]
REMARK SMILES IDX 8 1 9 2 10 3 11 4 12 5 13 6 14 7 15 8 16 9 7 10 6 11 5 12
REMARK SMILES IDX 4 13 3 14 2 15 1 16
REMARK H PARENT
REMARK Flexibility Score: inf
ROOT
ATOM      1  C   UNL     1      54.088  50.785  49.502  1.00  0.00     0.000 C 
ENDROOT
BRANCH   1   2
ATOM      2  C   UNL     1      54.309  51.937  48.508  1.00  0.00     0.000 C 
BRANCH   2   3
ATOM      3  C   UNL     1      53.030  52.322  47.744  1.00  0.00     0.000 C 
BRANCH   3   4
ATOM      4  C   UNL     1      52.668  53.818  47.796  1.00  0.00     0.000 C 
BRANCH   4   5
ATOM      5  C   UNL     1      53.392  54.647  46.721  1.00  0.00     0.006 C 
BRANCH   5   6
ATOM      6  C   UNL     1      52.733  56.016  46.506  1.00  0.00     0.053 C 
BRANCH   6   7
ATOM      7  C   UNL     1      52.401  56.257  45.066  1.00  0.00     0.041 C 
ATOM      8  O   UNL     1      51.201  56.347  44.698  1.00  0.00    -0.550 OA
ATOM      9  O   UNL     1      53.418  56.352  44.123  1.00  0.00    -0.550 OA
ENDBRANCH   6   7
ENDBRANCH   5   6
ENDBRANCH   4   5
ENDBRANCH   3   4
ENDBRANCH   2   3
ENDBRANCH   1   2
BRANCH   1  10
ATOM     10  C   UNL     1      52.817  50.969  50.347  1.00  0.00     0.000 C 
BRANCH  10  11
ATOM     11  C   UNL     1      52.986  52.032  51.443  1.00  0.00    -0.000 C 
BRANCH  11  12
ATOM     12  C   UNL     1      51.896  53.109  51.337  1.00  0.00    -0.000 C 
BRANCH  12  13
ATOM     13  C   UNL     1      52.449  54.537  51.485  1.00  0.00    -0.000 C 
BRANCH  13  14
ATOM     14  C   UNL     1      53.943  54.698  51.136  1.00  0.00    -0.000 C 
BRANCH  14  15
ATOM     15  C   UNL     1      54.291  55.969  50.340  1.00  0.00    -0.003 C 
ATOM     16  C   UNL     1      53.076  56.857  50.078  1.00  0.00     0.004 C 
ENDBRANCH  14  15
ENDBRANCH  13  14
ENDBRANCH  12  13
ENDBRANCH  11  12
ENDBRANCH  10  11
ENDBRANCH   1  10
TORSDOF 12
ENDMDL
MODEL 2
REMARK VINA RESULT:    -3.205      1.073      2.752
REMARK INTER + INTRA:          -7.214
REMARK INTER:                  -5.302
REMARK INTRA:                  -1.911
REMARK UNBOUND:                -1.760
REMARK SMILES CCCCCCCCCCCCCC(=O)[O-]
REMARK SMILES IDX 8 1 9 2 10 3 11 4 12 5 13 6 14 7 15 8 16 9 7 10 6 11 5 12
REMARK SMILES IDX 4 13 3 14 2 15 1 16
REMARK H PARENT
REMARK Flexibility Score: inf
ROOT
ATOM      1  C   UNL     1      55.611  53.149  49.836  1.00  0.00     0.000 C 
ENDROOT
BRANCH   1   2
ATOM      2  C   UNL     1      55.570  52.762  48.348  1.00  0.00     0.000 C 
BRANCH   2   3
ATOM      3  C   UNL     1      54.278  52.020  47.958  1.00  0.00     0.000 C 
BRANCH   3   4
ATOM      4  C   UNL     1      53.177  52.909  47.353  1.00  0.00     0.000 C 
BRANCH   4   5
ATOM      5  C   UNL     1      53.730  54.189  46.704  1.00  0.00     0.006 C 
BRANCH   5   6
ATOM      6  C   UNL     1      52.794  55.389  46.902  1.00  0.00     0.053 C 
BRANCH   6   7
ATOM      7  C   UNL     1      52.347  55.972  45.597  1.00  0.00     0.041 C 
ATOM      8  O   UNL     1      51.169  56.394  45.460  1.00  0.00    -0.550 OA
ATOM      9  O   UNL     1      53.224  56.021  44.519  1.00  0.00    -0.550 OA
ENDBRANCH   6   7
ENDBRANCH   5   6
ENDBRANCH   4   5
ENDBRANCH   3   4
ENDBRANCH   2   3
ENDBRANCH   1   2
BRANCH   1  10
ATOM     10  C   UNL     1      55.755  54.665  50.049  1.00  0.00     0.000 C 
BRANCH  10  11
ATOM     11  C   UNL     1      54.778  55.208  51.102  1.00  0.00    -0.000 C 
BRANCH  11  12
ATOM     12  C   UNL     1      53.356  55.312  50.530  1.00  0.00    -0.000 C 
BRANCH  12  13
ATOM     13  C   UNL     1      52.292  54.701  51.458  1.00  0.00    -0.000 C 
BRANCH  13  14
ATOM     14  C   UNL     1      52.516  53.219  51.822  1.00  0.00    -0.000 C 
BRANCH  14  15
ATOM     15  C   UNL     1      51.938  52.208  50.815  1.00  0.00    -0.003 C 
ATOM     16  C   UNL     1      52.538  50.811  50.965  1.00  0.00     0.004 C 
ENDBRANCH  14  15
ENDBRANCH  13  14
ENDBRANCH  12  13
ENDBRANCH  11  12
ENDBRANCH  10  11
ENDBRANCH   1  10
TORSDOF 12
ENDMDL
MODEL 3
REMARK VINA RESULT:    -3.195      1.049      3.179
REMARK INTER + INTRA:          -7.196
REMARK INTER:                  -5.337
REMARK INTRA:                  -1.859
REMARK UNBOUND:                -1.760
REMARK SMILES CCCCCCCCCCCCCC(=O)[O-]
REMARK SMILES IDX 8 1 9 2 10 3 11 4 12 5 13 6 14 7 15 8 16 9 7 10 6 11 5 12
REMARK SMILES IDX 4 13 3 14 2 15 1 16
REMARK H PARENT
REMARK Flexibility Score: inf
ROOT
ATOM      1  C   UNL     1      53.649  54.708  51.751  1.00  0.00     0.000 C 
ENDROOT
BRANCH   1   2
ATOM      2  C   UNL     1      52.633  55.661  51.100  1.00  0.00     0.000 C 
BRANCH   2   3
ATOM      3  C   UNL     1      53.288  56.669  50.138  1.00  0.00     0.000 C 
BRANCH   3   4
ATOM      4  C   UNL     1      53.732  56.082  48.786  1.00  0.00     0.000 C 
BRANCH   4   5
ATOM      5  C   UNL     1      52.947  56.657  47.596  1.00  0.00     0.006 C 
BRANCH   5   6
ATOM      6  C   UNL     1      52.706  55.609  46.501  1.00  0.00     0.053 C 
BRANCH   6   7
ATOM      7  C   UNL     1      52.395  56.243  45.180  1.00  0.00     0.041 C 
ATOM      8  O   UNL     1      51.200  56.422  44.828  1.00  0.00    -0.550 OA
ATOM      9  O   UNL     1      53.426  56.607  44.322  1.00  0.00    -0.550 OA
ENDBRANCH   6   7
ENDBRANCH   5   6
ENDBRANCH   4   5
ENDBRANCH   3   4
ENDBRANCH   2   3
ENDBRANCH   1   2
BRANCH   1  10
ATOM     10  C   UNL     1      53.020  53.370  52.170  1.00  0.00     0.000 C 
BRANCH  10  11
ATOM     11  C   UNL     1      51.849  52.959  51.266  1.00  0.00    -0.000 C 
BRANCH  11  12
ATOM     12  C   UNL     1      52.308  51.956  50.196  1.00  0.00    -0.000 C 
BRANCH  12  13
ATOM     13  C   UNL     1      52.417  52.583  48.795  1.00  0.00    -0.000 C 
BRANCH  13  14
ATOM     14  C   UNL     1      53.801  52.454  48.128  1.00  0.00    -0.000 C 
BRANCH  14  15
ATOM     15  C   UNL     1      54.932  51.987  49.062  1.00  0.00    -0.003 C 
ATOM     16  C   UNL     1      55.971  53.075  49.327  1.00  0.00     0.004 C 
ENDBRANCH  14  15
ENDBRANCH  13  14
ENDBRANCH  12  13
ENDBRANCH  11  12
ENDBRANCH  10  11
ENDBRANCH   1  10
TORSDOF 12
ENDMDL
MODEL 4
REMARK VINA RESULT:    -3.166      3.471      5.886
REMARK INTER + INTRA:          -7.148
REMARK INTER:                  -5.351
REMARK INTRA:                  -1.797
REMARK UNBOUND:                -1.760
REMARK SMILES CCCCCCCCCCCCCC(=O)[O-]
REMARK SMILES IDX 8 1 9 2 10 3 11 4 12 5 13 6 14 7 15 8 16 9 7 10 6 11 5 12
REMARK SMILES IDX 4 13 3 14 2 15 1 16
REMARK H PARENT
REMARK Flexibility Score: inf
ROOT
ATOM      1  C   UNL     1      55.650  54.307  46.990  1.00  0.00     0.000 C 
ENDROOT
BRANCH   1   2
ATOM      2  C   UNL     1      54.791  53.465  47.948  1.00  0.00     0.000 C 
BRANCH   2   3
ATOM      3  C   UNL     1      53.379  53.187  47.401  1.00  0.00     0.000 C 
BRANCH   3   4
ATOM      4  C   UNL     1      52.390  52.600  48.423  1.00  0.00     0.000 C 
BRANCH   4   5
ATOM      5  C   UNL     1      52.378  53.368  49.755  1.00  0.00     0.006 C 
BRANCH   5   6
ATOM      6  C   UNL     1      52.013  52.464  50.941  1.00  0.00     0.053 C 
BRANCH   6   7
ATOM      7  C   UNL     1      52.974  51.326  51.093  1.00  0.00     0.041 C 
ATOM      8  O   UNL     1      54.194  51.550  51.308  1.00  0.00    -0.550 OA
ATOM      9  O   UNL     1      52.527  50.016  50.967  1.00  0.00    -0.550 OA
ENDBRANCH   6   7
ENDBRANCH   5   6
ENDBRANCH   4   5
ENDBRANCH   3   4
ENDBRANCH   2   3
ENDBRANCH   1   2
BRANCH   1  10
ATOM     10  C   UNL     1      55.003  54.470  45.605  1.00  0.00     0.000 C 
BRANCH  10  11
ATOM     11  C   UNL     1      55.368  55.804  44.937  1.00  0.00    -0.000 C 
BRANCH  11  12
ATOM     12  C   UNL     1      54.105  56.601  44.577  1.00  0.00    -0.000 C 
BRANCH  12  13
ATOM     13  C   UNL     1      52.809  55.906  45.033  1.00  0.00    -0.000 C 
BRANCH  13  14
ATOM     14  C   UNL     1      52.034  56.636  46.148  1.00  0.00    -0.000 C 
BRANCH  14  15
ATOM     15  C   UNL     1      52.899  57.506  47.078  1.00  0.00    -0.003 C 
ATOM     16  C   UNL     1      53.228  56.816  48.401  1.00  0.00     0.004 C 
ENDBRANCH  14  15
ENDBRANCH  13  14
ENDBRANCH  12  13
ENDBRANCH  11  12
ENDBRANCH  10  11
ENDBRANCH   1  10
TORSDOF 12
ENDMDL
MODEL 5
REMARK VINA RESULT:    -3.088      3.233      5.517
REMARK INTER + INTRA:          -7.015
REMARK INTER:                  -5.191
REMARK INTRA:                  -1.824
REMARK UNBOUND:                -1.760
REMARK SMILES CCCCCCCCCCCCCC(=O)[O-]
REMARK SMILES IDX 8 1 9 2 10 3 11 4 12 5 13 6 14 7 15 8 16 9 7 10 6 11 5 12
REMARK SMILES IDX 4 13 3 14 2 15 1 16
REMARK H PARENT
REMARK Flexibility Score: inf
ROOT
ATOM      1  C   UNL     1      54.578  54.030  47.858  1.00  0.00     0.000 C 
ENDROOT
BRANCH   1   2
ATOM      2  C   UNL     1      53.151  53.607  47.469  1.00  0.00     0.000 C 
BRANCH   2   3
ATOM      3  C   UNL     1      52.761  52.228  48.031  1.00  0.00     0.000 C 
BRANCH   3   4
ATOM      4  C   UNL     1      53.425  51.861  49.370  1.00  0.00     0.000 C 
BRANCH   4   5
ATOM      5  C   UNL     1      52.420  51.758  50.530  1.00  0.00     0.006 C 
BRANCH   5   6
ATOM      6  C   UNL     1      51.935  53.136  51.000  1.00  0.00     0.053 C 
BRANCH   6   7
ATOM      7  C   UNL     1      52.845  53.725  52.034  1.00  0.00     0.041 C 
ATOM      8  O   UNL     1      53.426  52.981  52.866  1.00  0.00    -0.550 OA
ATOM      9  O   UNL     1      53.027  55.102  52.098  1.00  0.00    -0.550 OA
ENDBRANCH   6   7
ENDBRANCH   5   6
ENDBRANCH   4   5
ENDBRANCH   3   4
ENDBRANCH   2   3
ENDBRANCH   1   2
BRANCH   1  10
ATOM     10  C   UNL     1      54.603  55.284  48.745  1.00  0.00     0.000 C 
BRANCH  10  11
ATOM     11  C   UNL     1      53.276  56.058  48.709  1.00  0.00    -0.000 C 
BRANCH  11  12
ATOM     12  C   UNL     1      53.511  57.535  48.358  1.00  0.00    -0.000 C 
BRANCH  12  13
ATOM     13  C   UNL     1      53.091  57.882  46.919  1.00  0.00    -0.000 C 
BRANCH  13  14
ATOM     14  C   UNL     1      52.130  56.873  46.257  1.00  0.00    -0.000 C 
BRANCH  14  15
ATOM     15  C   UNL     1      52.632  56.269  44.933  1.00  0.00    -0.003 C 
ATOM     16  C   UNL     1      54.151  56.333  44.788  1.00  0.00     0.004 C 
ENDBRANCH  14  15
ENDBRANCH  13  14
ENDBRANCH  12  13
ENDBRANCH  11  12
ENDBRANCH  10  11
ENDBRANCH   1  10
TORSDOF 12
ENDMDL
MODEL 6
REMARK VINA RESULT:    -3.085      2.421      5.128
REMARK INTER + INTRA:          -7.009
REMARK INTER:                  -5.725
REMARK INTRA:                  -1.283
REMARK UNBOUND:                -1.760
REMARK SMILES CCCCCCCCCCCCCC(=O)[O-]
REMARK SMILES IDX 8 1 9 2 10 3 11 4 12 5 13 6 14 7 15 8 16 9 7 10 6 11 5 12
REMARK SMILES IDX 4 13 3 14 2 15 1 16
REMARK H PARENT
REMARK Flexibility Score: inf
ROOT
ATOM      1  C   UNL     1      53.538  52.602  47.307  1.00  0.00     0.000 C 
ENDROOT
BRANCH   1   2
ATOM      2  C   UNL     1      52.403  52.391  48.323  1.00  0.00     0.000 C 
BRANCH   2   3
ATOM      3  C   UNL     1      52.917  52.011  49.724  1.00  0.00     0.000 C 
BRANCH   3   4
ATOM      4  C   UNL     1      51.993  52.414  50.886  1.00  0.00     0.000 C 
BRANCH   4   5
ATOM      5  C   UNL     1      52.688  53.317  51.919  1.00  0.00     0.006 C 
BRANCH   5   6
ATOM      6  C   UNL     1      53.646  54.318  51.261  1.00  0.00     0.053 C 
BRANCH   6   7
ATOM      7  C   UNL     1      52.917  55.484  50.668  1.00  0.00     0.041 C 
ATOM      8  O   UNL     1      52.125  56.163  51.374  1.00  0.00    -0.550 OA
ATOM      9  O   UNL     1      53.087  55.804  49.327  1.00  0.00    -0.550 OA
ENDBRANCH   6   7
ENDBRANCH   5   6
ENDBRANCH   4   5
ENDBRANCH   3   4
ENDBRANCH   2   3
ENDBRANCH   1   2
BRANCH   1  10
ATOM     10  C   UNL     1      54.852  53.043  47.971  1.00  0.00     0.000 C 
BRANCH  10  11
ATOM     11  C   UNL     1      55.525  54.209  47.230  1.00  0.00    -0.000 C 
BRANCH  11  12
ATOM     12  C   UNL     1      54.808  54.503  45.904  1.00  0.00    -0.000 C 
BRANCH  12  13
ATOM     13  C   UNL     1      54.305  55.954  45.805  1.00  0.00    -0.000 C 
BRANCH  13  14
ATOM     14  C   UNL     1      53.766  56.365  44.419  1.00  0.00    -0.000 C 
BRANCH  14  15
ATOM     15  C   UNL     1      52.232  56.396  44.301  1.00  0.00    -0.003 C 
ATOM     16  C   UNL     1      51.531  56.412  45.658  1.00  0.00     0.004 C 
ENDBRANCH  14  15
ENDBRANCH  13  14
ENDBRANCH  12  13
ENDBRANCH  11  12
ENDBRANCH  10  11
ENDBRANCH   1  10
TORSDOF 12
ENDMDL
MODEL 7
REMARK VINA RESULT:    -3.055      1.472      2.915
REMARK INTER + INTRA:          -6.958
REMARK INTER:                  -5.430
REMARK INTRA:                  -1.528
REMARK UNBOUND:                -1.760
REMARK SMILES CCCCCCCCCCCCCC(=O)[O-]
REMARK SMILES IDX 8 1 9 2 10 3 11 4 12 5 13 6 14 7 15 8 16 9 7 10 6 11 5 12
REMARK SMILES IDX 4 13 3 14 2 15 1 16
REMARK H PARENT
REMARK Flexibility Score: inf
ROOT
ATOM      1  C   UNL     1      54.577  53.279  47.271  1.00  0.00     0.000 C 
ENDROOT
BRANCH   1   2
ATOM      2  C   UNL     1      55.477  54.285  48.007  1.00  0.00     0.000 C 
BRANCH   2   3
ATOM      3  C   UNL     1      55.072  55.749  47.753  1.00  0.00     0.000 C 
BRANCH   3   4
ATOM      4  C   UNL     1      55.460  56.299  46.368  1.00  0.00     0.000 C 
BRANCH   4   5
ATOM      5  C   UNL     1      54.314  57.062  45.684  1.00  0.00     0.006 C 
BRANCH   5   6
ATOM      6  C   UNL     1      53.476  56.155  44.773  1.00  0.00     0.053 C 
BRANCH   6   7
ATOM      7  C   UNL     1      52.007  56.371  44.966  1.00  0.00     0.041 C 
ATOM      8  O   UNL     1      51.540  56.560  46.120  1.00  0.00    -0.550 OA
ATOM      9  O   UNL     1      51.147  56.332  43.875  1.00  0.00    -0.550 OA
ENDBRANCH   6   7
ENDBRANCH   5   6
ENDBRANCH   4   5
ENDBRANCH   3   4
ENDBRANCH   2   3
ENDBRANCH   1   2
BRANCH   1  10
ATOM     10  C   UNL     1      53.081  53.541  47.506  1.00  0.00     0.000 C 
BRANCH  10  11
ATOM     11  C   UNL     1      52.374  52.357  48.183  1.00  0.00    -0.000 C 
BRANCH  11  12
ATOM     12  C   UNL     1      53.354  51.558  49.053  1.00  0.00    -0.000 C 
BRANCH  12  13
ATOM     13  C   UNL     1      52.991  51.590  50.548  1.00  0.00    -0.000 C 
BRANCH  13  14
ATOM     14  C   UNL     1      51.986  52.688  50.953  1.00  0.00    -0.000 C 
BRANCH  14  15
ATOM     15  C   UNL     1      52.587  53.858  51.752  1.00  0.00    -0.003 C 
ATOM     16  C   UNL     1      52.596  55.169  50.970  1.00  0.00     0.004 C 
ENDBRANCH  14  15
ENDBRANCH  13  14
ENDBRANCH  12  13
ENDBRANCH  11  12
ENDBRANCH  10  11
ENDBRANCH   1  10
TORSDOF 12
ENDMDL
MODEL 8
REMARK VINA RESULT:    -3.054      2.704      4.688
REMARK INTER + INTRA:          -6.956
REMARK INTER:                  -5.369
REMARK INTRA:                  -1.587
REMARK UNBOUND:                -1.760
REMARK SMILES CCCCCCCCCCCCCC(=O)[O-]
REMARK SMILES IDX 8 1 9 2 10 3 11 4 12 5 13 6 14 7 15 8 16 9 7 10 6 11 5 12
REMARK SMILES IDX 4 13 3 14 2 15 1 16
REMARK H PARENT
REMARK Flexibility Score: inf
ROOT
ATOM      1  C   UNL     1      53.594  51.792  49.119  1.00  0.00     0.000 C 
ENDROOT
BRANCH   1   2
ATOM      2  C   UNL     1      52.769  51.439  50.368  1.00  0.00     0.000 C 
BRANCH   2   3
ATOM      3  C   UNL     1      52.038  52.655  50.965  1.00  0.00     0.000 C 
BRANCH   3   4
ATOM      4  C   UNL     1      52.733  53.300  52.177  1.00  0.00     0.000 C 
BRANCH   4   5
ATOM      5  C   UNL     1      53.344  54.674  51.856  1.00  0.00     0.006 C 
BRANCH   5   6
ATOM      6  C   UNL     1      52.343  55.604  51.157  1.00  0.00     0.053 C 
BRANCH   6   7
ATOM      7  C   UNL     1      52.725  57.046  51.302  1.00  0.00     0.041 C 
ATOM      8  O   UNL     1      51.869  57.894  51.667  1.00  0.00    -0.550 OA
ATOM      9  O   UNL     1      54.018  57.458  51.003  1.00  0.00    -0.550 OA
ENDBRANCH   6   7
ENDBRANCH   5   6
ENDBRANCH   4   5
ENDBRANCH   3   4
ENDBRANCH   2   3
ENDBRANCH   1   2
BRANCH   1  10
ATOM     10  C   UNL     1      52.718  52.249  47.942  1.00  0.00     0.000 C 
BRANCH  10  11
ATOM     11  C   UNL     1      53.233  53.541  47.290  1.00  0.00    -0.000 C 
BRANCH  11  12
ATOM     12  C   UNL     1      54.209  54.275  48.222  1.00  0.00    -0.000 C 
BRANCH  12  13
ATOM     13  C   UNL     1      54.330  55.775  47.901  1.00  0.00    -0.000 C 
BRANCH  13  14
ATOM     14  C   UNL     1      53.010  56.466  47.501  1.00  0.00    -0.000 C 
BRANCH  14  15
ATOM     15  C   UNL     1      52.940  56.933  46.036  1.00  0.00    -0.003 C 
ATOM     16  C   UNL     1      51.777  56.307  45.268  1.00  0.00     0.004 C 
ENDBRANCH  14  15
ENDBRANCH  13  14
ENDBRANCH  12  13
ENDBRANCH  11  12
ENDBRANCH  10  11
ENDBRANCH   1  10
TORSDOF 12
ENDMDL
MODEL 9
REMARK VINA RESULT:    -3.011      1.231      1.854
REMARK INTER + INTRA:          -6.884
REMARK INTER:                  -4.848
REMARK INTRA:                  -2.037
REMARK UNBOUND:                -1.760
REMARK SMILES CCCCCCCCCCCCCC(=O)[O-]
REMARK SMILES IDX 8 1 9 2 10 3 11 4 12 5 13 6 14 7 15 8 16 9 7 10 6 11 5 12
REMARK SMILES IDX 4 13 3 14 2 15 1 16
REMARK H PARENT
REMARK Flexibility Score: inf
ROOT
ATOM      1  C   UNL     1      52.760  52.240  48.442  1.00  0.00     0.000 C 
ENDROOT
BRANCH   1   2
ATOM      2  C   UNL     1      53.986  52.578  47.577  1.00  0.00     0.000 C 
BRANCH   2   3
ATOM      3  C   UNL     1      53.893  53.968  46.923  1.00  0.00     0.000 C 
BRANCH   3   4
ATOM      4  C   UNL     1      52.759  54.862  47.457  1.00  0.00     0.000 C 
BRANCH   4   5
ATOM      5  C   UNL     1      53.062  56.363  47.312  1.00  0.00     0.006 C 
BRANCH   5   6
ATOM      6  C   UNL     1      54.325  56.622  46.479  1.00  0.00     0.053 C 
BRANCH   6   7
ATOM      7  C   UNL     1      54.012  57.320  45.191  1.00  0.00     0.041 C 
ATOM      8  O   UNL     1      54.447  58.482  44.978  1.00  0.00    -0.550 OA
ATOM      9  O   UNL     1      53.215  56.699  44.238  1.00  0.00    -0.550 OA
ENDBRANCH   6   7
ENDBRANCH   5   6
ENDBRANCH   4   5
ENDBRANCH   3   4
ENDBRANCH   2   3
ENDBRANCH   1   2
BRANCH   1  10
ATOM     10  C   UNL     1      53.125  51.427  49.694  1.00  0.00     0.000 C 
BRANCH  10  11
ATOM     11  C   UNL     1      52.203  51.731  50.884  1.00  0.00    -0.000 C 
BRANCH  11  12
ATOM     12  C   UNL     1      51.870  53.229  50.952  1.00  0.00    -0.000 C 
BRANCH  12  13
ATOM     13  C   UNL     1      52.927  54.043  51.718  1.00  0.00    -0.000 C 
BRANCH  13  14
ATOM     14  C   UNL     1      53.341  55.370  51.049  1.00  0.00    -0.000 C 
BRANCH  14  15
ATOM     15  C   UNL     1      54.789  55.413  50.530  1.00  0.00    -0.003 C 
ATOM     16  C   UNL     1      55.504  54.068  50.652  1.00  0.00     0.004 C 
ENDBRANCH  14  15
ENDBRANCH  13  14
ENDBRANCH  12  13
ENDBRANCH  11  12
ENDBRANCH  10  11
ENDBRANCH   1  10
TORSDOF 12
ENDMDL
