MODEL 1
REMARK VINA RESULT:    -7.419      0.000      0.000
REMARK INTER + INTRA:          -9.501
REMARK INTER:                  -9.154
REMARK INTRA:                  -0.347
REMARK UNBOUND:                -0.347
REMARK SMILES COc1cc(-c2[o+]c3cc(O)cc(O)c3cc2O)ccc1O
REMARK SMILES IDX 6 1 7 2 8 3 9 4 10 5 12 6 13 7 15 8 16 9 17 10 5 11 3 12
REMARK SMILES IDX 21 13 4 14 20 15 19 16 2 17 1 18 22 19 18 21 11 23 14 25
REMARK H PARENT 22 20 18 22 11 24 14 26
REMARK Flexibility Score: inf
ROOT
ATOM      1  C   UNL     1     -17.871  12.144 -35.202  1.00  0.00     0.402 A 
ATOM      2  O   UNL     1     -18.923  11.341 -35.053  1.00  0.00    -0.202 OA
ATOM      3  C   UNL     1     -19.643  10.887 -36.074  1.00  0.00     0.368 A 
ATOM      4  C   UNL     1     -20.731  10.044 -35.833  1.00  0.00     0.162 A 
ATOM      5  C   UNL     1     -21.495   9.555 -36.902  1.00  0.00     0.128 A 
ATOM      6  C   UNL     1     -21.167   9.913 -38.214  1.00  0.00     0.093 A 
ATOM      7  C   UNL     1     -20.078  10.760 -38.471  1.00  0.00     0.136 A 
ATOM      8  C   UNL     1     -19.312  11.250 -37.398  1.00  0.00     0.125 A 
ATOM      9  C   UNL     1     -18.219  12.104 -37.594  1.00  0.00     0.078 A 
ATOM     10  C   UNL     1     -17.495  12.568 -36.493  1.00  0.00     0.223 A 
ENDROOT
BRANCH   1  11
ATOM     11  C   UNL     1     -17.143  12.577 -33.989  1.00  0.00     0.087 A 
ATOM     12  C   UNL     1     -16.574  14.279 -32.324  1.00  0.00     0.161 A 
ATOM     13  C   UNL     1     -15.695  13.368 -31.709  1.00  0.00     0.157 A 
ATOM     14  C   UNL     1     -17.289  13.877 -33.470  1.00  0.00     0.068 A 
ATOM     15  C   UNL     1     -15.534  12.085 -32.237  1.00  0.00     0.051 A 
ATOM     16  C   UNL     1     -16.245  11.693 -33.372  1.00  0.00     0.022 A 
BRANCH  12  17
ATOM     17  O   UNL     1     -16.708  15.565 -31.777  1.00  0.00    -0.493 OA
ATOM     18  C   UNL     1     -15.892  16.680 -32.124  1.00  0.00     0.278 C 
ENDBRANCH  12  17
BRANCH  13  19
ATOM     19  O   UNL     1     -14.970  13.724 -30.571  1.00  0.00    -0.504 OA
ATOM     20  H   UNL     1     -14.580  14.649 -30.446  1.00  0.00     0.293 HD
ENDBRANCH  13  19
ENDBRANCH   1  11
BRANCH  10  21
ATOM     21  O   UNL     1     -16.437  13.459 -36.678  1.00  0.00    -0.500 OA
ATOM     22  H   UNL     1     -16.501  14.234 -37.328  1.00  0.00     0.294 HD
ENDBRANCH  10  21
BRANCH   5  23
ATOM     23  O   UNL     1     -22.580   8.713 -36.671  1.00  0.00    -0.507 OA
ATOM     24  H   UNL     1     -22.808   8.387 -35.739  1.00  0.00     0.293 HD
ENDBRANCH   5  23
BRANCH   7  25
ATOM     25  O   UNL     1     -19.763  11.110 -39.784  1.00  0.00    -0.507 OA
ATOM     26  H   UNL     1     -20.114  10.580 -40.574  1.00  0.00     0.293 HD
ENDBRANCH   7  25
TORSDOF 6
ENDMDL
MODEL 2
REMARK VINA RESULT:    -7.017      1.287      1.730
REMARK INTER + INTRA:          -9.005
REMARK INTER:                  -8.649
REMARK INTRA:                  -0.356
REMARK UNBOUND:                -0.347
REMARK SMILES COc1cc(-c2[o+]c3cc(O)cc(O)c3cc2O)ccc1O
REMARK SMILES IDX 6 1 7 2 8 3 9 4 10 5 12 6 13 7 15 8 16 9 17 10 5 11 3 12
REMARK SMILES IDX 21 13 4 14 20 15 19 16 2 17 1 18 22 19 18 21 11 23 14 25
REMARK H PARENT 22 20 18 22 11 24 14 26
REMARK Flexibility Score: inf
ROOT
ATOM      1  C   UNL     1     -18.313  12.531 -35.386  1.00  0.00     0.402 A 
ATOM      2  O   UNL     1     -19.091  11.451 -35.406  1.00  0.00    -0.202 OA
ATOM      3  C   UNL     1     -19.828  11.103 -36.457  1.00  0.00     0.368 A 
ATOM      4  C   UNL     1     -20.616   9.951 -36.400  1.00  0.00     0.162 A 
ATOM      5  C   UNL     1     -21.394   9.573 -37.503  1.00  0.00     0.128 A 
ATOM      6  C   UNL     1     -21.381  10.351 -38.665  1.00  0.00     0.093 A 
ATOM      7  C   UNL     1     -20.595  11.512 -38.736  1.00  0.00     0.136 A 
ATOM      8  C   UNL     1     -19.815  11.891 -37.629  1.00  0.00     0.125 A 
ATOM      9  C   UNL     1     -19.018  13.043 -37.641  1.00  0.00     0.078 A 
ATOM     10  C   UNL     1     -18.267  13.379 -36.511  1.00  0.00     0.223 A 
ENDROOT
BRANCH   1  11
ATOM     11  C   UNL     1     -17.532  12.809 -34.160  1.00  0.00     0.087 A 
ATOM     12  C   UNL     1     -15.411  12.875 -32.939  1.00  0.00     0.161 A 
ATOM     13  C   UNL     1     -16.099  13.301 -31.788  1.00  0.00     0.157 A 
ATOM     14  C   UNL     1     -16.138  12.623 -34.121  1.00  0.00     0.068 A 
ATOM     15  C   UNL     1     -17.487  13.464 -31.821  1.00  0.00     0.051 A 
ATOM     16  C   UNL     1     -18.200  13.213 -32.995  1.00  0.00     0.022 A 
BRANCH  12  17
ATOM     17  O   UNL     1     -14.019  12.709 -32.873  1.00  0.00    -0.493 OA
ATOM     18  C   UNL     1     -13.068  13.724 -33.180  1.00  0.00     0.278 C 
ENDBRANCH  12  17
BRANCH  13  19
ATOM     19  O   UNL     1     -15.419  13.564 -30.599  1.00  0.00    -0.504 OA
ATOM     20  H   UNL     1     -14.554  13.098 -30.356  1.00  0.00     0.293 HD
ENDBRANCH  13  19
ENDBRANCH   1  11
BRANCH  10  21
ATOM     21  O   UNL     1     -17.510  14.551 -36.499  1.00  0.00    -0.500 OA
ATOM     22  H   UNL     1     -16.524  14.546 -36.267  1.00  0.00     0.294 HD
ENDBRANCH  10  21
BRANCH   5  23
ATOM     23  O   UNL     1     -22.181   8.424 -37.455  1.00  0.00    -0.507 OA
ATOM     24  H   UNL     1     -21.777   7.501 -37.560  1.00  0.00     0.293 HD
ENDBRANCH   5  23
BRANCH   7  25
ATOM     25  O   UNL     1     -20.593  12.280 -39.901  1.00  0.00    -0.507 OA
ATOM     26  H   UNL     1     -20.019  13.111 -39.989  1.00  0.00     0.293 HD
ENDBRANCH   7  25
TORSDOF 6
ENDMDL
MODEL 3
REMARK VINA RESULT:    -6.809      1.441      2.650
REMARK INTER + INTRA:          -8.749
REMARK INTER:                  -8.331
REMARK INTRA:                  -0.418
REMARK UNBOUND:                -0.347
REMARK SMILES COc1cc(-c2[o+]c3cc(O)cc(O)c3cc2O)ccc1O
REMARK SMILES IDX 6 1 7 2 8 3 9 4 10 5 12 6 13 7 15 8 16 9 17 10 5 11 3 12
REMARK SMILES IDX 21 13 4 14 20 15 19 16 2 17 1 18 22 19 18 21 11 23 14 25
REMARK H PARENT 22 20 18 22 11 24 14 26
REMARK Flexibility Score: inf
ROOT
ATOM      1  C   UNL     1     -19.082  12.442 -34.472  1.00  0.00     0.402 A 
ATOM      2  O   UNL     1     -18.730  12.274 -35.745  1.00  0.00    -0.202 OA
ATOM      3  C   UNL     1     -19.594  11.947 -36.702  1.00  0.00     0.368 A 
ATOM      4  C   UNL     1     -19.146  11.792 -38.016  1.00  0.00     0.162 A 
ATOM      5  C   UNL     1     -20.047  11.452 -39.034  1.00  0.00     0.128 A 
ATOM      6  C   UNL     1     -21.401  11.267 -38.733  1.00  0.00     0.093 A 
ATOM      7  C   UNL     1     -21.865  11.417 -37.417  1.00  0.00     0.136 A 
ATOM      8  C   UNL     1     -20.960  11.759 -36.396  1.00  0.00     0.125 A 
ATOM      9  C   UNL     1     -21.365  11.914 -35.065  1.00  0.00     0.078 A 
ATOM     10  C   UNL     1     -20.424  12.248 -34.087  1.00  0.00     0.223 A 
ENDROOT
BRANCH   1  11
ATOM     11  C   UNL     1     -18.030  12.815 -33.499  1.00  0.00     0.087 A 
ATOM     12  C   UNL     1     -16.818  14.491 -32.191  1.00  0.00     0.161 A 
ATOM     13  C   UNL     1     -15.984  13.478 -31.685  1.00  0.00     0.157 A 
ATOM     14  C   UNL     1     -17.836  14.151 -33.105  1.00  0.00     0.068 A 
ATOM     15  C   UNL     1     -16.163  12.154 -32.093  1.00  0.00     0.051 A 
ATOM     16  C   UNL     1     -17.173  11.824 -32.998  1.00  0.00     0.022 A 
BRANCH  12  17
ATOM     17  O   UNL     1     -16.608  15.815 -31.772  1.00  0.00    -0.493 OA
ATOM     18  C   UNL     1     -15.825  16.772 -32.478  1.00  0.00     0.278 C 
ENDBRANCH  12  17
BRANCH  13  19
ATOM     19  O   UNL     1     -14.967  13.770 -30.776  1.00  0.00    -0.504 OA
ATOM     20  H   UNL     1     -14.125  13.211 -30.708  1.00  0.00     0.293 HD
ENDBRANCH  13  19
ENDBRANCH   1  11
BRANCH  10  21
ATOM     21  O   UNL     1     -20.812  12.355 -32.751  1.00  0.00    -0.500 OA
ATOM     22  H   UNL     1     -21.479  13.054 -32.445  1.00  0.00     0.294 HD
ENDBRANCH  10  21
BRANCH   5  23
ATOM     23  O   UNL     1     -19.609  11.298 -40.347  1.00  0.00    -0.507 OA
ATOM     24  H   UNL     1     -19.738  10.427 -40.849  1.00  0.00     0.293 HD
ENDBRANCH   5  23
BRANCH   7  25
ATOM     25  O   UNL     1     -23.217  11.228 -37.130  1.00  0.00    -0.507 OA
ATOM     26  H   UNL     1     -23.801  10.621 -37.696  1.00  0.00     0.293 HD
ENDBRANCH   7  25
TORSDOF 6
ENDMDL
MODEL 4
REMARK VINA RESULT:    -6.794      7.076     10.032
REMARK INTER + INTRA:          -8.730
REMARK INTER:                  -8.314
REMARK INTRA:                  -0.416
REMARK UNBOUND:                -0.347
REMARK SMILES COc1cc(-c2[o+]c3cc(O)cc(O)c3cc2O)ccc1O
REMARK SMILES IDX 6 1 7 2 8 3 9 4 10 5 12 6 13 7 15 8 16 9 17 10 5 11 3 12
REMARK SMILES IDX 21 13 4 14 20 15 19 16 2 17 1 18 22 19 18 21 11 23 14 25
REMARK H PARENT 22 20 18 22 11 24 14 26
REMARK Flexibility Score: inf
ROOT
ATOM      1  C   UNL     1     -24.175  15.208 -38.936  1.00  0.00     0.402 A 
ATOM      2  O   UNL     1     -24.174  16.100 -39.925  1.00  0.00    -0.202 OA
ATOM      3  C   UNL     1     -24.429  17.392 -39.741  1.00  0.00     0.368 A 
ATOM      4  C   UNL     1     -24.404  18.265 -40.832  1.00  0.00     0.162 A 
ATOM      5  C   UNL     1     -24.668  19.629 -40.649  1.00  0.00     0.128 A 
ATOM      6  C   UNL     1     -24.956  20.119 -39.371  1.00  0.00     0.093 A 
ATOM      7  C   UNL     1     -24.986  19.254 -38.267  1.00  0.00     0.136 A 
ATOM      8  C   UNL     1     -24.722  17.884 -38.450  1.00  0.00     0.125 A 
ATOM      9  C   UNL     1     -24.745  16.974 -37.386  1.00  0.00     0.078 A 
ATOM     10  C   UNL     1     -24.482  15.622 -37.624  1.00  0.00     0.223 A 
ENDROOT
BRANCH   1  11
ATOM     11  C   UNL     1     -23.867  13.798 -39.264  1.00  0.00     0.087 A 
ATOM     12  C   UNL     1     -22.275  11.957 -39.521  1.00  0.00     0.161 A 
ATOM     13  C   UNL     1     -23.324  11.123 -39.949  1.00  0.00     0.157 A 
ATOM     14  C   UNL     1     -22.554  13.298 -39.187  1.00  0.00     0.068 A 
ATOM     15  C   UNL     1     -24.624  11.627 -40.047  1.00  0.00     0.051 A 
ATOM     16  C   UNL     1     -24.894  12.955 -39.714  1.00  0.00     0.022 A 
BRANCH  12  17
ATOM     17  O   UNL     1     -20.977  11.427 -39.444  1.00  0.00    -0.493 OA
ATOM     18  C   UNL     1     -20.028  11.454 -40.505  1.00  0.00     0.278 C 
ENDBRANCH  12  17
BRANCH  13  19
ATOM     19  O   UNL     1     -23.093   9.789 -40.286  1.00  0.00    -0.504 OA
ATOM     20  H   UNL     1     -23.104   9.464 -41.245  1.00  0.00     0.293 HD
ENDBRANCH  13  19
ENDBRANCH   1  11
BRANCH  10  21
ATOM     21  O   UNL     1     -24.553  14.702 -36.577  1.00  0.00    -0.500 OA
ATOM     22  H   UNL     1     -23.900  13.931 -36.501  1.00  0.00     0.294 HD
ENDBRANCH  10  21
BRANCH   5  23
ATOM     23  O   UNL     1     -24.643  20.507 -41.731  1.00  0.00    -0.507 OA
ATOM     24  H   UNL     1     -24.483  20.178 -42.676  1.00  0.00     0.293 HD
ENDBRANCH   5  23
BRANCH   7  25
ATOM     25  O   UNL     1     -25.277  19.755 -36.998  1.00  0.00    -0.507 OA
ATOM     26  H   UNL     1     -25.718  20.659 -36.871  1.00  0.00     0.293 HD
ENDBRANCH   7  25
TORSDOF 6
ENDMDL
MODEL 5
REMARK VINA RESULT:    -6.765      8.785     11.370
REMARK INTER + INTRA:          -8.694
REMARK INTER:                  -8.371
REMARK INTRA:                  -0.322
REMARK UNBOUND:                -0.347
REMARK SMILES COc1cc(-c2[o+]c3cc(O)cc(O)c3cc2O)ccc1O
REMARK SMILES IDX 6 1 7 2 8 3 9 4 10 5 12 6 13 7 15 8 16 9 17 10 5 11 3 12
REMARK SMILES IDX 21 13 4 14 20 15 19 16 2 17 1 18 22 19 18 21 11 23 14 25
REMARK H PARENT 22 20 18 22 11 24 14 26
REMARK Flexibility Score: inf
ROOT
ATOM      1  C   UNL     1     -24.774  17.739 -38.446  1.00  0.00     0.402 A 
ATOM      2  O   UNL     1     -24.759  18.297 -39.656  1.00  0.00    -0.202 OA
ATOM      3  C   UNL     1     -24.107  19.423 -39.930  1.00  0.00     0.368 A 
ATOM      4  C   UNL     1     -24.138  19.942 -41.227  1.00  0.00     0.162 A 
ATOM      5  C   UNL     1     -23.452  21.126 -41.529  1.00  0.00     0.128 A 
ATOM      6  C   UNL     1     -22.734  21.790 -40.529  1.00  0.00     0.093 A 
ATOM      7  C   UNL     1     -22.696  21.282 -39.222  1.00  0.00     0.136 A 
ATOM      8  C   UNL     1     -23.385  20.093 -38.919  1.00  0.00     0.125 A 
ATOM      9  C   UNL     1     -23.388  19.544 -37.631  1.00  0.00     0.078 A 
ATOM     10  C   UNL     1     -24.095  18.364 -37.381  1.00  0.00     0.223 A 
ENDROOT
BRANCH   1  11
ATOM     11  C   UNL     1     -25.529  16.478 -38.266  1.00  0.00     0.087 A 
ATOM     12  C   UNL     1     -25.812  14.077 -38.648  1.00  0.00     0.161 A 
ATOM     13  C   UNL     1     -27.027  14.119 -37.939  1.00  0.00     0.157 A 
ATOM     14  C   UNL     1     -25.071  15.266 -38.813  1.00  0.00     0.068 A 
ATOM     15  C   UNL     1     -27.491  15.328 -37.415  1.00  0.00     0.051 A 
ATOM     16  C   UNL     1     -26.753  16.500 -37.582  1.00  0.00     0.022 A 
BRANCH  12  17
ATOM     17  O   UNL     1     -25.375  12.851 -39.173  1.00  0.00    -0.493 OA
ATOM     18  C   UNL     1     -24.033  12.567 -39.555  1.00  0.00     0.278 C 
ENDBRANCH  12  17
BRANCH  13  19
ATOM     19  O   UNL     1     -27.789  12.966 -37.749  1.00  0.00    -0.504 OA
ATOM     20  H   UNL     1     -28.578  12.736 -38.341  1.00  0.00     0.293 HD
ENDBRANCH  13  19
ENDBRANCH   1  11
BRANCH  10  21
ATOM     21  O   UNL     1     -24.144  17.839 -36.089  1.00  0.00    -0.500 OA
ATOM     22  H   UNL     1     -23.383  17.287 -35.710  1.00  0.00     0.294 HD
ENDBRANCH  10  21
BRANCH   5  23
ATOM     23  O   UNL     1     -23.475  21.649 -42.820  1.00  0.00    -0.507 OA
ATOM     24  H   UNL     1     -22.624  21.932 -43.292  1.00  0.00     0.293 HD
ENDBRANCH   5  23
BRANCH   7  25
ATOM     25  O   UNL     1     -21.978  21.956 -38.234  1.00  0.00    -0.507 OA
ATOM     26  H   UNL     1     -21.195  21.523 -37.757  1.00  0.00     0.293 HD
ENDBRANCH   7  25
TORSDOF 6
ENDMDL
MODEL 6
REMARK VINA RESULT:    -6.733      9.283     10.793
REMARK INTER + INTRA:          -8.654
REMARK INTER:                  -8.921
REMARK INTRA:                   0.267
REMARK UNBOUND:                -0.347
REMARK SMILES COc1cc(-c2[o+]c3cc(O)cc(O)c3cc2O)ccc1O
REMARK SMILES IDX 6 1 7 2 8 3 9 4 10 5 12 6 13 7 15 8 16 9 17 10 5 11 3 12
REMARK SMILES IDX 21 13 4 14 20 15 19 16 2 17 1 18 22 19 18 21 11 23 14 25
REMARK H PARENT 22 20 18 22 11 24 14 26
REMARK Flexibility Score: inf
ROOT
ATOM      1  C   UNL     1     -24.914  18.173 -38.379  1.00  0.00     0.402 A 
ATOM      2  O   UNL     1     -25.540  17.046 -38.713  1.00  0.00    -0.202 OA
ATOM      3  C   UNL     1     -25.985  16.168 -37.819  1.00  0.00     0.368 A 
ATOM      4  C   UNL     1     -26.636  15.009 -38.252  1.00  0.00     0.162 A 
ATOM      5  C   UNL     1     -27.112  14.078 -37.319  1.00  0.00     0.128 A 
ATOM      6  C   UNL     1     -26.934  14.308 -35.951  1.00  0.00     0.093 A 
ATOM      7  C   UNL     1     -26.281  15.466 -35.502  1.00  0.00     0.136 A 
ATOM      8  C   UNL     1     -25.803  16.401 -36.438  1.00  0.00     0.125 A 
ATOM      9  C   UNL     1     -25.137  17.569 -36.048  1.00  0.00     0.078 A 
ATOM     10  C   UNL     1     -24.676  18.463 -37.020  1.00  0.00     0.223 A 
ENDROOT
BRANCH   1  11
ATOM     11  C   UNL     1     -24.474  19.078 -39.464  1.00  0.00     0.087 A 
ATOM     12  C   UNL     1     -23.741  21.275 -40.258  1.00  0.00     0.161 A 
ATOM     13  C   UNL     1     -23.693  20.772 -41.571  1.00  0.00     0.157 A 
ATOM     14  C   UNL     1     -24.141  20.421 -39.209  1.00  0.00     0.068 A 
ATOM     15  C   UNL     1     -24.044  19.444 -41.826  1.00  0.00     0.051 A 
ATOM     16  C   UNL     1     -24.439  18.604 -40.784  1.00  0.00     0.022 A 
BRANCH  12  17
ATOM     17  O   UNL     1     -23.393  22.616 -40.033  1.00  0.00    -0.493 OA
ATOM     18  C   UNL     1     -22.095  23.061 -39.654  1.00  0.00     0.278 C 
ENDBRANCH  12  17
BRANCH  13  19
ATOM     19  O   UNL     1     -23.299  21.581 -42.638  1.00  0.00    -0.504 OA
ATOM     20  H   UNL     1     -22.425  21.440 -43.129  1.00  0.00     0.293 HD
ENDBRANCH  13  19
ENDBRANCH   1  11
BRANCH  10  21
ATOM     21  O   UNL     1     -23.967  19.603 -36.640  1.00  0.00    -0.500 OA
ATOM     22  H   UNL     1     -24.383  20.527 -36.683  1.00  0.00     0.294 HD
ENDBRANCH  10  21
BRANCH   5  23
ATOM     23  O   UNL     1     -27.764  12.922 -37.741  1.00  0.00    -0.507 OA
ATOM     24  H   UNL     1     -27.325  12.011 -37.670  1.00  0.00     0.293 HD
ENDBRANCH   5  23
BRANCH   7  25
ATOM     25  O   UNL     1     -26.109  15.683 -34.134  1.00  0.00    -0.507 OA
ATOM     26  H   UNL     1     -26.163  14.923 -33.465  1.00  0.00     0.293 HD
ENDBRANCH   7  25
TORSDOF 6
ENDMDL
MODEL 7
REMARK VINA RESULT:    -6.648      6.284      8.987
REMARK INTER + INTRA:          -8.550
REMARK INTER:                  -8.154
REMARK INTRA:                  -0.396
REMARK UNBOUND:                -0.347
REMARK SMILES COc1cc(-c2[o+]c3cc(O)cc(O)c3cc2O)ccc1O
REMARK SMILES IDX 6 1 7 2 8 3 9 4 10 5 12 6 13 7 15 8 16 9 17 10 5 11 3 12
REMARK SMILES IDX 21 13 4 14 20 15 19 16 2 17 1 18 22 19 18 21 11 23 14 25
REMARK H PARENT 22 20 18 22 11 24 14 26
REMARK Flexibility Score: inf
ROOT
ATOM      1  C   UNL     1     -23.677  14.227 -38.532  1.00  0.00     0.402 A 
ATOM      2  O   UNL     1     -23.747  14.383 -37.211  1.00  0.00    -0.202 OA
ATOM      3  C   UNL     1     -24.650  15.155 -36.615  1.00  0.00     0.368 A 
ATOM      4  C   UNL     1     -24.659  15.262 -35.222  1.00  0.00     0.162 A 
ATOM      5  C   UNL     1     -25.608  16.071 -34.583  1.00  0.00     0.128 A 
ATOM      6  C   UNL     1     -26.550  16.773 -35.342  1.00  0.00     0.093 A 
ATOM      7  C   UNL     1     -26.553  16.677 -36.742  1.00  0.00     0.136 A 
ATOM      8  C   UNL     1     -25.599  15.865 -37.383  1.00  0.00     0.125 A 
ATOM      9  C   UNL     1     -25.550  15.737 -38.777  1.00  0.00     0.078 A 
ATOM     10  C   UNL     1     -24.577  14.923 -39.365  1.00  0.00     0.223 A 
ENDROOT
BRANCH   1  11
ATOM     11  C   UNL     1     -22.633  13.332 -39.078  1.00  0.00     0.087 A 
ATOM     12  C   UNL     1     -21.918  11.167 -39.969  1.00  0.00     0.161 A 
ATOM     13  C   UNL     1     -20.600  11.652 -40.061  1.00  0.00     0.157 A 
ATOM     14  C   UNL     1     -22.929  12.013 -39.468  1.00  0.00     0.068 A 
ATOM     15  C   UNL     1     -20.303  12.955 -39.653  1.00  0.00     0.051 A 
ATOM     16  C   UNL     1     -21.309  13.787 -39.158  1.00  0.00     0.022 A 
BRANCH  12  17
ATOM     17  O   UNL     1     -22.185   9.851 -40.376  1.00  0.00    -0.493 OA
ATOM     18  C   UNL     1     -23.378   9.434 -41.033  1.00  0.00     0.278 C 
ENDBRANCH  12  17
BRANCH  13  19
ATOM     19  O   UNL     1     -19.571  10.850 -40.554  1.00  0.00    -0.504 OA
ATOM     20  H   UNL     1     -18.671  11.230 -40.821  1.00  0.00     0.293 HD
ENDBRANCH  13  19
ENDBRANCH   1  11
BRANCH  10  21
ATOM     21  O   UNL     1     -24.491  14.831 -40.754  1.00  0.00    -0.500 OA
ATOM     22  H   UNL     1     -23.712  15.229 -41.266  1.00  0.00     0.294 HD
ENDBRANCH  10  21
BRANCH   5  23
ATOM     23  O   UNL     1     -25.625  16.181 -33.194  1.00  0.00    -0.507 OA
ATOM     24  H   UNL     1     -26.496  16.215 -32.677  1.00  0.00     0.293 HD
ENDBRANCH   5  23
BRANCH   7  25
ATOM     25  O   UNL     1     -27.497  17.384 -37.486  1.00  0.00    -0.507 OA
ATOM     26  H   UNL     1     -27.227  18.136 -38.110  1.00  0.00     0.293 HD
ENDBRANCH   7  25
TORSDOF 6
ENDMDL
MODEL 8
REMARK VINA RESULT:    -6.550      1.791      2.905
REMARK INTER + INTRA:          -8.429
REMARK INTER:                  -8.006
REMARK INTRA:                  -0.423
REMARK UNBOUND:                -0.347
REMARK SMILES COc1cc(-c2[o+]c3cc(O)cc(O)c3cc2O)ccc1O
REMARK SMILES IDX 6 1 7 2 8 3 9 4 10 5 12 6 13 7 15 8 16 9 17 10 5 11 3 12
REMARK SMILES IDX 21 13 4 14 20 15 19 16 2 17 1 18 22 19 18 21 11 23 14 25
REMARK H PARENT 22 20 18 22 11 24 14 26
REMARK Flexibility Score: inf
ROOT
ATOM      1  C   UNL     1     -17.640  12.534 -34.649  1.00  0.00     0.402 A 
ATOM      2  O   UNL     1     -18.105  12.890 -35.845  1.00  0.00    -0.202 OA
ATOM      3  C   UNL     1     -18.722  12.046 -36.667  1.00  0.00     0.368 A 
ATOM      4  C   UNL     1     -19.185  12.500 -37.905  1.00  0.00     0.162 A 
ATOM      5  C   UNL     1     -19.840  11.621 -38.778  1.00  0.00     0.128 A 
ATOM      6  C   UNL     1     -20.031  10.285 -38.409  1.00  0.00     0.093 A 
ATOM      7  C   UNL     1     -19.570   9.815 -37.169  1.00  0.00     0.136 A 
ATOM      8  C   UNL     1     -18.913  10.698 -36.293  1.00  0.00     0.125 A 
ATOM      9  C   UNL     1     -18.426  10.283 -35.047  1.00  0.00     0.078 A 
ATOM     10  C   UNL     1     -17.773  11.199 -34.217  1.00  0.00     0.223 A 
ENDROOT
BRANCH   1  11
ATOM     11  C   UNL     1     -16.979  13.567 -33.819  1.00  0.00     0.087 A 
ATOM     12  C   UNL     1     -14.988  14.817 -33.138  1.00  0.00     0.161 A 
ATOM     13  C   UNL     1     -15.758  15.502 -32.181  1.00  0.00     0.157 A 
ATOM     14  C   UNL     1     -15.606  13.843 -33.950  1.00  0.00     0.068 A 
ATOM     15  C   UNL     1     -17.117  15.211 -32.037  1.00  0.00     0.051 A 
ATOM     16  C   UNL     1     -17.723  14.246 -32.843  1.00  0.00     0.022 A 
BRANCH  12  17
ATOM     17  O   UNL     1     -13.623  15.122 -33.254  1.00  0.00    -0.493 OA
ATOM     18  C   UNL     1     -13.025  15.738 -34.390  1.00  0.00     0.278 C 
ENDBRANCH  12  17
BRANCH  13  19
ATOM     19  O   UNL     1     -15.188  16.475 -31.360  1.00  0.00    -0.504 OA
ATOM     20  H   UNL     1     -15.545  16.679 -30.435  1.00  0.00     0.293 HD
ENDBRANCH  13  19
ENDBRANCH   1  11
BRANCH  10  21
ATOM     21  O   UNL     1     -17.241  10.780 -32.997  1.00  0.00    -0.500 OA
ATOM     22  H   UNL     1     -16.919  11.443 -32.302  1.00  0.00     0.294 HD
ENDBRANCH  10  21
BRANCH   5  23
ATOM     23  O   UNL     1     -20.306  12.064 -40.013  1.00  0.00    -0.507 OA
ATOM     24  H   UNL     1     -21.231  11.823 -40.348  1.00  0.00     0.293 HD
ENDBRANCH   5  23
BRANCH   7  25
ATOM     25  O   UNL     1     -19.766   8.481 -36.814  1.00  0.00    -0.507 OA
ATOM     26  H   UNL     1     -20.641   8.159 -36.415  1.00  0.00     0.293 HD
ENDBRANCH   7  25
TORSDOF 6
ENDMDL
MODEL 9
REMARK VINA RESULT:    -6.435      8.405     10.563
REMARK INTER + INTRA:          -8.287
REMARK INTER:                  -7.867
REMARK INTRA:                  -0.420
REMARK UNBOUND:                -0.347
REMARK SMILES COc1cc(-c2[o+]c3cc(O)cc(O)c3cc2O)ccc1O
REMARK SMILES IDX 6 1 7 2 8 3 9 4 10 5 12 6 13 7 15 8 16 9 17 10 5 11 3 12
REMARK SMILES IDX 21 13 4 14 20 15 19 16 2 17 1 18 22 19 18 21 11 23 14 25
REMARK H PARENT 22 20 18 22 11 24 14 26
REMARK Flexibility Score: inf
ROOT
ATOM      1  C   UNL     1     -24.684  17.166 -38.814  1.00  0.00     0.402 A 
ATOM      2  O   UNL     1     -24.410  18.422 -38.467  1.00  0.00    -0.202 OA
ATOM      3  C   UNL     1     -23.802  19.285 -39.276  1.00  0.00     0.368 A 
ATOM      4  C   UNL     1     -23.554  20.588 -38.837  1.00  0.00     0.162 A 
ATOM      5  C   UNL     1     -22.918  21.507 -39.682  1.00  0.00     0.128 A 
ATOM      6  C   UNL     1     -22.530  21.119 -40.969  1.00  0.00     0.093 A 
ATOM      7  C   UNL     1     -22.771  19.813 -41.422  1.00  0.00     0.136 A 
ATOM      8  C   UNL     1     -23.410  18.890 -40.574  1.00  0.00     0.125 A 
ATOM      9  C   UNL     1     -23.670  17.573 -40.970  1.00  0.00     0.078 A 
ATOM     10  C   UNL     1     -24.301  16.694 -40.085  1.00  0.00     0.223 A 
ENDROOT
BRANCH   1  11
ATOM     11  C   UNL     1     -25.373  16.301 -37.829  1.00  0.00     0.087 A 
ATOM     12  C   UNL     1     -25.324  14.722 -35.959  1.00  0.00     0.161 A 
ATOM     13  C   UNL     1     -26.727  14.633 -36.012  1.00  0.00     0.157 A 
ATOM     14  C   UNL     1     -24.653  15.555 -36.878  1.00  0.00     0.068 A 
ATOM     15  C   UNL     1     -27.440  15.358 -36.971  1.00  0.00     0.051 A 
ATOM     16  C   UNL     1     -26.769  16.180 -37.878  1.00  0.00     0.022 A 
BRANCH  12  17
ATOM     17  O   UNL     1     -24.634  13.974 -34.993  1.00  0.00    -0.493 OA
ATOM     18  C   UNL     1     -23.738  12.907 -35.285  1.00  0.00     0.278 C 
ENDBRANCH  12  17
BRANCH  13  19
ATOM     19  O   UNL     1     -27.431  13.824 -35.120  1.00  0.00    -0.504 OA
ATOM     20  H   UNL     1     -27.455  12.815 -35.208  1.00  0.00     0.293 HD
ENDBRANCH  13  19
ENDBRANCH   1  11
BRANCH  10  21
ATOM     21  O   UNL     1     -24.517  15.366 -40.456  1.00  0.00    -0.500 OA
ATOM     22  H   UNL     1     -25.407  14.908 -40.299  1.00  0.00     0.294 HD
ENDBRANCH  10  21
BRANCH   5  23
ATOM     23  O   UNL     1     -22.668  22.809 -39.254  1.00  0.00    -0.507 OA
ATOM     24  H   UNL     1     -22.242  22.997 -38.354  1.00  0.00     0.293 HD
ENDBRANCH   5  23
BRANCH   7  25
ATOM     25  O   UNL     1     -22.378  19.439 -42.707  1.00  0.00    -0.507 OA
ATOM     26  H   UNL     1     -21.421  19.547 -43.023  1.00  0.00     0.293 HD
ENDBRANCH   7  25
TORSDOF 6
ENDMDL
