MODEL 1
REMARK VINA RESULT:    -4.953      0.000      0.000
REMARK INTER + INTRA:          -6.390
REMARK INTER:                  -5.967
REMARK INTRA:                  -0.423
REMARK UNBOUND:                -0.423
REMARK SMILES O=c1c(O)c(-c2ccc(O)cc2O)oc2cc(O)cc(O)c12
REMARK SMILES IDX 5 1 3 2 2 3 1 4 22 5 20 6 19 7 17 8 16 9 15 10 14 11 6 12
REMARK SMILES IDX 8 13 7 14 9 15 11 16 12 17 10 18 13 20 4 22 21 24 18 26
REMARK H PARENT 10 19 13 21 4 23 21 25 18 27
REMARK Flexibility Score: inf
ROOT
ATOM      1  C   UNL     1      -8.343  -2.581 -16.325  1.00  0.00     0.184 A 
ATOM      2  C   UNL     1      -8.800  -1.361 -16.848  1.00  0.00     0.208 A 
ATOM      3  C   UNL     1      -8.560  -0.179 -16.130  1.00  0.00     0.238 A 
ATOM      4  O   UNL     1      -8.924   0.917 -16.630  1.00  0.00    -0.285 OA
ATOM      5  C   UNL     1      -7.880  -0.237 -14.889  1.00  0.00     0.111 A 
ATOM      6  C   UNL     1      -7.617   0.892 -14.057  1.00  0.00     0.134 A 
ATOM      7  C   UNL     1      -6.823   0.738 -12.914  1.00  0.00     0.093 A 
ATOM      8  C   UNL     1      -6.338  -0.517 -12.538  1.00  0.00     0.123 A 
ATOM      9  C   UNL     1      -6.638  -1.636 -13.312  1.00  0.00     0.094 A 
ATOM     10  C   UNL     1      -7.397  -1.507 -14.477  1.00  0.00     0.146 A 
ATOM     11  O   UNL     1      -7.652  -2.597 -15.193  1.00  0.00    -0.451 OA
ENDROOT
BRANCH   1  12
ATOM     12  C   UNL     1      -8.578  -3.862 -17.023  1.00  0.00     0.063 A 
ATOM     13  C   UNL     1     -10.125  -5.628 -17.659  1.00  0.00     0.047 A 
ATOM     14  C   UNL     1      -9.866  -4.421 -17.004  1.00  0.00     0.020 A 
ATOM     15  C   UNL     1      -9.105  -6.284 -18.352  1.00  0.00     0.119 A 
ATOM     16  C   UNL     1      -7.822  -5.722 -18.397  1.00  0.00     0.093 A 
ATOM     17  C   UNL     1      -7.555  -4.509 -17.748  1.00  0.00     0.130 A 
BRANCH  15  18
ATOM     18  O   UNL     1      -9.376  -7.488 -18.997  1.00  0.00    -0.508 OA
ATOM     19  H   UNL     1      -8.827  -8.321 -18.818  1.00  0.00     0.293 HD
ENDBRANCH  15  18
BRANCH  17  20
ATOM     20  O   UNL     1      -6.287  -3.935 -17.841  1.00  0.00    -0.507 OA
ATOM     21  H   UNL     1      -6.131  -2.955 -17.637  1.00  0.00     0.293 HD
ENDBRANCH  17  20
ENDBRANCH   1  12
BRANCH   2  22
ATOM     22  O   UNL     1      -9.452  -1.332 -18.084  1.00  0.00    -0.502 OA
ATOM     23  H   UNL     1      -9.906  -2.147 -18.478  1.00  0.00     0.293 HD
ENDBRANCH   2  22
BRANCH   6  24
ATOM     24  O   UNL     1      -8.131   2.171 -14.292  1.00  0.00    -0.507 OA
ATOM     25  H   UNL     1      -8.154   2.915 -13.612  1.00  0.00     0.293 HD
ENDBRANCH   6  24
BRANCH   8  26
ATOM     26  O   UNL     1      -5.562  -0.664 -11.390  1.00  0.00    -0.508 OA
ATOM     27  H   UNL     1      -5.966  -0.968 -10.512  1.00  0.00     0.293 HD
ENDBRANCH   8  26
TORSDOF 6
ENDMDL
MODEL 2
REMARK VINA RESULT:    -4.825     10.476     13.762
REMARK INTER + INTRA:          -6.236
REMARK INTER:                  -5.827
REMARK INTRA:                  -0.409
REMARK UNBOUND:                -0.423
REMARK SMILES O=c1c(O)c(-c2ccc(O)cc2O)oc2cc(O)cc(O)c12
REMARK SMILES IDX 5 1 3 2 2 3 1 4 22 5 20 6 19 7 17 8 16 9 15 10 14 11 6 12
REMARK SMILES IDX 8 13 7 14 9 15 11 16 12 17 10 18 13 20 4 22 21 24 18 26
REMARK H PARENT 10 19 13 21 4 23 21 25 18 27
REMARK Flexibility Score: inf
ROOT
ATOM      1  C   UNL     1      -0.142   1.159  -6.406  1.00  0.00     0.184 A 
ATOM      2  C   UNL     1       0.945   0.300  -6.636  1.00  0.00     0.208 A 
ATOM      3  C   UNL     1       2.248   0.817  -6.574  1.00  0.00     0.238 A 
ATOM      4  O   UNL     1       3.218   0.031  -6.726  1.00  0.00    -0.285 OA
ATOM      5  C   UNL     1       2.446   2.192  -6.299  1.00  0.00     0.111 A 
ATOM      6  C   UNL     1       3.720   2.833  -6.251  1.00  0.00     0.134 A 
ATOM      7  C   UNL     1       3.805   4.170  -5.842  1.00  0.00     0.093 A 
ATOM      8  C   UNL     1       2.657   4.907  -5.543  1.00  0.00     0.123 A 
ATOM      9  C   UNL     1       1.404   4.307  -5.643  1.00  0.00     0.094 A 
ATOM     10  C   UNL     1       1.289   2.965  -6.013  1.00  0.00     0.146 A 
ATOM     11  O   UNL     1       0.076   2.428  -6.086  1.00  0.00    -0.451 OA
ENDROOT
BRANCH   1  12
ATOM     12  C   UNL     1      -1.538   0.681  -6.474  1.00  0.00     0.063 A 
ATOM     13  C   UNL     1      -3.344  -0.606  -5.474  1.00  0.00     0.047 A 
ATOM     14  C   UNL     1      -2.026  -0.140  -5.445  1.00  0.00     0.020 A 
ATOM     15  C   UNL     1      -4.193  -0.245  -6.522  1.00  0.00     0.119 A 
ATOM     16  C   UNL     1      -3.723   0.594  -7.541  1.00  0.00     0.093 A 
ATOM     17  C   UNL     1      -2.404   1.070  -7.517  1.00  0.00     0.130 A 
BRANCH  15  18
ATOM     18  O   UNL     1      -5.503  -0.719  -6.540  1.00  0.00    -0.508 OA
ATOM     19  H   UNL     1      -6.204  -0.318  -7.153  1.00  0.00     0.293 HD
ENDBRANCH  15  18
BRANCH  17  20
ATOM     20  O   UNL     1      -1.963   1.944  -8.511  1.00  0.00    -0.507 OA
ATOM     21  H   UNL     1      -2.590   2.602  -8.957  1.00  0.00     0.293 HD
ENDBRANCH  17  20
ENDBRANCH   1  12
BRANCH   2  22
ATOM     22  O   UNL     1       0.720  -1.057  -6.886  1.00  0.00    -0.502 OA
ATOM     23  H   UNL     1       1.463  -1.689  -7.161  1.00  0.00     0.293 HD
ENDBRANCH   2  22
BRANCH   6  24
ATOM     24  O   UNL     1       4.918   2.215  -6.619  1.00  0.00    -0.507 OA
ATOM     25  H   UNL     1       5.141   1.246  -6.450  1.00  0.00     0.293 HD
ENDBRANCH   6  24
BRANCH   8  26
ATOM     26  O   UNL     1       2.751   6.241  -5.153  1.00  0.00    -0.508 OA
ATOM     27  H   UNL     1       3.591   6.610  -4.722  1.00  0.00     0.293 HD
ENDBRANCH   8  26
TORSDOF 6
ENDMDL
MODEL 3
REMARK VINA RESULT:    -4.793     10.650     13.072
REMARK INTER + INTRA:          -6.197
REMARK INTER:                  -5.782
REMARK INTRA:                  -0.415
REMARK UNBOUND:                -0.423
REMARK SMILES O=c1c(O)c(-c2ccc(O)cc2O)oc2cc(O)cc(O)c12
REMARK SMILES IDX 5 1 3 2 2 3 1 4 22 5 20 6 19 7 17 8 16 9 15 10 14 11 6 12
REMARK SMILES IDX 8 13 7 14 9 15 11 16 12 17 10 18 13 20 4 22 21 24 18 26
REMARK H PARENT 10 19 13 21 4 23 21 25 18 27
REMARK Flexibility Score: inf
ROOT
ATOM      1  C   UNL     1      -1.193  -0.466  -6.276  1.00  0.00     0.184 A 
ATOM      2  C   UNL     1      -0.482  -1.501  -6.904  1.00  0.00     0.208 A 
ATOM      3  C   UNL     1       0.907  -1.374  -7.064  1.00  0.00     0.238 A 
ATOM      4  O   UNL     1       1.546  -2.329  -7.577  1.00  0.00    -0.285 OA
ATOM      5  C   UNL     1       1.563  -0.205  -6.608  1.00  0.00     0.111 A 
ATOM      6  C   UNL     1       2.960   0.049  -6.754  1.00  0.00     0.134 A 
ATOM      7  C   UNL     1       3.523   1.180  -6.150  1.00  0.00     0.093 A 
ATOM      8  C   UNL     1       2.729   2.100  -5.462  1.00  0.00     0.123 A 
ATOM      9  C   UNL     1       1.355   1.892  -5.365  1.00  0.00     0.094 A 
ATOM     10  C   UNL     1       0.770   0.754  -5.925  1.00  0.00     0.146 A 
ATOM     11  O   UNL     1      -0.542   0.588  -5.800  1.00  0.00    -0.451 OA
ENDROOT
BRANCH   1  12
ATOM     12  C   UNL     1      -2.657  -0.531  -6.092  1.00  0.00     0.063 A 
ATOM     13  C   UNL     1      -4.562  -1.455  -4.894  1.00  0.00     0.047 A 
ATOM     14  C   UNL     1      -3.181  -1.374  -5.099  1.00  0.00     0.020 A 
ATOM     15  C   UNL     1      -5.433  -0.684  -5.667  1.00  0.00     0.119 A 
ATOM     16  C   UNL     1      -4.919   0.179  -6.644  1.00  0.00     0.093 A 
ATOM     17  C   UNL     1      -3.535   0.271  -6.853  1.00  0.00     0.130 A 
BRANCH  15  18
ATOM     18  O   UNL     1      -6.806  -0.777  -5.454  1.00  0.00    -0.508 OA
ATOM     19  H   UNL     1      -7.200  -0.759  -4.520  1.00  0.00     0.293 HD
ENDBRANCH  15  18
BRANCH  17  20
ATOM     20  O   UNL     1      -3.032   1.169  -7.794  1.00  0.00    -0.507 OA
ATOM     21  H   UNL     1      -2.158   0.999  -8.277  1.00  0.00     0.293 HD
ENDBRANCH  17  20
ENDBRANCH   1  12
BRANCH   2  22
ATOM     22  O   UNL     1      -1.152  -2.652  -7.326  1.00  0.00    -0.502 OA
ATOM     23  H   UNL     1      -0.888  -3.158  -8.164  1.00  0.00     0.293 HD
ENDBRANCH   2  22
BRANCH   6  24
ATOM     24  O   UNL     1       3.826  -0.758  -7.498  1.00  0.00    -0.507 OA
ATOM     25  H   UNL     1       3.583  -1.218  -8.362  1.00  0.00     0.293 HD
ENDBRANCH   6  24
BRANCH   8  26
ATOM     26  O   UNL     1       3.295   3.231  -4.878  1.00  0.00    -0.508 OA
ATOM     27  H   UNL     1       4.250   3.507  -5.075  1.00  0.00     0.293 HD
ENDBRANCH   8  26
TORSDOF 6
ENDMDL
MODEL 4
REMARK VINA RESULT:    -4.753     10.561     13.165
REMARK INTER + INTRA:          -6.148
REMARK INTER:                  -5.734
REMARK INTRA:                  -0.414
REMARK UNBOUND:                -0.423
REMARK SMILES O=c1c(O)c(-c2ccc(O)cc2O)oc2cc(O)cc(O)c12
REMARK SMILES IDX 5 1 3 2 2 3 1 4 22 5 20 6 19 7 17 8 16 9 15 10 14 11 6 12
REMARK SMILES IDX 8 13 7 14 9 15 11 16 12 17 10 18 13 20 4 22 21 24 18 26
REMARK H PARENT 10 19 13 21 4 23 21 25 18 27
REMARK Flexibility Score: inf
ROOT
ATOM      1  C   UNL     1       1.110  -0.704  -7.268  1.00  0.00     0.184 A 
ATOM      2  C   UNL     1       2.497  -0.676  -7.484  1.00  0.00     0.208 A 
ATOM      3  C   UNL     1       3.194   0.524  -7.273  1.00  0.00     0.238 A 
ATOM      4  O   UNL     1       4.445   0.529  -7.416  1.00  0.00    -0.285 OA
ATOM      5  C   UNL     1       2.492   1.683  -6.864  1.00  0.00     0.111 A 
ATOM      6  C   UNL     1       3.090   2.963  -6.659  1.00  0.00     0.134 A 
ATOM      7  C   UNL     1       2.322   4.007  -6.129  1.00  0.00     0.093 A 
ATOM      8  C   UNL     1       0.963   3.837  -5.859  1.00  0.00     0.123 A 
ATOM      9  C   UNL     1       0.356   2.608  -6.111  1.00  0.00     0.094 A 
ATOM     10  C   UNL     1       1.103   1.537  -6.605  1.00  0.00     0.146 A 
ATOM     11  O   UNL     1       0.489   0.380  -6.821  1.00  0.00    -0.451 OA
ENDROOT
BRANCH   1  12
ATOM     12  C   UNL     1       0.314  -1.930  -7.488  1.00  0.00     0.063 A 
ATOM     13  C   UNL     1      -0.723  -3.927  -6.565  1.00  0.00     0.047 A 
ATOM     14  C   UNL     1       0.031  -2.762  -6.394  1.00  0.00     0.020 A 
ATOM     15  C   UNL     1      -1.215  -4.265  -7.827  1.00  0.00     0.119 A 
ATOM     16  C   UNL     1      -0.959  -3.428  -8.921  1.00  0.00     0.093 A 
ATOM     17  C   UNL     1      -0.207  -2.255  -8.758  1.00  0.00     0.130 A 
BRANCH  15  18
ATOM     18  O   UNL     1      -1.963  -5.430  -7.984  1.00  0.00    -0.508 OA
ATOM     19  H   UNL     1      -2.884  -5.416  -8.409  1.00  0.00     0.293 HD
ENDBRANCH  15  18
BRANCH  17  20
ATOM     20  O   UNL     1       0.000  -1.406  -9.844  1.00  0.00    -0.507 OA
ATOM     21  H   UNL     1       0.211  -1.765 -10.767  1.00  0.00     0.293 HD
ENDBRANCH  17  20
ENDBRANCH   1  12
BRANCH   2  22
ATOM     22  O   UNL     1       3.167  -1.840  -7.870  1.00  0.00    -0.502 OA
ATOM     23  H   UNL     1       4.011  -2.158  -7.409  1.00  0.00     0.293 HD
ENDBRANCH   2  22
BRANCH   6  24
ATOM     24  O   UNL     1       4.416   3.264  -6.983  1.00  0.00    -0.507 OA
ATOM     25  H   UNL     1       4.783   3.310  -7.920  1.00  0.00     0.293 HD
ENDBRANCH   6  24
BRANCH   8  26
ATOM     26  O   UNL     1       0.203   4.886  -5.347  1.00  0.00    -0.508 OA
ATOM     27  H   UNL     1      -0.788   4.969  -5.544  1.00  0.00     0.293 HD
ENDBRANCH   8  26
TORSDOF 6
ENDMDL
MODEL 5
REMARK VINA RESULT:    -4.743     10.611     12.808
REMARK INTER + INTRA:          -6.137
REMARK INTER:                  -5.721
REMARK INTRA:                  -0.417
REMARK UNBOUND:                -0.423
REMARK SMILES O=c1c(O)c(-c2ccc(O)cc2O)oc2cc(O)cc(O)c12
REMARK SMILES IDX 5 1 3 2 2 3 1 4 22 5 20 6 19 7 17 8 16 9 15 10 14 11 6 12
REMARK SMILES IDX 8 13 7 14 9 15 11 16 12 17 10 18 13 20 4 22 21 24 18 26
REMARK H PARENT 10 19 13 21 4 23 21 25 18 27
REMARK Flexibility Score: inf
ROOT
ATOM      1  C   UNL     1      -0.933   0.683  -7.380  1.00  0.00     0.184 A 
ATOM      2  C   UNL     1      -2.337   0.699  -7.402  1.00  0.00     0.208 A 
ATOM      3  C   UNL     1      -3.036  -0.486  -7.119  1.00  0.00     0.238 A 
ATOM      4  O   UNL     1      -4.293  -0.452  -7.087  1.00  0.00    -0.285 OA
ATOM      5  C   UNL     1      -2.319  -1.674  -6.834  1.00  0.00     0.111 A 
ATOM      6  C   UNL     1      -2.923  -2.940  -6.573  1.00  0.00     0.134 A 
ATOM      7  C   UNL     1      -2.122  -4.018  -6.176  1.00  0.00     0.093 A 
ATOM      8  C   UNL     1      -0.733  -3.892  -6.094  1.00  0.00     0.123 A 
ATOM      9  C   UNL     1      -0.129  -2.675  -6.404  1.00  0.00     0.094 A 
ATOM     10  C   UNL     1      -0.904  -1.572  -6.768  1.00  0.00     0.146 A 
ATOM     11  O   UNL     1      -0.290  -0.428  -7.046  1.00  0.00    -0.451 OA
ENDROOT
BRANCH   1  12
ATOM     12  C   UNL     1      -0.138   1.891  -7.685  1.00  0.00     0.063 A 
ATOM     13  C   UNL     1       0.714   4.053  -6.967  1.00  0.00     0.047 A 
ATOM     14  C   UNL     1      -0.034   2.900  -6.714  1.00  0.00     0.020 A 
ATOM     15  C   UNL     1       1.379   4.205  -8.186  1.00  0.00     0.119 A 
ATOM     16  C   UNL     1       1.301   3.194  -9.152  1.00  0.00     0.093 A 
ATOM     17  C   UNL     1       0.557   2.031  -8.905  1.00  0.00     0.130 A 
BRANCH  15  18
ATOM     18  O   UNL     1       2.118   5.361  -8.425  1.00  0.00    -0.508 OA
ATOM     19  H   UNL     1       1.786   6.081  -9.058  1.00  0.00     0.293 HD
ENDBRANCH  15  18
BRANCH  17  20
ATOM     20  O   UNL     1       0.526   1.010  -9.855  1.00  0.00    -0.507 OA
ATOM     21  H   UNL     1      -0.327   0.506 -10.066  1.00  0.00     0.293 HD
ENDBRANCH  17  20
ENDBRANCH   1  12
BRANCH   2  22
ATOM     22  O   UNL     1      -3.018   1.890  -7.668  1.00  0.00    -0.502 OA
ATOM     23  H   UNL     1      -2.865   2.735  -7.130  1.00  0.00     0.293 HD
ENDBRANCH   2  22
BRANCH   6  24
ATOM     24  O   UNL     1      -4.290  -3.197  -6.715  1.00  0.00    -0.507 OA
ATOM     25  H   UNL     1      -5.023  -2.533  -6.521  1.00  0.00     0.293 HD
ENDBRANCH   6  24
BRANCH   8  26
ATOM     26  O   UNL     1       0.058  -4.974  -5.713  1.00  0.00    -0.508 OA
ATOM     27  H   UNL     1      -0.249  -5.929  -5.853  1.00  0.00     0.293 HD
ENDBRANCH   8  26
TORSDOF 6
ENDMDL
MODEL 6
REMARK VINA RESULT:    -4.734     11.038     13.869
REMARK INTER + INTRA:          -6.125
REMARK INTER:                  -5.749
REMARK INTRA:                  -0.377
REMARK UNBOUND:                -0.423
REMARK SMILES O=c1c(O)c(-c2ccc(O)cc2O)oc2cc(O)cc(O)c12
REMARK SMILES IDX 5 1 3 2 2 3 1 4 22 5 20 6 19 7 17 8 16 9 15 10 14 11 6 12
REMARK SMILES IDX 8 13 7 14 9 15 11 16 12 17 10 18 13 20 4 22 21 24 18 26
REMARK H PARENT 10 19 13 21 4 23 21 25 18 27
REMARK Flexibility Score: inf
ROOT
ATOM      1  C   UNL     1       0.593  -0.801  -6.377  1.00  0.00     0.184 A 
ATOM      2  C   UNL     1      -0.512   0.007  -6.689  1.00  0.00     0.208 A 
ATOM      3  C   UNL     1      -1.797  -0.557  -6.662  1.00  0.00     0.238 A 
ATOM      4  O   UNL     1      -2.787   0.185  -6.889  1.00  0.00    -0.285 OA
ATOM      5  C   UNL     1      -1.957  -1.927  -6.340  1.00  0.00     0.111 A 
ATOM      6  C   UNL     1      -3.208  -2.614  -6.322  1.00  0.00     0.134 A 
ATOM      7  C   UNL     1      -3.263  -3.935  -5.863  1.00  0.00     0.093 A 
ATOM      8  C   UNL     1      -2.104  -4.616  -5.483  1.00  0.00     0.123 A 
ATOM      9  C   UNL     1      -0.870  -3.972  -5.553  1.00  0.00     0.094 A 
ATOM     10  C   UNL     1      -0.787  -2.643  -5.973  1.00  0.00     0.146 A 
ATOM     11  O   UNL     1       0.407  -2.063  -6.014  1.00  0.00    -0.451 OA
ENDROOT
BRANCH   1  12
ATOM     12  C   UNL     1       1.973  -0.272  -6.403  1.00  0.00     0.063 A 
ATOM     13  C   UNL     1       3.648   1.210  -5.448  1.00  0.00     0.047 A 
ATOM     14  C   UNL     1       2.349   0.693  -5.456  1.00  0.00     0.020 A 
ATOM     15  C   UNL     1       4.589   0.758  -6.375  1.00  0.00     0.119 A 
ATOM     16  C   UNL     1       4.231  -0.223  -7.309  1.00  0.00     0.093 A 
ATOM     17  C   UNL     1       2.932  -0.751  -7.320  1.00  0.00     0.130 A 
BRANCH  15  18
ATOM     18  O   UNL     1       5.879   1.285  -6.358  1.00  0.00    -0.508 OA
ATOM     19  H   UNL     1       6.129   2.093  -6.917  1.00  0.00     0.293 HD
ENDBRANCH  15  18
BRANCH  17  20
ATOM     20  O   UNL     1       2.601  -1.762  -8.222  1.00  0.00    -0.507 OA
ATOM     21  H   UNL     1       2.120  -2.603  -7.925  1.00  0.00     0.293 HD
ENDBRANCH  17  20
ENDBRANCH   1  12
BRANCH   2  22
ATOM     22  O   UNL     1      -0.326   1.360  -6.985  1.00  0.00    -0.502 OA
ATOM     23  H   UNL     1       0.387   1.922  -6.535  1.00  0.00     0.293 HD
ENDBRANCH   2  22
BRANCH   6  24
ATOM     24  O   UNL     1      -4.410  -2.056  -6.767  1.00  0.00    -0.507 OA
ATOM     25  H   UNL     1      -5.324  -2.320  -6.434  1.00  0.00     0.293 HD
ENDBRANCH   6  24
BRANCH   8  26
ATOM     26  O   UNL     1      -2.166  -5.936  -5.043  1.00  0.00    -0.508 OA
ATOM     27  H   UNL     1      -2.888  -6.569  -5.366  1.00  0.00     0.293 HD
ENDBRANCH   8  26
TORSDOF 6
ENDMDL
MODEL 7
REMARK VINA RESULT:    -4.700     10.646     13.480
REMARK INTER + INTRA:          -6.085
REMARK INTER:                  -5.682
REMARK INTRA:                  -0.404
REMARK UNBOUND:                -0.423
REMARK SMILES O=c1c(O)c(-c2ccc(O)cc2O)oc2cc(O)cc(O)c12
REMARK SMILES IDX 5 1 3 2 2 3 1 4 22 5 20 6 19 7 17 8 16 9 15 10 14 11 6 12
REMARK SMILES IDX 8 13 7 14 9 15 11 16 12 17 10 18 13 20 4 22 21 24 18 26
REMARK H PARENT 10 19 13 21 4 23 21 25 18 27
REMARK Flexibility Score: inf
ROOT
ATOM      1  C   UNL     1      -0.697  -0.361  -6.459  1.00  0.00     0.184 A 
ATOM      2  C   UNL     1       0.255  -1.352  -6.746  1.00  0.00     0.208 A 
ATOM      3  C   UNL     1      -0.164  -2.687  -6.858  1.00  0.00     0.238 A 
ATOM      4  O   UNL     1       0.685  -3.562  -7.170  1.00  0.00    -0.285 OA
ATOM      5  C   UNL     1      -1.528  -3.014  -6.666  1.00  0.00     0.111 A 
ATOM      6  C   UNL     1      -2.059  -4.337  -6.717  1.00  0.00     0.134 A 
ATOM      7  C   UNL     1      -3.443  -4.530  -6.641  1.00  0.00     0.093 A 
ATOM      8  C   UNL     1      -4.311  -3.452  -6.449  1.00  0.00     0.123 A 
ATOM      9  C   UNL     1      -3.798  -2.161  -6.340  1.00  0.00     0.094 A 
ATOM     10  C   UNL     1      -2.425  -1.934  -6.448  1.00  0.00     0.146 A 
ATOM     11  O   UNL     1      -1.978  -0.687  -6.349  1.00  0.00    -0.451 OA
ENDROOT
BRANCH   1  12
ATOM     12  C   UNL     1      -0.318   1.060  -6.311  1.00  0.00     0.063 A 
ATOM     13  C   UNL     1       0.846   2.779  -5.042  1.00  0.00     0.047 A 
ATOM     14  C   UNL     1       0.464   1.444  -5.210  1.00  0.00     0.020 A 
ATOM     15  C   UNL     1       0.462   3.741  -5.979  1.00  0.00     0.119 A 
ATOM     16  C   UNL     1      -0.299   3.364  -7.093  1.00  0.00     0.093 A 
ATOM     17  C   UNL     1      -0.681   2.027  -7.272  1.00  0.00     0.130 A 
BRANCH  15  18
ATOM     18  O   UNL     1       0.846   5.068  -5.797  1.00  0.00    -0.508 OA
ATOM     19  H   UNL     1       0.799   5.514  -4.887  1.00  0.00     0.293 HD
ENDBRANCH  15  18
BRANCH  17  20
ATOM     20  O   UNL     1      -1.396   1.655  -8.410  1.00  0.00    -0.507 OA
ATOM     21  H   UNL     1      -1.494   2.278  -9.204  1.00  0.00     0.293 HD
ENDBRANCH  17  20
ENDBRANCH   1  12
BRANCH   2  22
ATOM     22  O   UNL     1       1.592  -0.998  -6.949  1.00  0.00    -0.502 OA
ATOM     23  H   UNL     1       2.021  -0.205  -6.487  1.00  0.00     0.293 HD
ENDBRANCH   2  22
BRANCH   6  24
ATOM     24  O   UNL     1      -1.272  -5.490  -6.813  1.00  0.00    -0.507 OA
ATOM     25  H   UNL     1      -0.468  -5.589  -7.413  1.00  0.00     0.293 HD
ENDBRANCH   6  24
BRANCH   8  26
ATOM     26  O   UNL     1      -5.687  -3.654  -6.359  1.00  0.00    -0.508 OA
ATOM     27  H   UNL     1      -6.183  -3.534  -5.484  1.00  0.00     0.293 HD
ENDBRANCH   8  26
TORSDOF 6
ENDMDL
MODEL 8
REMARK VINA RESULT:    -4.675     10.827     14.466
REMARK INTER + INTRA:          -6.055
REMARK INTER:                  -5.679
REMARK INTRA:                  -0.377
REMARK UNBOUND:                -0.423
REMARK SMILES O=c1c(O)c(-c2ccc(O)cc2O)oc2cc(O)cc(O)c12
REMARK SMILES IDX 5 1 3 2 2 3 1 4 22 5 20 6 19 7 17 8 16 9 15 10 14 11 6 12
REMARK SMILES IDX 8 13 7 14 9 15 11 16 12 17 10 18 13 20 4 22 21 24 18 26
REMARK H PARENT 10 19 13 21 4 23 21 25 18 27
REMARK Flexibility Score: inf
ROOT
ATOM      1  C   UNL     1       1.598  -0.134  -6.673  1.00  0.00     0.184 A 
ATOM      2  C   UNL     1       1.668  -1.352  -7.368  1.00  0.00     0.208 A 
ATOM      3  C   UNL     1       0.487  -2.077  -7.590  1.00  0.00     0.238 A 
ATOM      4  O   UNL     1       0.548  -3.140  -8.261  1.00  0.00    -0.285 OA
ATOM      5  C   UNL     1      -0.746  -1.581  -7.100  1.00  0.00     0.111 A 
ATOM      6  C   UNL     1      -1.999  -2.252  -7.232  1.00  0.00     0.134 A 
ATOM      7  C   UNL     1      -3.173  -1.608  -6.823  1.00  0.00     0.093 A 
ATOM      8  C   UNL     1      -3.132  -0.345  -6.227  1.00  0.00     0.123 A 
ATOM      9  C   UNL     1      -1.908   0.293  -6.040  1.00  0.00     0.094 A 
ATOM     10  C   UNL     1      -0.723  -0.308  -6.470  1.00  0.00     0.146 A 
ATOM     11  O   UNL     1       0.422   0.338  -6.283  1.00  0.00    -0.451 OA
ENDROOT
BRANCH   1  12
ATOM     12  C   UNL     1       2.807   0.670  -6.391  1.00  0.00     0.063 A 
ATOM     13  C   UNL     1       4.956   0.865  -5.271  1.00  0.00     0.047 A 
ATOM     14  C   UNL     1       3.798   0.136  -5.554  1.00  0.00     0.020 A 
ATOM     15  C   UNL     1       5.143   2.131  -5.833  1.00  0.00     0.119 A 
ATOM     16  C   UNL     1       4.171   2.663  -6.689  1.00  0.00     0.093 A 
ATOM     17  C   UNL     1       3.008   1.935  -6.983  1.00  0.00     0.130 A 
BRANCH  15  18
ATOM     18  O   UNL     1       6.301   2.848  -5.539  1.00  0.00    -0.508 OA
ATOM     19  H   UNL     1       7.182   2.644  -5.998  1.00  0.00     0.293 HD
ENDBRANCH  15  18
BRANCH  17  20
ATOM     20  O   UNL     1       2.070   2.454  -7.875  1.00  0.00    -0.507 OA
ATOM     21  H   UNL     1       1.909   3.451  -7.957  1.00  0.00     0.293 HD
ENDBRANCH  17  20
ENDBRANCH   1  12
BRANCH   2  22
ATOM     22  O   UNL     1       2.895  -1.807  -7.857  1.00  0.00    -0.502 OA
ATOM     23  H   UNL     1       3.603  -2.213  -7.256  1.00  0.00     0.293 HD
ENDBRANCH   2  22
BRANCH   6  24
ATOM     24  O   UNL     1      -2.139  -3.551  -7.729  1.00  0.00    -0.507 OA
ATOM     25  H   UNL     1      -2.216  -4.379  -7.159  1.00  0.00     0.293 HD
ENDBRANCH   6  24
BRANCH   8  26
ATOM     26  O   UNL     1      -4.304   0.281  -5.809  1.00  0.00    -0.508 OA
ATOM     27  H   UNL     1      -5.092  -0.250  -5.454  1.00  0.00     0.293 HD
ENDBRANCH   8  26
TORSDOF 6
ENDMDL
MODEL 9
REMARK VINA RESULT:    -4.619     12.226     13.602
REMARK INTER + INTRA:          -5.988
REMARK INTER:                  -5.586
REMARK INTRA:                  -0.402
REMARK UNBOUND:                -0.423
REMARK SMILES O=c1c(O)c(-c2ccc(O)cc2O)oc2cc(O)cc(O)c12
REMARK SMILES IDX 5 1 3 2 2 3 1 4 22 5 20 6 19 7 17 8 16 9 15 10 14 11 6 12
REMARK SMILES IDX 8 13 7 14 9 15 11 16 12 17 10 18 13 20 4 22 21 24 18 26
REMARK H PARENT 10 19 13 21 4 23 21 25 18 27
REMARK Flexibility Score: inf
ROOT
ATOM      1  C   UNL     1       0.700   0.003  -6.460  1.00  0.00     0.184 A 
ATOM      2  C   UNL     1      -0.254   0.995  -6.737  1.00  0.00     0.208 A 
ATOM      3  C   UNL     1       0.164   2.330  -6.850  1.00  0.00     0.238 A 
ATOM      4  O   UNL     1      -0.687   3.206  -7.152  1.00  0.00    -0.285 OA
ATOM      5  C   UNL     1       1.530   2.657  -6.669  1.00  0.00     0.111 A 
ATOM      6  C   UNL     1       2.060   3.981  -6.721  1.00  0.00     0.134 A 
ATOM      7  C   UNL     1       3.445   4.173  -6.656  1.00  0.00     0.093 A 
ATOM      8  C   UNL     1       4.315   3.095  -6.475  1.00  0.00     0.123 A 
ATOM      9  C   UNL     1       3.803   1.804  -6.363  1.00  0.00     0.094 A 
ATOM     10  C   UNL     1       2.429   1.577  -6.461  1.00  0.00     0.146 A 
ATOM     11  O   UNL     1       1.982   0.330  -6.361  1.00  0.00    -0.451 OA
ENDROOT
BRANCH   1  12
ATOM     12  C   UNL     1       0.323  -1.418  -6.312  1.00  0.00     0.063 A 
ATOM     13  C   UNL     1      -0.836  -3.138  -5.043  1.00  0.00     0.047 A 
ATOM     14  C   UNL     1      -0.456  -1.803  -5.211  1.00  0.00     0.020 A 
ATOM     15  C   UNL     1      -0.454  -4.100  -5.981  1.00  0.00     0.119 A 
ATOM     16  C   UNL     1       0.303  -3.721  -7.097  1.00  0.00     0.093 A 
ATOM     17  C   UNL     1       0.684  -2.384  -7.276  1.00  0.00     0.130 A 
BRANCH  15  18
ATOM     18  O   UNL     1      -0.837  -5.427  -5.799  1.00  0.00    -0.508 OA
ATOM     19  H   UNL     1      -0.241  -6.089  -5.314  1.00  0.00     0.293 HD
ENDBRANCH  15  18
BRANCH  17  20
ATOM     20  O   UNL     1       1.396  -2.010  -8.415  1.00  0.00    -0.507 OA
ATOM     21  H   UNL     1       2.388  -2.197  -8.507  1.00  0.00     0.293 HD
ENDBRANCH  17  20
ENDBRANCH   1  12
BRANCH   2  22
ATOM     22  O   UNL     1      -1.593   0.642  -6.930  1.00  0.00    -0.502 OA
ATOM     23  H   UNL     1      -2.191   1.122  -7.591  1.00  0.00     0.293 HD
ENDBRANCH   2  22
BRANCH   6  24
ATOM     24  O   UNL     1       1.273   5.133  -6.807  1.00  0.00    -0.507 OA
ATOM     25  H   UNL     1       1.611   6.041  -7.085  1.00  0.00     0.293 HD
ENDBRANCH   6  24
BRANCH   8  26
ATOM     26  O   UNL     1       5.691   3.297  -6.395  1.00  0.00    -0.508 OA
ATOM     27  H   UNL     1       6.337   2.520  -6.323  1.00  0.00     0.293 HD
ENDBRANCH   8  26
TORSDOF 6
ENDMDL
