MODEL 1
REMARK VINA RESULT:    -6.199      0.000      0.000
REMARK INTER + INTRA:          -7.415
REMARK INTER:                  -7.286
REMARK INTRA:                  -0.129
REMARK UNBOUND:                -0.129
REMARK SMILES O=C([O-])C=Cc1ccc(O)c(O)c1
REMARK SMILES IDX 6 1 13 2 7 3 11 4 8 5 9 6 5 7 4 8 2 9 1 10 3 11 12 12 10 14
REMARK H PARENT 12 13 10 15
REMARK Flexibility Score: inf
ROOT
ATOM      1  C   UNL     1      80.952   1.967   0.007  1.00  0.00    -0.022 A 
ATOM      2  C   UNL     1      80.372   0.725  -0.304  1.00  0.00     0.058 A 
ATOM      3  C   UNL     1      80.108   3.052   0.317  1.00  0.00     0.012 A 
ATOM      4  C   UNL     1      78.982   0.569  -0.332  1.00  0.00     0.157 A 
ATOM      5  C   UNL     1      78.719   2.897   0.291  1.00  0.00     0.051 A 
ATOM      6  C   UNL     1      78.150   1.660  -0.036  1.00  0.00     0.157 A 
ENDROOT
BRANCH   1   7
ATOM      7  C   UNL     1      82.432   2.073   0.032  1.00  0.00     0.010 C 
ATOM      8  C   UNL     1      83.214   1.367   0.860  1.00  0.00     0.025 C 
BRANCH   8   9
ATOM      9  C   UNL     1      84.679   1.513   0.858  1.00  0.00     0.064 C 
ATOM     10  O   UNL     1      85.291   1.623  -0.237  1.00  0.00    -0.545 OA
ATOM     11  O   UNL     1      85.399   1.536   2.046  1.00  0.00    -0.545 OA
ENDBRANCH   8   9
ENDBRANCH   1   7
BRANCH   4  12
ATOM     12  O   UNL     1      78.446  -0.678  -0.655  1.00  0.00    -0.504 OA
ATOM     13  H   UNL     1      78.995  -1.398  -1.110  1.00  0.00     0.293 HD
ENDBRANCH   4  12
BRANCH   6  14
ATOM     14  O   UNL     1      76.764   1.512  -0.063  1.00  0.00    -0.504 OA
ATOM     15  H   UNL     1      76.179   2.097  -0.647  1.00  0.00     0.293 HD
ENDBRANCH   6  14
TORSDOF 4
ENDMDL
MODEL 2
REMARK VINA RESULT:    -5.658      0.976      1.930
REMARK INTER + INTRA:          -6.779
REMARK INTER:                  -6.647
REMARK INTRA:                  -0.132
REMARK UNBOUND:                -0.129
REMARK SMILES O=C([O-])C=Cc1ccc(O)c(O)c1
REMARK SMILES IDX 6 1 13 2 7 3 11 4 8 5 9 6 5 7 4 8 2 9 1 10 3 11 12 12 10 14
REMARK H PARENT 12 13 10 15
REMARK Flexibility Score: inf
ROOT
ATOM      1  C   UNL     1      81.075   0.985   0.075  1.00  0.00    -0.022 A 
ATOM      2  C   UNL     1      80.496   2.239   0.332  1.00  0.00     0.058 A 
ATOM      3  C   UNL     1      80.235  -0.094  -0.266  1.00  0.00     0.012 A 
ATOM      4  C   UNL     1      79.109   2.414   0.277  1.00  0.00     0.157 A 
ATOM      5  C   UNL     1      78.849   0.079  -0.322  1.00  0.00     0.051 A 
ATOM      6  C   UNL     1      78.280   1.328  -0.048  1.00  0.00     0.157 A 
ENDROOT
BRANCH   1   7
ATOM      7  C   UNL     1      82.552   0.859   0.138  1.00  0.00     0.010 C 
ATOM      8  C   UNL     1      83.332   1.624   0.914  1.00  0.00     0.025 C 
BRANCH   8   9
ATOM      9  C   UNL     1      84.796   1.472   0.936  1.00  0.00     0.064 C 
ATOM     10  O   UNL     1      85.451   1.618  -0.128  1.00  0.00    -0.545 OA
ATOM     11  O   UNL     1      85.468   1.172   2.114  1.00  0.00    -0.545 OA
ENDBRANCH   8   9
ENDBRANCH   1   7
BRANCH   4  12
ATOM     12  O   UNL     1      78.573   3.672   0.550  1.00  0.00    -0.504 OA
ATOM     13  H   UNL     1      78.547   4.055   1.487  1.00  0.00     0.293 HD
ENDBRANCH   4  12
BRANCH   6  14
ATOM     14  O   UNL     1      76.897   1.495  -0.104  1.00  0.00    -0.504 OA
ATOM     15  H   UNL     1      76.350   1.674   0.729  1.00  0.00     0.293 HD
ENDBRANCH   6  14
TORSDOF 4
ENDMDL
MODEL 3
REMARK VINA RESULT:    -5.654      9.310     11.067
REMARK INTER + INTRA:          -6.774
REMARK INTER:                  -6.641
REMARK INTRA:                  -0.133
REMARK UNBOUND:                -0.129
REMARK SMILES O=C([O-])C=Cc1ccc(O)c(O)c1
REMARK SMILES IDX 6 1 13 2 7 3 11 4 8 5 9 6 5 7 4 8 2 9 1 10 3 11 12 12 10 14
REMARK H PARENT 12 13 10 15
REMARK Flexibility Score: inf
ROOT
ATOM      1  C   UNL     1      70.889   0.399  -2.296  1.00  0.00    -0.022 A 
ATOM      2  C   UNL     1      70.680  -0.785  -3.022  1.00  0.00     0.058 A 
ATOM      3  C   UNL     1      70.301   1.593  -2.758  1.00  0.00     0.012 A 
ATOM      4  C   UNL     1      69.923  -0.781  -4.199  1.00  0.00     0.157 A 
ATOM      5  C   UNL     1      69.544   1.599  -3.933  1.00  0.00     0.051 A 
ATOM      6  C   UNL     1      69.354   0.417  -4.659  1.00  0.00     0.157 A 
ENDROOT
BRANCH   1   7
ATOM      7  C   UNL     1      71.692   0.335  -1.049  1.00  0.00     0.010 C 
ATOM      8  C   UNL     1      71.177   0.500   0.177  1.00  0.00     0.025 C 
BRANCH   8   9
ATOM      9  C   UNL     1      72.015   0.440   1.386  1.00  0.00     0.064 C 
ATOM     10  O   UNL     1      73.171   0.935   1.366  1.00  0.00    -0.545 OA
ATOM     11  O   UNL     1      71.547  -0.153   2.553  1.00  0.00    -0.545 OA
ENDBRANCH   8   9
ENDBRANCH   1   7
BRANCH   4  12
ATOM     12  O   UNL     1      69.748  -1.977  -4.896  1.00  0.00    -0.504 OA
ATOM     13  H   UNL     1      70.284  -2.199  -5.726  1.00  0.00     0.293 HD
ENDBRANCH   4  12
BRANCH   6  14
ATOM     14  O   UNL     1      68.599   0.428  -5.831  1.00  0.00    -0.504 OA
ATOM     15  H   UNL     1      68.768  -0.235  -6.578  1.00  0.00     0.293 HD
ENDBRANCH   6  14
TORSDOF 4
ENDMDL
MODEL 4
REMARK VINA RESULT:    -5.389      1.259      6.004
REMARK INTER + INTRA:          -6.462
REMARK INTER:                  -6.334
REMARK INTRA:                  -0.129
REMARK UNBOUND:                -0.129
REMARK SMILES O=C([O-])C=Cc1ccc(O)c(O)c1
REMARK SMILES IDX 6 1 13 2 7 3 11 4 8 5 9 6 5 7 4 8 2 9 1 10 3 11 12 12 10 14
REMARK H PARENT 12 13 10 15
REMARK Flexibility Score: inf
ROOT
ATOM      1  C   UNL     1      82.381   1.661   0.070  1.00  0.00    -0.022 A 
ATOM      2  C   UNL     1      83.025   2.270  -1.021  1.00  0.00     0.058 A 
ATOM      3  C   UNL     1      83.166   1.154   1.125  1.00  0.00     0.012 A 
ATOM      4  C   UNL     1      84.421   2.352  -1.076  1.00  0.00     0.157 A 
ATOM      5  C   UNL     1      84.560   1.235   1.071  1.00  0.00     0.051 A 
ATOM      6  C   UNL     1      85.194   1.829  -0.027  1.00  0.00     0.157 A 
ENDROOT
BRANCH   1   7
ATOM      7  C   UNL     1      80.898   1.612   0.082  1.00  0.00     0.010 C 
ATOM      8  C   UNL     1      80.187   0.531  -0.268  1.00  0.00     0.025 C 
BRANCH   8   9
ATOM      9  C   UNL     1      78.715   0.530  -0.252  1.00  0.00     0.064 C 
ATOM     10  O   UNL     1      78.093  -0.549  -0.427  1.00  0.00    -0.545 OA
ATOM     11  O   UNL     1      78.000   1.704  -0.044  1.00  0.00    -0.545 OA
ENDBRANCH   8   9
ENDBRANCH   1   7
BRANCH   4  12
ATOM     12  O   UNL     1      85.021   2.955  -2.182  1.00  0.00    -0.504 OA
ATOM     13  H   UNL     1      84.634   2.875  -3.115  1.00  0.00     0.293 HD
ENDBRANCH   4  12
BRANCH   6  14
ATOM     14  O   UNL     1      86.585   1.906  -0.077  1.00  0.00    -0.504 OA
ATOM     15  H   UNL     1      87.169   1.110   0.149  1.00  0.00     0.293 HD
ENDBRANCH   6  14
TORSDOF 4
ENDMDL
MODEL 5
REMARK VINA RESULT:    -5.381      8.330     10.824
REMARK INTER + INTRA:          -6.454
REMARK INTER:                  -6.325
REMARK INTRA:                  -0.128
REMARK UNBOUND:                -0.129
REMARK SMILES O=C([O-])C=Cc1ccc(O)c(O)c1
REMARK SMILES IDX 6 1 13 2 7 3 11 4 8 5 9 6 5 7 4 8 2 9 1 10 3 11 12 12 10 14
REMARK H PARENT 12 13 10 15
REMARK Flexibility Score: inf
ROOT
ATOM      1  C   UNL     1      70.970   0.221  -3.018  1.00  0.00    -0.022 A 
ATOM      2  C   UNL     1      71.272  -1.151  -2.990  1.00  0.00     0.058 A 
ATOM      3  C   UNL     1      69.904   0.666  -3.826  1.00  0.00     0.012 A 
ATOM      4  C   UNL     1      70.548  -2.061  -3.768  1.00  0.00     0.157 A 
ATOM      5  C   UNL     1      69.180  -0.242  -4.604  1.00  0.00     0.051 A 
ATOM      6  C   UNL     1      69.499  -1.606  -4.582  1.00  0.00     0.157 A 
ENDROOT
BRANCH   1   7
ATOM      7  C   UNL     1      71.763   1.140  -2.165  1.00  0.00     0.010 C 
ATOM      8  C   UNL     1      72.078   0.884  -0.888  1.00  0.00     0.025 C 
BRANCH   8   9
ATOM      9  C   UNL     1      72.859   1.831  -0.075  1.00  0.00     0.064 C 
ATOM     10  O   UNL     1      72.267   2.753   0.543  1.00  0.00    -0.545 OA
ATOM     11  O   UNL     1      74.241   1.722   0.024  1.00  0.00    -0.545 OA
ENDBRANCH   8   9
ENDBRANCH   1   7
BRANCH   4  12
ATOM     12  O   UNL     1      70.887  -3.413  -3.720  1.00  0.00    -0.504 OA
ATOM     13  H   UNL     1      71.063  -3.955  -4.558  1.00  0.00     0.293 HD
ENDBRANCH   4  12
BRANCH   6  14
ATOM     14  O   UNL     1      68.774  -2.507  -5.360  1.00  0.00    -0.504 OA
ATOM     15  H   UNL     1      69.225  -3.092  -6.053  1.00  0.00     0.293 HD
ENDBRANCH   6  14
TORSDOF 4
ENDMDL
MODEL 6
REMARK VINA RESULT:    -5.351      8.445      8.798
REMARK INTER + INTRA:          -6.419
REMARK INTER:                  -6.292
REMARK INTRA:                  -0.126
REMARK UNBOUND:                -0.129
REMARK SMILES O=C([O-])C=Cc1ccc(O)c(O)c1
REMARK SMILES IDX 6 1 13 2 7 3 11 4 8 5 9 6 5 7 4 8 2 9 1 10 3 11 12 12 10 14
REMARK H PARENT 12 13 10 15
REMARK Flexibility Score: inf
ROOT
ATOM      1  C   UNL     1      83.400   2.973   8.409  1.00  0.00    -0.022 A 
ATOM      2  C   UNL     1      83.469   4.170   7.676  1.00  0.00     0.058 A 
ATOM      3  C   UNL     1      82.221   2.680   9.123  1.00  0.00     0.012 A 
ATOM      4  C   UNL     1      82.398   5.071   7.671  1.00  0.00     0.157 A 
ATOM      5  C   UNL     1      81.150   3.578   9.118  1.00  0.00     0.051 A 
ATOM      6  C   UNL     1      81.233   4.776   8.398  1.00  0.00     0.157 A 
ENDROOT
BRANCH   1   7
ATOM      7  C   UNL     1      84.562   2.050   8.371  1.00  0.00     0.010 C 
ATOM      8  C   UNL     1      84.715   1.085   7.454  1.00  0.00     0.025 C 
BRANCH   8   9
ATOM      9  C   UNL     1      85.879   0.184   7.461  1.00  0.00     0.064 C 
ATOM     10  O   UNL     1      85.746  -0.998   7.871  1.00  0.00    -0.545 OA
ATOM     11  O   UNL     1      87.123   0.616   7.018  1.00  0.00    -0.545 OA
ENDBRANCH   8   9
ENDBRANCH   1   7
BRANCH   4  12
ATOM     12  O   UNL     1      82.510   6.253   6.939  1.00  0.00    -0.504 OA
ATOM     13  H   UNL     1      83.027   7.053   7.284  1.00  0.00     0.293 HD
ENDBRANCH   4  12
BRANCH   6  14
ATOM     14  O   UNL     1      80.163   5.669   8.398  1.00  0.00    -0.504 OA
ATOM     15  H   UNL     1      79.375   5.554   7.772  1.00  0.00     0.293 HD
ENDBRANCH   6  14
TORSDOF 4
ENDMDL
MODEL 7
REMARK VINA RESULT:    -5.338      8.591     11.187
REMARK INTER + INTRA:          -6.403
REMARK INTER:                  -6.271
REMARK INTRA:                  -0.132
REMARK UNBOUND:                -0.129
REMARK SMILES O=C([O-])C=Cc1ccc(O)c(O)c1
REMARK SMILES IDX 6 1 13 2 7 3 11 4 8 5 9 6 5 7 4 8 2 9 1 10 3 11 12 12 10 14
REMARK H PARENT 12 13 10 15
REMARK Flexibility Score: inf
ROOT
ATOM      1  C   UNL     1      70.966   0.051  -3.023  1.00  0.00    -0.022 A 
ATOM      2  C   UNL     1      69.946   0.517  -3.870  1.00  0.00     0.058 A 
ATOM      3  C   UNL     1      71.245  -1.330  -2.994  1.00  0.00     0.012 A 
ATOM      4  C   UNL     1      69.201  -0.371  -4.654  1.00  0.00     0.157 A 
ATOM      5  C   UNL     1      70.503  -2.219  -3.776  1.00  0.00     0.051 A 
ATOM      6  C   UNL     1      69.478  -1.747  -4.605  1.00  0.00     0.157 A 
ENDROOT
BRANCH   1   7
ATOM      7  C   UNL     1      71.730   1.038  -2.222  1.00  0.00     0.010 C 
ATOM      8  C   UNL     1      71.879   0.962  -0.892  1.00  0.00     0.025 C 
BRANCH   8   9
ATOM      9  C   UNL     1      72.637   1.972  -0.136  1.00  0.00     0.064 C 
ATOM     10  O   UNL     1      73.885   2.048  -0.280  1.00  0.00    -0.545 OA
ATOM     11  O   UNL     1      71.997   2.847   0.734  1.00  0.00    -0.545 OA
ENDBRANCH   8   9
ENDBRANCH   1   7
BRANCH   4  12
ATOM     12  O   UNL     1      68.191   0.131  -5.473  1.00  0.00    -0.504 OA
ATOM     13  H   UNL     1      68.390   0.704  -6.285  1.00  0.00     0.293 HD
ENDBRANCH   4  12
BRANCH   6  14
ATOM     14  O   UNL     1      68.740  -2.638  -5.383  1.00  0.00    -0.504 OA
ATOM     15  H   UNL     1      68.149  -2.317  -6.141  1.00  0.00     0.293 HD
ENDBRANCH   6  14
TORSDOF 4
ENDMDL
MODEL 8
REMARK VINA RESULT:    -5.322      1.074      5.982
REMARK INTER + INTRA:          -6.383
REMARK INTER:                  -6.254
REMARK INTRA:                  -0.130
REMARK UNBOUND:                -0.129
REMARK SMILES O=C([O-])C=Cc1ccc(O)c(O)c1
REMARK SMILES IDX 6 1 13 2 7 3 11 4 8 5 9 6 5 7 4 8 2 9 1 10 3 11 12 12 10 14
REMARK H PARENT 12 13 10 15
REMARK Flexibility Score: inf
ROOT
ATOM      1  C   UNL     1      82.504   1.773  -0.036  1.00  0.00    -0.022 A 
ATOM      2  C   UNL     1      83.168   1.227   1.075  1.00  0.00     0.058 A 
ATOM      3  C   UNL     1      83.271   2.271  -1.108  1.00  0.00     0.012 A 
ATOM      4  C   UNL     1      84.566   1.198   1.133  1.00  0.00     0.157 A 
ATOM      5  C   UNL     1      84.667   2.242  -1.053  1.00  0.00     0.051 A 
ATOM      6  C   UNL     1      85.320   1.710   0.065  1.00  0.00     0.157 A 
ENDROOT
BRANCH   1   7
ATOM      7  C   UNL     1      81.020   1.769  -0.049  1.00  0.00     0.010 C 
ATOM      8  C   UNL     1      80.281   0.659  -0.171  1.00  0.00     0.025 C 
BRANCH   8   9
ATOM      9  C   UNL     1      78.809   0.703  -0.190  1.00  0.00     0.064 C 
ATOM     10  O   UNL     1      78.218   1.791   0.034  1.00  0.00    -0.545 OA
ATOM     11  O   UNL     1      78.061  -0.438  -0.454  1.00  0.00    -0.545 OA
ENDBRANCH   8   9
ENDBRANCH   1   7
BRANCH   4  12
ATOM     12  O   UNL     1      85.187   0.657   2.259  1.00  0.00    -0.504 OA
ATOM     13  H   UNL     1      85.945  -0.012   2.187  1.00  0.00     0.293 HD
ENDBRANCH   4  12
BRANCH   6  14
ATOM     14  O   UNL     1      86.714   1.685   0.116  1.00  0.00    -0.504 OA
ATOM     15  H   UNL     1      87.279   2.069  -0.631  1.00  0.00     0.293 HD
ENDBRANCH   6  14
TORSDOF 4
ENDMDL
MODEL 9
REMARK VINA RESULT:    -5.294      8.248     11.758
REMARK INTER + INTRA:          -6.351
REMARK INTER:                  -6.224
REMARK INTRA:                  -0.127
REMARK UNBOUND:                -0.129
REMARK SMILES O=C([O-])C=Cc1ccc(O)c(O)c1
REMARK SMILES IDX 6 1 13 2 7 3 11 4 8 5 9 6 5 7 4 8 2 9 1 10 3 11 12 12 10 14
REMARK H PARENT 12 13 10 15
REMARK Flexibility Score: inf
ROOT
ATOM      1  C   UNL     1      71.051   1.384  -2.284  1.00  0.00    -0.022 A 
ATOM      2  C   UNL     1      70.723   0.719  -1.091  1.00  0.00     0.058 A 
ATOM      3  C   UNL     1      72.350   1.907  -2.436  1.00  0.00     0.012 A 
ATOM      4  C   UNL     1      71.659   0.596  -0.057  1.00  0.00     0.157 A 
ATOM      5  C   UNL     1      73.287   1.785  -1.406  1.00  0.00     0.051 A 
ATOM      6  C   UNL     1      72.947   1.134  -0.213  1.00  0.00     0.157 A 
ENDROOT
BRANCH   1   7
ATOM      7  C   UNL     1      70.023   1.476  -3.350  1.00  0.00     0.010 C 
ATOM      8  C   UNL     1      69.649   0.440  -4.114  1.00  0.00     0.025 C 
BRANCH   8   9
ATOM      9  C   UNL     1      68.632   0.579  -5.170  1.00  0.00     0.064 C 
ATOM     10  O   UNL     1      68.803   1.421  -6.089  1.00  0.00    -0.545 OA
ATOM     11  O   UNL     1      67.486  -0.207  -5.169  1.00  0.00    -0.545 OA
ENDBRANCH   8   9
ENDBRANCH   1   7
BRANCH   4  12
ATOM     12  O   UNL     1      71.291  -0.062   1.116  1.00  0.00    -0.504 OA
ATOM     13  H   UNL     1      71.609  -1.000   1.329  1.00  0.00     0.293 HD
ENDBRANCH   4  12
BRANCH   6  14
ATOM     14  O   UNL     1      73.884   1.017   0.813  1.00  0.00    -0.504 OA
ATOM     15  H   UNL     1      74.500   0.216   0.879  1.00  0.00     0.293 HD
ENDBRANCH   6  14
TORSDOF 4
ENDMDL
