MODEL 1
REMARK VINA RESULT:    -7.433      0.000      0.000
REMARK INTER + INTRA:          -9.409
REMARK INTER:                  -9.172
REMARK INTRA:                  -0.237
REMARK UNBOUND:                -0.237
REMARK SMILES Oc1cc(O)c2cc(O)c(-c3cc(O)c(O)c(O)c3)[o+]c2c1
REMARK SMILES IDX 10 1 20 2 21 3 22 4 2 5 3 6 4 7 6 8 7 9 8 10 11 11 12 12
REMARK SMILES IDX 13 13 19 14 15 15 17 16 14 17 16 19 18 21 9 23 1 25 5 27
REMARK H PARENT 14 18 16 20 18 22 9 24 1 26 5 28
REMARK Flexibility Score: inf
ROOT
ATOM      1  C   UNL     1     -40.615  11.393   9.034  1.00  0.00     0.402 A 
ATOM      2  O   UNL     1     -40.988  12.629   9.357  1.00  0.00    -0.202 OA
ATOM      3  C   UNL     1     -41.756  12.910  10.404  1.00  0.00     0.368 A 
ATOM      4  C   UNL     1     -42.091  14.240  10.665  1.00  0.00     0.162 A 
ATOM      5  C   UNL     1     -42.893  14.565  11.759  1.00  0.00     0.128 A 
ATOM      6  C   UNL     1     -43.364  13.553  12.603  1.00  0.00     0.093 A 
ATOM      7  C   UNL     1     -43.042  12.211  12.364  1.00  0.00     0.136 A 
ATOM      8  C   UNL     1     -42.229  11.877  11.249  1.00  0.00     0.125 A 
ATOM      9  C   UNL     1     -41.866  10.559  10.925  1.00  0.00     0.078 A 
ATOM     10  C   UNL     1     -41.064  10.307   9.807  1.00  0.00     0.223 A 
ENDROOT
BRANCH   1  11
ATOM     11  C   UNL     1     -39.749  11.211   7.847  1.00  0.00     0.091 A 
ATOM     12  C   UNL     1     -40.266  10.579   6.706  1.00  0.00     0.068 A 
ATOM     13  C   UNL     1     -39.477  10.411   5.564  1.00  0.00     0.162 A 
ATOM     14  C   UNL     1     -38.435  11.707   7.817  1.00  0.00     0.068 A 
ATOM     15  C   UNL     1     -38.156  10.890   5.546  1.00  0.00     0.200 A 
ATOM     16  C   UNL     1     -37.637  11.544   6.676  1.00  0.00     0.162 A 
BRANCH  13  17
ATOM     17  O   UNL     1     -40.024   9.764   4.455  1.00  0.00    -0.504 OA
ATOM     18  H   UNL     1     -40.955   9.974   4.114  1.00  0.00     0.293 HD
ENDBRANCH  13  17
BRANCH  15  19
ATOM     19  O   UNL     1     -37.374  10.716   4.403  1.00  0.00    -0.502 OA
ATOM     20  H   UNL     1     -36.387  10.939   4.386  1.00  0.00     0.293 HD
ENDBRANCH  15  19
BRANCH  16  21
ATOM     21  O   UNL     1     -36.332  12.036   6.660  1.00  0.00    -0.504 OA
ATOM     22  H   UNL     1     -35.985  12.596   5.889  1.00  0.00     0.293 HD
ENDBRANCH  16  21
ENDBRANCH   1  11
BRANCH  10  23
ATOM     23  O   UNL     1     -40.746   8.995   9.457  1.00  0.00    -0.500 OA
ATOM     24  H   UNL     1     -40.143   8.421  10.033  1.00  0.00     0.294 HD
ENDBRANCH  10  23
BRANCH   5  25
ATOM     25  O   UNL     1     -43.217  15.898  12.002  1.00  0.00    -0.507 OA
ATOM     26  H   UNL     1     -44.116  16.164  12.387  1.00  0.00     0.293 HD
ENDBRANCH   5  25
BRANCH   7  27
ATOM     27  O   UNL     1     -43.548  11.259  13.253  1.00  0.00    -0.507 OA
ATOM     28  H   UNL     1     -44.491  11.258  13.613  1.00  0.00     0.293 HD
ENDBRANCH   7  27
TORSDOF 7
ENDMDL
MODEL 2
REMARK VINA RESULT:    -7.433      0.087      1.795
REMARK INTER + INTRA:          -9.408
REMARK INTER:                  -9.177
REMARK INTRA:                  -0.231
REMARK UNBOUND:                -0.237
REMARK SMILES Oc1cc(O)c2cc(O)c(-c3cc(O)c(O)c(O)c3)[o+]c2c1
REMARK SMILES IDX 10 1 20 2 21 3 22 4 2 5 3 6 4 7 6 8 7 9 8 10 11 11 12 12
REMARK SMILES IDX 13 13 19 14 15 15 17 16 14 17 16 19 18 21 9 23 1 25 5 27
REMARK H PARENT 14 18 16 20 18 22 9 24 1 26 5 28
REMARK Flexibility Score: inf
ROOT
ATOM      1  C   UNL     1     -40.630  11.434   8.992  1.00  0.00     0.402 A 
ATOM      2  O   UNL     1     -41.004  12.665   9.333  1.00  0.00    -0.202 OA
ATOM      3  C   UNL     1     -41.771  12.930  10.384  1.00  0.00     0.368 A 
ATOM      4  C   UNL     1     -42.108  14.257  10.664  1.00  0.00     0.162 A 
ATOM      5  C   UNL     1     -42.910  14.565  11.762  1.00  0.00     0.128 A 
ATOM      6  C   UNL     1     -43.380  13.541  12.592  1.00  0.00     0.093 A 
ATOM      7  C   UNL     1     -43.056  12.203  12.334  1.00  0.00     0.136 A 
ATOM      8  C   UNL     1     -42.243  11.885  11.215  1.00  0.00     0.125 A 
ATOM      9  C   UNL     1     -41.879  10.572  10.872  1.00  0.00     0.078 A 
ATOM     10  C   UNL     1     -41.078  10.337   9.751  1.00  0.00     0.223 A 
ENDROOT
BRANCH   1  11
ATOM     11  C   UNL     1     -39.764  11.268   7.802  1.00  0.00     0.091 A 
ATOM     12  C   UNL     1     -38.440  11.730   7.844  1.00  0.00     0.068 A 
ATOM     13  C   UNL     1     -37.594  11.569   6.742  1.00  0.00     0.162 A 
ATOM     14  C   UNL     1     -40.222  10.608   6.651  1.00  0.00     0.068 A 
ATOM     15  C   UNL     1     -38.063  10.927   5.584  1.00  0.00     0.200 A 
ATOM     16  C   UNL     1     -39.381  10.441   5.542  1.00  0.00     0.162 A 
BRANCH  13  17
ATOM     17  O   UNL     1     -36.288  12.056   6.818  1.00  0.00    -0.504 OA
ATOM     18  H   UNL     1     -35.642  11.756   7.538  1.00  0.00     0.293 HD
ENDBRANCH  13  17
BRANCH  15  19
ATOM     19  O   UNL     1     -37.212  10.773   4.488  1.00  0.00    -0.502 OA
ATOM     20  H   UNL     1     -36.798  11.565   4.011  1.00  0.00     0.293 HD
ENDBRANCH  15  19
BRANCH  16  21
ATOM     21  O   UNL     1     -39.848   9.789   4.401  1.00  0.00    -0.504 OA
ATOM     22  H   UNL     1     -40.838   9.730   4.191  1.00  0.00     0.293 HD
ENDBRANCH  16  21
ENDBRANCH   1  11
BRANCH  10  23
ATOM     23  O   UNL     1     -40.758   9.030   9.382  1.00  0.00    -0.500 OA
ATOM     24  H   UNL     1     -41.168   8.230   9.848  1.00  0.00     0.294 HD
ENDBRANCH  10  23
BRANCH   5  25
ATOM     25  O   UNL     1     -43.235  15.895  12.024  1.00  0.00    -0.507 OA
ATOM     26  H   UNL     1     -43.188  16.604  11.302  1.00  0.00     0.293 HD
ENDBRANCH   5  25
BRANCH   7  27
ATOM     27  O   UNL     1     -43.561  11.238  13.211  1.00  0.00    -0.507 OA
ATOM     28  H   UNL     1     -43.093  10.373  13.438  1.00  0.00     0.293 HD
ENDBRANCH   7  27
TORSDOF 7
ENDMDL
MODEL 3
REMARK VINA RESULT:    -7.277      2.123      7.387
REMARK INTER + INTRA:          -9.216
REMARK INTER:                  -8.906
REMARK INTRA:                  -0.310
REMARK UNBOUND:                -0.237
REMARK SMILES Oc1cc(O)c2cc(O)c(-c3cc(O)c(O)c(O)c3)[o+]c2c1
REMARK SMILES IDX 10 1 20 2 21 3 22 4 2 5 3 6 4 7 6 8 7 9 8 10 11 11 12 12
REMARK SMILES IDX 13 13 19 14 15 15 17 16 14 17 16 19 18 21 9 23 1 25 5 27
REMARK H PARENT 14 18 16 20 18 22 9 24 1 26 5 28
REMARK Flexibility Score: inf
ROOT
ATOM      1  C   UNL     1     -38.792  11.690   8.256  1.00  0.00     0.402 A 
ATOM      2  O   UNL     1     -38.909  11.399   6.963  1.00  0.00    -0.202 OA
ATOM      3  C   UNL     1     -37.953  11.637   6.072  1.00  0.00     0.368 A 
ATOM      4  C   UNL     1     -38.167  11.293   4.735  1.00  0.00     0.162 A 
ATOM      5  C   UNL     1     -37.180  11.528   3.779  1.00  0.00     0.128 A 
ATOM      6  C   UNL     1     -35.966  12.111   4.158  1.00  0.00     0.093 A 
ATOM      7  C   UNL     1     -35.725  12.465   5.492  1.00  0.00     0.136 A 
ATOM      8  C   UNL     1     -36.729  12.230   6.468  1.00  0.00     0.125 A 
ATOM      9  C   UNL     1     -36.582  12.564   7.824  1.00  0.00     0.078 A 
ATOM     10  C   UNL     1     -37.618  12.306   8.727  1.00  0.00     0.223 A 
ENDROOT
BRANCH   1  11
ATOM     11  C   UNL     1     -39.926  11.367   9.152  1.00  0.00     0.091 A 
ATOM     12  C   UNL     1     -39.806  10.306  10.061  1.00  0.00     0.068 A 
ATOM     13  C   UNL     1     -40.854   9.991  10.933  1.00  0.00     0.162 A 
ATOM     14  C   UNL     1     -41.101  12.137   9.151  1.00  0.00     0.068 A 
ATOM     15  C   UNL     1     -42.036  10.751  10.914  1.00  0.00     0.200 A 
ATOM     16  C   UNL     1     -42.156  11.830  10.022  1.00  0.00     0.162 A 
BRANCH  13  17
ATOM     17  O   UNL     1     -40.700   8.918  11.812  1.00  0.00    -0.504 OA
ATOM     18  H   UNL     1     -39.970   8.226  11.695  1.00  0.00     0.293 HD
ENDBRANCH  13  17
BRANCH  15  19
ATOM     19  O   UNL     1     -43.077  10.428  11.785  1.00  0.00    -0.502 OA
ATOM     20  H   UNL     1     -42.910  10.131  12.739  1.00  0.00     0.293 HD
ENDBRANCH  15  19
BRANCH  16  21
ATOM     21  O   UNL     1     -43.320  12.597  10.008  1.00  0.00    -0.504 OA
ATOM     22  H   UNL     1     -43.997  12.549  10.762  1.00  0.00     0.293 HD
ENDBRANCH  16  21
ENDBRANCH   1  11
BRANCH  10  23
ATOM     23  O   UNL     1     -37.491  12.683  10.063  1.00  0.00    -0.500 OA
ATOM     24  H   UNL     1     -37.884  12.128  10.813  1.00  0.00     0.294 HD
ENDBRANCH  10  23
BRANCH   5  25
ATOM     25  O   UNL     1     -37.412  11.177   2.450  1.00  0.00    -0.507 OA
ATOM     26  H   UNL     1     -37.168  10.262   2.093  1.00  0.00     0.293 HD
ENDBRANCH   5  25
BRANCH   7  27
ATOM     27  O   UNL     1     -34.487  13.040   5.793  1.00  0.00    -0.507 OA
ATOM     28  H   UNL     1     -33.614  12.534   5.816  1.00  0.00     0.293 HD
ENDBRANCH   7  27
TORSDOF 7
ENDMDL
MODEL 4
REMARK VINA RESULT:    -7.267      2.169      7.328
REMARK INTER + INTRA:          -9.203
REMARK INTER:                  -8.876
REMARK INTRA:                  -0.327
REMARK UNBOUND:                -0.237
REMARK SMILES Oc1cc(O)c2cc(O)c(-c3cc(O)c(O)c(O)c3)[o+]c2c1
REMARK SMILES IDX 10 1 20 2 21 3 22 4 2 5 3 6 4 7 6 8 7 9 8 10 11 11 12 12
REMARK SMILES IDX 13 13 19 14 15 15 17 16 14 17 16 19 18 21 9 23 1 25 5 27
REMARK H PARENT 14 18 16 20 18 22 9 24 1 26 5 28
REMARK Flexibility Score: inf
ROOT
ATOM      1  C   UNL     1     -38.707  11.725   8.302  1.00  0.00     0.402 A 
ATOM      2  O   UNL     1     -38.849  11.451   7.007  1.00  0.00    -0.202 OA
ATOM      3  C   UNL     1     -37.914  11.709   6.099  1.00  0.00     0.368 A 
ATOM      4  C   UNL     1     -38.153  11.382   4.763  1.00  0.00     0.162 A 
ATOM      5  C   UNL     1     -37.189  11.639   3.789  1.00  0.00     0.128 A 
ATOM      6  C   UNL     1     -35.972  12.228   4.151  1.00  0.00     0.093 A 
ATOM      7  C   UNL     1     -35.707  12.566   5.484  1.00  0.00     0.136 A 
ATOM      8  C   UNL     1     -36.687  12.308   6.478  1.00  0.00     0.125 A 
ATOM      9  C   UNL     1     -36.514  12.625   7.835  1.00  0.00     0.078 A 
ATOM     10  C   UNL     1     -37.528  12.345   8.756  1.00  0.00     0.223 A 
ENDROOT
BRANCH   1  11
ATOM     11  C   UNL     1     -39.819  11.380   9.217  1.00  0.00     0.091 A 
ATOM     12  C   UNL     1     -41.017  12.107   9.152  1.00  0.00     0.068 A 
ATOM     13  C   UNL     1     -42.090  11.790   9.990  1.00  0.00     0.162 A 
ATOM     14  C   UNL     1     -39.721  10.302  10.112  1.00  0.00     0.068 A 
ATOM     15  C   UNL     1     -41.980  10.724  10.899  1.00  0.00     0.200 A 
ATOM     16  C   UNL     1     -40.792   9.976  10.956  1.00  0.00     0.162 A 
BRANCH  13  17
ATOM     17  O   UNL     1     -43.259  12.547   9.904  1.00  0.00    -0.504 OA
ATOM     18  H   UNL     1     -43.343  13.339   9.278  1.00  0.00     0.293 HD
ENDBRANCH  13  17
BRANCH  15  19
ATOM     19  O   UNL     1     -43.056  10.416  11.734  1.00  0.00    -0.502 OA
ATOM     20  H   UNL     1     -43.686  11.126  12.087  1.00  0.00     0.293 HD
ENDBRANCH  15  19
BRANCH  16  21
ATOM     21  O   UNL     1     -40.682   8.907  11.844  1.00  0.00    -0.504 OA
ATOM     22  H   UNL     1     -40.176   8.994  12.719  1.00  0.00     0.293 HD
ENDBRANCH  16  21
ENDBRANCH   1  11
BRANCH  10  23
ATOM     23  O   UNL     1     -37.376  12.705  10.094  1.00  0.00    -0.500 OA
ATOM     24  H   UNL     1     -36.629  12.329  10.666  1.00  0.00     0.294 HD
ENDBRANCH  10  23
BRANCH   5  25
ATOM     25  O   UNL     1     -37.447  11.304   2.461  1.00  0.00    -0.507 OA
ATOM     26  H   UNL     1     -37.952  10.461   2.215  1.00  0.00     0.293 HD
ENDBRANCH   5  25
BRANCH   7  27
ATOM     27  O   UNL     1     -34.467  13.147   5.766  1.00  0.00    -0.507 OA
ATOM     28  H   UNL     1     -33.676  12.648   6.144  1.00  0.00     0.293 HD
ENDBRANCH   7  27
TORSDOF 7
ENDMDL
MODEL 5
REMARK VINA RESULT:    -7.068      7.746     13.022
REMARK INTER + INTRA:          -8.958
REMARK INTER:                  -8.586
REMARK INTRA:                  -0.372
REMARK UNBOUND:                -0.237
REMARK SMILES Oc1cc(O)c2cc(O)c(-c3cc(O)c(O)c(O)c3)[o+]c2c1
REMARK SMILES IDX 10 1 20 2 21 3 22 4 2 5 3 6 4 7 6 8 7 9 8 10 11 11 12 12
REMARK SMILES IDX 13 13 19 14 15 15 17 16 14 17 16 19 18 21 9 23 1 25 5 27
REMARK H PARENT 14 18 16 20 18 22 9 24 1 26 5 28
REMARK Flexibility Score: inf
ROOT
ATOM      1  C   UNL     1     -32.883  14.017   1.790  1.00  0.00     0.402 A 
ATOM      2  O   UNL     1     -32.124  12.948   1.560  1.00  0.00    -0.202 OA
ATOM      3  C   UNL     1     -31.013  12.984   0.833  1.00  0.00     0.368 A 
ATOM      4  C   UNL     1     -30.280  11.809   0.650  1.00  0.00     0.162 A 
ATOM      5  C   UNL     1     -29.109  11.818  -0.106  1.00  0.00     0.128 A 
ATOM      6  C   UNL     1     -28.661  13.011  -0.685  1.00  0.00     0.093 A 
ATOM      7  C   UNL     1     -29.377  14.203  -0.517  1.00  0.00     0.136 A 
ATOM      8  C   UNL     1     -30.572  14.197   0.249  1.00  0.00     0.125 A 
ATOM      9  C   UNL     1     -31.360  15.340   0.460  1.00  0.00     0.078 A 
ATOM     10  C   UNL     1     -32.528  15.255   1.224  1.00  0.00     0.223 A 
ENDROOT
BRANCH   1  11
ATOM     11  C   UNL     1     -34.094  13.850   2.626  1.00  0.00     0.091 A 
ATOM     12  C   UNL     1     -35.246  13.278   2.065  1.00  0.00     0.068 A 
ATOM     13  C   UNL     1     -36.397  13.090   2.836  1.00  0.00     0.162 A 
ATOM     14  C   UNL     1     -34.097  14.200   3.986  1.00  0.00     0.068 A 
ATOM     15  C   UNL     1     -36.403  13.461   4.191  1.00  0.00     0.200 A 
ATOM     16  C   UNL     1     -35.246  14.014   4.767  1.00  0.00     0.162 A 
BRANCH  13  17
ATOM     17  O   UNL     1     -37.527  12.532   2.236  1.00  0.00    -0.504 OA
ATOM     18  H   UNL     1     -37.478  12.035   1.355  1.00  0.00     0.293 HD
ENDBRANCH  13  17
BRANCH  15  19
ATOM     19  O   UNL     1     -37.557  13.272   4.953  1.00  0.00    -0.502 OA
ATOM     20  H   UNL     1     -38.019  14.037   5.431  1.00  0.00     0.293 HD
ENDBRANCH  15  19
BRANCH  16  21
ATOM     21  O   UNL     1     -35.241  14.370   6.115  1.00  0.00    -0.504 OA
ATOM     22  H   UNL     1     -34.385  14.374   6.660  1.00  0.00     0.293 HD
ENDBRANCH  16  21
ENDBRANCH   1  11
BRANCH  10  23
ATOM     23  O   UNL     1     -33.337  16.379   1.391  1.00  0.00    -0.500 OA
ATOM     24  H   UNL     1     -33.381  17.113   0.695  1.00  0.00     0.294 HD
ENDBRANCH  10  23
BRANCH   5  25
ATOM     25  O   UNL     1     -28.391  10.636  -0.277  1.00  0.00    -0.507 OA
ATOM     26  H   UNL     1     -28.735   9.751   0.079  1.00  0.00     0.293 HD
ENDBRANCH   5  25
BRANCH   7  27
ATOM     27  O   UNL     1     -28.864  15.353  -1.124  1.00  0.00    -0.507 OA
ATOM     28  H   UNL     1     -28.269  15.352  -1.939  1.00  0.00     0.293 HD
ENDBRANCH   7  27
TORSDOF 7
ENDMDL
MODEL 6
REMARK VINA RESULT:    -7.058      1.040      1.259
REMARK INTER + INTRA:          -8.945
REMARK INTER:                  -8.682
REMARK INTRA:                  -0.263
REMARK UNBOUND:                -0.237
REMARK SMILES Oc1cc(O)c2cc(O)c(-c3cc(O)c(O)c(O)c3)[o+]c2c1
REMARK SMILES IDX 10 1 20 2 21 3 22 4 2 5 3 6 4 7 6 8 7 9 8 10 11 11 12 12
REMARK SMILES IDX 13 13 19 14 15 15 17 16 14 17 16 19 18 21 9 23 1 25 5 27
REMARK H PARENT 14 18 16 20 18 22 9 24 1 26 5 28
REMARK Flexibility Score: inf
ROOT
ATOM      1  C   UNL     1     -39.650  11.681   8.670  1.00  0.00     0.402 A 
ATOM      2  O   UNL     1     -40.196  12.841   9.027  1.00  0.00    -0.202 OA
ATOM      3  C   UNL     1     -41.136  12.948   9.960  1.00  0.00     0.368 A 
ATOM      4  C   UNL     1     -41.646  14.211  10.270  1.00  0.00     0.162 A 
ATOM      5  C   UNL     1     -42.631  14.354  11.247  1.00  0.00     0.128 A 
ATOM      6  C   UNL     1     -43.112  13.227  11.923  1.00  0.00     0.093 A 
ATOM      7  C   UNL     1     -42.617  11.949  11.632  1.00  0.00     0.136 A 
ATOM      8  C   UNL     1     -41.616  11.800  10.636  1.00  0.00     0.125 A 
ATOM      9  C   UNL     1     -41.071  10.558  10.269  1.00  0.00     0.078 A 
ATOM     10  C   UNL     1     -40.091  10.489   9.274  1.00  0.00     0.223 A 
ENDROOT
BRANCH   1  11
ATOM     11  C   UNL     1     -38.603  11.693   7.622  1.00  0.00     0.091 A 
ATOM     12  C   UNL     1     -38.894  11.177   6.351  1.00  0.00     0.068 A 
ATOM     13  C   UNL     1     -37.930  11.194   5.337  1.00  0.00     0.162 A 
ATOM     14  C   UNL     1     -37.340  12.261   7.858  1.00  0.00     0.068 A 
ATOM     15  C   UNL     1     -36.661  11.745   5.583  1.00  0.00     0.200 A 
ATOM     16  C   UNL     1     -36.368  12.284   6.848  1.00  0.00     0.162 A 
BRANCH  13  17
ATOM     17  O   UNL     1     -38.254  10.658   4.090  1.00  0.00    -0.504 OA
ATOM     18  H   UNL     1     -38.123  11.177   3.230  1.00  0.00     0.293 HD
ENDBRANCH  13  17
BRANCH  15  19
ATOM     19  O   UNL     1     -35.705  11.755   4.566  1.00  0.00    -0.502 OA
ATOM     20  H   UNL     1     -34.729  11.546   4.741  1.00  0.00     0.293 HD
ENDBRANCH  15  19
BRANCH  16  21
ATOM     21  O   UNL     1     -35.117  12.845   7.094  1.00  0.00    -0.504 OA
ATOM     22  H   UNL     1     -34.261  12.381   6.809  1.00  0.00     0.293 HD
ENDBRANCH  16  21
ENDBRANCH   1  11
BRANCH  10  23
ATOM     23  O   UNL     1     -39.586   9.252   8.875  1.00  0.00    -0.500 OA
ATOM     24  H   UNL     1     -39.536   8.986   7.899  1.00  0.00     0.294 HD
ENDBRANCH  10  23
BRANCH   5  25
ATOM     25  O   UNL     1     -43.128  15.622  11.542  1.00  0.00    -0.507 OA
ATOM     26  H   UNL     1     -42.960  16.062  12.439  1.00  0.00     0.293 HD
ENDBRANCH   5  25
BRANCH   7  27
ATOM     27  O   UNL     1     -43.145  10.874  12.352  1.00  0.00    -0.507 OA
ATOM     28  H   UNL     1     -43.000   9.904  12.117  1.00  0.00     0.293 HD
ENDBRANCH   7  27
TORSDOF 7
ENDMDL
MODEL 7
REMARK VINA RESULT:    -7.056      1.242      6.956
REMARK INTER + INTRA:          -8.943
REMARK INTER:                  -8.943
REMARK INTRA:                  -0.000
REMARK UNBOUND:                -0.237
REMARK SMILES Oc1cc(O)c2cc(O)c(-c3cc(O)c(O)c(O)c3)[o+]c2c1
REMARK SMILES IDX 10 1 20 2 21 3 22 4 2 5 3 6 4 7 6 8 7 9 8 10 11 11 12 12
REMARK SMILES IDX 13 13 19 14 15 15 17 16 14 17 16 19 18 21 9 23 1 25 5 27
REMARK H PARENT 14 18 16 20 18 22 9 24 1 26 5 28
REMARK Flexibility Score: inf
ROOT
ATOM      1  C   UNL     1     -40.845  11.648   8.868  1.00  0.00     0.402 A 
ATOM      2  O   UNL     1     -39.593  12.101   8.877  1.00  0.00    -0.202 OA
ATOM      3  C   UNL     1     -38.736  11.898   7.882  1.00  0.00     0.368 A 
ATOM      4  C   UNL     1     -37.443  12.416   7.981  1.00  0.00     0.162 A 
ATOM      5  C   UNL     1     -36.524  12.221   6.951  1.00  0.00     0.128 A 
ATOM      6  C   UNL     1     -36.897  11.503   5.810  1.00  0.00     0.093 A 
ATOM      7  C   UNL     1     -38.188  10.972   5.685  1.00  0.00     0.136 A 
ATOM      8  C   UNL     1     -39.125  11.166   6.733  1.00  0.00     0.125 A 
ATOM      9  C   UNL     1     -40.435  10.661   6.702  1.00  0.00     0.078 A 
ATOM     10  C   UNL     1     -41.301  10.889   7.775  1.00  0.00     0.223 A 
ENDROOT
BRANCH   1  11
ATOM     11  C   UNL     1     -41.707  11.949  10.034  1.00  0.00     0.091 A 
ATOM     12  C   UNL     1     -42.419  10.910  10.652  1.00  0.00     0.068 A 
ATOM     13  C   UNL     1     -43.225  11.161  11.766  1.00  0.00     0.162 A 
ATOM     14  C   UNL     1     -41.784  13.244  10.571  1.00  0.00     0.068 A 
ATOM     15  C   UNL     1     -43.316  12.463  12.288  1.00  0.00     0.200 A 
ATOM     16  C   UNL     1     -42.588  13.506  11.690  1.00  0.00     0.162 A 
BRANCH  13  17
ATOM     17  O   UNL     1     -43.929  10.103  12.342  1.00  0.00    -0.504 OA
ATOM     18  H   UNL     1     -44.819   9.786  11.976  1.00  0.00     0.293 HD
ENDBRANCH  13  17
BRANCH  15  19
ATOM     19  O   UNL     1     -44.125  12.706  13.399  1.00  0.00    -0.502 OA
ATOM     20  H   UNL     1     -43.835  13.315  14.155  1.00  0.00     0.293 HD
ENDBRANCH  15  19
BRANCH  16  21
ATOM     21  O   UNL     1     -42.661  14.796  12.211  1.00  0.00    -0.504 OA
ATOM     22  H   UNL     1     -43.552  15.251  12.382  1.00  0.00     0.293 HD
ENDBRANCH  16  21
ENDBRANCH   1  11
BRANCH  10  23
ATOM     23  O   UNL     1     -42.585  10.344   7.765  1.00  0.00    -0.500 OA
ATOM     24  H   UNL     1     -42.933   9.813   6.976  1.00  0.00     0.294 HD
ENDBRANCH  10  23
BRANCH   5  25
ATOM     25  O   UNL     1     -35.239  12.747   7.068  1.00  0.00    -0.507 OA
ATOM     26  H   UNL     1     -34.544  12.319   7.669  1.00  0.00     0.293 HD
ENDBRANCH   5  25
BRANCH   7  27
ATOM     27  O   UNL     1     -38.485  10.270   4.514  1.00  0.00    -0.507 OA
ATOM     28  H   UNL     1     -39.404  10.210   4.102  1.00  0.00     0.293 HD
ENDBRANCH   7  27
TORSDOF 7
ENDMDL
MODEL 8
REMARK VINA RESULT:    -6.883      2.052      7.174
REMARK INTER + INTRA:          -8.729
REMARK INTER:                  -8.361
REMARK INTRA:                  -0.368
REMARK UNBOUND:                -0.237
REMARK SMILES Oc1cc(O)c2cc(O)c(-c3cc(O)c(O)c(O)c3)[o+]c2c1
REMARK SMILES IDX 10 1 20 2 21 3 22 4 2 5 3 6 4 7 6 8 7 9 8 10 11 11 12 12
REMARK SMILES IDX 13 13 19 14 15 15 17 16 14 17 16 19 18 21 9 23 1 25 5 27
REMARK H PARENT 14 18 16 20 18 22 9 24 1 26 5 28
REMARK Flexibility Score: inf
ROOT
ATOM      1  C   UNL     1     -39.586  10.977   7.571  1.00  0.00     0.402 A 
ATOM      2  O   UNL     1     -38.484  11.707   7.731  1.00  0.00    -0.202 OA
ATOM      3  C   UNL     1     -37.583  11.889   6.772  1.00  0.00     0.368 A 
ATOM      4  C   UNL     1     -36.459  12.675   7.034  1.00  0.00     0.162 A 
ATOM      5  C   UNL     1     -35.499  12.885   6.045  1.00  0.00     0.128 A 
ATOM      6  C   UNL     1     -35.661  12.307   4.781  1.00  0.00     0.093 A 
ATOM      7  C   UNL     1     -36.779  11.513   4.492  1.00  0.00     0.136 A 
ATOM      8  C   UNL     1     -37.757  11.295   5.498  1.00  0.00     0.125 A 
ATOM      9  C   UNL     1     -38.902  10.505   5.303  1.00  0.00     0.078 A 
ATOM     10  C   UNL     1     -39.820  10.332   6.343  1.00  0.00     0.223 A 
ENDROOT
BRANCH   1  11
ATOM     11  C   UNL     1     -40.520  10.858   8.715  1.00  0.00     0.091 A 
ATOM     12  C   UNL     1     -40.202   9.999   9.778  1.00  0.00     0.068 A 
ATOM     13  C   UNL     1     -41.055   9.882  10.880  1.00  0.00     0.162 A 
ATOM     14  C   UNL     1     -41.691  11.630   8.786  1.00  0.00     0.068 A 
ATOM     15  C   UNL     1     -42.237  10.641  10.937  1.00  0.00     0.200 A 
ATOM     16  C   UNL     1     -42.552  11.520   9.887  1.00  0.00     0.162 A 
BRANCH  13  17
ATOM     17  O   UNL     1     -40.711   9.006  11.909  1.00  0.00    -0.504 OA
ATOM     18  H   UNL     1     -41.182   9.016  12.806  1.00  0.00     0.293 HD
ENDBRANCH  13  17
BRANCH  15  19
ATOM     19  O   UNL     1     -43.084  10.516  12.039  1.00  0.00    -0.502 OA
ATOM     20  H   UNL     1     -43.673   9.703  12.177  1.00  0.00     0.293 HD
ENDBRANCH  15  19
BRANCH  16  21
ATOM     21  O   UNL     1     -43.715  12.287   9.944  1.00  0.00    -0.504 OA
ATOM     22  H   UNL     1     -44.451  12.086  10.612  1.00  0.00     0.293 HD
ENDBRANCH  16  21
ENDBRANCH   1  11
BRANCH  10  23
ATOM     23  O   UNL     1     -40.931   9.507   6.165  1.00  0.00    -0.500 OA
ATOM     24  H   UNL     1     -40.835   8.530   5.920  1.00  0.00     0.294 HD
ENDBRANCH  10  23
BRANCH   5  25
ATOM     25  O   UNL     1     -34.385  13.673   6.325  1.00  0.00    -0.507 OA
ATOM     26  H   UNL     1     -34.012  14.326   5.646  1.00  0.00     0.293 HD
ENDBRANCH   5  25
BRANCH   7  27
ATOM     27  O   UNL     1     -36.871  10.974   3.207  1.00  0.00    -0.507 OA
ATOM     28  H   UNL     1     -36.113  10.954   2.541  1.00  0.00     0.293 HD
ENDBRANCH   7  27
TORSDOF 7
ENDMDL
MODEL 9
REMARK VINA RESULT:    -6.872      1.700      2.905
REMARK INTER + INTRA:          -8.717
REMARK INTER:                  -8.339
REMARK INTRA:                  -0.378
REMARK UNBOUND:                -0.237
REMARK SMILES Oc1cc(O)c2cc(O)c(-c3cc(O)c(O)c(O)c3)[o+]c2c1
REMARK SMILES IDX 10 1 20 2 21 3 22 4 2 5 3 6 4 7 6 8 7 9 8 10 11 11 12 12
REMARK SMILES IDX 13 13 19 14 15 15 17 16 14 17 16 19 18 21 9 23 1 25 5 27
REMARK H PARENT 14 18 16 20 18 22 9 24 1 26 5 28
REMARK Flexibility Score: inf
ROOT
ATOM      1  C   UNL     1     -38.867  11.777   7.982  1.00  0.00     0.402 A 
ATOM      2  O   UNL     1     -39.662  12.784   8.338  1.00  0.00    -0.202 OA
ATOM      3  C   UNL     1     -40.593  12.681   9.281  1.00  0.00     0.368 A 
ATOM      4  C   UNL     1     -41.377  13.795   9.587  1.00  0.00     0.162 A 
ATOM      5  C   UNL     1     -42.359  13.717  10.573  1.00  0.00     0.128 A 
ATOM      6  C   UNL     1     -42.561  12.517  11.264  1.00  0.00     0.093 A 
ATOM      7  C   UNL     1     -41.787  11.384  10.976  1.00  0.00     0.136 A 
ATOM      8  C   UNL     1     -40.789  11.460   9.970  1.00  0.00     0.125 A 
ATOM      9  C   UNL     1     -39.975  10.374   9.606  1.00  0.00     0.078 A 
ATOM     10  C   UNL     1     -39.015  10.522   8.601  1.00  0.00     0.223 A 
ENDROOT
BRANCH   1  11
ATOM     11  C   UNL     1     -37.861  12.020   6.923  1.00  0.00     0.091 A 
ATOM     12  C   UNL     1     -36.581  12.471   7.278  1.00  0.00     0.068 A 
ATOM     13  C   UNL     1     -35.605  12.690   6.301  1.00  0.00     0.162 A 
ATOM     14  C   UNL     1     -38.142  11.755   5.573  1.00  0.00     0.068 A 
ATOM     15  C   UNL     1     -35.897  12.443   4.949  1.00  0.00     0.200 A 
ATOM     16  C   UNL     1     -37.170  11.970   4.586  1.00  0.00     0.162 A 
BRANCH  13  17
ATOM     17  O   UNL     1     -34.348  13.153   6.694  1.00  0.00    -0.504 OA
ATOM     18  H   UNL     1     -33.541  12.543   6.745  1.00  0.00     0.293 HD
ENDBRANCH  13  17
BRANCH  15  19
ATOM     19  O   UNL     1     -34.918  12.667   3.980  1.00  0.00    -0.502 OA
ATOM     20  H   UNL     1     -34.662  13.598   3.676  1.00  0.00     0.293 HD
ENDBRANCH  15  19
BRANCH  16  21
ATOM     21  O   UNL     1     -37.461  11.708   3.248  1.00  0.00    -0.504 OA
ATOM     22  H   UNL     1     -37.426  12.438   2.545  1.00  0.00     0.293 HD
ENDBRANCH  16  21
ENDBRANCH   1  11
BRANCH  10  23
ATOM     23  O   UNL     1     -38.242   9.431   8.206  1.00  0.00    -0.500 OA
ATOM     24  H   UNL     1     -37.584   9.494   7.439  1.00  0.00     0.294 HD
ENDBRANCH  10  23
BRANCH   5  25
ATOM     25  O   UNL     1     -43.132  14.839  10.864  1.00  0.00    -0.507 OA
ATOM     26  H   UNL     1     -43.983  15.044  10.354  1.00  0.00     0.293 HD
ENDBRANCH   5  25
BRANCH   7  27
ATOM     27  O   UNL     1     -42.046  10.224  11.711  1.00  0.00    -0.507 OA
ATOM     28  H   UNL     1     -41.341   9.562  11.999  1.00  0.00     0.293 HD
ENDBRANCH   7  27
TORSDOF 7
ENDMDL
