MODEL 1
REMARK VINA RESULT:    -7.184      0.000      0.000
REMARK INTER + INTRA:          -8.828
REMARK INTER:                  -8.654
REMARK INTRA:                  -0.174
REMARK UNBOUND:                -0.174
REMARK SMILES O=c1c(O)c(-c2ccc(O)c(O)c2)oc2cc(O)cc(O)c12
REMARK SMILES IDX 5 1 3 2 2 3 1 4 22 5 20 6 19 7 17 8 16 9 15 10 14 11 6 12
REMARK SMILES IDX 7 13 8 14 9 15 13 16 11 17 10 18 12 20 4 22 21 24 18 26
REMARK H PARENT 10 19 12 21 4 23 21 25 18 27
REMARK Flexibility Score: inf
ROOT
ATOM      1  C   UNL     1      14.920 -20.481  11.888  1.00  0.00     0.180 A 
ATOM      2  C   UNL     1      16.028 -20.707  11.048  1.00  0.00     0.208 A 
ATOM      3  C   UNL     1      17.225 -21.169  11.614  1.00  0.00     0.238 A 
ATOM      4  O   UNL     1      18.227 -21.365  10.874  1.00  0.00    -0.285 OA
ATOM      5  C   UNL     1      17.291 -21.416  13.001  1.00  0.00     0.111 A 
ATOM      6  C   UNL     1      18.459 -21.886  13.649  1.00  0.00     0.134 A 
ATOM      7  C   UNL     1      18.441 -22.116  15.033  1.00  0.00     0.093 A 
ATOM      8  C   UNL     1      17.283 -21.888  15.779  1.00  0.00     0.123 A 
ATOM      9  C   UNL     1      16.126 -21.423  15.144  1.00  0.00     0.094 A 
ATOM     10  C   UNL     1      16.124 -21.185  13.766  1.00  0.00     0.146 A 
ATOM     11  O   UNL     1      15.014 -20.739  13.188  1.00  0.00    -0.452 OA
ENDROOT
BRANCH   1  12
ATOM     12  C   UNL     1      13.629 -19.976  11.368  1.00  0.00     0.025 A 
ATOM     13  C   UNL     1      12.858 -20.792  10.525  1.00  0.00     0.016 A 
ATOM     14  C   UNL     1      11.626 -20.345  10.039  1.00  0.00     0.051 A 
ATOM     15  C   UNL     1      11.140 -19.083  10.404  1.00  0.00     0.157 A 
ATOM     16  C   UNL     1      13.127 -18.718  11.749  1.00  0.00     0.062 A 
ATOM     17  C   UNL     1      11.890 -18.270  11.263  1.00  0.00     0.158 A 
BRANCH  15  18
ATOM     18  O   UNL     1       9.913 -18.632   9.921  1.00  0.00    -0.504 OA
ATOM     19  H   UNL     1       9.580 -18.889   8.999  1.00  0.00     0.293 HD
ENDBRANCH  15  18
BRANCH  17  20
ATOM     20  O   UNL     1      11.398 -17.020  11.635  1.00  0.00    -0.504 OA
ATOM     21  H   UNL     1      10.406 -16.813  11.616  1.00  0.00     0.293 HD
ENDBRANCH  17  20
ENDBRANCH   1  12
BRANCH   2  22
ATOM     22  O   UNL     1      15.922 -20.501   9.669  1.00  0.00    -0.502 OA
ATOM     23  H   UNL     1      15.031 -20.371   9.207  1.00  0.00     0.293 HD
ENDBRANCH   2  22
BRANCH   6  24
ATOM     24  O   UNL     1      19.631 -22.125  12.933  1.00  0.00    -0.507 OA
ATOM     25  H   UNL     1      20.486 -22.420  13.391  1.00  0.00     0.293 HD
ENDBRANCH   6  24
BRANCH   8  26
ATOM     26  O   UNL     1      17.291 -22.125  17.152  1.00  0.00    -0.508 OA
ATOM     27  H   UNL     1      17.858 -21.571  17.781  1.00  0.00     0.293 HD
ENDBRANCH   8  26
TORSDOF 6
ENDMDL
MODEL 2
REMARK VINA RESULT:    -6.801      1.034      1.626
REMARK INTER + INTRA:          -8.366
REMARK INTER:                  -8.042
REMARK INTRA:                  -0.325
REMARK UNBOUND:                -0.174
REMARK SMILES O=c1c(O)c(-c2ccc(O)c(O)c2)oc2cc(O)cc(O)c12
REMARK SMILES IDX 5 1 3 2 2 3 1 4 22 5 20 6 19 7 17 8 16 9 15 10 14 11 6 12
REMARK SMILES IDX 7 13 8 14 9 15 13 16 11 17 10 18 12 20 4 22 21 24 18 26
REMARK H PARENT 10 19 12 21 4 23 21 25 18 27
REMARK Flexibility Score: inf
ROOT
ATOM      1  C   UNL     1      14.369 -20.025  11.431  1.00  0.00     0.180 A 
ATOM      2  C   UNL     1      15.379 -20.302  10.489  1.00  0.00     0.208 A 
ATOM      3  C   UNL     1      16.573 -20.893  10.929  1.00  0.00     0.238 A 
ATOM      4  O   UNL     1      17.489 -21.136  10.096  1.00  0.00    -0.285 OA
ATOM      5  C   UNL     1      16.732 -21.212  12.293  1.00  0.00     0.111 A 
ATOM      6  C   UNL     1      17.903 -21.812  12.817  1.00  0.00     0.134 A 
ATOM      7  C   UNL     1      17.980 -22.109  14.186  1.00  0.00     0.093 A 
ATOM      8  C   UNL     1      16.912 -21.820  15.039  1.00  0.00     0.123 A 
ATOM      9  C   UNL     1      15.753 -21.227  14.527  1.00  0.00     0.094 A 
ATOM     10  C   UNL     1      15.658 -20.922  13.166  1.00  0.00     0.146 A 
ATOM     11  O   UNL     1      14.548 -20.355  12.707  1.00  0.00    -0.452 OA
ENDROOT
BRANCH   1  12
ATOM     12  C   UNL     1      13.089 -19.387  11.048  1.00  0.00     0.025 A 
ATOM     13  C   UNL     1      12.986 -17.987  11.055  1.00  0.00     0.016 A 
ATOM     14  C   UNL     1      11.794 -17.362  10.677  1.00  0.00     0.051 A 
ATOM     15  C   UNL     1      10.695 -18.129  10.270  1.00  0.00     0.157 A 
ATOM     16  C   UNL     1      11.989 -20.152  10.619  1.00  0.00     0.062 A 
ATOM     17  C   UNL     1      10.794 -19.525  10.238  1.00  0.00     0.158 A 
BRANCH  15  18
ATOM     18  O   UNL     1       9.504 -17.511   9.895  1.00  0.00    -0.504 OA
ATOM     19  H   UNL     1       9.498 -16.659   9.346  1.00  0.00     0.293 HD
ENDBRANCH  15  18
BRANCH  17  20
ATOM     20  O   UNL     1       9.702 -20.285   9.820  1.00  0.00    -0.504 OA
ATOM     21  H   UNL     1       9.667 -21.288   9.963  1.00  0.00     0.293 HD
ENDBRANCH  17  20
ENDBRANCH   1  12
BRANCH   2  22
ATOM     22  O   UNL     1      15.178 -20.020   9.135  1.00  0.00    -0.502 OA
ATOM     23  H   UNL     1      15.742 -19.347   8.631  1.00  0.00     0.293 HD
ENDBRANCH   2  22
BRANCH   6  24
ATOM     24  O   UNL     1      18.986 -22.114  11.991  1.00  0.00    -0.507 OA
ATOM     25  H   UNL     1      19.659 -21.408  11.714  1.00  0.00     0.293 HD
ENDBRANCH   6  24
BRANCH   8  26
ATOM     26  O   UNL     1      17.013 -22.125  16.394  1.00  0.00    -0.508 OA
ATOM     27  H   UNL     1      17.815 -22.617  16.768  1.00  0.00     0.293 HD
ENDBRANCH   8  26
TORSDOF 6
ENDMDL
MODEL 3
REMARK VINA RESULT:    -6.478      1.802      7.395
REMARK INTER + INTRA:          -7.978
REMARK INTER:                  -7.794
REMARK INTRA:                  -0.184
REMARK UNBOUND:                -0.174
REMARK SMILES O=c1c(O)c(-c2ccc(O)c(O)c2)oc2cc(O)cc(O)c12
REMARK SMILES IDX 5 1 3 2 2 3 1 4 22 5 20 6 19 7 17 8 16 9 15 10 14 11 6 12
REMARK SMILES IDX 7 13 8 14 9 15 13 16 11 17 10 18 12 20 4 22 21 24 18 26
REMARK H PARENT 10 19 12 21 4 23 21 25 18 27
REMARK Flexibility Score: inf
ROOT
ATOM      1  C   UNL     1      13.113 -19.868  10.960  1.00  0.00     0.180 A 
ATOM      2  C   UNL     1      12.290 -20.608  10.089  1.00  0.00     0.208 A 
ATOM      3  C   UNL     1      11.093 -20.034   9.634  1.00  0.00     0.238 A 
ATOM      4  O   UNL     1      10.343 -20.691   8.863  1.00  0.00    -0.285 OA
ATOM      5  C   UNL     1      10.749 -18.728  10.040  1.00  0.00     0.111 A 
ATOM      6  C   UNL     1       9.563 -18.076   9.625  1.00  0.00     0.134 A 
ATOM      7  C   UNL     1       9.295 -16.771  10.065  1.00  0.00     0.093 A 
ATOM      8  C   UNL     1      10.188 -16.107  10.910  1.00  0.00     0.123 A 
ATOM      9  C   UNL     1      11.361 -16.746  11.323  1.00  0.00     0.094 A 
ATOM     10  C   UNL     1      11.644 -18.047  10.897  1.00  0.00     0.146 A 
ATOM     11  O   UNL     1      12.763 -18.634  11.309  1.00  0.00    -0.452 OA
ENDROOT
BRANCH   1  12
ATOM     12  C   UNL     1      14.381 -20.412  11.497  1.00  0.00     0.025 A 
ATOM     13  C   UNL     1      15.465 -20.618  10.630  1.00  0.00     0.016 A 
ATOM     14  C   UNL     1      16.679 -21.111  11.118  1.00  0.00     0.051 A 
ATOM     15  C   UNL     1      16.829 -21.389  12.482  1.00  0.00     0.157 A 
ATOM     16  C   UNL     1      14.544 -20.673  12.870  1.00  0.00     0.062 A 
ATOM     17  C   UNL     1      15.762 -21.166  13.360  1.00  0.00     0.158 A 
BRANCH  15  18
ATOM     18  O   UNL     1      18.037 -21.882  12.973  1.00  0.00    -0.504 OA
ATOM     19  H   UNL     1      18.922 -21.644  12.541  1.00  0.00     0.293 HD
ENDBRANCH  15  18
BRANCH  17  20
ATOM     20  O   UNL     1      15.919 -21.430  14.719  1.00  0.00    -0.504 OA
ATOM     21  H   UNL     1      16.584 -22.118  15.053  1.00  0.00     0.293 HD
ENDBRANCH  17  20
ENDBRANCH   1  12
BRANCH   2  22
ATOM     22  O   UNL     1      12.678 -21.881   9.663  1.00  0.00    -0.502 OA
ATOM     23  H   UNL     1      13.388 -22.422  10.142  1.00  0.00     0.293 HD
ENDBRANCH   2  22
BRANCH   6  24
ATOM     24  O   UNL     1       8.651 -18.711   8.781  1.00  0.00    -0.507 OA
ATOM     25  H   UNL     1       8.866 -19.595   8.332  1.00  0.00     0.293 HD
ENDBRANCH   6  24
BRANCH   8  26
ATOM     26  O   UNL     1       9.900 -14.811  11.332  1.00  0.00    -0.508 OA
ATOM     27  H   UNL     1       8.979 -14.407  11.212  1.00  0.00     0.293 HD
ENDBRANCH   8  26
TORSDOF 6
ENDMDL
MODEL 4
REMARK VINA RESULT:    -6.386      1.785      3.526
REMARK INTER + INTRA:          -7.867
REMARK INTER:                  -7.565
REMARK INTRA:                  -0.302
REMARK UNBOUND:                -0.174
REMARK SMILES O=c1c(O)c(-c2ccc(O)c(O)c2)oc2cc(O)cc(O)c12
REMARK SMILES IDX 5 1 3 2 2 3 1 4 22 5 20 6 19 7 17 8 16 9 15 10 14 11 6 12
REMARK SMILES IDX 7 13 8 14 9 15 13 16 11 17 10 18 12 20 4 22 21 24 18 26
REMARK H PARENT 10 19 12 21 4 23 21 25 18 27
REMARK Flexibility Score: inf
ROOT
ATOM      1  C   UNL     1      15.577 -20.438  11.323  1.00  0.00     0.180 A 
ATOM      2  C   UNL     1      16.015 -21.168  12.445  1.00  0.00     0.208 A 
ATOM      3  C   UNL     1      17.382 -21.463  12.572  1.00  0.00     0.238 A 
ATOM      4  O   UNL     1      17.784 -22.125  13.567  1.00  0.00    -0.285 OA
ATOM      5  C   UNL     1      18.286 -21.009  11.590  1.00  0.00     0.111 A 
ATOM      6  C   UNL     1      19.679 -21.259  11.646  1.00  0.00     0.134 A 
ATOM      7  C   UNL     1      20.516 -20.765  10.634  1.00  0.00     0.093 A 
ATOM      8  C   UNL     1      19.990 -20.025   9.572  1.00  0.00     0.123 A 
ATOM      9  C   UNL     1      18.615 -19.774   9.512  1.00  0.00     0.094 A 
ATOM     10  C   UNL     1      17.764 -20.261  10.509  1.00  0.00     0.146 A 
ATOM     11  O   UNL     1      16.462 -20.013  10.426  1.00  0.00    -0.452 OA
ENDROOT
BRANCH   1  12
ATOM     12  C   UNL     1      14.151 -20.105  11.110  1.00  0.00     0.025 A 
ATOM     13  C   UNL     1      13.365 -20.927  10.286  1.00  0.00     0.016 A 
ATOM     14  C   UNL     1      12.011 -20.643  10.087  1.00  0.00     0.051 A 
ATOM     15  C   UNL     1      11.421 -19.542  10.722  1.00  0.00     0.157 A 
ATOM     16  C   UNL     1      13.548 -19.013  11.761  1.00  0.00     0.062 A 
ATOM     17  C   UNL     1      12.189 -18.729  11.563  1.00  0.00     0.158 A 
BRANCH  15  18
ATOM     18  O   UNL     1      10.071 -19.255  10.524  1.00  0.00    -0.504 OA
ATOM     19  H   UNL     1       9.774 -18.459   9.972  1.00  0.00     0.293 HD
ENDBRANCH  15  18
BRANCH  17  20
ATOM     20  O   UNL     1      11.596 -17.643  12.204  1.00  0.00    -0.504 OA
ATOM     21  H   UNL     1      10.589 -17.537  12.246  1.00  0.00     0.293 HD
ENDBRANCH  17  20
ENDBRANCH   1  12
BRANCH   2  22
ATOM     22  O   UNL     1      15.105 -21.565  13.429  1.00  0.00    -0.502 OA
ATOM     23  H   UNL     1      14.201 -21.960  13.204  1.00  0.00     0.293 HD
ENDBRANCH   2  22
BRANCH   6  24
ATOM     24  O   UNL     1      20.235 -21.993  12.693  1.00  0.00    -0.507 OA
ATOM     25  H   UNL     1      20.348 -23.000  12.639  1.00  0.00     0.293 HD
ENDBRANCH   6  24
BRANCH   8  26
ATOM     26  O   UNL     1      20.842 -19.544   8.581  1.00  0.00    -0.508 OA
ATOM     27  H   UNL     1      21.499 -20.152   8.107  1.00  0.00     0.293 HD
ENDBRANCH   8  26
TORSDOF 6
ENDMDL
MODEL 5
REMARK VINA RESULT:    -6.350      1.999      3.208
REMARK INTER + INTRA:          -7.823
REMARK INTER:                  -7.500
REMARK INTRA:                  -0.323
REMARK UNBOUND:                -0.174
REMARK SMILES O=c1c(O)c(-c2ccc(O)c(O)c2)oc2cc(O)cc(O)c12
REMARK SMILES IDX 5 1 3 2 2 3 1 4 22 5 20 6 19 7 17 8 16 9 15 10 14 11 6 12
REMARK SMILES IDX 7 13 8 14 9 15 13 16 11 17 10 18 12 20 4 22 21 24 18 26
REMARK H PARENT 10 19 12 21 4 23 21 25 18 27
REMARK Flexibility Score: inf
ROOT
ATOM      1  C   UNL     1      12.944 -19.952  10.041  1.00  0.00     0.180 A 
ATOM      2  C   UNL     1      13.720 -20.371   8.943  1.00  0.00     0.208 A 
ATOM      3  C   UNL     1      14.984 -20.932   9.181  1.00  0.00     0.238 A 
ATOM      4  O   UNL     1      15.693 -21.301   8.206  1.00  0.00    -0.285 OA
ATOM      5  C   UNL     1      15.442 -21.082  10.506  1.00  0.00     0.111 A 
ATOM      6  C   UNL     1      16.702 -21.641  10.832  1.00  0.00     0.134 A 
ATOM      7  C   UNL     1      17.082 -21.765  12.176  1.00  0.00     0.093 A 
ATOM      8  C   UNL     1      16.229 -21.344  13.200  1.00  0.00     0.123 A 
ATOM      9  C   UNL     1      14.983 -20.791  12.884  1.00  0.00     0.094 A 
ATOM     10  C   UNL     1      14.588 -20.657  11.550  1.00  0.00     0.146 A 
ATOM     11  O   UNL     1      13.402 -20.124  11.277  1.00  0.00    -0.452 OA
ENDROOT
BRANCH   1  12
ATOM     12  C   UNL     1      11.609 -19.336   9.871  1.00  0.00     0.025 A 
ATOM     13  C   UNL     1      11.504 -17.942   9.739  1.00  0.00     0.016 A 
ATOM     14  C   UNL     1      10.256 -17.340   9.556  1.00  0.00     0.051 A 
ATOM     15  C   UNL     1       9.097 -18.125   9.486  1.00  0.00     0.157 A 
ATOM     16  C   UNL     1      10.445 -20.121   9.779  1.00  0.00     0.062 A 
ATOM     17  C   UNL     1       9.193 -19.517   9.595  1.00  0.00     0.158 A 
BRANCH  15  18
ATOM     18  O   UNL     1       7.851 -17.528   9.307  1.00  0.00    -0.504 OA
ATOM     19  H   UNL     1       7.472 -16.876   9.984  1.00  0.00     0.293 HD
ENDBRANCH  15  18
BRANCH  17  20
ATOM     20  O   UNL     1       8.040 -20.296   9.511  1.00  0.00    -0.504 OA
ATOM     21  H   UNL     1       7.254 -20.021   8.934  1.00  0.00     0.293 HD
ENDBRANCH  17  20
ENDBRANCH   1  12
BRANCH   2  22
ATOM     22  O   UNL     1      13.223 -20.257   7.642  1.00  0.00    -0.502 OA
ATOM     23  H   UNL     1      12.483 -20.851   7.290  1.00  0.00     0.293 HD
ENDBRANCH   2  22
BRANCH   6  24
ATOM     24  O   UNL     1      17.576 -22.071   9.833  1.00  0.00    -0.507 OA
ATOM     25  H   UNL     1      18.027 -22.979   9.874  1.00  0.00     0.293 HD
ENDBRANCH   6  24
BRANCH   8  26
ATOM     26  O   UNL     1      16.629 -21.479  14.527  1.00  0.00    -0.508 OA
ATOM     27  H   UNL     1      17.582 -21.719  14.771  1.00  0.00     0.293 HD
ENDBRANCH   8  26
TORSDOF 6
ENDMDL
MODEL 6
REMARK VINA RESULT:    -6.193     11.352     14.924
REMARK INTER + INTRA:          -7.635
REMARK INTER:                  -7.482
REMARK INTRA:                  -0.153
REMARK UNBOUND:                -0.174
REMARK SMILES O=c1c(O)c(-c2ccc(O)c(O)c2)oc2cc(O)cc(O)c12
REMARK SMILES IDX 5 1 3 2 2 3 1 4 22 5 20 6 19 7 17 8 16 9 15 10 14 11 6 12
REMARK SMILES IDX 7 13 8 14 9 15 13 16 11 17 10 18 12 20 4 22 21 24 18 26
REMARK H PARENT 10 19 12 21 4 23 21 25 18 27
REMARK Flexibility Score: inf
ROOT
ATOM      1  C   UNL     1      10.442  -7.108   8.550  1.00  0.00     0.180 A 
ATOM      2  C   UNL     1       9.355  -7.708   7.886  1.00  0.00     0.208 A 
ATOM      3  C   UNL     1       8.946  -8.993   8.277  1.00  0.00     0.238 A 
ATOM      4  O   UNL     1       7.981  -9.545   7.683  1.00  0.00    -0.285 OA
ATOM      5  C   UNL     1       9.615  -9.645   9.333  1.00  0.00     0.111 A 
ATOM      6  C   UNL     1       9.264 -10.938   9.791  1.00  0.00     0.134 A 
ATOM      7  C   UNL     1       9.973 -11.516  10.855  1.00  0.00     0.093 A 
ATOM      8  C   UNL     1      11.022 -10.828  11.470  1.00  0.00     0.123 A 
ATOM      9  C   UNL     1      11.373  -9.551  11.021  1.00  0.00     0.094 A 
ATOM     10  C   UNL     1      10.681  -8.959   9.961  1.00  0.00     0.146 A 
ATOM     11  O   UNL     1      11.038  -7.746   9.552  1.00  0.00    -0.452 OA
ENDROOT
BRANCH   1  12
ATOM     12  C   UNL     1      10.943  -5.764   8.183  1.00  0.00     0.025 A 
ATOM     13  C   UNL     1      10.122  -4.642   8.385  1.00  0.00     0.016 A 
ATOM     14  C   UNL     1      10.582  -3.362   8.065  1.00  0.00     0.051 A 
ATOM     15  C   UNL     1      11.874  -3.183   7.555  1.00  0.00     0.157 A 
ATOM     16  C   UNL     1      12.247  -5.577   7.690  1.00  0.00     0.062 A 
ATOM     17  C   UNL     1      12.709  -4.292   7.370  1.00  0.00     0.158 A 
BRANCH  15  18
ATOM     18  O   UNL     1      12.336  -1.908   7.233  1.00  0.00    -0.504 OA
ATOM     19  H   UNL     1      13.293  -1.748   6.941  1.00  0.00     0.293 HD
ENDBRANCH  15  18
BRANCH  17  20
ATOM     20  O   UNL     1      13.999  -4.110   6.875  1.00  0.00    -0.504 OA
ATOM     21  H   UNL     1      14.580  -3.338   7.179  1.00  0.00     0.293 HD
ENDBRANCH  17  20
ENDBRANCH   1  12
BRANCH   2  22
ATOM     22  O   UNL     1       8.677  -7.021   6.875  1.00  0.00    -0.502 OA
ATOM     23  H   UNL     1       7.862  -7.402   6.412  1.00  0.00     0.293 HD
ENDBRANCH   2  22
BRANCH   6  24
ATOM     24  O   UNL     1       8.221 -11.650   9.199  1.00  0.00    -0.507 OA
ATOM     25  H   UNL     1       7.802 -11.355   8.324  1.00  0.00     0.293 HD
ENDBRANCH   6  24
BRANCH   8  26
ATOM     26  O   UNL     1      11.709 -11.424  12.524  1.00  0.00    -0.508 OA
ATOM     27  H   UNL     1      11.789 -12.430  12.604  1.00  0.00     0.293 HD
ENDBRANCH   8  26
TORSDOF 6
ENDMDL
MODEL 7
REMARK VINA RESULT:    -6.086      2.146      7.629
REMARK INTER + INTRA:          -7.505
REMARK INTER:                  -7.246
REMARK INTRA:                  -0.260
REMARK UNBOUND:                -0.174
REMARK SMILES O=c1c(O)c(-c2ccc(O)c(O)c2)oc2cc(O)cc(O)c12
REMARK SMILES IDX 5 1 3 2 2 3 1 4 22 5 20 6 19 7 17 8 16 9 15 10 14 11 6 12
REMARK SMILES IDX 7 13 8 14 9 15 13 16 11 17 10 18 12 20 4 22 21 24 18 26
REMARK H PARENT 10 19 12 21 4 23 21 25 18 27
REMARK Flexibility Score: inf
ROOT
ATOM      1  C   UNL     1      13.341 -19.382  10.364  1.00  0.00     0.180 A 
ATOM      2  C   UNL     1      13.546 -18.182   9.656  1.00  0.00     0.208 A 
ATOM      3  C   UNL     1      12.456 -17.583   9.005  1.00  0.00     0.238 A 
ATOM      4  O   UNL     1      12.630 -16.514   8.360  1.00  0.00    -0.285 OA
ATOM      5  C   UNL     1      11.182 -18.180   9.088  1.00  0.00     0.111 A 
ATOM      6  C   UNL     1      10.031 -17.639   8.464  1.00  0.00     0.134 A 
ATOM      7  C   UNL     1       8.795 -18.288   8.601  1.00  0.00     0.093 A 
ATOM      8  C   UNL     1       8.686 -19.463   9.349  1.00  0.00     0.123 A 
ATOM      9  C   UNL     1       9.819 -20.002   9.967  1.00  0.00     0.094 A 
ATOM     10  C   UNL     1      11.060 -19.372   9.840  1.00  0.00     0.146 A 
ATOM     11  O   UNL     1      12.121 -19.908  10.433  1.00  0.00    -0.452 OA
ENDROOT
BRANCH   1  12
ATOM     12  C   UNL     1      14.443 -20.083  11.060  1.00  0.00     0.025 A 
ATOM     13  C   UNL     1      14.460 -20.120  12.464  1.00  0.00     0.016 A 
ATOM     14  C   UNL     1      15.479 -20.794  13.142  1.00  0.00     0.051 A 
ATOM     15  C   UNL     1      16.486 -21.454  12.426  1.00  0.00     0.157 A 
ATOM     16  C   UNL     1      15.445 -20.765  10.346  1.00  0.00     0.062 A 
ATOM     17  C   UNL     1      16.467 -21.442  11.027  1.00  0.00     0.158 A 
BRANCH  15  18
ATOM     18  O   UNL     1      17.506 -22.125  13.099  1.00  0.00    -0.504 OA
ATOM     19  H   UNL     1      17.332 -22.986  13.604  1.00  0.00     0.293 HD
ENDBRANCH  15  18
BRANCH  17  20
ATOM     20  O   UNL     1      17.463 -22.111  10.317  1.00  0.00    -0.504 OA
ATOM     21  H   UNL     1      17.292 -23.010   9.881  1.00  0.00     0.293 HD
ENDBRANCH  17  20
ENDBRANCH   1  12
BRANCH   2  22
ATOM     22  O   UNL     1      14.809 -17.585   9.630  1.00  0.00    -0.502 OA
ATOM     23  H   UNL     1      15.664 -18.125   9.594  1.00  0.00     0.293 HD
ENDBRANCH   2  22
BRANCH   6  24
ATOM     24  O   UNL     1      10.107 -16.466   7.712  1.00  0.00    -0.507 OA
ATOM     25  H   UNL     1      10.991 -16.002   7.536  1.00  0.00     0.293 HD
ENDBRANCH   6  24
BRANCH   8  26
ATOM     26  O   UNL     1       7.447 -20.087   9.470  1.00  0.00    -0.508 OA
ATOM     27  H   UNL     1       7.369 -21.071   9.696  1.00  0.00     0.293 HD
ENDBRANCH   8  26
TORSDOF 6
ENDMDL
MODEL 8
REMARK VINA RESULT:    -6.018      3.289      8.912
REMARK INTER + INTRA:          -7.424
REMARK INTER:                  -7.243
REMARK INTRA:                  -0.181
REMARK UNBOUND:                -0.174
REMARK SMILES O=c1c(O)c(-c2ccc(O)c(O)c2)oc2cc(O)cc(O)c12
REMARK SMILES IDX 5 1 3 2 2 3 1 4 22 5 20 6 19 7 17 8 16 9 15 10 14 11 6 12
REMARK SMILES IDX 7 13 8 14 9 15 13 16 11 17 10 18 12 20 4 22 21 24 18 26
REMARK H PARENT 10 19 12 21 4 23 21 25 18 27
REMARK Flexibility Score: inf
ROOT
ATOM      1  C   UNL     1      11.048 -18.588   9.689  1.00  0.00     0.180 A 
ATOM      2  C   UNL     1       9.673 -18.889   9.711  1.00  0.00     0.208 A 
ATOM      3  C   UNL     1       8.768 -17.968   9.161  1.00  0.00     0.238 A 
ATOM      4  O   UNL     1       7.533 -18.221   9.184  1.00  0.00    -0.285 OA
ATOM      5  C   UNL     1       9.252 -16.776   8.583  1.00  0.00     0.111 A 
ATOM      6  C   UNL     1       8.408 -15.798   8.004  1.00  0.00     0.134 A 
ATOM      7  C   UNL     1       8.968 -14.641   7.440  1.00  0.00     0.093 A 
ATOM      8  C   UNL     1      10.351 -14.445   7.442  1.00  0.00     0.123 A 
ATOM      9  C   UNL     1      11.189 -15.408   8.013  1.00  0.00     0.094 A 
ATOM     10  C   UNL     1      10.651 -16.566   8.582  1.00  0.00     0.146 A 
ATOM     11  O   UNL     1      11.469 -17.462   9.122  1.00  0.00    -0.452 OA
ENDROOT
BRANCH   1  12
ATOM     12  C   UNL     1      12.062 -19.501  10.265  1.00  0.00     0.025 A 
ATOM     13  C   UNL     1      12.306 -20.739   9.650  1.00  0.00     0.016 A 
ATOM     14  C   UNL     1      13.273 -21.607  10.164  1.00  0.00     0.051 A 
ATOM     15  C   UNL     1      14.021 -21.241  11.291  1.00  0.00     0.157 A 
ATOM     16  C   UNL     1      12.831 -19.130  11.384  1.00  0.00     0.062 A 
ATOM     17  C   UNL     1      13.802 -20.000  11.899  1.00  0.00     0.158 A 
BRANCH  15  18
ATOM     18  O   UNL     1      14.985 -22.105  11.808  1.00  0.00    -0.504 OA
ATOM     19  H   UNL     1      15.456 -22.786  11.224  1.00  0.00     0.293 HD
ENDBRANCH  15  18
BRANCH  17  20
ATOM     20  O   UNL     1      14.558 -19.633  13.012  1.00  0.00    -0.504 OA
ATOM     21  H   UNL     1      14.134 -19.509  13.924  1.00  0.00     0.293 HD
ENDBRANCH  17  20
ENDBRANCH   1  12
BRANCH   2  22
ATOM     22  O   UNL     1       9.222 -20.099  10.245  1.00  0.00    -0.502 OA
ATOM     23  H   UNL     1       9.340 -20.338  11.222  1.00  0.00     0.293 HD
ENDBRANCH   2  22
BRANCH   6  24
ATOM     24  O   UNL     1       7.023 -15.964   7.985  1.00  0.00    -0.507 OA
ATOM     25  H   UNL     1       6.451 -15.770   8.799  1.00  0.00     0.293 HD
ENDBRANCH   6  24
BRANCH   8  26
ATOM     26  O   UNL     1      10.881 -13.289   6.875  1.00  0.00    -0.508 OA
ATOM     27  H   UNL     1      11.126 -13.244   5.893  1.00  0.00     0.293 HD
ENDBRANCH   8  26
TORSDOF 6
ENDMDL
