MODEL 1
REMARK VINA RESULT:    -6.301      0.000      0.000
REMARK INTER + INTRA:          -7.859
REMARK INTER:                  -7.590
REMARK INTRA:                  -0.268
REMARK UNBOUND:                -0.268
REMARK SMILES O=c1c(O)c(-c2ccc(O)c(O)c2)oc2cc(O)cc(O)c12
REMARK SMILES IDX 5 1 3 2 2 3 1 4 22 5 20 6 19 7 17 8 16 9 15 10 14 11 6 12
REMARK SMILES IDX 7 13 8 14 9 15 13 16 11 17 10 18 12 20 4 22 21 24 18 26
REMARK H PARENT 10 19 12 21 4 23 21 25 18 27
REMARK Flexibility Score: inf
ROOT
ATOM      1  C   UNL     1      14.405  56.099  32.773  1.00  0.00     0.180 A 
ATOM      2  C   UNL     1      14.277  55.909  31.386  1.00  0.00     0.208 A 
ATOM      3  C   UNL     1      14.782  56.887  30.515  1.00  0.00     0.238 A 
ATOM      4  O   UNL     1      14.730  56.676  29.276  1.00  0.00    -0.285 OA
ATOM      5  C   UNL     1      15.359  58.070  31.041  1.00  0.00     0.111 A 
ATOM      6  C   UNL     1      15.863  59.148  30.251  1.00  0.00     0.134 A 
ATOM      7  C   UNL     1      16.509  60.220  30.880  1.00  0.00     0.093 A 
ATOM      8  C   UNL     1      16.613  60.284  32.270  1.00  0.00     0.123 A 
ATOM      9  C   UNL     1      16.076  59.264  33.052  1.00  0.00     0.094 A 
ATOM     10  C   UNL     1      15.459  58.163  32.454  1.00  0.00     0.146 A 
ATOM     11  O   UNL     1      14.981  57.203  33.236  1.00  0.00    -0.452 OA
ENDROOT
BRANCH   1  12
ATOM     12  C   UNL     1      13.910  55.107  33.755  1.00  0.00     0.025 A 
ATOM     13  C   UNL     1      12.780  55.407  34.530  1.00  0.00     0.016 A 
ATOM     14  C   UNL     1      12.309  54.495  35.477  1.00  0.00     0.051 A 
ATOM     15  C   UNL     1      12.967  53.277  35.674  1.00  0.00     0.157 A 
ATOM     16  C   UNL     1      14.584  53.891  33.970  1.00  0.00     0.062 A 
ATOM     17  C   UNL     1      14.112  52.974  34.921  1.00  0.00     0.158 A 
BRANCH  15  18
ATOM     18  O   UNL     1      12.471  52.385  36.624  1.00  0.00    -0.504 OA
ATOM     19  H   UNL     1      12.264  51.419  36.399  1.00  0.00     0.293 HD
ENDBRANCH  15  18
BRANCH  17  20
ATOM     20  O   UNL     1      14.782  51.768  35.123  1.00  0.00    -0.504 OA
ATOM     21  H   UNL     1      14.302  50.946  35.472  1.00  0.00     0.293 HD
ENDBRANCH  17  20
ENDBRANCH   1  12
BRANCH   2  22
ATOM     22  O   UNL     1      13.634  54.772  30.889  1.00  0.00    -0.502 OA
ATOM     23  H   UNL     1      14.121  53.898  30.733  1.00  0.00     0.293 HD
ENDBRANCH   2  22
BRANCH   6  24
ATOM     24  O   UNL     1      15.734  59.228  28.862  1.00  0.00    -0.507 OA
ATOM     25  H   UNL     1      16.272  59.839  28.266  1.00  0.00     0.293 HD
ENDBRANCH   6  24
BRANCH   8  26
ATOM     26  O   UNL     1      17.241  61.363  32.888  1.00  0.00    -0.508 OA
ATOM     27  H   UNL     1      17.203  61.495  33.892  1.00  0.00     0.293 HD
ENDBRANCH   8  26
TORSDOF 6
ENDMDL
MODEL 2
REMARK VINA RESULT:    -6.219      0.746      1.429
REMARK INTER + INTRA:          -7.759
REMARK INTER:                  -7.510
REMARK INTRA:                  -0.249
REMARK UNBOUND:                -0.268
REMARK SMILES O=c1c(O)c(-c2ccc(O)c(O)c2)oc2cc(O)cc(O)c12
REMARK SMILES IDX 5 1 3 2 2 3 1 4 22 5 20 6 19 7 17 8 16 9 15 10 14 11 6 12
REMARK SMILES IDX 7 13 8 14 9 15 13 16 11 17 10 18 12 20 4 22 21 24 18 26
REMARK H PARENT 10 19 12 21 4 23 21 25 18 27
REMARK Flexibility Score: inf
ROOT
ATOM      1  C   UNL     1      14.395  56.355  32.700  1.00  0.00     0.180 A 
ATOM      2  C   UNL     1      14.318  56.122  31.316  1.00  0.00     0.208 A 
ATOM      3  C   UNL     1      14.832  57.085  30.434  1.00  0.00     0.238 A 
ATOM      4  O   UNL     1      14.826  56.836  29.200  1.00  0.00    -0.285 OA
ATOM      5  C   UNL     1      15.365  58.295  30.942  1.00  0.00     0.111 A 
ATOM      6  C   UNL     1      15.872  59.360  30.138  1.00  0.00     0.134 A 
ATOM      7  C   UNL     1      16.474  60.465  30.755  1.00  0.00     0.093 A 
ATOM      8  C   UNL     1      16.528  60.572  32.146  1.00  0.00     0.123 A 
ATOM      9  C   UNL     1      15.987  59.563  32.940  1.00  0.00     0.094 A 
ATOM     10  C   UNL     1      15.415  58.432  32.355  1.00  0.00     0.146 A 
ATOM     11  O   UNL     1      14.930  57.485  33.149  1.00  0.00    -0.452 OA
ENDROOT
BRANCH   1  12
ATOM     12  C   UNL     1      13.888  55.381  33.694  1.00  0.00     0.025 A 
ATOM     13  C   UNL     1      14.799  54.583  34.405  1.00  0.00     0.016 A 
ATOM     14  C   UNL     1      14.341  53.643  35.331  1.00  0.00     0.051 A 
ATOM     15  C   UNL     1      12.971  53.475  35.551  1.00  0.00     0.157 A 
ATOM     16  C   UNL     1      12.509  55.196  33.900  1.00  0.00     0.062 A 
ATOM     17  C   UNL     1      12.049  54.251  34.830  1.00  0.00     0.158 A 
BRANCH  15  18
ATOM     18  O   UNL     1      12.545  52.531  36.485  1.00  0.00    -0.504 OA
ATOM     19  H   UNL     1      12.914  51.588  36.503  1.00  0.00     0.293 HD
ENDBRANCH  15  18
BRANCH  17  20
ATOM     20  O   UNL     1      10.681  54.078  35.034  1.00  0.00    -0.504 OA
ATOM     21  H   UNL     1      10.023  54.096  34.263  1.00  0.00     0.293 HD
ENDBRANCH  17  20
ENDBRANCH   1  12
BRANCH   2  22
ATOM     22  O   UNL     1      13.717  54.957  30.833  1.00  0.00    -0.502 OA
ATOM     23  H   UNL     1      12.860  54.971  30.293  1.00  0.00     0.293 HD
ENDBRANCH   2  22
BRANCH   6  24
ATOM     24  O   UNL     1      15.790  59.397  28.743  1.00  0.00    -0.507 OA
ATOM     25  H   UNL     1      16.581  59.401  28.117  1.00  0.00     0.293 HD
ENDBRANCH   6  24
BRANCH   8  26
ATOM     26  O   UNL     1      17.112  61.682  32.751  1.00  0.00    -0.508 OA
ATOM     27  H   UNL     1      16.874  61.957  33.697  1.00  0.00     0.293 HD
ENDBRANCH   8  26
TORSDOF 6
ENDMDL
MODEL 3
REMARK VINA RESULT:    -5.729      1.626      6.640
REMARK INTER + INTRA:          -7.170
REMARK INTER:                  -6.857
REMARK INTRA:                  -0.312
REMARK UNBOUND:                -0.268
REMARK SMILES O=c1c(O)c(-c2ccc(O)c(O)c2)oc2cc(O)cc(O)c12
REMARK SMILES IDX 5 1 3 2 2 3 1 4 22 5 20 6 19 7 17 8 16 9 15 10 14 11 6 12
REMARK SMILES IDX 7 13 8 14 9 15 13 16 11 17 10 18 12 20 4 22 21 24 18 26
REMARK H PARENT 10 19 12 21 4 23 21 25 18 27
REMARK Flexibility Score: inf
ROOT
ATOM      1  C   UNL     1      15.636  56.628  32.164  1.00  0.00     0.180 A 
ATOM      2  C   UNL     1      15.627  55.965  30.925  1.00  0.00     0.208 A 
ATOM      3  C   UNL     1      15.293  54.602  30.884  1.00  0.00     0.238 A 
ATOM      4  O   UNL     1      15.215  54.034  29.764  1.00  0.00    -0.285 OA
ATOM      5  C   UNL     1      15.027  53.905  32.088  1.00  0.00     0.111 A 
ATOM      6  C   UNL     1      14.721  52.512  32.169  1.00  0.00     0.134 A 
ATOM      7  C   UNL     1      14.370  51.954  33.405  1.00  0.00     0.093 A 
ATOM      8  C   UNL     1      14.376  52.722  34.571  1.00  0.00     0.123 A 
ATOM      9  C   UNL     1      14.725  54.069  34.510  1.00  0.00     0.094 A 
ATOM     10  C   UNL     1      15.044  54.664  33.288  1.00  0.00     0.146 A 
ATOM     11  O   UNL     1      15.350  55.956  33.273  1.00  0.00    -0.452 OA
ENDROOT
BRANCH   1  12
ATOM     12  C   UNL     1      15.964  58.067  32.286  1.00  0.00     0.025 A 
ATOM     13  C   UNL     1      17.308  58.463  32.380  1.00  0.00     0.016 A 
ATOM     14  C   UNL     1      17.639  59.813  32.518  1.00  0.00     0.051 A 
ATOM     15  C   UNL     1      16.635  60.785  32.580  1.00  0.00     0.157 A 
ATOM     16  C   UNL     1      14.956  59.043  32.371  1.00  0.00     0.062 A 
ATOM     17  C   UNL     1      15.287  60.400  32.510  1.00  0.00     0.158 A 
BRANCH  15  18
ATOM     18  O   UNL     1      16.997  62.125  32.714  1.00  0.00    -0.504 OA
ATOM     19  H   UNL     1      16.677  62.836  32.068  1.00  0.00     0.293 HD
ENDBRANCH  15  18
BRANCH  17  20
ATOM     20  O   UNL     1      14.281  61.362  32.586  1.00  0.00    -0.504 OA
ATOM     21  H   UNL     1      13.660  61.419  33.385  1.00  0.00     0.293 HD
ENDBRANCH  17  20
ENDBRANCH   1  12
BRANCH   2  22
ATOM     22  O   UNL     1      15.969  56.653  29.757  1.00  0.00    -0.502 OA
ATOM     23  H   UNL     1      16.698  57.356  29.734  1.00  0.00     0.293 HD
ENDBRANCH   2  22
BRANCH   6  24
ATOM     24  O   UNL     1      14.772  51.634  31.083  1.00  0.00    -0.507 OA
ATOM     25  H   UNL     1      15.015  50.657  31.140  1.00  0.00     0.293 HD
ENDBRANCH   6  24
BRANCH   8  26
ATOM     26  O   UNL     1      14.042  52.154  35.798  1.00  0.00    -0.508 OA
ATOM     27  H   UNL     1      14.539  51.350  36.162  1.00  0.00     0.293 HD
ENDBRANCH   8  26
TORSDOF 6
ENDMDL
MODEL 4
REMARK VINA RESULT:    -5.591      1.597      1.805
REMARK INTER + INTRA:          -7.004
REMARK INTER:                  -6.742
REMARK INTRA:                  -0.261
REMARK UNBOUND:                -0.268
REMARK SMILES O=c1c(O)c(-c2ccc(O)c(O)c2)oc2cc(O)cc(O)c12
REMARK SMILES IDX 5 1 3 2 2 3 1 4 22 5 20 6 19 7 17 8 16 9 15 10 14 11 6 12
REMARK SMILES IDX 7 13 8 14 9 15 13 16 11 17 10 18 12 20 4 22 21 24 18 26
REMARK H PARENT 10 19 12 21 4 23 21 25 18 27
REMARK Flexibility Score: inf
ROOT
ATOM      1  C   UNL     1      14.369  56.285  32.811  1.00  0.00     0.180 A 
ATOM      2  C   UNL     1      13.330  56.589  31.914  1.00  0.00     0.208 A 
ATOM      3  C   UNL     1      13.269  57.873  31.352  1.00  0.00     0.238 A 
ATOM      4  O   UNL     1      12.380  58.115  30.494  1.00  0.00    -0.285 OA
ATOM      5  C   UNL     1      14.213  58.857  31.736  1.00  0.00     0.111 A 
ATOM      6  C   UNL     1      14.220  60.205  31.264  1.00  0.00     0.134 A 
ATOM      7  C   UNL     1      15.267  61.059  31.631  1.00  0.00     0.093 A 
ATOM      8  C   UNL     1      16.272  60.635  32.502  1.00  0.00     0.123 A 
ATOM      9  C   UNL     1      16.245  59.339  33.011  1.00  0.00     0.094 A 
ATOM     10  C   UNL     1      15.235  58.451  32.635  1.00  0.00     0.146 A 
ATOM     11  O   UNL     1      15.260  57.218  33.127  1.00  0.00    -0.452 OA
ENDROOT
BRANCH   1  12
ATOM     12  C   UNL     1      14.509  54.949  33.434  1.00  0.00     0.025 A 
ATOM     13  C   UNL     1      13.658  54.587  34.490  1.00  0.00     0.016 A 
ATOM     14  C   UNL     1      13.786  53.340  35.106  1.00  0.00     0.051 A 
ATOM     15  C   UNL     1      14.774  52.443  34.688  1.00  0.00     0.157 A 
ATOM     16  C   UNL     1      15.516  54.054  33.029  1.00  0.00     0.062 A 
ATOM     17  C   UNL     1      15.646  52.802  33.648  1.00  0.00     0.158 A 
BRANCH  15  18
ATOM     18  O   UNL     1      14.876  51.204  35.320  1.00  0.00    -0.504 OA
ATOM     19  H   UNL     1      14.208  50.900  36.018  1.00  0.00     0.293 HD
ENDBRANCH  15  18
BRANCH  17  20
ATOM     20  O   UNL     1      16.643  51.918  33.236  1.00  0.00    -0.504 OA
ATOM     21  H   UNL     1      16.445  50.940  33.059  1.00  0.00     0.293 HD
ENDBRANCH  17  20
ENDBRANCH   1  12
BRANCH   2  22
ATOM     22  O   UNL     1      12.363  55.628  31.608  1.00  0.00    -0.502 OA
ATOM     23  H   UNL     1      12.451  55.000  30.819  1.00  0.00     0.293 HD
ENDBRANCH   2  22
BRANCH   6  24
ATOM     24  O   UNL     1      13.218  60.758  30.461  1.00  0.00    -0.507 OA
ATOM     25  H   UNL     1      12.395  61.229  30.806  1.00  0.00     0.293 HD
ENDBRANCH   6  24
BRANCH   8  26
ATOM     26  O   UNL     1      17.300  61.498  32.875  1.00  0.00    -0.508 OA
ATOM     27  H   UNL     1      17.728  61.447  33.793  1.00  0.00     0.293 HD
ENDBRANCH   8  26
TORSDOF 6
ENDMDL
MODEL 5
REMARK VINA RESULT:    -5.580      1.645      2.193
REMARK INTER + INTRA:          -6.990
REMARK INTER:                  -6.755
REMARK INTRA:                  -0.235
REMARK UNBOUND:                -0.268
REMARK SMILES O=c1c(O)c(-c2ccc(O)c(O)c2)oc2cc(O)cc(O)c12
REMARK SMILES IDX 5 1 3 2 2 3 1 4 22 5 20 6 19 7 17 8 16 9 15 10 14 11 6 12
REMARK SMILES IDX 7 13 8 14 9 15 13 16 11 17 10 18 12 20 4 22 21 24 18 26
REMARK H PARENT 10 19 12 21 4 23 21 25 18 27
REMARK Flexibility Score: inf
ROOT
ATOM      1  C   UNL     1      14.367  56.289  32.898  1.00  0.00     0.180 A 
ATOM      2  C   UNL     1      13.239  56.620  32.127  1.00  0.00     0.208 A 
ATOM      3  C   UNL     1      13.119  57.924  31.622  1.00  0.00     0.238 A 
ATOM      4  O   UNL     1      12.145  58.192  30.871  1.00  0.00    -0.285 OA
ATOM      5  C   UNL     1      14.098  58.897  31.940  1.00  0.00     0.111 A 
ATOM      6  C   UNL     1      14.054  60.261  31.520  1.00  0.00     0.134 A 
ATOM      7  C   UNL     1      15.133  61.107  31.806  1.00  0.00     0.093 A 
ATOM      8  C   UNL     1      16.224  60.656  32.551  1.00  0.00     0.123 A 
ATOM      9  C   UNL     1      16.251  59.342  33.012  1.00  0.00     0.094 A 
ATOM     10  C   UNL     1      15.208  58.464  32.711  1.00  0.00     0.146 A 
ATOM     11  O   UNL     1      15.285  57.214  33.153  1.00  0.00    -0.452 OA
ENDROOT
BRANCH   1  12
ATOM     12  C   UNL     1      14.572  54.931  33.454  1.00  0.00     0.025 A 
ATOM     13  C   UNL     1      15.529  54.085  32.871  1.00  0.00     0.016 A 
ATOM     14  C   UNL     1      15.724  52.793  33.366  1.00  0.00     0.051 A 
ATOM     15  C   UNL     1      14.958  52.322  34.437  1.00  0.00     0.157 A 
ATOM     16  C   UNL     1      13.788  54.449  34.516  1.00  0.00     0.062 A 
ATOM     17  C   UNL     1      13.982  53.151  35.013  1.00  0.00     0.158 A 
BRANCH  15  18
ATOM     18  O   UNL     1      15.178  51.029  34.910  1.00  0.00    -0.504 OA
ATOM     19  H   UNL     1      15.780  50.842  35.703  1.00  0.00     0.293 HD
ENDBRANCH  15  18
BRANCH  17  20
ATOM     20  O   UNL     1      13.205  52.683  36.071  1.00  0.00    -0.504 OA
ATOM     21  H   UNL     1      13.614  52.173  36.846  1.00  0.00     0.293 HD
ENDBRANCH  17  20
ENDBRANCH   1  12
BRANCH   2  22
ATOM     22  O   UNL     1      12.246  55.666  31.889  1.00  0.00    -0.502 OA
ATOM     23  H   UNL     1      12.445  54.767  31.468  1.00  0.00     0.293 HD
ENDBRANCH   2  22
BRANCH   6  24
ATOM     24  O   UNL     1      12.973  60.839  30.847  1.00  0.00    -0.507 OA
ATOM     25  H   UNL     1      12.465  61.652  31.161  1.00  0.00     0.293 HD
ENDBRANCH   6  24
BRANCH   8  26
ATOM     26  O   UNL     1      17.285  61.509  32.846  1.00  0.00    -0.508 OA
ATOM     27  H   UNL     1      17.499  62.310  32.264  1.00  0.00     0.293 HD
ENDBRANCH   8  26
TORSDOF 6
ENDMDL
MODEL 6
REMARK VINA RESULT:    -5.522      1.747      6.983
REMARK INTER + INTRA:          -6.920
REMARK INTER:                  -6.694
REMARK INTRA:                  -0.226
REMARK UNBOUND:                -0.268
REMARK SMILES O=c1c(O)c(-c2ccc(O)c(O)c2)oc2cc(O)cc(O)c12
REMARK SMILES IDX 5 1 3 2 2 3 1 4 22 5 20 6 19 7 17 8 16 9 15 10 14 11 6 12
REMARK SMILES IDX 7 13 8 14 9 15 13 16 11 17 10 18 12 20 4 22 21 24 18 26
REMARK H PARENT 10 19 12 21 4 23 21 25 18 27
REMARK Flexibility Score: inf
ROOT
ATOM      1  C   UNL     1      14.784  57.368  32.764  1.00  0.00     0.180 A 
ATOM      2  C   UNL     1      13.422  57.356  33.113  1.00  0.00     0.208 A 
ATOM      3  C   UNL     1      12.846  56.160  33.568  1.00  0.00     0.238 A 
ATOM      4  O   UNL     1      11.646  56.175  33.948  1.00  0.00    -0.285 OA
ATOM      5  C   UNL     1      13.622  54.976  33.615  1.00  0.00     0.111 A 
ATOM      6  C   UNL     1      13.129  53.698  34.018  1.00  0.00     0.134 A 
ATOM      7  C   UNL     1      14.017  52.620  34.128  1.00  0.00     0.093 A 
ATOM      8  C   UNL     1      15.364  52.758  33.789  1.00  0.00     0.123 A 
ATOM      9  C   UNL     1      15.843  53.988  33.344  1.00  0.00     0.094 A 
ATOM     10  C   UNL     1      14.992  55.091  33.259  1.00  0.00     0.146 A 
ATOM     11  O   UNL     1      15.495  56.250  32.851  1.00  0.00    -0.452 OA
ENDROOT
BRANCH   1  12
ATOM     12  C   UNL     1      15.467  58.593  32.290  1.00  0.00     0.025 A 
ATOM     13  C   UNL     1      16.362  59.258  33.142  1.00  0.00     0.016 A 
ATOM     14  C   UNL     1      17.002  60.427  32.723  1.00  0.00     0.051 A 
ATOM     15  C   UNL     1      16.745  60.958  31.455  1.00  0.00     0.157 A 
ATOM     16  C   UNL     1      15.193  59.140  31.023  1.00  0.00     0.062 A 
ATOM     17  C   UNL     1      15.834  60.315  30.601  1.00  0.00     0.158 A 
BRANCH  15  18
ATOM     18  O   UNL     1      17.400  62.125  31.064  1.00  0.00    -0.504 OA
ATOM     19  H   UNL     1      17.252  62.546  30.154  1.00  0.00     0.293 HD
ENDBRANCH  15  18
BRANCH  17  20
ATOM     20  O   UNL     1      15.562  60.847  29.342  1.00  0.00    -0.504 OA
ATOM     21  H   UNL     1      15.132  61.758  29.232  1.00  0.00     0.293 HD
ENDBRANCH  17  20
ENDBRANCH   1  12
BRANCH   2  22
ATOM     22  O   UNL     1      12.654  58.517  32.984  1.00  0.00    -0.502 OA
ATOM     23  H   UNL     1      11.683  58.497  32.698  1.00  0.00     0.293 HD
ENDBRANCH   2  22
BRANCH   6  24
ATOM     24  O   UNL     1      11.786  53.427  34.293  1.00  0.00    -0.507 OA
ATOM     25  H   UNL     1      11.077  54.126  34.456  1.00  0.00     0.293 HD
ENDBRANCH   6  24
BRANCH   8  26
ATOM     26  O   UNL     1      16.236  51.676  33.885  1.00  0.00    -0.508 OA
ATOM     27  H   UNL     1      15.909  50.722  33.786  1.00  0.00     0.293 HD
ENDBRANCH   8  26
TORSDOF 6
ENDMDL
MODEL 7
REMARK VINA RESULT:    -5.433      3.152      7.191
REMARK INTER + INTRA:          -6.812
REMARK INTER:                  -6.510
REMARK INTRA:                  -0.303
REMARK UNBOUND:                -0.268
REMARK SMILES O=c1c(O)c(-c2ccc(O)c(O)c2)oc2cc(O)cc(O)c12
REMARK SMILES IDX 5 1 3 2 2 3 1 4 22 5 20 6 19 7 17 8 16 9 15 10 14 11 6 12
REMARK SMILES IDX 7 13 8 14 9 15 13 16 11 17 10 18 12 20 4 22 21 24 18 26
REMARK H PARENT 10 19 12 21 4 23 21 25 18 27
REMARK Flexibility Score: inf
ROOT
ATOM      1  C   UNL     1      15.247  54.376  31.870  1.00  0.00     0.180 A 
ATOM      2  C   UNL     1      15.425  53.458  32.920  1.00  0.00     0.208 A 
ATOM      3  C   UNL     1      15.165  52.098  32.687  1.00  0.00     0.238 A 
ATOM      4  O   UNL     1      15.398  51.274  33.609  1.00  0.00    -0.285 OA
ATOM      5  C   UNL     1      14.676  51.679  31.426  1.00  0.00     0.111 A 
ATOM      6  C   UNL     1      14.336  50.332  31.093  1.00  0.00     0.134 A 
ATOM      7  C   UNL     1      13.964  50.019  29.779  1.00  0.00     0.093 A 
ATOM      8  C   UNL     1      13.858  51.013  28.804  1.00  0.00     0.123 A 
ATOM      9  C   UNL     1      14.135  52.338  29.132  1.00  0.00     0.094 A 
ATOM     10  C   UNL     1      14.545  52.676  30.423  1.00  0.00     0.146 A 
ATOM     11  O   UNL     1      14.819  53.948  30.687  1.00  0.00    -0.452 OA
ENDROOT
BRANCH   1  12
ATOM     12  C   UNL     1      15.514  55.823  32.033  1.00  0.00     0.025 A 
ATOM     13  C   UNL     1      14.532  56.645  32.608  1.00  0.00     0.016 A 
ATOM     14  C   UNL     1      14.755  58.017  32.752  1.00  0.00     0.051 A 
ATOM     15  C   UNL     1      15.952  58.590  32.311  1.00  0.00     0.157 A 
ATOM     16  C   UNL     1      16.708  56.404  31.570  1.00  0.00     0.062 A 
ATOM     17  C   UNL     1      16.933  57.781  31.713  1.00  0.00     0.158 A 
BRANCH  15  18
ATOM     18  O   UNL     1      16.146  59.961  32.471  1.00  0.00    -0.504 OA
ATOM     19  H   UNL     1      15.395  60.629  32.349  1.00  0.00     0.293 HD
ENDBRANCH  15  18
BRANCH  17  20
ATOM     20  O   UNL     1      18.122  58.348  31.258  1.00  0.00    -0.504 OA
ATOM     21  H   UNL     1      18.215  59.348  31.119  1.00  0.00     0.293 HD
ENDBRANCH  17  20
ENDBRANCH   1  12
BRANCH   2  22
ATOM     22  O   UNL     1      15.833  53.903  34.180  1.00  0.00    -0.502 OA
ATOM     23  H   UNL     1      16.191  53.274  34.889  1.00  0.00     0.293 HD
ENDBRANCH   2  22
BRANCH   6  24
ATOM     24  O   UNL     1      14.323  49.278  32.010  1.00  0.00    -0.507 OA
ATOM     25  H   UNL     1      15.015  48.546  32.060  1.00  0.00     0.293 HD
ENDBRANCH   6  24
BRANCH   8  26
ATOM     26  O   UNL     1      13.470  50.694  27.504  1.00  0.00    -0.508 OA
ATOM     27  H   UNL     1      13.278  49.739  27.227  1.00  0.00     0.293 HD
ENDBRANCH   8  26
TORSDOF 6
ENDMDL
MODEL 8
REMARK VINA RESULT:    -5.185      4.743      6.427
REMARK INTER + INTRA:          -6.514
REMARK INTER:                  -6.212
REMARK INTRA:                  -0.303
REMARK UNBOUND:                -0.268
REMARK SMILES O=c1c(O)c(-c2ccc(O)c(O)c2)oc2cc(O)cc(O)c12
REMARK SMILES IDX 5 1 3 2 2 3 1 4 22 5 20 6 19 7 17 8 16 9 15 10 14 11 6 12
REMARK SMILES IDX 7 13 8 14 9 15 13 16 11 17 10 18 12 20 4 22 21 24 18 26
REMARK H PARENT 10 19 12 21 4 23 21 25 18 27
REMARK Flexibility Score: inf
ROOT
ATOM      1  C   UNL     1      14.878  50.560  31.357  1.00  0.00     0.180 A 
ATOM      2  C   UNL     1      14.757  51.375  30.219  1.00  0.00     0.208 A 
ATOM      3  C   UNL     1      14.770  52.770  30.375  1.00  0.00     0.238 A 
ATOM      4  O   UNL     1      14.736  53.493  29.345  1.00  0.00    -0.285 OA
ATOM      5  C   UNL     1      14.849  53.334  31.672  1.00  0.00     0.111 A 
ATOM      6  C   UNL     1      14.825  54.734  31.952  1.00  0.00     0.134 A 
ATOM      7  C   UNL     1      15.017  55.178  33.267  1.00  0.00     0.093 A 
ATOM      8  C   UNL     1      15.167  54.273  34.319  1.00  0.00     0.123 A 
ATOM      9  C   UNL     1      15.137  52.904  34.063  1.00  0.00     0.094 A 
ATOM     10  C   UNL     1      14.985  52.430  32.759  1.00  0.00     0.146 A 
ATOM     11  O   UNL     1      14.983  51.117  32.558  1.00  0.00    -0.452 OA
ENDROOT
BRANCH   1  12
ATOM     12  C   UNL     1      14.887  49.081  31.272  1.00  0.00     0.025 A 
ATOM     13  C   UNL     1      13.739  48.363  31.639  1.00  0.00     0.016 A 
ATOM     14  C   UNL     1      13.732  46.967  31.586  1.00  0.00     0.051 A 
ATOM     15  C   UNL     1      14.873  46.268  31.182  1.00  0.00     0.157 A 
ATOM     16  C   UNL     1      16.041  48.377  30.887  1.00  0.00     0.062 A 
ATOM     17  C   UNL     1      16.036  46.975  30.835  1.00  0.00     0.158 A 
BRANCH  15  18
ATOM     18  O   UNL     1      14.835  44.875  31.137  1.00  0.00    -0.504 OA
ATOM     19  H   UNL     1      14.213  44.335  31.725  1.00  0.00     0.293 HD
ENDBRANCH  15  18
BRANCH  17  20
ATOM     20  O   UNL     1      17.183  46.284  30.445  1.00  0.00    -0.504 OA
ATOM     21  H   UNL     1      17.476  45.435  30.915  1.00  0.00     0.293 HD
ENDBRANCH  17  20
ENDBRANCH   1  12
BRANCH   2  22
ATOM     22  O   UNL     1      14.602  50.799  28.955  1.00  0.00    -0.502 OA
ATOM     23  H   UNL     1      14.845  51.287  28.102  1.00  0.00     0.293 HD
ENDBRANCH   2  22
BRANCH   6  24
ATOM     24  O   UNL     1      14.594  55.721  30.990  1.00  0.00    -0.507 OA
ATOM     25  H   UNL     1      14.409  56.692  31.192  1.00  0.00     0.293 HD
ENDBRANCH   6  24
BRANCH   8  26
ATOM     26  O   UNL     1      15.340  54.723  35.626  1.00  0.00    -0.508 OA
ATOM     27  H   UNL     1      16.071  55.381  35.867  1.00  0.00     0.293 HD
ENDBRANCH   8  26
TORSDOF 6
ENDMDL
MODEL 9
REMARK VINA RESULT:    -5.180      6.024      9.988
REMARK INTER + INTRA:          -6.508
REMARK INTER:                  -6.206
REMARK INTRA:                  -0.303
REMARK UNBOUND:                -0.268
REMARK SMILES O=c1c(O)c(-c2ccc(O)c(O)c2)oc2cc(O)cc(O)c12
REMARK SMILES IDX 5 1 3 2 2 3 1 4 22 5 20 6 19 7 17 8 16 9 15 10 14 11 6 12
REMARK SMILES IDX 7 13 8 14 9 15 13 16 11 17 10 18 12 20 4 22 21 24 18 26
REMARK H PARENT 10 19 12 21 4 23 21 25 18 27
REMARK Flexibility Score: inf
ROOT
ATOM      1  C   UNL     1      15.048  49.386  31.567  1.00  0.00     0.180 A 
ATOM      2  C   UNL     1      15.776  48.864  30.485  1.00  0.00     0.208 A 
ATOM      3  C   UNL     1      15.663  47.497  30.183  1.00  0.00     0.238 A 
ATOM      4  O   UNL     1      16.260  47.052  29.169  1.00  0.00    -0.285 OA
ATOM      5  C   UNL     1      14.867  46.658  31.001  1.00  0.00     0.111 A 
ATOM      6  C   UNL     1      14.716  45.250  30.816  1.00  0.00     0.134 A 
ATOM      7  C   UNL     1      13.817  44.541  31.623  1.00  0.00     0.093 A 
ATOM      8  C   UNL     1      13.114  45.176  32.649  1.00  0.00     0.123 A 
ATOM      9  C   UNL     1      13.296  46.538  32.873  1.00  0.00     0.094 A 
ATOM     10  C   UNL     1      14.156  47.281  32.061  1.00  0.00     0.146 A 
ATOM     11  O   UNL     1      14.283  48.581  32.296  1.00  0.00    -0.452 OA
ENDROOT
BRANCH   1  12
ATOM     12  C   UNL     1      15.104  50.819  31.938  1.00  0.00     0.025 A 
ATOM     13  C   UNL     1      15.858  51.214  33.054  1.00  0.00     0.016 A 
ATOM     14  C   UNL     1      15.908  52.557  33.434  1.00  0.00     0.051 A 
ATOM     15  C   UNL     1      15.194  53.522  32.718  1.00  0.00     0.157 A 
ATOM     16  C   UNL     1      14.369  51.787  31.231  1.00  0.00     0.062 A 
ATOM     17  C   UNL     1      14.417  53.137  31.613  1.00  0.00     0.158 A 
BRANCH  15  18
ATOM     18  O   UNL     1      15.266  54.855  33.120  1.00  0.00    -0.504 OA
ATOM     19  H   UNL     1      15.717  55.564  32.554  1.00  0.00     0.293 HD
ENDBRANCH  15  18
BRANCH  17  20
ATOM     20  O   UNL     1      13.692  54.092  30.902  1.00  0.00    -0.504 OA
ATOM     21  H   UNL     1      13.209  53.860  30.042  1.00  0.00     0.293 HD
ENDBRANCH  17  20
ENDBRANCH   1  12
BRANCH   2  22
ATOM     22  O   UNL     1      16.617  49.693  29.738  1.00  0.00    -0.502 OA
ATOM     23  H   UNL     1      16.877  50.623  30.046  1.00  0.00     0.293 HD
ENDBRANCH   2  22
BRANCH   6  24
ATOM     24  O   UNL     1      15.435  44.501  29.880  1.00  0.00    -0.507 OA
ATOM     25  H   UNL     1      15.239  43.543  29.633  1.00  0.00     0.293 HD
ENDBRANCH   6  24
BRANCH   8  26
ATOM     26  O   UNL     1      12.236  44.458  33.458  1.00  0.00    -0.508 OA
ATOM     27  H   UNL     1      11.574  43.798  33.067  1.00  0.00     0.293 HD
ENDBRANCH   8  26
TORSDOF 6
ENDMDL
