MODEL 1
REMARK VINA RESULT:    -3.701      0.000      0.000
REMARK INTER + INTRA:          -7.381
REMARK INTER:                  -6.297
REMARK INTRA:                  -1.084
REMARK UNBOUND:                -1.084
REMARK SMILES CCCCCCCCCCCCCC(=O)[O-]
REMARK SMILES IDX 8 1 9 2 10 3 11 4 12 5 13 6 14 7 15 8 16 9 7 10 6 11 5 12
REMARK SMILES IDX 4 13 3 14 2 15 1 16
REMARK H PARENT
REMARK Flexibility Score: inf
ROOT
ATOM      1  C   UNL     1      33.016  38.149  25.954  1.00  0.00     0.000 C 
ENDROOT
BRANCH   1   2
ATOM      2  C   UNL     1      34.351  37.816  26.654  1.00  0.00     0.000 C 
BRANCH   2   3
ATOM      3  C   UNL     1      35.073  39.078  27.158  1.00  0.00     0.000 C 
BRANCH   3   4
ATOM      4  C   UNL     1      35.816  39.832  26.039  1.00  0.00     0.000 C 
BRANCH   4   5
ATOM      5  C   UNL     1      37.304  40.108  26.321  1.00  0.00     0.006 C 
BRANCH   5   6
ATOM      6  C   UNL     1      38.179  40.022  25.064  1.00  0.00     0.053 C 
BRANCH   6   7
ATOM      7  C   UNL     1      38.360  41.378  24.459  1.00  0.00     0.041 C 
ATOM      8  O   UNL     1      39.369  42.073  24.750  1.00  0.00    -0.550 OA
ATOM      9  O   UNL     1      37.440  41.855  23.533  1.00  0.00    -0.550 OA
ENDBRANCH   6   7
ENDBRANCH   5   6
ENDBRANCH   4   5
ENDBRANCH   3   4
ENDBRANCH   2   3
ENDBRANCH   1   2
BRANCH   1  10
ATOM     10  C   UNL     1      32.177  39.207  26.690  1.00  0.00     0.000 C 
BRANCH  10  11
ATOM     11  C   UNL     1      31.827  40.412  25.803  1.00  0.00    -0.000 C 
BRANCH  11  12
ATOM     12  C   UNL     1      32.430  40.305  24.393  1.00  0.00    -0.000 C 
BRANCH  12  13
ATOM     13  C   UNL     1      33.101  41.612  23.931  1.00  0.00    -0.000 C 
BRANCH  13  14
ATOM     14  C   UNL     1      32.407  42.215  22.691  1.00  0.00    -0.000 C 
BRANCH  14  15
ATOM     15  C   UNL     1      30.929  41.815  22.558  1.00  0.00    -0.003 C 
ATOM     16  C   UNL     1      30.597  41.191  21.204  1.00  0.00     0.004 C 
ENDBRANCH  14  15
ENDBRANCH  13  14
ENDBRANCH  12  13
ENDBRANCH  11  12
ENDBRANCH  10  11
ENDBRANCH   1  10
TORSDOF 12
ENDMDL
MODEL 2
REMARK VINA RESULT:    -3.467      2.082      5.017
REMARK INTER + INTRA:          -6.983
REMARK INTER:                  -5.616
REMARK INTRA:                  -1.367
REMARK UNBOUND:                -1.084
REMARK SMILES CCCCCCCCCCCCCC(=O)[O-]
REMARK SMILES IDX 8 1 9 2 10 3 11 4 12 5 13 6 14 7 15 8 16 9 7 10 6 11 5 12
REMARK SMILES IDX 4 13 3 14 2 15 1 16
REMARK H PARENT
REMARK Flexibility Score: inf
ROOT
ATOM      1  C   UNL     1      34.318  37.743  26.530  1.00  0.00     0.000 C 
ENDROOT
BRANCH   1   2
ATOM      2  C   UNL     1      32.914  37.998  25.938  1.00  0.00     0.000 C 
BRANCH   2   3
ATOM      3  C   UNL     1      32.131  39.053  26.738  1.00  0.00     0.000 C 
BRANCH   3   4
ATOM      4  C   UNL     1      31.854  40.336  25.931  1.00  0.00     0.000 C 
BRANCH   4   5
ATOM      5  C   UNL     1      32.497  40.373  24.533  1.00  0.00     0.006 C 
BRANCH   5   6
ATOM      6  C   UNL     1      33.523  41.503  24.374  1.00  0.00     0.053 C 
BRANCH   6   7
ATOM      7  C   UNL     1      33.228  42.310  23.150  1.00  0.00     0.041 C 
ATOM      8  O   UNL     1      32.225  42.039  22.439  1.00  0.00    -0.550 OA
ATOM      9  O   UNL     1      34.032  43.395  22.822  1.00  0.00    -0.550 OA
ENDBRANCH   6   7
ENDBRANCH   5   6
ENDBRANCH   4   5
ENDBRANCH   3   4
ENDBRANCH   2   3
ENDBRANCH   1   2
BRANCH   1  10
ATOM     10  C   UNL     1      34.585  38.505  27.839  1.00  0.00     0.000 C 
BRANCH  10  11
ATOM     11  C   UNL     1      35.557  39.681  27.655  1.00  0.00    -0.000 C 
BRANCH  11  12
ATOM     12  C   UNL     1      36.205  39.702  26.262  1.00  0.00    -0.000 C 
BRANCH  12  13
ATOM     13  C   UNL     1      37.602  40.350  26.264  1.00  0.00    -0.000 C 
BRANCH  13  14
ATOM     14  C   UNL     1      38.215  40.415  24.849  1.00  0.00    -0.000 C 
BRANCH  14  15
ATOM     15  C   UNL     1      38.397  41.848  24.322  1.00  0.00    -0.003 C 
ATOM     16  C   UNL     1      37.384  42.222  23.242  1.00  0.00     0.004 C 
ENDBRANCH  14  15
ENDBRANCH  13  14
ENDBRANCH  12  13
ENDBRANCH  11  12
ENDBRANCH  10  11
ENDBRANCH   1  10
TORSDOF 12
ENDMDL
MODEL 3
REMARK VINA RESULT:    -3.327      1.115      1.853
REMARK INTER + INTRA:          -6.744
REMARK INTER:                  -5.510
REMARK INTRA:                  -1.234
REMARK UNBOUND:                -1.084
REMARK SMILES CCCCCCCCCCCCCC(=O)[O-]
REMARK SMILES IDX 8 1 9 2 10 3 11 4 12 5 13 6 14 7 15 8 16 9 7 10 6 11 5 12
REMARK SMILES IDX 4 13 3 14 2 15 1 16
REMARK H PARENT
REMARK Flexibility Score: inf
ROOT
ATOM      1  C   UNL     1      34.696  38.357  25.937  1.00  0.00     0.000 C 
ENDROOT
BRANCH   1   2
ATOM      2  C   UNL     1      35.219  39.297  27.046  1.00  0.00     0.000 C 
BRANCH   2   3
ATOM      3  C   UNL     1      36.116  40.414  26.483  1.00  0.00     0.000 C 
BRANCH   3   4
ATOM      4  C   UNL     1      37.312  39.875  25.677  1.00  0.00     0.000 C 
BRANCH   4   5
ATOM      5  C   UNL     1      38.188  40.954  25.015  1.00  0.00     0.006 C 
BRANCH   5   6
ATOM      6  C   UNL     1      37.462  41.711  23.895  1.00  0.00     0.053 C 
BRANCH   6   7
ATOM      7  C   UNL     1      38.287  42.867  23.426  1.00  0.00     0.041 C 
ATOM      8  O   UNL     1      39.291  43.240  24.088  1.00  0.00    -0.550 OA
ATOM      9  O   UNL     1      37.976  43.503  22.230  1.00  0.00    -0.550 OA
ENDBRANCH   6   7
ENDBRANCH   5   6
ENDBRANCH   4   5
ENDBRANCH   3   4
ENDBRANCH   2   3
ENDBRANCH   1   2
BRANCH   1  10
ATOM     10  C   UNL     1      33.164  38.343  25.807  1.00  0.00     0.000 C 
BRANCH  10  11
ATOM     11  C   UNL     1      32.495  39.523  26.530  1.00  0.00    -0.000 C 
BRANCH  11  12
ATOM     12  C   UNL     1      31.785  40.485  25.564  1.00  0.00    -0.000 C 
BRANCH  12  13
ATOM     13  C   UNL     1      32.541  40.660  24.235  1.00  0.00    -0.000 C 
BRANCH  13  14
ATOM     14  C   UNL     1      33.584  41.796  24.304  1.00  0.00    -0.000 C 
BRANCH  14  15
ATOM     15  C   UNL     1      33.615  42.681  23.047  1.00  0.00    -0.003 C 
ATOM     16  C   UNL     1      32.421  42.452  22.124  1.00  0.00     0.004 C 
ENDBRANCH  14  15
ENDBRANCH  13  14
ENDBRANCH  12  13
ENDBRANCH  11  12
ENDBRANCH  10  11
ENDBRANCH   1  10
TORSDOF 12
ENDMDL
MODEL 4
REMARK VINA RESULT:    -3.319      2.966      6.349
REMARK INTER + INTRA:          -6.731
REMARK INTER:                  -5.308
REMARK INTRA:                  -1.423
REMARK UNBOUND:                -1.084
REMARK SMILES CCCCCCCCCCCCCC(=O)[O-]
REMARK SMILES IDX 8 1 9 2 10 3 11 4 12 5 13 6 14 7 15 8 16 9 7 10 6 11 5 12
REMARK SMILES IDX 4 13 3 14 2 15 1 16
REMARK H PARENT
REMARK Flexibility Score: inf
ROOT
ATOM      1  C   UNL     1      37.365  42.170  23.455  1.00  0.00     0.000 C 
ENDROOT
BRANCH   1   2
ATOM      2  C   UNL     1      36.092  43.020  23.657  1.00  0.00     0.000 C 
BRANCH   2   3
ATOM      3  C   UNL     1      34.915  42.183  24.188  1.00  0.00     0.000 C 
BRANCH   3   4
ATOM      4  C   UNL     1      33.542  42.744  23.773  1.00  0.00     0.000 C 
BRANCH   4   5
ATOM      5  C   UNL     1      32.478  41.681  23.449  1.00  0.00     0.006 C 
BRANCH   5   6
ATOM      6  C   UNL     1      32.534  40.469  24.389  1.00  0.00     0.053 C 
BRANCH   6   7
ATOM      7  C   UNL     1      31.526  40.611  25.485  1.00  0.00     0.041 C 
ATOM      8  O   UNL     1      30.590  41.447  25.382  1.00  0.00    -0.550 OA
ATOM      9  O   UNL     1      31.590  39.783  26.599  1.00  0.00    -0.550 OA
ENDBRANCH   6   7
ENDBRANCH   5   6
ENDBRANCH   4   5
ENDBRANCH   3   4
ENDBRANCH   2   3
ENDBRANCH   1   2
BRANCH   1  10
ATOM     10  C   UNL     1      38.368  42.270  24.616  1.00  0.00     0.000 C 
BRANCH  10  11
ATOM     11  C   UNL     1      38.840  40.895  25.115  1.00  0.00    -0.000 C 
BRANCH  11  12
ATOM     12  C   UNL     1      37.674  39.985  25.534  1.00  0.00    -0.000 C 
BRANCH  12  13
ATOM     13  C   UNL     1      37.062  40.387  26.888  1.00  0.00    -0.000 C 
BRANCH  13  14
ATOM     14  C   UNL     1      35.644  39.807  27.080  1.00  0.00    -0.000 C 
BRANCH  14  15
ATOM     15  C   UNL     1      35.247  38.783  26.004  1.00  0.00    -0.003 C 
ATOM     16  C   UNL     1      34.328  37.685  26.533  1.00  0.00     0.004 C 
ENDBRANCH  14  15
ENDBRANCH  13  14
ENDBRANCH  12  13
ENDBRANCH  11  12
ENDBRANCH  10  11
ENDBRANCH   1  10
TORSDOF 12
ENDMDL
MODEL 5
REMARK VINA RESULT:    -3.316      1.377      2.562
REMARK INTER + INTRA:          -6.726
REMARK INTER:                  -5.747
REMARK INTRA:                  -0.979
REMARK UNBOUND:                -1.084
REMARK SMILES CCCCCCCCCCCCCC(=O)[O-]
REMARK SMILES IDX 8 1 9 2 10 3 11 4 12 5 13 6 14 7 15 8 16 9 7 10 6 11 5 12
REMARK SMILES IDX 4 13 3 14 2 15 1 16
REMARK H PARENT
REMARK Flexibility Score: inf
ROOT
ATOM      1  C   UNL     1      31.704  40.429  25.812  1.00  0.00     0.000 C 
ENDROOT
BRANCH   1   2
ATOM      2  C   UNL     1      32.449  39.201  26.380  1.00  0.00     0.000 C 
BRANCH   2   3
ATOM      3  C   UNL     1      33.451  38.614  25.370  1.00  0.00     0.000 C 
BRANCH   3   4
ATOM      4  C   UNL     1      34.860  38.425  25.963  1.00  0.00     0.000 C 
BRANCH   4   5
ATOM      5  C   UNL     1      35.445  39.670  26.655  1.00  0.00     0.006 C 
BRANCH   5   6
ATOM      6  C   UNL     1      36.886  39.974  26.226  1.00  0.00     0.053 C 
BRANCH   6   7
ATOM      7  C   UNL     1      36.902  40.996  25.134  1.00  0.00     0.041 C 
ATOM      8  O   UNL     1      37.947  41.183  24.457  1.00  0.00    -0.550 OA
ATOM      9  O   UNL     1      35.748  41.707  24.830  1.00  0.00    -0.550 OA
ENDBRANCH   6   7
ENDBRANCH   5   6
ENDBRANCH   4   5
ENDBRANCH   3   4
ENDBRANCH   2   3
ENDBRANCH   1   2
BRANCH   1  10
ATOM     10  C   UNL     1      32.083  40.768  24.361  1.00  0.00     0.000 C 
BRANCH  10  11
ATOM     11  C   UNL     1      31.563  42.144  23.916  1.00  0.00    -0.000 C 
BRANCH  11  12
ATOM     12  C   UNL     1      30.318  42.046  23.021  1.00  0.00    -0.000 C 
BRANCH  12  13
ATOM     13  C   UNL     1      30.660  42.052  21.520  1.00  0.00    -0.000 C 
BRANCH  13  14
ATOM     14  C   UNL     1      31.491  43.290  21.118  1.00  0.00    -0.000 C 
BRANCH  14  15
ATOM     15  C   UNL     1      32.925  42.951  20.677  1.00  0.00    -0.003 C 
ATOM     16  C   UNL     1      33.991  43.598  21.559  1.00  0.00     0.004 C 
ENDBRANCH  14  15
ENDBRANCH  13  14
ENDBRANCH  12  13
ENDBRANCH  11  12
ENDBRANCH  10  11
ENDBRANCH   1  10
TORSDOF 12
ENDMDL
MODEL 6
REMARK VINA RESULT:    -3.292      3.252      5.774
REMARK INTER + INTRA:          -6.686
REMARK INTER:                  -5.304
REMARK INTRA:                  -1.381
REMARK UNBOUND:                -1.084
REMARK SMILES CCCCCCCCCCCCCC(=O)[O-]
REMARK SMILES IDX 8 1 9 2 10 3 11 4 12 5 13 6 14 7 15 8 16 9 7 10 6 11 5 12
REMARK SMILES IDX 4 13 3 14 2 15 1 16
REMARK H PARENT
REMARK Flexibility Score: inf
ROOT
ATOM      1  C   UNL     1      33.069  38.341  25.735  1.00  0.00     0.000 C 
ENDROOT
BRANCH   1   2
ATOM      2  C   UNL     1      32.524  39.786  25.726  1.00  0.00     0.000 C 
BRANCH   2   3
ATOM      3  C   UNL     1      32.725  40.472  24.363  1.00  0.00     0.000 C 
BRANCH   3   4
ATOM      4  C   UNL     1      31.548  41.383  23.969  1.00  0.00     0.000 C 
BRANCH   4   5
ATOM      5  C   UNL     1      31.924  42.580  23.078  1.00  0.00     0.006 C 
BRANCH   5   6
ATOM      6  C   UNL     1      32.062  42.205  21.596  1.00  0.00     0.053 C 
BRANCH   6   7
ATOM      7  C   UNL     1      30.750  41.737  21.051  1.00  0.00     0.041 C 
ATOM      8  O   UNL     1      29.843  42.569  20.784  1.00  0.00    -0.550 OA
ATOM      9  O   UNL     1      30.547  40.388  20.789  1.00  0.00    -0.550 OA
ENDBRANCH   6   7
ENDBRANCH   5   6
ENDBRANCH   4   5
ENDBRANCH   3   4
ENDBRANCH   2   3
ENDBRANCH   1   2
BRANCH   1  10
ATOM     10  C   UNL     1      34.540  38.235  26.168  1.00  0.00     0.000 C 
BRANCH  10  11
ATOM     11  C   UNL     1      34.837  39.009  27.463  1.00  0.00    -0.000 C 
BRANCH  11  12
ATOM     12  C   UNL     1      36.012  39.988  27.312  1.00  0.00    -0.000 C 
BRANCH  12  13
ATOM     13  C   UNL     1      36.479  40.139  25.853  1.00  0.00    -0.000 C 
BRANCH  13  14
ATOM     14  C   UNL     1      36.929  41.580  25.532  1.00  0.00    -0.000 C 
BRANCH  14  15
ATOM     15  C   UNL     1      35.780  42.499  25.087  1.00  0.00    -0.003 C 
ATOM     16  C   UNL     1      35.651  42.604  23.569  1.00  0.00     0.004 C 
ENDBRANCH  14  15
ENDBRANCH  13  14
ENDBRANCH  12  13
ENDBRANCH  11  12
ENDBRANCH  10  11
ENDBRANCH   1  10
TORSDOF 12
ENDMDL
MODEL 7
REMARK VINA RESULT:    -3.236      2.775      5.969
REMARK INTER + INTRA:          -6.591
REMARK INTER:                  -5.159
REMARK INTRA:                  -1.432
REMARK UNBOUND:                -1.084
REMARK SMILES CCCCCCCCCCCCCC(=O)[O-]
REMARK SMILES IDX 8 1 9 2 10 3 11 4 12 5 13 6 14 7 15 8 16 9 7 10 6 11 5 12
REMARK SMILES IDX 4 13 3 14 2 15 1 16
REMARK H PARENT
REMARK Flexibility Score: inf
ROOT
ATOM      1  C   UNL     1      37.684  41.915  23.889  1.00  0.00     0.000 C 
ENDROOT
BRANCH   1   2
ATOM      2  C   UNL     1      37.127  43.210  24.521  1.00  0.00     0.000 C 
BRANCH   2   3
ATOM      3  C   UNL     1      35.601  43.151  24.711  1.00  0.00     0.000 C 
BRANCH   3   4
ATOM      4  C   UNL     1      34.855  42.688  23.446  1.00  0.00     0.000 C 
BRANCH   4   5
ATOM      5  C   UNL     1      33.405  42.227  23.681  1.00  0.00     0.006 C 
BRANCH   5   6
ATOM      6  C   UNL     1      32.379  43.045  22.884  1.00  0.00     0.053 C 
BRANCH   6   7
ATOM      7  C   UNL     1      32.123  42.410  21.555  1.00  0.00     0.041 C 
ATOM      8  O   UNL     1      32.883  42.653  20.579  1.00  0.00    -0.550 OA
ATOM      9  O   UNL     1      31.076  41.510  21.404  1.00  0.00    -0.550 OA
ENDBRANCH   6   7
ENDBRANCH   5   6
ENDBRANCH   4   5
ENDBRANCH   3   4
ENDBRANCH   2   3
ENDBRANCH   1   2
BRANCH   1  10
ATOM     10  C   UNL     1      38.383  40.985  24.895  1.00  0.00     0.000 C 
BRANCH  10  11
ATOM     11  C   UNL     1      37.435  39.930  25.488  1.00  0.00    -0.000 C 
BRANCH  11  12
ATOM     12  C   UNL     1      37.009  40.259  26.927  1.00  0.00    -0.000 C 
BRANCH  12  13
ATOM     13  C   UNL     1      35.480  40.256  27.111  1.00  0.00    -0.000 C 
BRANCH  13  14
ATOM     14  C   UNL     1      34.751  39.609  25.914  1.00  0.00    -0.000 C 
BRANCH  14  15
ATOM     15  C   UNL     1      34.123  38.244  26.241  1.00  0.00    -0.003 C 
ATOM     16  C   UNL     1      34.035  37.319  25.029  1.00  0.00     0.004 C 
ENDBRANCH  14  15
ENDBRANCH  13  14
ENDBRANCH  12  13
ENDBRANCH  11  12
ENDBRANCH  10  11
ENDBRANCH   1  10
TORSDOF 12
ENDMDL
MODEL 8
REMARK VINA RESULT:    -3.236     17.466     18.717
REMARK INTER + INTRA:          -6.591
REMARK INTER:                  -5.914
REMARK INTRA:                  -0.677
REMARK UNBOUND:                -1.084
REMARK SMILES CCCCCCCCCCCCCC(=O)[O-]
REMARK SMILES IDX 8 1 9 2 10 3 11 4 12 5 13 6 14 7 15 8 16 9 7 10 6 11 5 12
REMARK SMILES IDX 4 13 3 14 2 15 1 16
REMARK H PARENT
REMARK Flexibility Score: inf
ROOT
ATOM      1  C   UNL     1      27.400  29.125  12.758  1.00  0.00     0.000 C 
ENDROOT
BRANCH   1   2
ATOM      2  C   UNL     1      28.663  29.802  12.181  1.00  0.00     0.000 C 
BRANCH   2   3
ATOM      3  C   UNL     1      28.743  29.670  10.650  1.00  0.00     0.000 C 
BRANCH   3   4
ATOM      4  C   UNL     1      30.135  29.235  10.156  1.00  0.00     0.000 C 
BRANCH   4   5
ATOM      5  C   UNL     1      31.018  28.557  11.220  1.00  0.00     0.006 C 
BRANCH   5   6
ATOM      6  C   UNL     1      32.350  29.285  11.446  1.00  0.00     0.053 C 
BRANCH   6   7
ATOM      7  C   UNL     1      33.338  28.375  12.105  1.00  0.00     0.041 C 
ATOM      8  O   UNL     1      33.259  28.141  13.340  1.00  0.00    -0.550 OA
ATOM      9  O   UNL     1      34.315  27.744  11.345  1.00  0.00    -0.550 OA
ENDBRANCH   6   7
ENDBRANCH   5   6
ENDBRANCH   4   5
ENDBRANCH   3   4
ENDBRANCH   2   3
ENDBRANCH   1   2
BRANCH   1  10
ATOM     10  C   UNL     1      27.623  27.668  13.195  1.00  0.00     0.000 C 
BRANCH  10  11
ATOM     11  C   UNL     1      26.312  26.945  13.545  1.00  0.00    -0.000 C 
BRANCH  11  12
ATOM     12  C   UNL     1      26.535  25.712  14.434  1.00  0.00    -0.000 C 
BRANCH  12  13
ATOM     13  C   UNL     1      27.873  25.759  15.195  1.00  0.00    -0.000 C 
BRANCH  13  14
ATOM     14  C   UNL     1      28.021  24.584  16.185  1.00  0.00    -0.000 C 
BRANCH  14  15
ATOM     15  C   UNL     1      27.009  24.622  17.341  1.00  0.00    -0.003 C 
ATOM     16  C   UNL     1      27.627  24.260  18.690  1.00  0.00     0.004 C 
ENDBRANCH  14  15
ENDBRANCH  13  14
ENDBRANCH  12  13
ENDBRANCH  11  12
ENDBRANCH  10  11
ENDBRANCH   1  10
TORSDOF 12
ENDMDL
MODEL 9
REMARK VINA RESULT:    -3.232      1.624      4.426
REMARK INTER + INTRA:          -6.583
REMARK INTER:                  -5.131
REMARK INTRA:                  -1.452
REMARK UNBOUND:                -1.084
REMARK SMILES CCCCCCCCCCCCCC(=O)[O-]
REMARK SMILES IDX 8 1 9 2 10 3 11 4 12 5 13 6 14 7 15 8 16 9 7 10 6 11 5 12
REMARK SMILES IDX 4 13 3 14 2 15 1 16
REMARK H PARENT
REMARK Flexibility Score: inf
ROOT
ATOM      1  C   UNL     1      32.344  40.542  24.215  1.00  0.00     0.000 C 
ENDROOT
BRANCH   1   2
ATOM      2  C   UNL     1      32.244  41.961  23.613  1.00  0.00     0.000 C 
BRANCH   2   3
ATOM      3  C   UNL     1      33.629  42.561  23.312  1.00  0.00     0.000 C 
BRANCH   3   4
ATOM      4  C   UNL     1      34.325  43.124  24.565  1.00  0.00     0.000 C 
BRANCH   4   5
ATOM      5  C   UNL     1      35.859  43.204  24.474  1.00  0.00     0.006 C 
BRANCH   5   6
ATOM      6  C   UNL     1      36.414  42.616  23.169  1.00  0.00     0.053 C 
BRANCH   6   7
ATOM      7  C   UNL     1      37.746  43.217  22.850  1.00  0.00     0.041 C 
ATOM      8  O   UNL     1      38.700  43.113  23.665  1.00  0.00    -0.550 OA
ATOM      9  O   UNL     1      37.949  43.849  21.629  1.00  0.00    -0.550 OA
ENDBRANCH   6   7
ENDBRANCH   5   6
ENDBRANCH   4   5
ENDBRANCH   3   4
ENDBRANCH   2   3
ENDBRANCH   1   2
BRANCH   1  10
ATOM     10  C   UNL     1      31.778  40.431  25.640  1.00  0.00     0.000 C 
BRANCH  10  11
ATOM     11  C   UNL     1      32.366  39.247  26.423  1.00  0.00    -0.000 C 
BRANCH  11  12
ATOM     12  C   UNL     1      33.395  38.449  25.608  1.00  0.00    -0.000 C 
BRANCH  12  13
ATOM     13  C   UNL     1      34.810  38.510  26.211  1.00  0.00    -0.000 C 
BRANCH  13  14
ATOM     14  C   UNL     1      35.500  39.865  25.943  1.00  0.00    -0.000 C 
BRANCH  14  15
ATOM     15  C   UNL     1      36.909  39.969  26.549  1.00  0.00    -0.003 C 
ATOM     16  C   UNL     1      38.005  40.106  25.495  1.00  0.00     0.004 C 
ENDBRANCH  14  15
ENDBRANCH  13  14
ENDBRANCH  12  13
ENDBRANCH  11  12
ENDBRANCH  10  11
ENDBRANCH   1  10
TORSDOF 12
ENDMDL
