MODEL 1
REMARK VINA RESULT:    -4.976      0.000      0.000
REMARK INTER + INTRA:          -6.149
REMARK INTER:                  -5.849
REMARK INTRA:                  -0.300
REMARK UNBOUND:                -0.300
REMARK SMILES O=c1c(O)c(-c2ccc(O)cc2)oc2cc(O)cc(O)c12
REMARK SMILES IDX 5 1 3 2 2 3 1 4 21 5 19 6 18 7 16 8 15 9 14 10 13 11 6 12
REMARK SMILES IDX 7 13 8 14 9 15 12 16 11 17 10 18 4 20 20 22 17 24
REMARK H PARENT 10 19 4 21 20 23 17 25
REMARK Flexibility Score: inf
ROOT
ATOM      1  C   UNL     1     -15.186  15.534  11.519  1.00  0.00     0.180 A 
ATOM      2  C   UNL     1     -16.306  16.182  10.969  1.00  0.00     0.208 A 
ATOM      3  C   UNL     1     -16.406  16.304   9.574  1.00  0.00     0.238 A 
ATOM      4  O   UNL     1     -17.436  16.837   9.086  1.00  0.00    -0.285 OA
ATOM      5  C   UNL     1     -15.378  15.790   8.747  1.00  0.00     0.111 A 
ATOM      6  C   UNL     1     -15.356  15.892   7.324  1.00  0.00     0.134 A 
ATOM      7  C   UNL     1     -14.355  15.232   6.599  1.00  0.00     0.093 A 
ATOM      8  C   UNL     1     -13.339  14.529   7.251  1.00  0.00     0.123 A 
ATOM      9  C   UNL     1     -13.318  14.473   8.642  1.00  0.00     0.094 A 
ATOM     10  C   UNL     1     -14.323  15.091   9.391  1.00  0.00     0.146 A 
ATOM     11  O   UNL     1     -14.272  15.004  10.715  1.00  0.00    -0.452 OA
ENDROOT
BRANCH   1  12
ATOM     12  C   UNL     1     -14.998  15.389  12.981  1.00  0.00     0.021 A 
ATOM     13  C   UNL     1     -15.434  14.218  13.622  1.00  0.00     0.016 A 
ATOM     14  C   UNL     1     -15.246  14.051  14.997  1.00  0.00     0.047 A 
ATOM     15  C   UNL     1     -14.607  15.044  15.746  1.00  0.00     0.115 A 
ATOM     16  C   UNL     1     -14.338  16.377  13.736  1.00  0.00     0.016 A 
ATOM     17  C   UNL     1     -14.151  16.207  15.111  1.00  0.00     0.047 A 
BRANCH  15  18
ATOM     18  O   UNL     1     -14.427  14.865  17.116  1.00  0.00    -0.508 OA
ATOM     19  H   UNL     1     -15.163  15.080  17.778  1.00  0.00     0.293 HD
ENDBRANCH  15  18
ENDBRANCH   1  12
BRANCH   2  20
ATOM     20  O   UNL     1     -17.319  16.663  11.803  1.00  0.00    -0.502 OA
ATOM     21  H   UNL     1     -17.480  16.296  12.733  1.00  0.00     0.293 HD
ENDBRANCH   2  20
BRANCH   6  22
ATOM     22  O   UNL     1     -16.270  16.645   6.581  1.00  0.00    -0.507 OA
ATOM     23  H   UNL     1     -16.688  17.509   6.891  1.00  0.00     0.293 HD
ENDBRANCH   6  22
BRANCH   8  24
ATOM     24  O   UNL     1     -12.338  13.889   6.522  1.00  0.00    -0.508 OA
ATOM     25  H   UNL     1     -12.292  13.957   5.513  1.00  0.00     0.293 HD
ENDBRANCH   8  24
TORSDOF 5
ENDMDL
MODEL 2
REMARK VINA RESULT:    -4.580     11.921     14.766
REMARK INTER + INTRA:          -5.683
REMARK INTER:                  -5.406
REMARK INTRA:                  -0.277
REMARK UNBOUND:                -0.300
REMARK SMILES O=c1c(O)c(-c2ccc(O)cc2)oc2cc(O)cc(O)c12
REMARK SMILES IDX 5 1 3 2 2 3 1 4 21 5 19 6 18 7 16 8 15 9 14 10 13 11 6 12
REMARK SMILES IDX 7 13 8 14 9 15 12 16 11 17 10 18 4 20 20 22 17 24
REMARK H PARENT 10 19 4 21 20 23 17 25
REMARK Flexibility Score: inf
ROOT
ATOM      1  C   UNL     1     -26.304  15.542  18.956  1.00  0.00     0.180 A 
ATOM      2  C   UNL     1     -25.274  14.953  18.202  1.00  0.00     0.208 A 
ATOM      3  C   UNL     1     -23.964  15.438  18.341  1.00  0.00     0.238 A 
ATOM      4  O   UNL     1     -23.039  14.872  17.704  1.00  0.00    -0.285 OA
ATOM      5  C   UNL     1     -23.702  16.517  19.221  1.00  0.00     0.111 A 
ATOM      6  C   UNL     1     -22.421  17.115  19.411  1.00  0.00     0.134 A 
ATOM      7  C   UNL     1     -22.253  18.089  20.403  1.00  0.00     0.093 A 
ATOM      8  C   UNL     1     -23.336  18.532  21.167  1.00  0.00     0.123 A 
ATOM      9  C   UNL     1     -24.602  17.998  20.949  1.00  0.00     0.094 A 
ATOM     10  C   UNL     1     -24.794  16.999  19.991  1.00  0.00     0.146 A 
ATOM     11  O   UNL     1     -26.016  16.507  19.821  1.00  0.00    -0.452 OA
ENDROOT
BRANCH   1  12
ATOM     12  C   UNL     1     -27.714  15.101  18.845  1.00  0.00     0.021 A 
ATOM     13  C   UNL     1     -28.265  14.287  19.848  1.00  0.00     0.016 A 
ATOM     14  C   UNL     1     -29.600  13.878  19.774  1.00  0.00     0.047 A 
ATOM     15  C   UNL     1     -30.404  14.291  18.708  1.00  0.00     0.115 A 
ATOM     16  C   UNL     1     -28.533  15.530  17.785  1.00  0.00     0.016 A 
ATOM     17  C   UNL     1     -29.869  15.120  17.714  1.00  0.00     0.047 A 
BRANCH  15  18
ATOM     18  O   UNL     1     -31.733  13.875  18.646  1.00  0.00    -0.508 OA
ATOM     19  H   UNL     1     -32.172  13.391  19.420  1.00  0.00     0.293 HD
ENDBRANCH  15  18
ENDBRANCH   1  12
BRANCH   2  20
ATOM     20  O   UNL     1     -25.551  13.876  17.356  1.00  0.00    -0.502 OA
ATOM     21  H   UNL     1     -25.942  13.998  16.429  1.00  0.00     0.293 HD
ENDBRANCH   2  20
BRANCH   6  22
ATOM     22  O   UNL     1     -21.295  16.811  18.639  1.00  0.00    -0.507 OA
ATOM     23  H   UNL     1     -20.482  16.320  18.977  1.00  0.00     0.293 HD
ENDBRANCH   6  22
BRANCH   8  24
ATOM     24  O   UNL     1     -23.163  19.514  22.141  1.00  0.00    -0.508 OA
ATOM     25  H   UNL     1     -23.936  20.082  22.465  1.00  0.00     0.293 HD
ENDBRANCH   8  24
TORSDOF 5
ENDMDL
MODEL 3
REMARK VINA RESULT:    -4.453      1.182      3.139
REMARK INTER + INTRA:          -5.534
REMARK INTER:                  -5.249
REMARK INTRA:                  -0.285
REMARK UNBOUND:                -0.300
REMARK SMILES O=c1c(O)c(-c2ccc(O)cc2)oc2cc(O)cc(O)c12
REMARK SMILES IDX 5 1 3 2 2 3 1 4 21 5 19 6 18 7 16 8 15 9 14 10 13 11 6 12
REMARK SMILES IDX 7 13 8 14 9 15 12 16 11 17 10 18 4 20 20 22 17 24
REMARK H PARENT 10 19 4 21 20 23 17 25
REMARK Flexibility Score: inf
ROOT
ATOM      1  C   UNL     1     -14.181  15.069  11.540  1.00  0.00     0.180 A 
ATOM      2  C   UNL     1     -13.030  14.484  10.985  1.00  0.00     0.208 A 
ATOM      3  C   UNL     1     -12.935  14.356   9.590  1.00  0.00     0.238 A 
ATOM      4  O   UNL     1     -11.880  13.881   9.097  1.00  0.00    -0.285 OA
ATOM      5  C   UNL     1     -14.001  14.798   8.768  1.00  0.00     0.111 A 
ATOM      6  C   UNL     1     -14.030  14.681   7.346  1.00  0.00     0.134 A 
ATOM      7  C   UNL     1     -15.075  15.272   6.626  1.00  0.00     0.093 A 
ATOM      8  C   UNL     1     -16.127  15.919   7.282  1.00  0.00     0.123 A 
ATOM      9  C   UNL     1     -16.137  15.986   8.672  1.00  0.00     0.094 A 
ATOM     10  C   UNL     1     -15.090  15.438   9.416  1.00  0.00     0.146 A 
ATOM     11  O   UNL     1     -15.133  15.534  10.740  1.00  0.00    -0.452 OA
ENDROOT
BRANCH   1  12
ATOM     12  C   UNL     1     -14.364  15.216  13.003  1.00  0.00     0.021 A 
ATOM     13  C   UNL     1     -13.866  16.358  13.650  1.00  0.00     0.016 A 
ATOM     14  C   UNL     1     -14.047  16.528  15.026  1.00  0.00     0.047 A 
ATOM     15  C   UNL     1     -14.741  15.568  15.769  1.00  0.00     0.115 A 
ATOM     16  C   UNL     1     -15.079  14.262  13.751  1.00  0.00     0.016 A 
ATOM     17  C   UNL     1     -15.259  14.435  15.127  1.00  0.00     0.047 A 
BRANCH  15  18
ATOM     18  O   UNL     1     -14.913  15.749  17.139  1.00  0.00    -0.508 OA
ATOM     19  H   UNL     1     -15.723  15.380  17.624  1.00  0.00     0.293 HD
ENDBRANCH  15  18
ENDBRANCH   1  12
BRANCH   2  20
ATOM     20  O   UNL     1     -11.981  14.074  11.812  1.00  0.00    -0.502 OA
ATOM     21  H   UNL     1     -11.056  14.484  11.765  1.00  0.00     0.293 HD
ENDBRANCH   2  20
BRANCH   6  22
ATOM     22  O   UNL     1     -13.078  13.977   6.602  1.00  0.00    -0.507 OA
ATOM     23  H   UNL     1     -12.690  14.289   5.725  1.00  0.00     0.293 HD
ENDBRANCH   6  22
BRANCH   8  24
ATOM     24  O   UNL     1     -17.171  16.489   6.557  1.00  0.00    -0.508 OA
ATOM     25  H   UNL     1     -17.211  16.428   5.547  1.00  0.00     0.293 HD
ENDBRANCH   8  24
TORSDOF 5
ENDMDL
MODEL 4
REMARK VINA RESULT:    -4.150      2.043      6.945
REMARK INTER + INTRA:          -5.178
REMARK INTER:                  -4.925
REMARK INTRA:                  -0.254
REMARK UNBOUND:                -0.300
REMARK SMILES O=c1c(O)c(-c2ccc(O)cc2)oc2cc(O)cc(O)c12
REMARK SMILES IDX 5 1 3 2 2 3 1 4 21 5 19 6 18 7 16 8 15 9 14 10 13 11 6 12
REMARK SMILES IDX 7 13 8 14 9 15 12 16 11 17 10 18 4 20 20 22 17 24
REMARK H PARENT 10 19 4 21 20 23 17 25
REMARK Flexibility Score: inf
ROOT
ATOM      1  C   UNL     1     -15.228  15.025   9.082  1.00  0.00     0.180 A 
ATOM      2  C   UNL     1     -13.822  15.007   9.071  1.00  0.00     0.208 A 
ATOM      3  C   UNL     1     -13.131  15.018  10.293  1.00  0.00     0.238 A 
ATOM      4  O   UNL     1     -11.875  14.947  10.277  1.00  0.00    -0.285 OA
ATOM      5  C   UNL     1     -13.853  15.063  11.510  1.00  0.00     0.111 A 
ATOM      6  C   UNL     1     -13.256  15.118  12.805  1.00  0.00     0.134 A 
ATOM      7  C   UNL     1     -14.066  15.027  13.943  1.00  0.00     0.093 A 
ATOM      8  C   UNL     1     -15.457  14.950  13.834  1.00  0.00     0.123 A 
ATOM      9  C   UNL     1     -16.053  14.955  12.576  1.00  0.00     0.094 A 
ATOM     10  C   UNL     1     -15.269  15.009  11.420  1.00  0.00     0.146 A 
ATOM     11  O   UNL     1     -15.877  15.001  10.240  1.00  0.00    -0.452 OA
ENDROOT
BRANCH   1  12
ATOM     12  C   UNL     1     -16.026  15.040   7.834  1.00  0.00     0.021 A 
ATOM     13  C   UNL     1     -16.706  13.878   7.434  1.00  0.00     0.016 A 
ATOM     14  C   UNL     1     -17.483  13.877   6.272  1.00  0.00     0.047 A 
ATOM     15  C   UNL     1     -17.604  15.040   5.504  1.00  0.00     0.115 A 
ATOM     16  C   UNL     1     -16.167  16.213   7.069  1.00  0.00     0.016 A 
ATOM     17  C   UNL     1     -16.946  16.209   5.907  1.00  0.00     0.047 A 
BRANCH  15  18
ATOM     18  O   UNL     1     -18.381  15.024   4.348  1.00  0.00    -0.508 OA
ATOM     19  H   UNL     1     -18.298  14.280   3.665  1.00  0.00     0.293 HD
ENDBRANCH  15  18
ENDBRANCH   1  12
BRANCH   2  20
ATOM     20  O   UNL     1     -13.130  14.941   7.859  1.00  0.00    -0.502 OA
ATOM     21  H   UNL     1     -12.828  15.768   7.358  1.00  0.00     0.293 HD
ENDBRANCH   2  20
BRANCH   6  22
ATOM     22  O   UNL     1     -11.886  15.288  13.026  1.00  0.00    -0.507 OA
ATOM     23  H   UNL     1     -11.185  14.582  12.860  1.00  0.00     0.293 HD
ENDBRANCH   6  22
BRANCH   8  24
ATOM     24  O   UNL     1     -16.256  14.876  14.973  1.00  0.00    -0.508 OA
ATOM     25  H   UNL     1     -16.450  15.694  15.538  1.00  0.00     0.293 HD
ENDBRANCH   8  24
TORSDOF 5
ENDMDL
MODEL 5
REMARK VINA RESULT:    -2.447     11.554     14.471
REMARK INTER + INTRA:          -3.176
REMARK INTER:                  -2.881
REMARK INTRA:                  -0.295
REMARK UNBOUND:                -0.300
REMARK SMILES O=c1c(O)c(-c2ccc(O)cc2)oc2cc(O)cc(O)c12
REMARK SMILES IDX 5 1 3 2 2 3 1 4 21 5 19 6 18 7 16 8 15 9 14 10 13 11 6 12
REMARK SMILES IDX 7 13 8 14 9 15 12 16 11 17 10 18 4 20 20 22 17 24
REMARK H PARENT 10 19 4 21 20 23 17 25
REMARK Flexibility Score: inf
ROOT
ATOM      1  C   UNL     1     -25.555  15.781  19.383  1.00  0.00     0.180 A 
ATOM      2  C   UNL     1     -24.474  15.111  18.783  1.00  0.00     0.208 A 
ATOM      3  C   UNL     1     -23.186  15.656  18.898  1.00  0.00     0.238 A 
ATOM      4  O   UNL     1     -22.216  15.025  18.405  1.00  0.00    -0.285 OA
ATOM      5  C   UNL     1     -22.996  16.874  19.596  1.00  0.00     0.111 A 
ATOM      6  C   UNL     1     -21.741  17.538  19.741  1.00  0.00     0.134 A 
ATOM      7  C   UNL     1     -21.649  18.667  20.564  1.00  0.00     0.093 A 
ATOM      8  C   UNL     1     -22.779  19.194  21.195  1.00  0.00     0.123 A 
ATOM      9  C   UNL     1     -24.018  18.587  21.012  1.00  0.00     0.094 A 
ATOM     10  C   UNL     1     -24.136  17.438  20.226  1.00  0.00     0.146 A 
ATOM     11  O   UNL     1     -25.335  16.884  20.087  1.00  0.00    -0.452 OA
ENDROOT
BRANCH   1  12
ATOM     12  C   UNL     1     -26.946  15.280  19.284  1.00  0.00     0.021 A 
ATOM     13  C   UNL     1     -27.441  14.416  20.273  1.00  0.00     0.016 A 
ATOM     14  C   UNL     1     -28.758  13.949  20.212  1.00  0.00     0.047 A 
ATOM     15  C   UNL     1     -29.600  14.354  19.171  1.00  0.00     0.115 A 
ATOM     16  C   UNL     1     -27.803  15.700  18.250  1.00  0.00     0.016 A 
ATOM     17  C   UNL     1     -29.120  15.232  18.191  1.00  0.00     0.047 A 
BRANCH  15  18
ATOM     18  O   UNL     1     -30.909  13.880  19.121  1.00  0.00    -0.508 OA
ATOM     19  H   UNL     1     -31.513  13.907  19.934  1.00  0.00     0.293 HD
ENDBRANCH  15  18
ENDBRANCH   1  12
BRANCH   2  20
ATOM     20  O   UNL     1     -24.680  13.900  18.116  1.00  0.00    -0.502 OA
ATOM     21  H   UNL     1     -25.178  13.124  18.537  1.00  0.00     0.293 HD
ENDBRANCH   2  20
BRANCH   6  22
ATOM     22  O   UNL     1     -20.572  17.149  19.081  1.00  0.00    -0.507 OA
ATOM     23  H   UNL     1     -19.873  17.784  18.727  1.00  0.00     0.293 HD
ENDBRANCH   6  22
BRANCH   8  24
ATOM     24  O   UNL     1     -22.679  20.327  21.999  1.00  0.00    -0.508 OA
ATOM     25  H   UNL     1     -23.365  20.531  22.716  1.00  0.00     0.293 HD
ENDBRANCH   8  24
TORSDOF 5
ENDMDL
