MODEL 1
REMARK VINA RESULT:    -4.284      0.000      0.000
REMARK INTER + INTRA:          -9.818
REMARK INTER:                  -7.790
REMARK INTRA:                  -2.028
REMARK UNBOUND:                -2.028
REMARK SMILES CCCCCCCCCCCCCCCC(=O)[O-]
REMARK SMILES IDX 9 1 10 2 11 3 12 4 13 5 14 6 15 7 16 8 17 9 18 10 8 11 7 12
REMARK SMILES IDX 6 13 5 14 4 15 3 16 2 17 1 18
REMARK H PARENT
REMARK Flexibility Score: inf
ROOT
ATOM      1  C   UNL     1     -35.399   6.186  56.150  1.00  0.00     0.000 C 
ENDROOT
BRANCH   1   2
ATOM      2  C   UNL     1     -35.008   7.570  55.604  1.00  0.00     0.000 C 
BRANCH   2   3
ATOM      3  C   UNL     1     -33.563   7.954  55.954  1.00  0.00     0.000 C 
BRANCH   3   4
ATOM      4  C   UNL     1     -32.668   8.083  54.710  1.00  0.00     0.000 C 
BRANCH   4   5
ATOM      5  C   UNL     1     -33.469   8.342  53.421  1.00  0.00     0.000 C 
BRANCH   5   6
ATOM      6  C   UNL     1     -32.803   7.832  52.130  1.00  0.00     0.006 C 
BRANCH   6   7
ATOM      7  C   UNL     1     -32.984   6.323  51.921  1.00  0.00     0.053 C 
BRANCH   7   8
ATOM      8  C   UNL     1     -31.658   5.663  51.709  1.00  0.00     0.041 C 
ATOM      9  O   UNL     1     -31.595   4.426  51.482  1.00  0.00    -0.550 OA
ATOM     10  O   UNL     1     -30.488   6.404  51.812  1.00  0.00    -0.550 OA
ENDBRANCH   7   8
ENDBRANCH   6   7
ENDBRANCH   5   6
ENDBRANCH   4   5
ENDBRANCH   3   4
ENDBRANCH   2   3
ENDBRANCH   1   2
BRANCH   1  11
ATOM     11  C   UNL     1     -36.339   5.423  55.203  1.00  0.00     0.000 C 
BRANCH  11  12
ATOM     12  C   UNL     1     -35.981   5.633  53.721  1.00  0.00    -0.000 C 
BRANCH  12  13
ATOM     13  C   UNL     1     -37.192   6.061  52.878  1.00  0.00    -0.000 C 
BRANCH  13  14
ATOM     14  C   UNL     1     -36.849   7.180  51.879  1.00  0.00    -0.000 C 
BRANCH  14  15
ATOM     15  C   UNL     1     -37.013   8.583  52.485  1.00  0.00    -0.000 C 
BRANCH  15  16
ATOM     16  C   UNL     1     -37.034   9.689  51.416  1.00  0.00    -0.000 C 
BRANCH  16  17
ATOM     17  C   UNL     1     -35.655  10.328  51.202  1.00  0.00    -0.003 C 
ATOM     18  C   UNL     1     -35.586  11.170  49.928  1.00  0.00     0.004 C 
ENDBRANCH  16  17
ENDBRANCH  15  16
ENDBRANCH  14  15
ENDBRANCH  13  14
ENDBRANCH  12  13
ENDBRANCH  11  12
ENDBRANCH   1  11
TORSDOF 14
ENDMDL
MODEL 2
REMARK VINA RESULT:    -4.224      3.623      6.573
REMARK INTER + INTRA:          -9.708
REMARK INTER:                  -7.317
REMARK INTRA:                  -2.391
REMARK UNBOUND:                -2.028
REMARK SMILES CCCCCCCCCCCCCCCC(=O)[O-]
REMARK SMILES IDX 9 1 10 2 11 3 12 4 13 5 14 6 15 7 16 8 17 9 18 10 8 11 7 12
REMARK SMILES IDX 6 13 5 14 4 15 3 16 2 17 1 18
REMARK H PARENT
REMARK Flexibility Score: inf
ROOT
ATOM      1  C   UNL     1     -35.437   5.503  49.680  1.00  0.00     0.000 C 
ENDROOT
BRANCH   1   2
ATOM      2  C   UNL     1     -35.670   6.398  48.451  1.00  0.00     0.000 C 
BRANCH   2   3
ATOM      3  C   UNL     1     -34.361   6.772  47.738  1.00  0.00     0.000 C 
BRANCH   3   4
ATOM      4  C   UNL     1     -33.868   8.180  48.111  1.00  0.00     0.000 C 
BRANCH   4   5
ATOM      5  C   UNL     1     -34.982   9.072  48.687  1.00  0.00     0.000 C 
BRANCH   5   6
ATOM      6  C   UNL     1     -34.576   9.904  49.917  1.00  0.00     0.006 C 
BRANCH   6   7
ATOM      7  C   UNL     1     -35.429  11.167  50.091  1.00  0.00     0.053 C 
BRANCH   7   8
ATOM      8  C   UNL     1     -36.858  10.800  50.348  1.00  0.00     0.041 C 
ATOM      9  O   UNL     1     -37.772  11.263  49.617  1.00  0.00    -0.550 OA
ATOM     10  O   UNL     1     -37.183   9.988  51.427  1.00  0.00    -0.550 OA
ENDBRANCH   7   8
ENDBRANCH   6   7
ENDBRANCH   5   6
ENDBRANCH   4   5
ENDBRANCH   3   4
ENDBRANCH   2   3
ENDBRANCH   1   2
BRANCH   1  11
ATOM     11  C   UNL     1     -35.617   6.262  51.005  1.00  0.00     0.000 C 
BRANCH  11  12
ATOM     12  C   UNL     1     -34.530   5.914  52.036  1.00  0.00    -0.000 C 
BRANCH  12  13
ATOM     13  C   UNL     1     -33.417   6.971  52.098  1.00  0.00    -0.000 C 
BRANCH  13  14
ATOM     14  C   UNL     1     -32.025   6.379  51.815  1.00  0.00    -0.000 C 
BRANCH  14  15
ATOM     15  C   UNL     1     -31.726   6.270  50.311  1.00  0.00    -0.000 C 
BRANCH  15  16
ATOM     16  C   UNL     1     -31.757   4.816  49.807  1.00  0.00    -0.000 C 
BRANCH  16  17
ATOM     17  C   UNL     1     -31.556   3.796  50.937  1.00  0.00    -0.003 C 
ATOM     18  C   UNL     1     -32.655   2.734  50.974  1.00  0.00     0.004 C 
ENDBRANCH  16  17
ENDBRANCH  15  16
ENDBRANCH  14  15
ENDBRANCH  13  14
ENDBRANCH  12  13
ENDBRANCH  11  12
ENDBRANCH   1  11
TORSDOF 14
ENDMDL
MODEL 3
REMARK VINA RESULT:    -4.207      3.695      5.772
REMARK INTER + INTRA:          -9.678
REMARK INTER:                  -8.165
REMARK INTRA:                  -1.513
REMARK UNBOUND:                -2.028
REMARK SMILES CCCCCCCCCCCCCCCC(=O)[O-]
REMARK SMILES IDX 9 1 10 2 11 3 12 4 13 5 14 6 15 7 16 8 17 9 18 10 8 11 7 12
REMARK SMILES IDX 6 13 5 14 4 15 3 16 2 17 1 18
REMARK H PARENT
REMARK Flexibility Score: inf
ROOT
ATOM      1  C   UNL     1     -30.771   5.904  52.177  1.00  0.00     0.000 C 
ENDROOT
BRANCH   1   2
ATOM      2  C   UNL     1     -31.612   7.187  52.293  1.00  0.00     0.000 C 
BRANCH   2   3
ATOM      3  C   UNL     1     -32.631   7.328  51.151  1.00  0.00     0.000 C 
BRANCH   3   4
ATOM      4  C   UNL     1     -34.085   7.299  51.652  1.00  0.00     0.000 C 
BRANCH   4   5
ATOM      5  C   UNL     1     -34.278   6.388  52.877  1.00  0.00     0.000 C 
BRANCH   5   6
ATOM      6  C   UNL     1     -35.744   6.074  53.226  1.00  0.00     0.006 C 
BRANCH   6   7
ATOM      7  C   UNL     1     -36.251   6.863  54.440  1.00  0.00     0.053 C 
BRANCH   7   8
ATOM      8  C   UNL     1     -35.473   6.495  55.664  1.00  0.00     0.041 C 
ATOM      9  O   UNL     1     -35.619   5.361  56.191  1.00  0.00    -0.550 OA
ATOM     10  O   UNL     1     -34.624   7.424  56.253  1.00  0.00    -0.550 OA
ENDBRANCH   7   8
ENDBRANCH   6   7
ENDBRANCH   5   6
ENDBRANCH   4   5
ENDBRANCH   3   4
ENDBRANCH   2   3
ENDBRANCH   1   2
BRANCH   1  11
ATOM     11  C   UNL     1     -31.015   5.157  50.856  1.00  0.00     0.000 C 
BRANCH  11  12
ATOM     12  C   UNL     1     -31.635   3.766  51.071  1.00  0.00    -0.000 C 
BRANCH  12  13
ATOM     13  C   UNL     1     -32.754   3.458  50.063  1.00  0.00    -0.000 C 
BRANCH  13  14
ATOM     14  C   UNL     1     -32.857   4.520  48.954  1.00  0.00    -0.000 C 
BRANCH  14  15
ATOM     15  C   UNL     1     -34.313   4.885  48.622  1.00  0.00    -0.000 C 
BRANCH  15  16
ATOM     16  C   UNL     1     -34.576   4.943  47.107  1.00  0.00    -0.000 C 
BRANCH  16  17
ATOM     17  C   UNL     1     -35.348   3.717  46.596  1.00  0.00    -0.003 C 
ATOM     18  C   UNL     1     -36.439   4.085  45.591  1.00  0.00     0.004 C 
ENDBRANCH  16  17
ENDBRANCH  15  16
ENDBRANCH  14  15
ENDBRANCH  13  14
ENDBRANCH  12  13
ENDBRANCH  11  12
ENDBRANCH   1  11
TORSDOF 14
ENDMDL
MODEL 4
REMARK VINA RESULT:    -4.126      3.669      6.114
REMARK INTER + INTRA:          -9.530
REMARK INTER:                  -6.922
REMARK INTRA:                  -2.608
REMARK UNBOUND:                -2.028
REMARK SMILES CCCCCCCCCCCCCCCC(=O)[O-]
REMARK SMILES IDX 9 1 10 2 11 3 12 4 13 5 14 6 15 7 16 8 17 9 18 10 8 11 7 12
REMARK SMILES IDX 6 13 5 14 4 15 3 16 2 17 1 18
REMARK H PARENT
REMARK Flexibility Score: inf
ROOT
ATOM      1  C   UNL     1     -36.486   6.136  50.776  1.00  0.00     0.000 C 
ENDROOT
BRANCH   1   2
ATOM      2  C   UNL     1     -35.468   5.402  51.666  1.00  0.00     0.000 C 
BRANCH   2   3
ATOM      3  C   UNL     1     -34.590   6.368  52.476  1.00  0.00     0.000 C 
BRANCH   3   4
ATOM      4  C   UNL     1     -35.261   7.736  52.690  1.00  0.00     0.000 C 
BRANCH   4   5
ATOM      5  C   UNL     1     -34.427   8.905  52.136  1.00  0.00     0.000 C 
BRANCH   5   6
ATOM      6  C   UNL     1     -34.941   9.496  50.810  1.00  0.00     0.006 C 
BRANCH   6   7
ATOM      7  C   UNL     1     -36.430   9.864  50.859  1.00  0.00     0.053 C 
BRANCH   7   8
ATOM      8  C   UNL     1     -36.708  11.033  49.966  1.00  0.00     0.041 C 
ATOM      9  O   UNL     1     -35.767  11.780  49.589  1.00  0.00    -0.550 OA
ATOM     10  O   UNL     1     -38.013  11.329  49.594  1.00  0.00    -0.550 OA
ENDBRANCH   7   8
ENDBRANCH   6   7
ENDBRANCH   5   6
ENDBRANCH   4   5
ENDBRANCH   3   4
ENDBRANCH   2   3
ENDBRANCH   1   2
BRANCH   1  11
ATOM     11  C   UNL     1     -36.386   5.722  49.300  1.00  0.00     0.000 C 
BRANCH  11  12
ATOM     12  C   UNL     1     -35.646   6.765  48.444  1.00  0.00    -0.000 C 
BRANCH  12  13
ATOM     13  C   UNL     1     -34.219   6.325  48.083  1.00  0.00    -0.000 C 
BRANCH  13  14
ATOM     14  C   UNL     1     -33.171   6.844  49.083  1.00  0.00    -0.000 C 
BRANCH  14  15
ATOM     15  C   UNL     1     -32.189   5.748  49.529  1.00  0.00    -0.000 C 
BRANCH  15  16
ATOM     16  C   UNL     1     -32.584   4.355  49.010  1.00  0.00    -0.000 C 
BRANCH  16  17
ATOM     17  C   UNL     1     -32.839   3.353  50.145  1.00  0.00    -0.003 C 
ATOM     18  C   UNL     1     -32.056   3.689  51.415  1.00  0.00     0.004 C 
ENDBRANCH  16  17
ENDBRANCH  15  16
ENDBRANCH  14  15
ENDBRANCH  13  14
ENDBRANCH  12  13
ENDBRANCH  11  12
ENDBRANCH   1  11
TORSDOF 14
ENDMDL
MODEL 5
REMARK VINA RESULT:    -4.106      3.321      5.596
REMARK INTER + INTRA:          -9.494
REMARK INTER:                  -7.384
REMARK INTRA:                  -2.110
REMARK UNBOUND:                -2.028
REMARK SMILES CCCCCCCCCCCCCCCC(=O)[O-]
REMARK SMILES IDX 9 1 10 2 11 3 12 4 13 5 14 6 15 7 16 8 17 9 18 10 8 11 7 12
REMARK SMILES IDX 6 13 5 14 4 15 3 16 2 17 1 18
REMARK H PARENT
REMARK Flexibility Score: inf
ROOT
ATOM      1  C   UNL     1     -37.341   8.483  52.484  1.00  0.00     0.000 C 
ENDROOT
BRANCH   1   2
ATOM      2  C   UNL     1     -36.263   9.380  51.851  1.00  0.00     0.000 C 
BRANCH   2   3
ATOM      3  C   UNL     1     -36.839  10.336  50.796  1.00  0.00     0.000 C 
BRANCH   3   4
ATOM      4  C   UNL     1     -35.925  10.478  49.567  1.00  0.00     0.000 C 
BRANCH   4   5
ATOM      5  C   UNL     1     -34.706   9.541  49.616  1.00  0.00     0.000 C 
BRANCH   5   6
ATOM      6  C   UNL     1     -34.803   8.302  48.706  1.00  0.00     0.006 C 
BRANCH   6   7
ATOM      7  C   UNL     1     -36.110   8.253  47.904  1.00  0.00     0.053 C 
BRANCH   7   8
ATOM      8  C   UNL     1     -36.235   6.943  47.191  1.00  0.00     0.041 C 
ATOM      9  O   UNL     1     -37.057   6.079  47.593  1.00  0.00    -0.550 OA
ATOM     10  O   UNL     1     -35.407   6.657  46.113  1.00  0.00    -0.550 OA
ENDBRANCH   7   8
ENDBRANCH   6   7
ENDBRANCH   5   6
ENDBRANCH   4   5
ENDBRANCH   3   4
ENDBRANCH   2   3
ENDBRANCH   1   2
BRANCH   1  11
ATOM     11  C   UNL     1     -36.890   7.019  52.610  1.00  0.00     0.000 C 
BRANCH  11  12
ATOM     12  C   UNL     1     -36.837   6.299  51.252  1.00  0.00    -0.000 C 
BRANCH  12  13
ATOM     13  C   UNL     1     -35.518   5.540  51.038  1.00  0.00    -0.000 C 
BRANCH  13  14
ATOM     14  C   UNL     1     -34.451   5.906  52.085  1.00  0.00    -0.000 C 
BRANCH  14  15
ATOM     15  C   UNL     1     -33.122   6.338  51.445  1.00  0.00    -0.000 C 
BRANCH  15  16
ATOM     16  C   UNL     1     -32.548   5.270  50.497  1.00  0.00    -0.000 C 
BRANCH  16  17
ATOM     17  C   UNL     1     -31.902   4.098  51.251  1.00  0.00    -0.003 C 
ATOM     18  C   UNL     1     -32.608   2.768  50.989  1.00  0.00     0.004 C 
ENDBRANCH  16  17
ENDBRANCH  15  16
ENDBRANCH  14  15
ENDBRANCH  13  14
ENDBRANCH  12  13
ENDBRANCH  11  12
ENDBRANCH   1  11
TORSDOF 14
ENDMDL
MODEL 6
REMARK VINA RESULT:    -4.098      2.931      5.016
REMARK INTER + INTRA:          -9.480
REMARK INTER:                  -7.717
REMARK INTRA:                  -1.763
REMARK UNBOUND:                -2.028
REMARK SMILES CCCCCCCCCCCCCCCC(=O)[O-]
REMARK SMILES IDX 9 1 10 2 11 3 12 4 13 5 14 6 15 7 16 8 17 9 18 10 8 11 7 12
REMARK SMILES IDX 6 13 5 14 4 15 3 16 2 17 1 18
REMARK H PARENT
REMARK Flexibility Score: inf
ROOT
ATOM      1  C   UNL     1     -33.984   7.921  51.977  1.00  0.00     0.000 C 
ENDROOT
BRANCH   1   2
ATOM      2  C   UNL     1     -33.376   6.636  52.567  1.00  0.00     0.000 C 
BRANCH   2   3
ATOM      3  C   UNL     1     -33.453   5.449  51.595  1.00  0.00     0.000 C 
BRANCH   3   4
ATOM      4  C   UNL     1     -32.065   4.982  51.124  1.00  0.00     0.000 C 
BRANCH   4   5
ATOM      5  C   UNL     1     -32.071   4.448  49.681  1.00  0.00     0.000 C 
BRANCH   5   6
ATOM      6  C   UNL     1     -33.458   4.048  49.144  1.00  0.00     0.006 C 
BRANCH   6   7
ATOM      7  C   UNL     1     -33.931   4.940  47.989  1.00  0.00     0.053 C 
BRANCH   7   8
ATOM      8  C   UNL     1     -35.156   4.363  47.351  1.00  0.00     0.041 C 
ATOM      9  O   UNL     1     -35.062   3.373  46.580  1.00  0.00    -0.550 OA
ATOM     10  O   UNL     1     -36.396   4.952  47.569  1.00  0.00    -0.550 OA
ENDBRANCH   7   8
ENDBRANCH   6   7
ENDBRANCH   5   6
ENDBRANCH   4   5
ENDBRANCH   3   4
ENDBRANCH   2   3
ENDBRANCH   1   2
BRANCH   1  11
ATOM     11  C   UNL     1     -35.230   7.644  51.121  1.00  0.00     0.000 C 
BRANCH  11  12
ATOM     12  C   UNL     1     -36.335   8.692  51.332  1.00  0.00    -0.000 C 
BRANCH  12  13
ATOM     13  C   UNL     1     -37.163   8.427  52.599  1.00  0.00    -0.000 C 
BRANCH  13  14
ATOM     14  C   UNL     1     -37.556   6.947  52.748  1.00  0.00    -0.000 C 
BRANCH  14  15
ATOM     15  C   UNL     1     -37.549   6.480  54.212  1.00  0.00    -0.000 C 
BRANCH  15  16
ATOM     16  C   UNL     1     -36.366   5.547  54.528  1.00  0.00    -0.000 C 
BRANCH  16  17
ATOM     17  C   UNL     1     -35.672   5.902  55.851  1.00  0.00    -0.003 C 
ATOM     18  C   UNL     1     -34.987   7.268  55.810  1.00  0.00     0.004 C 
ENDBRANCH  16  17
ENDBRANCH  15  16
ENDBRANCH  14  15
ENDBRANCH  13  14
ENDBRANCH  12  13
ENDBRANCH  11  12
ENDBRANCH   1  11
TORSDOF 14
ENDMDL
MODEL 7
REMARK VINA RESULT:    -4.087      2.524      4.732
REMARK INTER + INTRA:          -9.459
REMARK INTER:                  -6.856
REMARK INTRA:                  -2.603
REMARK UNBOUND:                -2.028
REMARK SMILES CCCCCCCCCCCCCCCC(=O)[O-]
REMARK SMILES IDX 9 1 10 2 11 3 12 4 13 5 14 6 15 7 16 8 17 9 18 10 8 11 7 12
REMARK SMILES IDX 6 13 5 14 4 15 3 16 2 17 1 18
REMARK H PARENT
REMARK Flexibility Score: inf
ROOT
ATOM      1  C   UNL     1     -34.966   7.956  48.350  1.00  0.00     0.000 C 
ENDROOT
BRANCH   1   2
ATOM      2  C   UNL     1     -35.754   6.904  49.150  1.00  0.00     0.000 C 
BRANCH   2   3
ATOM      3  C   UNL     1     -36.027   7.347  50.596  1.00  0.00     0.000 C 
BRANCH   3   4
ATOM      4  C   UNL     1     -35.363   6.425  51.631  1.00  0.00     0.000 C 
BRANCH   4   5
ATOM      5  C   UNL     1     -33.953   6.894  52.034  1.00  0.00     0.000 C 
BRANCH   5   6
ATOM      6  C   UNL     1     -32.818   5.920  51.670  1.00  0.00     0.006 C 
BRANCH   6   7
ATOM      7  C   UNL     1     -33.306   4.706  50.870  1.00  0.00     0.053 C 
BRANCH   7   8
ATOM      8  C   UNL     1     -32.316   3.587  50.961  1.00  0.00     0.041 C 
ATOM      9  O   UNL     1     -32.709   2.392  50.977  1.00  0.00    -0.550 OA
ATOM     10  O   UNL     1     -30.960   3.868  51.080  1.00  0.00    -0.550 OA
ENDBRANCH   7   8
ENDBRANCH   6   7
ENDBRANCH   5   6
ENDBRANCH   4   5
ENDBRANCH   3   4
ENDBRANCH   2   3
ENDBRANCH   1   2
BRANCH   1  11
ATOM     11  C   UNL     1     -33.524   7.511  48.054  1.00  0.00     0.000 C 
BRANCH  11  12
ATOM     12  C   UNL     1     -32.485   8.297  48.872  1.00  0.00    -0.000 C 
BRANCH  12  13
ATOM     13  C   UNL     1     -32.870   9.774  49.049  1.00  0.00    -0.000 C 
BRANCH  13  14
ATOM     14  C   UNL     1     -32.999  10.177  50.529  1.00  0.00    -0.000 C 
BRANCH  14  15
ATOM     15  C   UNL     1     -34.400  10.709  50.874  1.00  0.00    -0.000 C 
BRANCH  15  16
ATOM     16  C   UNL     1     -34.975  11.615  49.772  1.00  0.00    -0.000 C 
BRANCH  16  17
ATOM     17  C   UNL     1     -36.412  11.236  49.387  1.00  0.00    -0.003 C 
ATOM     18  C   UNL     1     -37.222  10.715  50.574  1.00  0.00     0.004 C 
ENDBRANCH  16  17
ENDBRANCH  15  16
ENDBRANCH  14  15
ENDBRANCH  13  14
ENDBRANCH  12  13
ENDBRANCH  11  12
ENDBRANCH   1  11
TORSDOF 14
ENDMDL
MODEL 8
REMARK VINA RESULT:    -4.086      2.742      6.103
REMARK INTER + INTRA:          -9.457
REMARK INTER:                  -7.262
REMARK INTRA:                  -2.196
REMARK UNBOUND:                -2.028
REMARK SMILES CCCCCCCCCCCCCCCC(=O)[O-]
REMARK SMILES IDX 9 1 10 2 11 3 12 4 13 5 14 6 15 7 16 8 17 9 18 10 8 11 7 12
REMARK SMILES IDX 6 13 5 14 4 15 3 16 2 17 1 18
REMARK H PARENT
REMARK Flexibility Score: inf
ROOT
ATOM      1  C   UNL     1     -35.303   8.577  50.051  1.00  0.00     0.000 C 
ENDROOT
BRANCH   1   2
ATOM      2  C   UNL     1     -35.735   7.426  49.126  1.00  0.00     0.000 C 
BRANCH   2   3
ATOM      3  C   UNL     1     -35.716   6.063  49.834  1.00  0.00     0.000 C 
BRANCH   3   4
ATOM      4  C   UNL     1     -36.387   6.108  51.217  1.00  0.00     0.000 C 
BRANCH   4   5
ATOM      5  C   UNL     1     -35.524   5.473  52.322  1.00  0.00     0.000 C 
BRANCH   5   6
ATOM      6  C   UNL     1     -36.038   5.698  53.756  1.00  0.00     0.006 C 
BRANCH   6   7
ATOM      7  C   UNL     1     -35.613   7.053  54.337  1.00  0.00     0.053 C 
BRANCH   7   8
ATOM      8  C   UNL     1     -35.154   6.893  55.752  1.00  0.00     0.041 C 
ATOM      9  O   UNL     1     -34.321   7.699  56.243  1.00  0.00    -0.550 OA
ATOM     10  O   UNL     1     -35.608   5.823  56.513  1.00  0.00    -0.550 OA
ENDBRANCH   7   8
ENDBRANCH   6   7
ENDBRANCH   5   6
ENDBRANCH   4   5
ENDBRANCH   3   4
ENDBRANCH   2   3
ENDBRANCH   1   2
BRANCH   1  11
ATOM     11  C   UNL     1     -34.047   9.302  49.542  1.00  0.00     0.000 C 
BRANCH  11  12
ATOM     12  C   UNL     1     -32.816   9.037  50.426  1.00  0.00    -0.000 C 
BRANCH  12  13
ATOM     13  C   UNL     1     -33.172   8.299  51.725  1.00  0.00    -0.000 C 
BRANCH  13  14
ATOM     14  C   UNL     1     -32.366   7.000  51.905  1.00  0.00    -0.000 C 
BRANCH  14  15
ATOM     15  C   UNL     1     -31.667   6.556  50.610  1.00  0.00    -0.000 C 
BRANCH  15  16
ATOM     16  C   UNL     1     -32.156   5.184  50.115  1.00  0.00    -0.000 C 
BRANCH  16  17
ATOM     17  C   UNL     1     -31.593   4.022  50.946  1.00  0.00    -0.003 C 
ATOM     18  C   UNL     1     -32.577   2.860  51.077  1.00  0.00     0.004 C 
ENDBRANCH  16  17
ENDBRANCH  15  16
ENDBRANCH  14  15
ENDBRANCH  13  14
ENDBRANCH  12  13
ENDBRANCH  11  12
ENDBRANCH   1  11
TORSDOF 14
ENDMDL
MODEL 9
REMARK VINA RESULT:    -4.033      2.468      4.811
REMARK INTER + INTRA:          -9.362
REMARK INTER:                  -7.105
REMARK INTRA:                  -2.257
REMARK UNBOUND:                -2.028
REMARK SMILES CCCCCCCCCCCCCCCC(=O)[O-]
REMARK SMILES IDX 9 1 10 2 11 3 12 4 13 5 14 6 15 7 16 8 17 9 18 10 8 11 7 12
REMARK SMILES IDX 6 13 5 14 4 15 3 16 2 17 1 18
REMARK H PARENT
REMARK Flexibility Score: inf
ROOT
ATOM      1  C   UNL     1     -36.870   9.944  51.681  1.00  0.00     0.000 C 
ENDROOT
BRANCH   1   2
ATOM      2  C   UNL     1     -36.841   8.506  52.228  1.00  0.00     0.000 C 
BRANCH   2   3
ATOM      3  C   UNL     1     -36.407   7.482  51.168  1.00  0.00     0.000 C 
BRANCH   3   4
ATOM      4  C   UNL     1     -35.357   6.492  51.699  1.00  0.00     0.000 C 
BRANCH   4   5
ATOM      5  C   UNL     1     -33.934   7.080  51.716  1.00  0.00     0.000 C 
BRANCH   5   6
ATOM      6  C   UNL     1     -32.829   6.115  51.249  1.00  0.00     0.006 C 
BRANCH   6   7
ATOM      7  C   UNL     1     -33.374   4.745  50.822  1.00  0.00     0.053 C 
BRANCH   7   8
ATOM      8  C   UNL     1     -32.313   3.698  50.954  1.00  0.00     0.041 C 
ATOM      9  O   UNL     1     -31.104   4.031  51.061  1.00  0.00    -0.550 OA
ATOM     10  O   UNL     1     -32.655   2.352  50.905  1.00  0.00    -0.550 OA
ENDBRANCH   7   8
ENDBRANCH   6   7
ENDBRANCH   5   6
ENDBRANCH   4   5
ENDBRANCH   3   4
ENDBRANCH   2   3
ENDBRANCH   1   2
BRANCH   1  11
ATOM     11  C   UNL     1     -36.412  10.026  50.215  1.00  0.00     0.000 C 
BRANCH  11  12
ATOM     12  C   UNL     1     -35.946  11.439  49.822  1.00  0.00    -0.000 C 
BRANCH  12  13
ATOM     13  C   UNL     1     -34.459  11.483  49.440  1.00  0.00    -0.000 C 
BRANCH  13  14
ATOM     14  C   UNL     1     -33.742  10.147  49.705  1.00  0.00    -0.000 C 
BRANCH  14  15
ATOM     15  C   UNL     1     -32.734   9.790  48.601  1.00  0.00    -0.000 C 
BRANCH  15  16
ATOM     16  C   UNL     1     -32.980   8.393  48.006  1.00  0.00    -0.000 C 
BRANCH  16  17
ATOM     17  C   UNL     1     -34.471   8.029  47.951  1.00  0.00    -0.003 C 
ATOM     18  C   UNL     1     -34.710   6.519  47.938  1.00  0.00     0.004 C 
ENDBRANCH  16  17
ENDBRANCH  15  16
ENDBRANCH  14  15
ENDBRANCH  13  14
ENDBRANCH  12  13
ENDBRANCH  11  12
ENDBRANCH   1  11
TORSDOF 14
ENDMDL
