MODEL 1
REMARK VINA RESULT:    -5.068      0.000      0.000
REMARK INTER + INTRA:         -14.165
REMARK INTER:                 -10.993
REMARK INTRA:                  -3.172
REMARK UNBOUND:                -3.172
REMARK SMILES CCCCCCCCCCCCCCCCCCCCCC(=O)[O-]
REMARK SMILES IDX 12 1 11 2 10 3 9 4 8 5 7 6 6 7 5 8 4 9 3 10 2 11 1 12 13 13
REMARK SMILES IDX 14 14 15 15 16 16 17 17 18 18 19 19 20 20 21 21 22 22 23 23
REMARK SMILES IDX 24 24
REMARK H PARENT
REMARK Flexibility Score: inf
ROOT
ATOM      1  C   UNL     1      59.234  28.618  12.070  1.00  0.00     0.000 C 
ENDROOT
BRANCH   1   2
ATOM      2  C   UNL     1      59.777  29.420  10.869  1.00  0.00     0.000 C 
BRANCH   2   3
ATOM      3  C   UNL     1      59.842  28.645   9.540  1.00  0.00     0.000 C 
BRANCH   3   4
ATOM      4  C   UNL     1      61.259  28.244   9.086  1.00  0.00    -0.000 C 
BRANCH   4   5
ATOM      5  C   UNL     1      62.224  29.437   8.919  1.00  0.00    -0.000 C 
BRANCH   5   6
ATOM      6  C   UNL     1      63.506  29.284   9.752  1.00  0.00    -0.000 C 
BRANCH   6   7
ATOM      7  C   UNL     1      64.640  30.144   9.181  1.00  0.00    -0.000 C 
BRANCH   7   8
ATOM      8  C   UNL     1      64.864  31.397  10.042  1.00  0.00    -0.000 C 
BRANCH   8   9
ATOM      9  C   UNL     1      64.138  31.323  11.394  1.00  0.00    -0.000 C 
BRANCH   9  10
ATOM     10  C   UNL     1      64.183  32.656  12.163  1.00  0.00    -0.000 C 
BRANCH  10  11
ATOM     11  C   UNL     1      64.483  32.463  13.658  1.00  0.00    -0.003 C 
ATOM     12  C   UNL     1      64.859  33.768  14.358  1.00  0.00     0.004 C 
ENDBRANCH  10  11
ENDBRANCH   9  10
ENDBRANCH   8   9
ENDBRANCH   7   8
ENDBRANCH   6   7
ENDBRANCH   5   6
ENDBRANCH   4   5
ENDBRANCH   3   4
ENDBRANCH   2   3
ENDBRANCH   1   2
BRANCH   1  13
ATOM     13  C   UNL     1      60.303  28.059  13.026  1.00  0.00     0.000 C 
BRANCH  13  14
ATOM     14  C   UNL     1      61.676  28.727  12.842  1.00  0.00     0.000 C 
BRANCH  14  15
ATOM     15  C   UNL     1      62.075  29.597  14.044  1.00  0.00     0.000 C 
BRANCH  15  16
ATOM     16  C   UNL     1      61.043  30.698  14.350  1.00  0.00     0.000 C 
BRANCH  16  17
ATOM     17  C   UNL     1      60.965  31.756  13.240  1.00  0.00     0.000 C 
BRANCH  17  18
ATOM     18  C   UNL     1      60.635  33.160  13.778  1.00  0.00     0.000 C 
BRANCH  18  19
ATOM     19  C   UNL     1      60.438  33.159  15.308  1.00  0.00     0.000 C 
BRANCH  19  20
ATOM     20  C   UNL     1      61.552  33.892  16.081  1.00  0.00     0.006 C 
BRANCH  20  21
ATOM     21  C   UNL     1      62.450  32.966  16.923  1.00  0.00     0.053 C 
BRANCH  21  22
ATOM     22  C   UNL     1      63.364  33.716  17.846  1.00  0.00     0.041 C 
ATOM     23  O   UNL     1      62.988  34.796  18.377  1.00  0.00    -0.550 OA
ATOM     24  O   UNL     1      64.656  33.260  18.069  1.00  0.00    -0.550 OA
ENDBRANCH  21  22
ENDBRANCH  20  21
ENDBRANCH  19  20
ENDBRANCH  18  19
ENDBRANCH  17  18
ENDBRANCH  16  17
ENDBRANCH  15  16
ENDBRANCH  14  15
ENDBRANCH  13  14
ENDBRANCH   1  13
TORSDOF 20
ENDMDL
MODEL 2
REMARK VINA RESULT:    -4.877      0.909      3.838
REMARK INTER + INTRA:         -13.751
REMARK INTER:                 -10.422
REMARK INTRA:                  -3.329
REMARK UNBOUND:                -3.172
REMARK SMILES CCCCCCCCCCCCCCCCCCCCCC(=O)[O-]
REMARK SMILES IDX 12 1 11 2 10 3 9 4 8 5 7 6 6 7 5 8 4 9 3 10 2 11 1 12 13 13
REMARK SMILES IDX 14 14 15 15 16 16 17 17 18 18 19 19 20 20 21 21 22 22 23 23
REMARK SMILES IDX 24 24
REMARK H PARENT
REMARK Flexibility Score: inf
ROOT
ATOM      1  C   UNL     1      62.395  28.628  10.103  1.00  0.00     0.000 C 
ENDROOT
BRANCH   1   2
ATOM      2  C   UNL     1      61.156  28.277   9.254  1.00  0.00     0.000 C 
BRANCH   2   3
ATOM      3  C   UNL     1      59.819  28.824   9.788  1.00  0.00     0.000 C 
BRANCH   3   4
ATOM      4  C   UNL     1      59.899  29.512  11.165  1.00  0.00    -0.000 C 
BRANCH   4   5
ATOM      5  C   UNL     1      59.347  28.656  12.325  1.00  0.00    -0.000 C 
BRANCH   5   6
ATOM      6  C   UNL     1      60.435  28.243  13.328  1.00  0.00    -0.000 C 
BRANCH   6   7
ATOM      7  C   UNL     1      61.506  29.333  13.459  1.00  0.00    -0.000 C 
BRANCH   7   8
ATOM      8  C   UNL     1      61.373  30.073  14.798  1.00  0.00    -0.000 C 
BRANCH   8   9
ATOM      9  C   UNL     1      60.272  31.146  14.774  1.00  0.00    -0.000 C 
BRANCH   9  10
ATOM     10  C   UNL     1      60.409  32.107  13.579  1.00  0.00    -0.000 C 
BRANCH  10  11
ATOM     11  C   UNL     1      60.708  33.550  14.016  1.00  0.00    -0.003 C 
ATOM     12  C   UNL     1      60.290  33.829  15.459  1.00  0.00     0.004 C 
ENDBRANCH  10  11
ENDBRANCH   9  10
ENDBRANCH   8   9
ENDBRANCH   7   8
ENDBRANCH   6   7
ENDBRANCH   5   6
ENDBRANCH   4   5
ENDBRANCH   3   4
ENDBRANCH   2   3
ENDBRANCH   1   2
BRANCH   1  13
ATOM     13  C   UNL     1      63.588  29.207   9.320  1.00  0.00     0.000 C 
BRANCH  13  14
ATOM     14  C   UNL     1      64.035  30.582   9.844  1.00  0.00     0.000 C 
BRANCH  14  15
ATOM     15  C   UNL     1      64.100  30.636  11.378  1.00  0.00     0.000 C 
BRANCH  15  16
ATOM     16  C   UNL     1      63.585  31.971  11.948  1.00  0.00     0.000 C 
BRANCH  16  17
ATOM     17  C   UNL     1      64.705  32.817  12.571  1.00  0.00     0.000 C 
BRANCH  17  18
ATOM     18  C   UNL     1      64.337  33.357  13.964  1.00  0.00     0.000 C 
BRANCH  18  19
ATOM     19  C   UNL     1      64.345  32.247  15.035  1.00  0.00     0.000 C 
BRANCH  19  20
ATOM     20  C   UNL     1      63.698  32.662  16.370  1.00  0.00     0.006 C 
BRANCH  20  21
ATOM     21  C   UNL     1      63.514  34.183  16.535  1.00  0.00     0.053 C 
BRANCH  21  22
ATOM     22  C   UNL     1      63.264  34.592  17.957  1.00  0.00     0.041 C 
ATOM     23  O   UNL     1      64.230  34.800  18.739  1.00  0.00    -0.550 OA
ATOM     24  O   UNL     1      61.965  34.678  18.439  1.00  0.00    -0.550 OA
ENDBRANCH  21  22
ENDBRANCH  20  21
ENDBRANCH  19  20
ENDBRANCH  18  19
ENDBRANCH  17  18
ENDBRANCH  16  17
ENDBRANCH  15  16
ENDBRANCH  14  15
ENDBRANCH  13  14
ENDBRANCH   1  13
TORSDOF 20
ENDMDL
MODEL 3
REMARK VINA RESULT:    -4.866      1.238      4.161
REMARK INTER + INTRA:         -13.727
REMARK INTER:                 -10.317
REMARK INTRA:                  -3.410
REMARK UNBOUND:                -3.172
REMARK SMILES CCCCCCCCCCCCCCCCCCCCCC(=O)[O-]
REMARK SMILES IDX 12 1 11 2 10 3 9 4 8 5 7 6 6 7 5 8 4 9 3 10 2 11 1 12 13 13
REMARK SMILES IDX 14 14 15 15 16 16 17 17 18 18 19 19 20 20 21 21 22 22 23 23
REMARK SMILES IDX 24 24
REMARK H PARENT
REMARK Flexibility Score: inf
ROOT
ATOM      1  C   UNL     1      64.101  30.697  14.289  1.00  0.00     0.000 C 
ENDROOT
BRANCH   1   2
ATOM      2  C   UNL     1      64.458  32.127  14.747  1.00  0.00     0.000 C 
BRANCH   2   3
ATOM      3  C   UNL     1      64.626  33.155  13.612  1.00  0.00     0.000 C 
BRANCH   3   4
ATOM      4  C   UNL     1      64.143  32.682  12.227  1.00  0.00    -0.000 C 
BRANCH   4   5
ATOM      5  C   UNL     1      65.237  32.711  11.139  1.00  0.00    -0.000 C 
BRANCH   5   6
ATOM      6  C   UNL     1      65.030  31.637  10.060  1.00  0.00    -0.000 C 
BRANCH   6   7
ATOM      7  C   UNL     1      63.935  30.645  10.473  1.00  0.00    -0.000 C 
BRANCH   7   8
ATOM      8  C   UNL     1      63.940  29.412   9.556  1.00  0.00    -0.000 C 
BRANCH   8   9
ATOM      9  C   UNL     1      62.537  29.053   9.042  1.00  0.00    -0.000 C 
BRANCH   9  10
ATOM     10  C   UNL     1      61.627  28.487  10.148  1.00  0.00    -0.000 C 
BRANCH  10  11
ATOM     11  C   UNL     1      60.136  28.725   9.861  1.00  0.00    -0.003 C 
ATOM     12  C   UNL     1      59.890  29.959   8.994  1.00  0.00     0.004 C 
ENDBRANCH  10  11
ENDBRANCH   9  10
ENDBRANCH   8   9
ENDBRANCH   7   8
ENDBRANCH   6   7
ENDBRANCH   5   6
ENDBRANCH   4   5
ENDBRANCH   3   4
ENDBRANCH   2   3
ENDBRANCH   1   2
BRANCH   1  13
ATOM     13  C   UNL     1      62.791  30.130  14.866  1.00  0.00     0.000 C 
BRANCH  13  14
ATOM     14  C   UNL     1      61.830  29.622  13.778  1.00  0.00     0.000 C 
BRANCH  14  15
ATOM     15  C   UNL     1      61.304  30.754  12.881  1.00  0.00     0.000 C 
BRANCH  15  16
ATOM     16  C   UNL     1      59.836  31.113  13.176  1.00  0.00     0.000 C 
BRANCH  16  17
ATOM     17  C   UNL     1      59.692  32.080  14.360  1.00  0.00     0.000 C 
BRANCH  17  18
ATOM     18  C   UNL     1      60.708  33.235  14.310  1.00  0.00     0.000 C 
BRANCH  18  19
ATOM     19  C   UNL     1      60.931  33.868  15.699  1.00  0.00     0.000 C 
BRANCH  19  20
ATOM     20  C   UNL     1      61.425  32.873  16.766  1.00  0.00     0.006 C 
BRANCH  20  21
ATOM     21  C   UNL     1      62.586  33.402  17.631  1.00  0.00     0.053 C 
BRANCH  21  22
ATOM     22  C   UNL     1      62.151  33.813  19.007  1.00  0.00     0.041 C 
ATOM     23  O   UNL     1      60.929  33.812  19.316  1.00  0.00    -0.550 OA
ATOM     24  O   UNL     1      63.088  34.262  19.928  1.00  0.00    -0.550 OA
ENDBRANCH  21  22
ENDBRANCH  20  21
ENDBRANCH  19  20
ENDBRANCH  18  19
ENDBRANCH  17  18
ENDBRANCH  16  17
ENDBRANCH  15  16
ENDBRANCH  14  15
ENDBRANCH  13  14
ENDBRANCH   1  13
TORSDOF 20
ENDMDL
MODEL 4
REMARK VINA RESULT:    -4.852      1.047      1.903
REMARK INTER + INTRA:         -13.697
REMARK INTER:                 -11.053
REMARK INTRA:                  -2.644
REMARK UNBOUND:                -3.172
REMARK SMILES CCCCCCCCCCCCCCCCCCCCCC(=O)[O-]
REMARK SMILES IDX 12 1 11 2 10 3 9 4 8 5 7 6 6 7 5 8 4 9 3 10 2 11 1 12 13 13
REMARK SMILES IDX 14 14 15 15 16 16 17 17 18 18 19 19 20 20 21 21 22 22 23 23
REMARK SMILES IDX 24 24
REMARK H PARENT
REMARK Flexibility Score: inf
ROOT
ATOM      1  C   UNL     1      60.639  28.363  13.340  1.00  0.00     0.000 C 
ENDROOT
BRANCH   1   2
ATOM      2  C   UNL     1      59.453  28.533  12.368  1.00  0.00     0.000 C 
BRANCH   2   3
ATOM      3  C   UNL     1      59.676  29.552  11.235  1.00  0.00     0.000 C 
BRANCH   3   4
ATOM      4  C   UNL     1      59.900  28.937   9.839  1.00  0.00    -0.000 C 
BRANCH   4   5
ATOM      5  C   UNL     1      61.311  28.347   9.635  1.00  0.00    -0.000 C 
BRANCH   5   6
ATOM      6  C   UNL     1      62.300  29.364   9.045  1.00  0.00    -0.000 C 
BRANCH   6   7
ATOM      7  C   UNL     1      63.740  29.042   9.465  1.00  0.00    -0.000 C 
BRANCH   7   8
ATOM      8  C   UNL     1      64.684  30.203   9.120  1.00  0.00    -0.000 C 
BRANCH   8   9
ATOM      9  C   UNL     1      64.469  31.428  10.022  1.00  0.00    -0.000 C 
BRANCH   9  10
ATOM     10  C   UNL     1      64.148  31.043  11.477  1.00  0.00    -0.000 C 
BRANCH  10  11
ATOM     11  C   UNL     1      63.791  32.262  12.343  1.00  0.00    -0.003 C 
ATOM     12  C   UNL     1      64.942  33.261  12.459  1.00  0.00     0.004 C 
ENDBRANCH  10  11
ENDBRANCH   9  10
ENDBRANCH   8   9
ENDBRANCH   7   8
ENDBRANCH   6   7
ENDBRANCH   5   6
ENDBRANCH   4   5
ENDBRANCH   3   4
ENDBRANCH   2   3
ENDBRANCH   1   2
BRANCH   1  13
ATOM     13  C   UNL     1      61.554  29.592  13.483  1.00  0.00     0.000 C 
BRANCH  13  14
ATOM     14  C   UNL     1      61.681  30.077  14.937  1.00  0.00     0.000 C 
BRANCH  14  15
ATOM     15  C   UNL     1      60.533  31.010  15.351  1.00  0.00     0.000 C 
BRANCH  15  16
ATOM     16  C   UNL     1      60.073  31.932  14.206  1.00  0.00     0.000 C 
BRANCH  16  17
ATOM     17  C   UNL     1      60.788  33.291  14.222  1.00  0.00     0.000 C 
BRANCH  17  18
ATOM     18  C   UNL     1      61.185  33.737  15.640  1.00  0.00     0.000 C 
BRANCH  18  19
ATOM     19  C   UNL     1      62.715  33.840  15.805  1.00  0.00     0.000 C 
BRANCH  19  20
ATOM     20  C   UNL     1      63.306  32.820  16.798  1.00  0.00     0.006 C 
BRANCH  20  21
ATOM     21  C   UNL     1      64.053  33.457  17.986  1.00  0.00     0.053 C 
BRANCH  21  22
ATOM     22  C   UNL     1      63.166  33.706  19.170  1.00  0.00     0.041 C 
ATOM     23  O   UNL     1      61.944  33.406  19.125  1.00  0.00    -0.550 OA
ATOM     24  O   UNL     1      63.675  34.331  20.301  1.00  0.00    -0.550 OA
ENDBRANCH  21  22
ENDBRANCH  20  21
ENDBRANCH  19  20
ENDBRANCH  18  19
ENDBRANCH  17  18
ENDBRANCH  16  17
ENDBRANCH  15  16
ENDBRANCH  14  15
ENDBRANCH  13  14
ENDBRANCH   1  13
TORSDOF 20
ENDMDL
MODEL 5
REMARK VINA RESULT:    -4.709      1.072      4.054
REMARK INTER + INTRA:         -13.387
REMARK INTER:                  -9.982
REMARK INTRA:                  -3.405
REMARK UNBOUND:                -3.172
REMARK SMILES CCCCCCCCCCCCCCCCCCCCCC(=O)[O-]
REMARK SMILES IDX 12 1 11 2 10 3 9 4 8 5 7 6 6 7 5 8 4 9 3 10 2 11 1 12 13 13
REMARK SMILES IDX 14 14 15 15 16 16 17 17 18 18 19 19 20 20 21 21 22 22 23 23
REMARK SMILES IDX 24 24
REMARK H PARENT
REMARK Flexibility Score: inf
ROOT
ATOM      1  C   UNL     1      62.370  29.688   9.344  1.00  0.00     0.000 C 
ENDROOT
BRANCH   1   2
ATOM      2  C   UNL     1      61.283  28.746   9.904  1.00  0.00     0.000 C 
BRANCH   2   3
ATOM      3  C   UNL     1      59.975  29.437  10.332  1.00  0.00     0.000 C 
BRANCH   3   4
ATOM      4  C   UNL     1      59.550  29.183  11.792  1.00  0.00    -0.000 C 
BRANCH   4   5
ATOM      5  C   UNL     1      60.436  28.159  12.532  1.00  0.00    -0.000 C 
BRANCH   5   6
ATOM      6  C   UNL     1      61.164  28.768  13.740  1.00  0.00    -0.000 C 
BRANCH   6   7
ATOM      7  C   UNL     1      62.599  29.167  13.375  1.00  0.00    -0.000 C 
BRANCH   7   8
ATOM      8  C   UNL     1      62.823  30.670  13.597  1.00  0.00    -0.000 C 
BRANCH   8   9
ATOM      9  C   UNL     1      62.050  31.538  12.591  1.00  0.00    -0.000 C 
BRANCH   9  10
ATOM     10  C   UNL     1      61.282  32.687  13.269  1.00  0.00    -0.000 C 
BRANCH  10  11
ATOM     11  C   UNL     1      61.002  32.412  14.755  1.00  0.00    -0.003 C 
ATOM     12  C   UNL     1      60.689  33.684  15.542  1.00  0.00     0.004 C 
ENDBRANCH  10  11
ENDBRANCH   9  10
ENDBRANCH   8   9
ENDBRANCH   7   8
ENDBRANCH   6   7
ENDBRANCH   5   6
ENDBRANCH   4   5
ENDBRANCH   3   4
ENDBRANCH   2   3
ENDBRANCH   1   2
BRANCH   1  13
ATOM     13  C   UNL     1      63.798  29.419   9.850  1.00  0.00     0.000 C 
BRANCH  13  14
ATOM     14  C   UNL     1      64.797  30.508   9.425  1.00  0.00     0.000 C 
BRANCH  14  15
ATOM     15  C   UNL     1      64.774  31.727  10.360  1.00  0.00     0.000 C 
BRANCH  15  16
ATOM     16  C   UNL     1      66.035  32.600  10.230  1.00  0.00     0.000 C 
BRANCH  16  17
ATOM     17  C   UNL     1      66.190  33.588  11.396  1.00  0.00     0.000 C 
BRANCH  17  18
ATOM     18  C   UNL     1      65.056  33.470  12.430  1.00  0.00     0.000 C 
BRANCH  18  19
ATOM     19  C   UNL     1      65.514  33.892  13.840  1.00  0.00     0.000 C 
BRANCH  19  20
ATOM     20  C   UNL     1      64.418  33.765  14.916  1.00  0.00     0.006 C 
BRANCH  20  21
ATOM     21  C   UNL     1      64.629  34.676  16.141  1.00  0.00     0.053 C 
BRANCH  21  22
ATOM     22  C   UNL     1      63.868  34.216  17.351  1.00  0.00     0.041 C 
ATOM     23  O   UNL     1      63.959  33.023  17.746  1.00  0.00    -0.550 OA
ATOM     24  O   UNL     1      63.007  35.088  18.003  1.00  0.00    -0.550 OA
ENDBRANCH  21  22
ENDBRANCH  20  21
ENDBRANCH  19  20
ENDBRANCH  18  19
ENDBRANCH  17  18
ENDBRANCH  16  17
ENDBRANCH  15  16
ENDBRANCH  14  15
ENDBRANCH  13  14
ENDBRANCH   1  13
TORSDOF 20
ENDMDL
MODEL 6
REMARK VINA RESULT:    -4.653      2.171      5.762
REMARK INTER + INTRA:         -13.266
REMARK INTER:                 -10.387
REMARK INTRA:                  -2.879
REMARK UNBOUND:                -3.172
REMARK SMILES CCCCCCCCCCCCCCCCCCCCCC(=O)[O-]
REMARK SMILES IDX 12 1 11 2 10 3 9 4 8 5 7 6 6 7 5 8 4 9 3 10 2 11 1 12 13 13
REMARK SMILES IDX 14 14 15 15 16 16 17 17 18 18 19 19 20 20 21 21 22 22 23 23
REMARK SMILES IDX 24 24
REMARK H PARENT
REMARK Flexibility Score: inf
ROOT
ATOM      1  C   UNL     1      61.791  28.780  13.041  1.00  0.00     0.000 C 
ENDROOT
BRANCH   1   2
ATOM      2  C   UNL     1      62.111  30.016  13.908  1.00  0.00     0.000 C 
BRANCH   2   3
ATOM      3  C   UNL     1      61.298  30.130  15.211  1.00  0.00     0.000 C 
BRANCH   3   4
ATOM      4  C   UNL     1      60.222  31.233  15.213  1.00  0.00    -0.000 C 
BRANCH   4   5
ATOM      5  C   UNL     1      60.201  32.091  13.930  1.00  0.00    -0.000 C 
BRANCH   5   6
ATOM      6  C   UNL     1      60.818  33.483  14.137  1.00  0.00    -0.000 C 
BRANCH   6   7
ATOM      7  C   UNL     1      60.502  34.023  15.538  1.00  0.00    -0.000 C 
BRANCH   7   8
ATOM      8  C   UNL     1      61.729  33.916  16.456  1.00  0.00    -0.000 C 
BRANCH   8   9
ATOM      9  C   UNL     1      63.037  33.719  15.674  1.00  0.00    -0.000 C 
BRANCH   9  10
ATOM     10  C   UNL     1      63.923  32.611  16.272  1.00  0.00    -0.000 C 
BRANCH  10  11
ATOM     11  C   UNL     1      65.367  33.078  16.514  1.00  0.00    -0.003 C 
ATOM     12  C   UNL     1      66.386  32.303  15.679  1.00  0.00     0.004 C 
ENDBRANCH  10  11
ENDBRANCH   9  10
ENDBRANCH   8   9
ENDBRANCH   7   8
ENDBRANCH   6   7
ENDBRANCH   5   6
ENDBRANCH   4   5
ENDBRANCH   3   4
ENDBRANCH   2   3
ENDBRANCH   1   2
BRANCH   1  13
ATOM     13  C   UNL     1      60.389  28.177  13.246  1.00  0.00     0.000 C 
BRANCH  13  14
ATOM     14  C   UNL     1      59.360  28.700  12.231  1.00  0.00     0.000 C 
BRANCH  14  15
ATOM     15  C   UNL     1      60.012  29.474  11.074  1.00  0.00     0.000 C 
BRANCH  15  16
ATOM     16  C   UNL     1      59.880  28.747   9.723  1.00  0.00     0.000 C 
BRANCH  16  17
ATOM     17  C   UNL     1      61.235  28.282   9.169  1.00  0.00     0.000 C 
BRANCH  17  18
ATOM     18  C   UNL     1      62.222  29.444   8.963  1.00  0.00     0.000 C 
BRANCH  18  19
ATOM     19  C   UNL     1      63.675  29.030   9.271  1.00  0.00     0.000 C 
BRANCH  19  20
ATOM     20  C   UNL     1      64.518  30.143   9.923  1.00  0.00     0.006 C 
BRANCH  20  21
ATOM     21  C   UNL     1      63.734  31.031  10.909  1.00  0.00     0.053 C 
BRANCH  21  22
ATOM     22  C   UNL     1      64.528  32.209  11.394  1.00  0.00     0.041 C 
ATOM     23  O   UNL     1      64.212  32.792  12.465  1.00  0.00    -0.550 OA
ATOM     24  O   UNL     1      65.576  32.704  10.630  1.00  0.00    -0.550 OA
ENDBRANCH  21  22
ENDBRANCH  20  21
ENDBRANCH  19  20
ENDBRANCH  18  19
ENDBRANCH  17  18
ENDBRANCH  16  17
ENDBRANCH  15  16
ENDBRANCH  14  15
ENDBRANCH  13  14
ENDBRANCH   1  13
TORSDOF 20
ENDMDL
MODEL 7
REMARK VINA RESULT:    -4.632      1.371      4.202
REMARK INTER + INTRA:         -13.220
REMARK INTER:                 -10.255
REMARK INTRA:                  -2.965
REMARK UNBOUND:                -3.172
REMARK SMILES CCCCCCCCCCCCCCCCCCCCCC(=O)[O-]
REMARK SMILES IDX 12 1 11 2 10 3 9 4 8 5 7 6 6 7 5 8 4 9 3 10 2 11 1 12 13 13
REMARK SMILES IDX 14 14 15 15 16 16 17 17 18 18 19 19 20 20 21 21 22 22 23 23
REMARK SMILES IDX 24 24
REMARK H PARENT
REMARK Flexibility Score: inf
ROOT
ATOM      1  C   UNL     1      63.741  29.953  10.866  1.00  0.00     0.000 C 
ENDROOT
BRANCH   1   2
ATOM      2  C   UNL     1      63.259  29.000   9.752  1.00  0.00     0.000 C 
BRANCH   2   3
ATOM      3  C   UNL     1      61.812  29.229   9.275  1.00  0.00     0.000 C 
BRANCH   3   4
ATOM      4  C   UNL     1      60.720  28.760  10.255  1.00  0.00    -0.000 C 
BRANCH   4   5
ATOM      5  C   UNL     1      60.113  29.896  11.106  1.00  0.00    -0.000 C 
BRANCH   5   6
ATOM      6  C   UNL     1      59.715  29.433  12.516  1.00  0.00    -0.000 C 
BRANCH   6   7
ATOM      7  C   UNL     1      60.655  28.330  13.020  1.00  0.00    -0.000 C 
BRANCH   7   8
ATOM      8  C   UNL     1      61.875  28.933  13.731  1.00  0.00    -0.000 C 
BRANCH   8   9
ATOM      9  C   UNL     1      61.511  30.138  14.612  1.00  0.00    -0.000 C 
BRANCH   9  10
ATOM     10  C   UNL     1      62.425  31.352  14.361  1.00  0.00    -0.000 C 
BRANCH  10  11
ATOM     11  C   UNL     1      61.692  32.505  13.656  1.00  0.00    -0.003 C 
ATOM     12  C   UNL     1      60.368  32.863  14.331  1.00  0.00     0.004 C 
ENDBRANCH  10  11
ENDBRANCH   9  10
ENDBRANCH   8   9
ENDBRANCH   7   8
ENDBRANCH   6   7
ENDBRANCH   5   6
ENDBRANCH   4   5
ENDBRANCH   3   4
ENDBRANCH   2   3
ENDBRANCH   1   2
BRANCH   1  13
ATOM     13  C   UNL     1      64.463  31.222  10.380  1.00  0.00     0.000 C 
BRANCH  13  14
ATOM     14  C   UNL     1      64.492  32.336  11.440  1.00  0.00     0.000 C 
BRANCH  14  15
ATOM     15  C   UNL     1      65.734  33.233  11.319  1.00  0.00     0.000 C 
BRANCH  15  16
ATOM     16  C   UNL     1      65.931  34.144  12.545  1.00  0.00     0.000 C 
BRANCH  16  17
ATOM     17  C   UNL     1      65.421  33.502  13.844  1.00  0.00     0.000 C 
BRANCH  17  18
ATOM     18  C   UNL     1      64.901  34.540  14.855  1.00  0.00     0.000 C 
BRANCH  18  19
ATOM     19  C   UNL     1      64.855  33.975  16.289  1.00  0.00     0.000 C 
BRANCH  19  20
ATOM     20  C   UNL     1      63.751  34.594  17.168  1.00  0.00     0.006 C 
BRANCH  20  21
ATOM     21  C   UNL     1      62.858  33.559  17.880  1.00  0.00     0.053 C 
BRANCH  21  22
ATOM     22  C   UNL     1      61.490  34.087  18.200  1.00  0.00     0.041 C 
ATOM     23  O   UNL     1      60.833  34.722  17.332  1.00  0.00    -0.550 OA
ATOM     24  O   UNL     1      60.967  33.936  19.477  1.00  0.00    -0.550 OA
ENDBRANCH  21  22
ENDBRANCH  20  21
ENDBRANCH  19  20
ENDBRANCH  18  19
ENDBRANCH  17  18
ENDBRANCH  16  17
ENDBRANCH  15  16
ENDBRANCH  14  15
ENDBRANCH  13  14
ENDBRANCH   1  13
TORSDOF 20
ENDMDL
MODEL 8
REMARK VINA RESULT:    -4.582      1.465      5.532
REMARK INTER + INTRA:         -13.111
REMARK INTER:                 -10.204
REMARK INTRA:                  -2.907
REMARK UNBOUND:                -3.172
REMARK SMILES CCCCCCCCCCCCCCCCCCCCCC(=O)[O-]
REMARK SMILES IDX 12 1 11 2 10 3 9 4 8 5 7 6 6 7 5 8 4 9 3 10 2 11 1 12 13 13
REMARK SMILES IDX 14 14 15 15 16 16 17 17 18 18 19 19 20 20 21 21 22 22 23 23
REMARK SMILES IDX 24 24
REMARK H PARENT
REMARK Flexibility Score: inf
ROOT
ATOM      1  C   UNL     1      60.788  28.583  12.935  1.00  0.00     0.000 C 
ENDROOT
BRANCH   1   2
ATOM      2  C   UNL     1      61.040  29.659  14.012  1.00  0.00     0.000 C 
BRANCH   2   3
ATOM      3  C   UNL     1      60.333  31.006  13.770  1.00  0.00     0.000 C 
BRANCH   3   4
ATOM      4  C   UNL     1      60.209  31.910  15.012  1.00  0.00    -0.000 C 
BRANCH   4   5
ATOM      5  C   UNL     1      60.412  33.411  14.716  1.00  0.00    -0.000 C 
BRANCH   5   6
ATOM      6  C   UNL     1      60.799  34.215  15.967  1.00  0.00    -0.000 C 
BRANCH   6   7
ATOM      7  C   UNL     1      61.445  33.312  17.025  1.00  0.00    -0.000 C 
BRANCH   7   8
ATOM      8  C   UNL     1      61.512  34.023  18.385  1.00  0.00    -0.000 C 
BRANCH   8   9
ATOM      9  C   UNL     1      62.756  33.630  19.197  1.00  0.00    -0.000 C 
BRANCH   9  10
ATOM     10  C   UNL     1      64.046  33.661  18.357  1.00  0.00    -0.000 C 
BRANCH  10  11
ATOM     11  C   UNL     1      64.474  35.092  17.991  1.00  0.00    -0.003 C 
ATOM     12  C   UNL     1      64.867  35.233  16.521  1.00  0.00     0.004 C 
ENDBRANCH  10  11
ENDBRANCH   9  10
ENDBRANCH   8   9
ENDBRANCH   7   8
ENDBRANCH   6   7
ENDBRANCH   5   6
ENDBRANCH   4   5
ENDBRANCH   3   4
ENDBRANCH   2   3
ENDBRANCH   1   2
BRANCH   1  13
ATOM     13  C   UNL     1      59.627  28.879  11.968  1.00  0.00     0.000 C 
BRANCH  13  14
ATOM     14  C   UNL     1      60.101  29.156  10.532  1.00  0.00     0.000 C 
BRANCH  14  15
ATOM     15  C   UNL     1      61.331  28.320  10.145  1.00  0.00     0.000 C 
BRANCH  15  16
ATOM     16  C   UNL     1      62.347  29.112   9.301  1.00  0.00     0.000 C 
BRANCH  16  17
ATOM     17  C   UNL     1      63.680  29.328  10.034  1.00  0.00     0.000 C 
BRANCH  17  18
ATOM     18  C   UNL     1      63.911  30.798  10.424  1.00  0.00     0.000 C 
BRANCH  18  19
ATOM     19  C   UNL     1      63.737  31.028  11.939  1.00  0.00     0.000 C 
BRANCH  19  20
ATOM     20  C   UNL     1      64.208  32.414  12.419  1.00  0.00     0.006 C 
BRANCH  20  21
ATOM     21  C   UNL     1      63.732  32.786  13.836  1.00  0.00     0.053 C 
BRANCH  21  22
ATOM     22  C   UNL     1      64.397  31.975  14.909  1.00  0.00     0.041 C 
ATOM     23  O   UNL     1      63.720  31.193  15.629  1.00  0.00    -0.550 OA
ATOM     24  O   UNL     1      65.754  32.131  15.160  1.00  0.00    -0.550 OA
ENDBRANCH  21  22
ENDBRANCH  20  21
ENDBRANCH  19  20
ENDBRANCH  18  19
ENDBRANCH  17  18
ENDBRANCH  16  17
ENDBRANCH  15  16
ENDBRANCH  14  15
ENDBRANCH  13  14
ENDBRANCH   1  13
TORSDOF 20
ENDMDL
MODEL 9
REMARK VINA RESULT:    -4.519      2.810      6.754
REMARK INTER + INTRA:         -12.975
REMARK INTER:                  -9.468
REMARK INTRA:                  -3.506
REMARK UNBOUND:                -3.172
REMARK SMILES CCCCCCCCCCCCCCCCCCCCCC(=O)[O-]
REMARK SMILES IDX 12 1 11 2 10 3 9 4 8 5 7 6 6 7 5 8 4 9 3 10 2 11 1 12 13 13
REMARK SMILES IDX 14 14 15 15 16 16 17 17 18 18 19 19 20 20 21 21 22 22 23 23
REMARK SMILES IDX 24 24
REMARK H PARENT
REMARK Flexibility Score: inf
ROOT
ATOM      1  C   UNL     1      61.811  30.482  15.181  1.00  0.00     0.000 C 
ENDROOT
BRANCH   1   2
ATOM      2  C   UNL     1      60.811  31.615  14.866  1.00  0.00     0.000 C 
BRANCH   2   3
ATOM      3  C   UNL     1      61.402  33.037  14.893  1.00  0.00     0.000 C 
BRANCH   3   4
ATOM      4  C   UNL     1      60.567  34.076  15.665  1.00  0.00    -0.000 C 
BRANCH   4   5
ATOM      5  C   UNL     1      61.224  34.559  16.976  1.00  0.00    -0.000 C 
BRANCH   5   6
ATOM      6  C   UNL     1      61.497  33.412  17.960  1.00  0.00    -0.000 C 
BRANCH   6   7
ATOM      7  C   UNL     1      62.935  33.473  18.492  1.00  0.00    -0.000 C 
BRANCH   7   8
ATOM      8  C   UNL     1      63.879  34.091  17.450  1.00  0.00    -0.000 C 
BRANCH   8   9
ATOM      9  C   UNL     1      65.213  33.337  17.338  1.00  0.00    -0.000 C 
BRANCH   9  10
ATOM     10  C   UNL     1      65.911  33.566  15.985  1.00  0.00    -0.000 C 
BRANCH  10  11
ATOM     11  C   UNL     1      65.036  34.354  14.998  1.00  0.00    -0.003 C 
ATOM     12  C   UNL     1      65.048  33.756  13.591  1.00  0.00     0.004 C 
ENDBRANCH  10  11
ENDBRANCH   9  10
ENDBRANCH   8   9
ENDBRANCH   7   8
ENDBRANCH   6   7
ENDBRANCH   5   6
ENDBRANCH   4   5
ENDBRANCH   3   4
ENDBRANCH   2   3
ENDBRANCH   1   2
BRANCH   1  13
ATOM     13  C   UNL     1      63.287  30.913  15.270  1.00  0.00     0.000 C 
BRANCH  13  14
ATOM     14  C   UNL     1      64.187  30.171  14.268  1.00  0.00     0.000 C 
BRANCH  14  15
ATOM     15  C   UNL     1      63.456  29.829  12.960  1.00  0.00     0.000 C 
BRANCH  15  16
ATOM     16  C   UNL     1      63.533  30.963  11.921  1.00  0.00     0.000 C 
BRANCH  16  17
ATOM     17  C   UNL     1      64.108  30.493  10.577  1.00  0.00     0.000 C 
BRANCH  17  18
ATOM     18  C   UNL     1      63.434  29.210  10.058  1.00  0.00     0.000 C 
BRANCH  18  19
ATOM     19  C   UNL     1      62.400  29.507   8.954  1.00  0.00     0.000 C 
BRANCH  19  20
ATOM     20  C   UNL     1      60.952  29.150   9.343  1.00  0.00     0.006 C 
BRANCH  20  21
ATOM     21  C   UNL     1      60.819  28.457  10.713  1.00  0.00     0.053 C 
BRANCH  21  22
ATOM     22  C   UNL     1      59.958  29.222  11.675  1.00  0.00     0.041 C 
ATOM     23  O   UNL     1      59.990  30.481  11.697  1.00  0.00    -0.550 OA
ATOM     24  O   UNL     1      59.169  28.542  12.593  1.00  0.00    -0.550 OA
ENDBRANCH  21  22
ENDBRANCH  20  21
ENDBRANCH  19  20
ENDBRANCH  18  19
ENDBRANCH  17  18
ENDBRANCH  16  17
ENDBRANCH  15  16
ENDBRANCH  14  15
ENDBRANCH  13  14
ENDBRANCH   1  13
TORSDOF 20
ENDMDL
