MODEL 1
REMARK VINA RESULT:    -2.758      0.000      0.000
REMARK INTER + INTRA:          -8.570
REMARK INTER:                  -6.949
REMARK INTRA:                  -1.621
REMARK UNBOUND:                -1.621
REMARK SMILES CCCCCCCCCCCCCCCCCCCCCCCCCCCC(=O)[O-]
REMARK SMILES IDX 15 1 16 2 17 3 18 4 19 5 20 6 21 7 22 8 23 9 24 10 25 11
REMARK SMILES IDX 26 12 27 13 28 14 29 15 30 16 14 17 13 18 12 19 11 20 10 21
REMARK SMILES IDX 9 22 8 23 7 24 6 25 5 26 4 27 3 28 2 29 1 30
REMARK H PARENT
REMARK Flexibility Score: inf
ROOT
ATOM      1  C   UNL     1      20.160  34.177  11.614  1.00  0.00     0.000 C 
ENDROOT
BRANCH   1   2
ATOM      2  C   UNL     1      20.509  34.467  13.084  1.00  0.00     0.000 C 
BRANCH   2   3
ATOM      3  C   UNL     1      21.896  35.110  13.253  1.00  0.00     0.000 C 
BRANCH   3   4
ATOM      4  C   UNL     1      22.002  36.175  14.364  1.00  0.00     0.000 C 
BRANCH   4   5
ATOM      5  C   UNL     1      23.286  36.074  15.213  1.00  0.00     0.000 C 
BRANCH   5   6
ATOM      6  C   UNL     1      24.481  36.811  14.577  1.00  0.00     0.000 C 
BRANCH   6   7
ATOM      7  C   UNL     1      25.841  36.326  15.108  1.00  0.00     0.000 C 
BRANCH   7   8
ATOM      8  C   UNL     1      26.936  36.158  14.039  1.00  0.00     0.000 C 
BRANCH   8   9
ATOM      9  C   UNL     1      26.431  36.414  12.607  1.00  0.00     0.000 C 
BRANCH   9  10
ATOM     10  C   UNL     1      26.788  35.256  11.649  1.00  0.00     0.000 C 
BRANCH  10  11
ATOM     11  C   UNL     1      26.986  33.898  12.354  1.00  0.00     0.000 C 
BRANCH  11  12
ATOM     12  C   UNL     1      25.789  32.933  12.263  1.00  0.00     0.006 C 
BRANCH  12  13
ATOM     13  C   UNL     1      24.522  33.419  12.986  1.00  0.00     0.053 C 
BRANCH  13  14
ATOM     14  C   UNL     1      24.309  32.701  14.284  1.00  0.00     0.041 C 
ATOM     15  O   UNL     1      25.080  32.913  15.257  1.00  0.00    -0.550 OA
ATOM     16  O   UNL     1      23.277  31.779  14.412  1.00  0.00    -0.550 OA
ENDBRANCH  13  14
ENDBRANCH  12  13
ENDBRANCH  11  12
ENDBRANCH  10  11
ENDBRANCH   9  10
ENDBRANCH   8   9
ENDBRANCH   7   8
ENDBRANCH   6   7
ENDBRANCH   5   6
ENDBRANCH   4   5
ENDBRANCH   3   4
ENDBRANCH   2   3
ENDBRANCH   1   2
BRANCH   1  17
ATOM     17  C   UNL     1      18.644  34.096  11.366  1.00  0.00     0.000 C 
BRANCH  17  18
ATOM     18  C   UNL     1      18.217  33.130  10.244  1.00  0.00     0.000 C 
BRANCH  18  19
ATOM     19  C   UNL     1      16.930  32.326  10.520  1.00  0.00     0.000 C 
BRANCH  19  20
ATOM     20  C   UNL     1      17.062  30.798  10.361  1.00  0.00     0.000 C 
BRANCH  20  21
ATOM     21  C   UNL     1      15.869  29.979  10.891  1.00  0.00     0.000 C 
BRANCH  21  22
ATOM     22  C   UNL     1      16.024  28.454  10.767  1.00  0.00    -0.000 C 
BRANCH  22  23
ATOM     23  C   UNL     1      15.910  27.731  12.117  1.00  0.00    -0.000 C 
BRANCH  23  24
ATOM     24  C   UNL     1      16.436  26.295  12.016  1.00  0.00    -0.000 C 
BRANCH  24  25
ATOM     25  C   UNL     1      16.214  25.529  13.328  1.00  0.00    -0.000 C 
BRANCH  25  26
ATOM     26  C   UNL     1      16.556  24.036  13.192  1.00  0.00    -0.000 C 
BRANCH  26  27
ATOM     27  C   UNL     1      16.882  23.645  11.739  1.00  0.00    -0.000 C 
BRANCH  27  28
ATOM     28  C   UNL     1      18.396  23.439  11.517  1.00  0.00    -0.000 C 
BRANCH  28  29
ATOM     29  C   UNL     1      19.019  24.472  10.561  1.00  0.00    -0.003 C 
ATOM     30  C   UNL     1      20.544  24.496  10.626  1.00  0.00     0.004 C 
ENDBRANCH  28  29
ENDBRANCH  27  28
ENDBRANCH  26  27
ENDBRANCH  25  26
ENDBRANCH  24  25
ENDBRANCH  23  24
ENDBRANCH  22  23
ENDBRANCH  21  22
ENDBRANCH  20  21
ENDBRANCH  19  20
ENDBRANCH  18  19
ENDBRANCH  17  18
ENDBRANCH   1  17
TORSDOF 26
ENDMDL
MODEL 2
REMARK VINA RESULT:    -2.568      1.070      2.679
REMARK INTER + INTRA:          -8.091
REMARK INTER:                  -6.758
REMARK INTRA:                  -1.333
REMARK UNBOUND:                -1.621
REMARK SMILES CCCCCCCCCCCCCCCCCCCCCCCCCCCC(=O)[O-]
REMARK SMILES IDX 15 1 16 2 17 3 18 4 19 5 20 6 21 7 22 8 23 9 24 10 25 11
REMARK SMILES IDX 26 12 27 13 28 14 29 15 30 16 14 17 13 18 12 19 11 20 10 21
REMARK SMILES IDX 9 22 8 23 7 24 6 25 5 26 4 27 3 28 2 29 1 30
REMARK H PARENT
REMARK Flexibility Score: inf
ROOT
ATOM      1  C   UNL     1      18.292  32.884  10.234  1.00  0.00     0.000 C 
ENDROOT
BRANCH   1   2
ATOM      2  C   UNL     1      18.515  34.025  11.241  1.00  0.00     0.000 C 
BRANCH   2   3
ATOM      3  C   UNL     1      20.005  34.308  11.500  1.00  0.00     0.000 C 
BRANCH   3   4
ATOM      4  C   UNL     1      20.431  34.306  12.984  1.00  0.00     0.000 C 
BRANCH   4   5
ATOM      5  C   UNL     1      21.844  34.870  13.235  1.00  0.00     0.000 C 
BRANCH   5   6
ATOM      6  C   UNL     1      22.029  35.398  14.670  1.00  0.00     0.000 C 
BRANCH   6   7
ATOM      7  C   UNL     1      22.954  36.626  14.748  1.00  0.00     0.000 C 
BRANCH   7   8
ATOM      8  C   UNL     1      24.055  36.546  15.821  1.00  0.00     0.000 C 
BRANCH   8   9
ATOM      9  C   UNL     1      25.305  37.373  15.471  1.00  0.00     0.000 C 
BRANCH   9  10
ATOM     10  C   UNL     1      26.596  36.527  15.527  1.00  0.00     0.000 C 
BRANCH  10  11
ATOM     11  C   UNL     1      27.036  35.963  14.160  1.00  0.00     0.000 C 
BRANCH  11  12
ATOM     12  C   UNL     1      26.740  34.468  13.943  1.00  0.00     0.006 C 
BRANCH  12  13
ATOM     13  C   UNL     1      26.629  34.047  12.469  1.00  0.00     0.053 C 
BRANCH  13  14
ATOM     14  C   UNL     1      25.575  33.002  12.264  1.00  0.00     0.041 C 
ATOM     15  O   UNL     1      24.612  32.910  13.070  1.00  0.00    -0.550 OA
ATOM     16  O   UNL     1      25.670  32.113  11.200  1.00  0.00    -0.550 OA
ENDBRANCH  13  14
ENDBRANCH  12  13
ENDBRANCH  11  12
ENDBRANCH  10  11
ENDBRANCH   9  10
ENDBRANCH   8   9
ENDBRANCH   7   8
ENDBRANCH   6   7
ENDBRANCH   5   6
ENDBRANCH   4   5
ENDBRANCH   3   4
ENDBRANCH   2   3
ENDBRANCH   1   2
BRANCH   1  17
ATOM     17  C   UNL     1      16.982  32.117  10.483  1.00  0.00     0.000 C 
BRANCH  17  18
ATOM     18  C   UNL     1      17.067  30.593  10.271  1.00  0.00     0.000 C 
BRANCH  18  19
ATOM     19  C   UNL     1      15.874  29.783  10.819  1.00  0.00     0.000 C 
BRANCH  19  20
ATOM     20  C   UNL     1      16.064  28.253  10.821  1.00  0.00     0.000 C 
BRANCH  20  21
ATOM     21  C   UNL     1      15.916  27.576  12.198  1.00  0.00     0.000 C 
BRANCH  21  22
ATOM     22  C   UNL     1      16.437  26.131  12.269  1.00  0.00    -0.000 C 
BRANCH  22  23
ATOM     23  C   UNL     1      16.249  25.497  13.654  1.00  0.00    -0.000 C 
BRANCH  23  24
ATOM     24  C   UNL     1      16.546  23.993  13.615  1.00  0.00    -0.000 C 
BRANCH  24  25
ATOM     25  C   UNL     1      15.788  23.309  12.468  1.00  0.00    -0.000 C 
BRANCH  25  26
ATOM     26  C   UNL     1      16.743  22.689  11.433  1.00  0.00    -0.000 C 
BRANCH  26  27
ATOM     27  C   UNL     1      18.171  23.251  11.550  1.00  0.00    -0.000 C 
BRANCH  27  28
ATOM     28  C   UNL     1      18.641  23.927  10.245  1.00  0.00    -0.000 C 
BRANCH  28  29
ATOM     29  C   UNL     1      19.832  24.880  10.445  1.00  0.00    -0.003 C 
ATOM     30  C   UNL     1      21.151  24.142  10.670  1.00  0.00     0.004 C 
ENDBRANCH  28  29
ENDBRANCH  27  28
ENDBRANCH  26  27
ENDBRANCH  25  26
ENDBRANCH  24  25
ENDBRANCH  23  24
ENDBRANCH  22  23
ENDBRANCH  21  22
ENDBRANCH  20  21
ENDBRANCH  19  20
ENDBRANCH  18  19
ENDBRANCH  17  18
ENDBRANCH   1  17
TORSDOF 26
ENDMDL
MODEL 3
REMARK VINA RESULT:    -2.561      2.821     10.956
REMARK INTER + INTRA:          -8.075
REMARK INTER:                  -6.637
REMARK INTRA:                  -1.437
REMARK UNBOUND:                -1.621
REMARK SMILES CCCCCCCCCCCCCCCCCCCCCCCCCCCC(=O)[O-]
REMARK SMILES IDX 15 1 16 2 17 3 18 4 19 5 20 6 21 7 22 8 23 9 24 10 25 11
REMARK SMILES IDX 26 12 27 13 28 14 29 15 30 16 14 17 13 18 12 19 11 20 10 21
REMARK SMILES IDX 9 22 8 23 7 24 6 25 5 26 4 27 3 28 2 29 1 30
REMARK H PARENT
REMARK Flexibility Score: inf
ROOT
ATOM      1  C   UNL     1      21.831  34.563  12.989  1.00  0.00     0.000 C 
ENDROOT
BRANCH   1   2
ATOM      2  C   UNL     1      20.330  34.316  12.755  1.00  0.00     0.000 C 
BRANCH   2   3
ATOM      3  C   UNL     1      19.968  34.215  11.263  1.00  0.00     0.000 C 
BRANCH   3   4
ATOM      4  C   UNL     1      18.459  34.122  10.953  1.00  0.00     0.000 C 
BRANCH   4   5
ATOM      5  C   UNL     1      18.062  32.887  10.119  1.00  0.00     0.000 C 
BRANCH   5   6
ATOM      6  C   UNL     1      16.931  32.066  10.769  1.00  0.00     0.000 C 
BRANCH   6   7
ATOM      7  C   UNL     1      16.923  30.592  10.324  1.00  0.00     0.000 C 
BRANCH   7   8
ATOM      8  C   UNL     1      15.854  29.714  11.000  1.00  0.00     0.000 C 
BRANCH   8   9
ATOM      9  C   UNL     1      15.854  28.261  10.492  1.00  0.00     0.000 C 
BRANCH   9  10
ATOM     10  C   UNL     1      16.158  27.250  11.620  1.00  0.00     0.000 C 
BRANCH  10  11
ATOM     11  C   UNL     1      17.053  26.073  11.181  1.00  0.00     0.000 C 
BRANCH  11  12
ATOM     12  C   UNL     1      16.973  24.821  12.075  1.00  0.00     0.006 C 
BRANCH  12  13
ATOM     13  C   UNL     1      17.391  23.515  11.381  1.00  0.00     0.053 C 
BRANCH  13  14
ATOM     14  C   UNL     1      18.554  23.719  10.459  1.00  0.00     0.041 C 
ATOM     15  O   UNL     1      18.583  23.140   9.341  1.00  0.00    -0.550 OA
ATOM     16  O   UNL     1      19.617  24.526  10.844  1.00  0.00    -0.550 OA
ENDBRANCH  13  14
ENDBRANCH  12  13
ENDBRANCH  11  12
ENDBRANCH  10  11
ENDBRANCH   9  10
ENDBRANCH   8   9
ENDBRANCH   7   8
ENDBRANCH   6   7
ENDBRANCH   5   6
ENDBRANCH   4   5
ENDBRANCH   3   4
ENDBRANCH   2   3
ENDBRANCH   1   2
BRANCH   1  17
ATOM     17  C   UNL     1      22.114  35.310  14.304  1.00  0.00     0.000 C 
BRANCH  17  18
ATOM     18  C   UNL     1      21.717  34.550  15.585  1.00  0.00     0.000 C 
BRANCH  18  19
ATOM     19  C   UNL     1      22.273  33.116  15.700  1.00  0.00     0.000 C 
BRANCH  19  20
ATOM     20  C   UNL     1      23.122  32.643  14.503  1.00  0.00     0.000 C 
BRANCH  20  21
ATOM     21  C   UNL     1      24.633  32.518  14.781  1.00  0.00     0.000 C 
BRANCH  21  22
ATOM     22  C   UNL     1      25.167  33.446  15.885  1.00  0.00    -0.000 C 
BRANCH  22  23
ATOM     23  C   UNL     1      26.679  33.692  15.776  1.00  0.00    -0.000 C 
BRANCH  23  24
ATOM     24  C   UNL     1      26.970  35.139  15.359  1.00  0.00    -0.000 C 
BRANCH  24  25
ATOM     25  C   UNL     1      25.687  35.858  14.919  1.00  0.00    -0.000 C 
BRANCH  25  26
ATOM     26  C   UNL     1      25.710  36.219  13.423  1.00  0.00    -0.000 C 
BRANCH  26  27
ATOM     27  C   UNL     1      27.040  35.830  12.753  1.00  0.00    -0.000 C 
BRANCH  27  28
ATOM     28  C   UNL     1      26.837  34.828  11.596  1.00  0.00    -0.000 C 
BRANCH  28  29
ATOM     29  C   UNL     1      26.835  33.359  12.053  1.00  0.00    -0.003 C 
ATOM     30  C   UNL     1      25.875  32.487  11.246  1.00  0.00     0.004 C 
ENDBRANCH  28  29
ENDBRANCH  27  28
ENDBRANCH  26  27
ENDBRANCH  25  26
ENDBRANCH  24  25
ENDBRANCH  23  24
ENDBRANCH  22  23
ENDBRANCH  21  22
ENDBRANCH  20  21
ENDBRANCH  19  20
ENDBRANCH  18  19
ENDBRANCH  17  18
ENDBRANCH   1  17
TORSDOF 26
ENDMDL
MODEL 4
REMARK VINA RESULT:    -2.367     10.098     13.887
REMARK INTER + INTRA:          -7.585
REMARK INTER:                  -5.932
REMARK INTRA:                  -1.653
REMARK UNBOUND:                -1.621
REMARK SMILES CCCCCCCCCCCCCCCCCCCCCCCCCCCC(=O)[O-]
REMARK SMILES IDX 15 1 16 2 17 3 18 4 19 5 20 6 21 7 22 8 23 9 24 10 25 11
REMARK SMILES IDX 26 12 27 13 28 14 29 15 30 16 14 17 13 18 12 19 11 20 10 21
REMARK SMILES IDX 9 22 8 23 7 24 6 25 5 26 4 27 3 28 2 29 1 30
REMARK H PARENT
REMARK Flexibility Score: inf
ROOT
ATOM      1  C   UNL     1      15.440  22.838   5.137  1.00  0.00     0.000 C 
ENDROOT
BRANCH   1   2
ATOM      2  C   UNL     1      16.963  22.667   4.998  1.00  0.00     0.000 C 
BRANCH   2   3
ATOM      3  C   UNL     1      17.753  23.835   5.613  1.00  0.00     0.000 C 
BRANCH   3   4
ATOM      4  C   UNL     1      18.761  24.523   4.668  1.00  0.00     0.000 C 
BRANCH   4   5
ATOM      5  C   UNL     1      19.855  23.584   4.123  1.00  0.00     0.000 C 
BRANCH   5   6
ATOM      6  C   UNL     1      20.769  24.270   3.089  1.00  0.00     0.000 C 
BRANCH   6   7
ATOM      7  C   UNL     1      20.342  24.003   1.634  1.00  0.00     0.000 C 
BRANCH   7   8
ATOM      8  C   UNL     1      18.932  24.501   1.267  1.00  0.00     0.000 C 
BRANCH   8   9
ATOM      9  C   UNL     1      18.758  26.019   1.451  1.00  0.00     0.000 C 
BRANCH   9  10
ATOM     10  C   UNL     1      18.544  26.748   0.106  1.00  0.00     0.000 C 
BRANCH  10  11
ATOM     11  C   UNL     1      18.874  25.887  -1.131  1.00  0.00     0.000 C 
BRANCH  11  12
ATOM     12  C   UNL     1      17.652  25.328  -1.883  1.00  0.00     0.006 C 
BRANCH  12  13
ATOM     13  C   UNL     1      16.297  25.833  -1.364  1.00  0.00     0.053 C 
BRANCH  13  14
ATOM     14  C   UNL     1      15.150  25.110  -2.001  1.00  0.00     0.041 C 
ATOM     15  O   UNL     1      14.458  24.303  -1.325  1.00  0.00    -0.550 OA
ATOM     16  O   UNL     1      14.860  25.307  -3.345  1.00  0.00    -0.550 OA
ENDBRANCH  13  14
ENDBRANCH  12  13
ENDBRANCH  11  12
ENDBRANCH  10  11
ENDBRANCH   9  10
ENDBRANCH   8   9
ENDBRANCH   7   8
ENDBRANCH   6   7
ENDBRANCH   5   6
ENDBRANCH   4   5
ENDBRANCH   3   4
ENDBRANCH   2   3
ENDBRANCH   1   2
BRANCH   1  17
ATOM     17  C   UNL     1      14.771  21.656   5.858  1.00  0.00     0.000 C 
BRANCH  17  18
ATOM     18  C   UNL     1      15.744  20.645   6.496  1.00  0.00     0.000 C 
BRANCH  18  19
ATOM     19  C   UNL     1      15.936  20.785   8.020  1.00  0.00     0.000 C 
BRANCH  19  20
ATOM     20  C   UNL     1      17.229  21.504   8.455  1.00  0.00     0.000 C 
BRANCH  20  21
ATOM     21  C   UNL     1      17.432  21.620   9.979  1.00  0.00     0.000 C 
BRANCH  21  22
ATOM     22  C   UNL     1      16.185  21.309  10.824  1.00  0.00    -0.000 C 
BRANCH  22  23
ATOM     23  C   UNL     1      15.638  22.542  11.556  1.00  0.00    -0.000 C 
BRANCH  23  24
ATOM     24  C   UNL     1      16.084  22.552  13.023  1.00  0.00    -0.000 C 
BRANCH  24  25
ATOM     25  C   UNL     1      16.965  23.772  13.327  1.00  0.00    -0.000 C 
BRANCH  25  26
ATOM     26  C   UNL     1      16.554  25.003  12.501  1.00  0.00    -0.000 C 
BRANCH  26  27
ATOM     27  C   UNL     1      17.408  25.160  11.230  1.00  0.00    -0.000 C 
BRANCH  27  28
ATOM     28  C   UNL     1      18.627  24.213  11.226  1.00  0.00    -0.000 C 
BRANCH  28  29
ATOM     29  C   UNL     1      19.793  24.723  10.360  1.00  0.00    -0.003 C 
ATOM     30  C   UNL     1      21.157  24.257  10.867  1.00  0.00     0.004 C 
ENDBRANCH  28  29
ENDBRANCH  27  28
ENDBRANCH  26  27
ENDBRANCH  25  26
ENDBRANCH  24  25
ENDBRANCH  23  24
ENDBRANCH  22  23
ENDBRANCH  21  22
ENDBRANCH  20  21
ENDBRANCH  19  20
ENDBRANCH  18  19
ENDBRANCH  17  18
ENDBRANCH   1  17
TORSDOF 26
ENDMDL
MODEL 5
REMARK VINA RESULT:    -2.227      9.342     13.030
REMARK INTER + INTRA:          -7.232
REMARK INTER:                  -5.382
REMARK INTRA:                  -1.851
REMARK UNBOUND:                -1.621
REMARK SMILES CCCCCCCCCCCCCCCCCCCCCCCCCCCC(=O)[O-]
REMARK SMILES IDX 15 1 16 2 17 3 18 4 19 5 20 6 21 7 22 8 23 9 24 10 25 11
REMARK SMILES IDX 26 12 27 13 28 14 29 15 30 16 14 17 13 18 12 19 11 20 10 21
REMARK SMILES IDX 9 22 8 23 7 24 6 25 5 26 4 27 3 28 2 29 1 30
REMARK H PARENT
REMARK Flexibility Score: inf
ROOT
ATOM      1  C   UNL     1      17.707  23.574   5.346  1.00  0.00     0.000 C 
ENDROOT
BRANCH   1   2
ATOM      2  C   UNL     1      18.965  23.760   4.479  1.00  0.00     0.000 C 
BRANCH   2   3
ATOM      3  C   UNL     1      19.267  25.238   4.175  1.00  0.00     0.000 C 
BRANCH   3   4
ATOM      4  C   UNL     1      19.277  25.616   2.679  1.00  0.00     0.000 C 
BRANCH   4   5
ATOM      5  C   UNL     1      19.737  24.479   1.744  1.00  0.00     0.000 C 
BRANCH   5   6
ATOM      6  C   UNL     1      18.682  24.118   0.681  1.00  0.00     0.000 C 
BRANCH   6   7
ATOM      7  C   UNL     1      19.184  24.318  -0.761  1.00  0.00     0.000 C 
BRANCH   7   8
ATOM      8  C   UNL     1      18.497  25.454  -1.539  1.00  0.00     0.000 C 
BRANCH   8   9
ATOM      9  C   UNL     1      17.267  26.029  -0.814  1.00  0.00     0.000 C 
BRANCH   9  10
ATOM     10  C   UNL     1      17.621  27.271   0.035  1.00  0.00     0.000 C 
BRANCH  10  11
ATOM     11  C   UNL     1      19.113  27.660  -0.017  1.00  0.00     0.000 C 
BRANCH  11  12
ATOM     12  C   UNL     1      19.390  29.165  -0.189  1.00  0.00     0.006 C 
BRANCH  12  13
ATOM     13  C   UNL     1      19.808  29.888   1.101  1.00  0.00     0.053 C 
BRANCH  13  14
ATOM     14  C   UNL     1      20.778  30.998   0.831  1.00  0.00     0.041 C 
ATOM     15  O   UNL     1      20.395  32.196   0.873  1.00  0.00    -0.550 OA
ATOM     16  O   UNL     1      22.098  30.709   0.507  1.00  0.00    -0.550 OA
ENDBRANCH  13  14
ENDBRANCH  12  13
ENDBRANCH  11  12
ENDBRANCH  10  11
ENDBRANCH   9  10
ENDBRANCH   8   9
ENDBRANCH   7   8
ENDBRANCH   6   7
ENDBRANCH   5   6
ENDBRANCH   4   5
ENDBRANCH   3   4
ENDBRANCH   2   3
ENDBRANCH   1   2
BRANCH   1  17
ATOM     17  C   UNL     1      16.830  22.400   4.879  1.00  0.00     0.000 C 
BRANCH  17  18
ATOM     18  C   UNL     1      15.341  22.505   5.261  1.00  0.00     0.000 C 
BRANCH  18  19
ATOM     19  C   UNL     1      14.855  21.485   6.311  1.00  0.00     0.000 C 
BRANCH  19  20
ATOM     20  C   UNL     1      15.962  20.622   6.950  1.00  0.00     0.000 C 
BRANCH  20  21
ATOM     21  C   UNL     1      16.710  21.282   8.125  1.00  0.00     0.000 C 
BRANCH  21  22
ATOM     22  C   UNL     1      16.340  20.740   9.515  1.00  0.00    -0.000 C 
BRANCH  22  23
ATOM     23  C   UNL     1      16.791  21.663  10.655  1.00  0.00    -0.000 C 
BRANCH  23  24
ATOM     24  C   UNL     1      15.585  22.291  11.363  1.00  0.00    -0.000 C 
BRANCH  24  25
ATOM     25  C   UNL     1      16.027  23.144  12.561  1.00  0.00    -0.000 C 
BRANCH  25  26
ATOM     26  C   UNL     1      17.421  23.759  12.350  1.00  0.00    -0.000 C 
BRANCH  26  27
ATOM     27  C   UNL     1      17.371  25.028  11.481  1.00  0.00    -0.000 C 
BRANCH  27  28
ATOM     28  C   UNL     1      18.558  25.108  10.497  1.00  0.00    -0.000 C 
BRANCH  28  29
ATOM     29  C   UNL     1      19.565  23.956  10.661  1.00  0.00    -0.003 C 
ATOM     30  C   UNL     1      21.007  24.443  10.795  1.00  0.00     0.004 C 
ENDBRANCH  28  29
ENDBRANCH  27  28
ENDBRANCH  26  27
ENDBRANCH  25  26
ENDBRANCH  24  25
ENDBRANCH  23  24
ENDBRANCH  22  23
ENDBRANCH  21  22
ENDBRANCH  20  21
ENDBRANCH  19  20
ENDBRANCH  18  19
ENDBRANCH  17  18
ENDBRANCH   1  17
TORSDOF 26
ENDMDL
MODEL 6
REMARK VINA RESULT:    -2.081      2.799     11.343
REMARK INTER + INTRA:          -6.864
REMARK INTER:                  -5.177
REMARK INTRA:                  -1.687
REMARK UNBOUND:                -1.621
REMARK SMILES CCCCCCCCCCCCCCCCCCCCCCCCCCCC(=O)[O-]
REMARK SMILES IDX 15 1 16 2 17 3 18 4 19 5 20 6 21 7 22 8 23 9 24 10 25 11
REMARK SMILES IDX 26 12 27 13 28 14 29 15 30 16 14 17 13 18 12 19 11 20 10 21
REMARK SMILES IDX 9 22 8 23 7 24 6 25 5 26 4 27 3 28 2 29 1 30
REMARK H PARENT
REMARK Flexibility Score: inf
ROOT
ATOM      1  C   UNL     1      17.846  33.609  10.878  1.00  0.00     0.000 C 
ENDROOT
BRANCH   1   2
ATOM      2  C   UNL     1      17.647  32.342  10.030  1.00  0.00     0.000 C 
BRANCH   2   3
ATOM      3  C   UNL     1      16.718  31.315  10.700  1.00  0.00     0.000 C 
BRANCH   3   4
ATOM      4  C   UNL     1      16.846  29.867  10.180  1.00  0.00     0.000 C 
BRANCH   4   5
ATOM      5  C   UNL     1      15.726  28.923  10.661  1.00  0.00     0.000 C 
BRANCH   5   6
ATOM      6  C   UNL     1      15.946  28.423  12.102  1.00  0.00     0.000 C 
BRANCH   6   7
ATOM      7  C   UNL     1      16.071  26.892  12.196  1.00  0.00     0.000 C 
BRANCH   7   8
ATOM      8  C   UNL     1      16.352  26.346  13.609  1.00  0.00     0.000 C 
BRANCH   8   9
ATOM      9  C   UNL     1      15.746  24.953  13.853  1.00  0.00     0.000 C 
BRANCH   9  10
ATOM     10  C   UNL     1      16.805  23.833  13.757  1.00  0.00     0.000 C 
BRANCH  10  11
ATOM     11  C   UNL     1      16.538  22.813  12.631  1.00  0.00     0.000 C 
BRANCH  11  12
ATOM     12  C   UNL     1      17.054  23.224  11.240  1.00  0.00     0.006 C 
BRANCH  12  13
ATOM     13  C   UNL     1      18.187  24.263  11.262  1.00  0.00     0.053 C 
BRANCH  13  14
ATOM     14  C   UNL     1      19.267  23.934  10.276  1.00  0.00     0.041 C 
ATOM     15  O   UNL     1      18.975  23.389   9.179  1.00  0.00    -0.550 OA
ATOM     16  O   UNL     1      20.595  24.204  10.579  1.00  0.00    -0.550 OA
ENDBRANCH  13  14
ENDBRANCH  12  13
ENDBRANCH  11  12
ENDBRANCH  10  11
ENDBRANCH   9  10
ENDBRANCH   8   9
ENDBRANCH   7   8
ENDBRANCH   6   7
ENDBRANCH   5   6
ENDBRANCH   4   5
ENDBRANCH   3   4
ENDBRANCH   2   3
ENDBRANCH   1   2
BRANCH   1  17
ATOM     17  C   UNL     1      19.324  34.013  11.009  1.00  0.00     0.000 C 
BRANCH  17  18
ATOM     18  C   UNL     1      19.769  34.410  12.431  1.00  0.00     0.000 C 
BRANCH  18  19
ATOM     19  C   UNL     1      21.251  34.812  12.570  1.00  0.00     0.000 C 
BRANCH  19  20
ATOM     20  C   UNL     1      21.655  35.368  13.951  1.00  0.00     0.000 C 
BRANCH  20  21
ATOM     21  C   UNL     1      21.408  34.415  15.137  1.00  0.00     0.000 C 
BRANCH  21  22
ATOM     22  C   UNL     1      22.605  33.526  15.513  1.00  0.00    -0.000 C 
BRANCH  22  23
ATOM     23  C   UNL     1      22.909  32.457  14.453  1.00  0.00    -0.000 C 
BRANCH  23  24
ATOM     24  C   UNL     1      24.344  32.595  13.931  1.00  0.00    -0.000 C 
BRANCH  24  25
ATOM     25  C   UNL     1      24.923  33.979  14.259  1.00  0.00    -0.000 C 
BRANCH  25  26
ATOM     26  C   UNL     1      25.397  34.722  12.998  1.00  0.00    -0.000 C 
BRANCH  26  27
ATOM     27  C   UNL     1      25.829  36.167  13.304  1.00  0.00    -0.000 C 
BRANCH  27  28
ATOM     28  C   UNL     1      26.271  36.924  12.033  1.00  0.00    -0.000 C 
BRANCH  28  29
ATOM     29  C   UNL     1      26.950  36.020  10.989  1.00  0.00    -0.003 C 
ATOM     30  C   UNL     1      26.940  36.623   9.585  1.00  0.00     0.004 C 
ENDBRANCH  28  29
ENDBRANCH  27  28
ENDBRANCH  26  27
ENDBRANCH  25  26
ENDBRANCH  24  25
ENDBRANCH  23  24
ENDBRANCH  22  23
ENDBRANCH  21  22
ENDBRANCH  20  21
ENDBRANCH  19  20
ENDBRANCH  18  19
ENDBRANCH  17  18
ENDBRANCH   1  17
TORSDOF 26
ENDMDL
MODEL 7
REMARK VINA RESULT:    -1.976      3.413     11.205
REMARK INTER + INTRA:          -6.601
REMARK INTER:                  -4.157
REMARK INTRA:                  -2.444
REMARK UNBOUND:                -1.621
REMARK SMILES CCCCCCCCCCCCCCCCCCCCCCCCCCCC(=O)[O-]
REMARK SMILES IDX 15 1 16 2 17 3 18 4 19 5 20 6 21 7 22 8 23 9 24 10 25 11
REMARK SMILES IDX 26 12 27 13 28 14 29 15 30 16 14 17 13 18 12 19 11 20 10 21
REMARK SMILES IDX 9 22 8 23 7 24 6 25 5 26 4 27 3 28 2 29 1 30
REMARK H PARENT
REMARK Flexibility Score: inf
ROOT
ATOM      1  C   UNL     1      21.810  35.036  11.858  1.00  0.00     0.000 C 
ENDROOT
BRANCH   1   2
ATOM      2  C   UNL     1      20.426  34.383  12.021  1.00  0.00     0.000 C 
BRANCH   2   3
ATOM      3  C   UNL     1      19.601  34.403  10.723  1.00  0.00     0.000 C 
BRANCH   3   4
ATOM      4  C   UNL     1      18.128  33.965  10.868  1.00  0.00     0.000 C 
BRANCH   4   5
ATOM      5  C   UNL     1      17.774  32.680  10.092  1.00  0.00     0.000 C 
BRANCH   5   6
ATOM      6  C   UNL     1      16.857  31.734  10.892  1.00  0.00     0.000 C 
BRANCH   6   7
ATOM      7  C   UNL     1      16.779  30.319  10.292  1.00  0.00     0.000 C 
BRANCH   7   8
ATOM      8  C   UNL     1      15.668  29.425  10.873  1.00  0.00     0.000 C 
BRANCH   8   9
ATOM      9  C   UNL     1      15.931  27.922  10.673  1.00  0.00     0.000 C 
BRANCH   9  10
ATOM     10  C   UNL     1      16.274  27.210  12.000  1.00  0.00     0.000 C 
BRANCH  10  11
ATOM     11  C   UNL     1      16.599  25.710  11.841  1.00  0.00     0.000 C 
BRANCH  11  12
ATOM     12  C   UNL     1      16.405  24.860  13.110  1.00  0.00     0.006 C 
BRANCH  12  13
ATOM     13  C   UNL     1      16.870  23.401  12.977  1.00  0.00     0.053 C 
BRANCH  13  14
ATOM     14  C   UNL     1      16.692  22.883  11.583  1.00  0.00     0.041 C 
ATOM     15  O   UNL     1      15.591  22.384  11.230  1.00  0.00    -0.550 OA
ATOM     16  O   UNL     1      17.749  22.925  10.681  1.00  0.00    -0.550 OA
ENDBRANCH  13  14
ENDBRANCH  12  13
ENDBRANCH  11  12
ENDBRANCH  10  11
ENDBRANCH   9  10
ENDBRANCH   8   9
ENDBRANCH   7   8
ENDBRANCH   6   7
ENDBRANCH   5   6
ENDBRANCH   4   5
ENDBRANCH   3   4
ENDBRANCH   2   3
ENDBRANCH   1   2
BRANCH   1  17
ATOM     17  C   UNL     1      22.456  35.407  13.204  1.00  0.00     0.000 C 
BRANCH  17  18
ATOM     18  C   UNL     1      21.555  35.208  14.438  1.00  0.00     0.000 C 
BRANCH  18  19
ATOM     19  C   UNL     1      22.127  34.282  15.531  1.00  0.00     0.000 C 
BRANCH  19  20
ATOM     20  C   UNL     1      21.706  32.803  15.426  1.00  0.00     0.000 C 
BRANCH  20  21
ATOM     21  C   UNL     1      22.814  31.838  14.958  1.00  0.00     0.000 C 
BRANCH  21  22
ATOM     22  C   UNL     1      24.084  32.521  14.423  1.00  0.00    -0.000 C 
BRANCH  22  23
ATOM     23  C   UNL     1      24.175  32.494  12.891  1.00  0.00    -0.000 C 
BRANCH  23  24
ATOM     24  C   UNL     1      25.394  33.284  12.400  1.00  0.00    -0.000 C 
BRANCH  24  25
ATOM     25  C   UNL     1      26.224  33.813  13.578  1.00  0.00    -0.000 C 
BRANCH  25  26
ATOM     26  C   UNL     1      27.125  34.991  13.168  1.00  0.00    -0.000 C 
BRANCH  26  27
ATOM     27  C   UNL     1      26.881  36.238  14.036  1.00  0.00    -0.000 C 
BRANCH  27  28
ATOM     28  C   UNL     1      25.667  36.067  14.974  1.00  0.00    -0.000 C 
BRANCH  28  29
ATOM     29  C   UNL     1      25.313  37.345  15.755  1.00  0.00    -0.003 C 
ATOM     30  C   UNL     1      23.872  37.799  15.531  1.00  0.00     0.004 C 
ENDBRANCH  28  29
ENDBRANCH  27  28
ENDBRANCH  26  27
ENDBRANCH  25  26
ENDBRANCH  24  25
ENDBRANCH  23  24
ENDBRANCH  22  23
ENDBRANCH  21  22
ENDBRANCH  20  21
ENDBRANCH  19  20
ENDBRANCH  18  19
ENDBRANCH  17  18
ENDBRANCH   1  17
TORSDOF 26
ENDMDL
MODEL 8
REMARK VINA RESULT:    -1.895      2.478     11.246
REMARK INTER + INTRA:          -6.395
REMARK INTER:                  -4.880
REMARK INTRA:                  -1.515
REMARK UNBOUND:                -1.621
REMARK SMILES CCCCCCCCCCCCCCCCCCCCCCCCCCCC(=O)[O-]
REMARK SMILES IDX 15 1 16 2 17 3 18 4 19 5 20 6 21 7 22 8 23 9 24 10 25 11
REMARK SMILES IDX 26 12 27 13 28 14 29 15 30 16 14 17 13 18 12 19 11 20 10 21
REMARK SMILES IDX 9 22 8 23 7 24 6 25 5 26 4 27 3 28 2 29 1 30
REMARK H PARENT
REMARK Flexibility Score: inf
ROOT
ATOM      1  C   UNL     1      18.141  32.711  10.098  1.00  0.00     0.000 C 
ENDROOT
BRANCH   1   2
ATOM      2  C   UNL     1      16.858  31.968  10.506  1.00  0.00     0.000 C 
BRANCH   2   3
ATOM      3  C   UNL     1      16.963  30.445  10.315  1.00  0.00     0.000 C 
BRANCH   3   4
ATOM      4  C   UNL     1      15.772  29.626  10.854  1.00  0.00     0.000 C 
BRANCH   4   5
ATOM      5  C   UNL     1      16.010  28.103  10.870  1.00  0.00     0.000 C 
BRANCH   5   6
ATOM      6  C   UNL     1      15.813  27.482  12.266  1.00  0.00     0.000 C 
BRANCH   6   7
ATOM      7  C   UNL     1      16.539  26.136  12.437  1.00  0.00     0.000 C 
BRANCH   7   8
ATOM      8  C   UNL     1      16.160  25.347  13.704  1.00  0.00     0.000 C 
BRANCH   8   9
ATOM      9  C   UNL     1      16.585  23.869  13.649  1.00  0.00     0.000 C 
BRANCH   9  10
ATOM     10  C   UNL     1      15.772  23.068  12.608  1.00  0.00     0.000 C 
BRANCH  10  11
ATOM     11  C   UNL     1      16.548  22.760  11.310  1.00  0.00     0.000 C 
BRANCH  11  12
ATOM     12  C   UNL     1      18.043  23.128  11.338  1.00  0.00     0.006 C 
BRANCH  12  13
ATOM     13  C   UNL     1      18.432  24.283  10.402  1.00  0.00     0.053 C 
BRANCH  13  14
ATOM     14  C   UNL     1      19.880  24.648  10.537  1.00  0.00     0.041 C 
ATOM     15  O   UNL     1      20.724  23.772  10.860  1.00  0.00    -0.550 OA
ATOM     16  O   UNL     1      20.292  25.959  10.332  1.00  0.00    -0.550 OA
ENDBRANCH  13  14
ENDBRANCH  12  13
ENDBRANCH  11  12
ENDBRANCH  10  11
ENDBRANCH   9  10
ENDBRANCH   8   9
ENDBRANCH   7   8
ENDBRANCH   6   7
ENDBRANCH   5   6
ENDBRANCH   4   5
ENDBRANCH   3   4
ENDBRANCH   2   3
ENDBRANCH   1   2
BRANCH   1  17
ATOM     17  C   UNL     1      18.348  34.019  10.881  1.00  0.00     0.000 C 
BRANCH  17  18
ATOM     18  C   UNL     1      19.452  33.970  11.955  1.00  0.00     0.000 C 
BRANCH  18  19
ATOM     19  C   UNL     1      20.800  34.596  11.544  1.00  0.00     0.000 C 
BRANCH  19  20
ATOM     20  C   UNL     1      21.987  34.269  12.472  1.00  0.00     0.000 C 
BRANCH  20  21
ATOM     21  C   UNL     1      21.611  33.568  13.793  1.00  0.00     0.000 C 
BRANCH  21  22
ATOM     22  C   UNL     1      21.902  34.382  15.064  1.00  0.00    -0.000 C 
BRANCH  22  23
ATOM     23  C   UNL     1      23.392  34.706  15.237  1.00  0.00    -0.000 C 
BRANCH  23  24
ATOM     24  C   UNL     1      23.703  36.131  14.765  1.00  0.00    -0.000 C 
BRANCH  24  25
ATOM     25  C   UNL     1      25.106  36.219  14.150  1.00  0.00    -0.000 C 
BRANCH  25  26
ATOM     26  C   UNL     1      25.099  35.904  12.644  1.00  0.00    -0.000 C 
BRANCH  26  27
ATOM     27  C   UNL     1      26.513  35.936  12.037  1.00  0.00    -0.000 C 
BRANCH  27  28
ATOM     28  C   UNL     1      26.964  34.547  11.536  1.00  0.00    -0.000 C 
BRANCH  28  29
ATOM     29  C   UNL     1      26.233  33.383  12.227  1.00  0.00    -0.003 C 
ATOM     30  C   UNL     1      25.732  32.328  11.242  1.00  0.00     0.004 C 
ENDBRANCH  28  29
ENDBRANCH  27  28
ENDBRANCH  26  27
ENDBRANCH  25  26
ENDBRANCH  24  25
ENDBRANCH  23  24
ENDBRANCH  22  23
ENDBRANCH  21  22
ENDBRANCH  20  21
ENDBRANCH  19  20
ENDBRANCH  18  19
ENDBRANCH  17  18
ENDBRANCH   1  17
TORSDOF 26
ENDMDL
MODEL 9
REMARK VINA RESULT:    -1.838     11.690     13.765
REMARK INTER + INTRA:          -6.253
REMARK INTER:                  -4.887
REMARK INTRA:                  -1.367
REMARK UNBOUND:                -1.621
REMARK SMILES CCCCCCCCCCCCCCCCCCCCCCCCCCCC(=O)[O-]
REMARK SMILES IDX 15 1 16 2 17 3 18 4 19 5 20 6 21 7 22 8 23 9 24 10 25 11
REMARK SMILES IDX 26 12 27 13 28 14 29 15 30 16 14 17 13 18 12 19 11 20 10 21
REMARK SMILES IDX 9 22 8 23 7 24 6 25 5 26 4 27 3 28 2 29 1 30
REMARK H PARENT
REMARK Flexibility Score: inf
ROOT
ATOM      1  C   UNL     1      17.719  27.223  -0.157  1.00  0.00     0.000 C 
ENDROOT
BRANCH   1   2
ATOM      2  C   UNL     1      19.173  27.722  -0.091  1.00  0.00     0.000 C 
BRANCH   2   3
ATOM      3  C   UNL     1      19.361  28.884   0.900  1.00  0.00     0.000 C 
BRANCH   3   4
ATOM      4  C   UNL     1      19.960  30.175   0.302  1.00  0.00     0.000 C 
BRANCH   4   5
ATOM      5  C   UNL     1      20.666  31.079   1.332  1.00  0.00     0.000 C 
BRANCH   5   6
ATOM      6  C   UNL     1      20.289  32.565   1.179  1.00  0.00     0.000 C 
BRANCH   6   7
ATOM      7  C   UNL     1      20.710  33.157  -0.178  1.00  0.00     0.000 C 
BRANCH   7   8
ATOM      8  C   UNL     1      20.320  34.631  -0.394  1.00  0.00     0.000 C 
BRANCH   8   9
ATOM      9  C   UNL     1      20.000  34.965  -1.863  1.00  0.00     0.000 C 
BRANCH   9  10
ATOM     10  C   UNL     1      21.045  35.919  -2.483  1.00  0.00     0.000 C 
BRANCH  10  11
ATOM     11  C   UNL     1      20.534  37.360  -2.686  1.00  0.00     0.000 C 
BRANCH  11  12
ATOM     12  C   UNL     1      19.030  37.484  -2.992  1.00  0.00     0.006 C 
BRANCH  12  13
ATOM     13  C   UNL     1      18.175  37.952  -1.804  1.00  0.00     0.053 C 
BRANCH  13  14
ATOM     14  C   UNL     1      16.823  37.305  -1.799  1.00  0.00     0.041 C 
ATOM     15  O   UNL     1      15.832  37.916  -1.321  1.00  0.00    -0.550 OA
ATOM     16  O   UNL     1      16.663  36.018  -2.298  1.00  0.00    -0.550 OA
ENDBRANCH  13  14
ENDBRANCH  12  13
ENDBRANCH  11  12
ENDBRANCH  10  11
ENDBRANCH   9  10
ENDBRANCH   8   9
ENDBRANCH   7   8
ENDBRANCH   6   7
ENDBRANCH   5   6
ENDBRANCH   4   5
ENDBRANCH   3   4
ENDBRANCH   2   3
ENDBRANCH   1   2
BRANCH   1  17
ATOM     17  C   UNL     1      17.578  25.898  -0.926  1.00  0.00     0.000 C 
BRANCH  17  18
ATOM     18  C   UNL     1      18.684  24.861  -0.649  1.00  0.00     0.000 C 
BRANCH  18  19
ATOM     19  C   UNL     1      18.630  24.195   0.741  1.00  0.00     0.000 C 
BRANCH  19  20
ATOM     20  C   UNL     1      19.279  25.004   1.883  1.00  0.00     0.000 C 
BRANCH  20  21
ATOM     21  C   UNL     1      20.340  24.244   2.703  1.00  0.00     0.000 C 
BRANCH  21  22
ATOM     22  C   UNL     1      19.927  23.912   4.147  1.00  0.00    -0.000 C 
BRANCH  22  23
ATOM     23  C   UNL     1      18.558  24.494   4.524  1.00  0.00    -0.000 C 
BRANCH  23  24
ATOM     24  C   UNL     1      17.833  23.587   5.526  1.00  0.00    -0.000 C 
BRANCH  24  25
ATOM     25  C   UNL     1      16.810  22.687   4.820  1.00  0.00    -0.000 C 
BRANCH  25  26
ATOM     26  C   UNL     1      15.900  21.951   5.819  1.00  0.00    -0.000 C 
BRANCH  26  27
ATOM     27  C   UNL     1      14.463  21.793   5.289  1.00  0.00    -0.000 C 
BRANCH  27  28
ATOM     28  C   UNL     1      13.678  23.122   5.331  1.00  0.00    -0.000 C 
BRANCH  28  29
ATOM     29  C   UNL     1      12.827  23.368   4.072  1.00  0.00    -0.003 C 
ATOM     30  C   UNL     1      12.650  22.113   3.220  1.00  0.00     0.004 C 
ENDBRANCH  28  29
ENDBRANCH  27  28
ENDBRANCH  26  27
ENDBRANCH  25  26
ENDBRANCH  24  25
ENDBRANCH  23  24
ENDBRANCH  22  23
ENDBRANCH  21  22
ENDBRANCH  20  21
ENDBRANCH  19  20
ENDBRANCH  18  19
ENDBRANCH  17  18
ENDBRANCH   1  17
TORSDOF 26
ENDMDL
