MODEL 1
REMARK VINA RESULT:    -5.131      0.000      0.000
REMARK INTER + INTRA:          -8.908
REMARK INTER:                  -8.131
REMARK INTRA:                  -0.777
REMARK UNBOUND:                -0.777
REMARK SMILES CCCCCCCCCCCC(=O)[O-]
REMARK SMILES IDX 7 1 8 2 9 3 10 4 11 5 12 6 13 7 14 8 6 9 5 10 4 11 3 12 2 13
REMARK SMILES IDX 1 14
REMARK H PARENT
REMARK Flexibility Score: inf
ROOT
ATOM      1  C   UNL     1       4.207 -33.846  21.163  1.00  0.00     0.000 C 
ENDROOT
BRANCH   1   2
ATOM      2  C   UNL     1       4.840 -33.503  22.518  1.00  0.00     0.000 C 
BRANCH   2   3
ATOM      3  C   UNL     1       6.027 -34.430  22.820  1.00  0.00     0.000 C 
BRANCH   3   4
ATOM      4  C   UNL     1       5.670 -35.552  23.813  1.00  0.00     0.006 C 
BRANCH   4   5
ATOM      5  C   UNL     1       5.233 -36.867  23.149  1.00  0.00     0.053 C 
BRANCH   5   6
ATOM      6  C   UNL     1       4.717 -37.857  24.147  1.00  0.00     0.041 C 
ATOM      7  O   UNL     1       4.599 -39.072  23.833  1.00  0.00    -0.550 OA
ATOM      8  O   UNL     1       4.334 -37.433  25.413  1.00  0.00    -0.550 OA
ENDBRANCH   5   6
ENDBRANCH   4   5
ENDBRANCH   3   4
ENDBRANCH   2   3
ENDBRANCH   1   2
BRANCH   1   9
ATOM      9  C   UNL     1       5.241 -34.470  20.214  1.00  0.00     0.000 C 
BRANCH   9  10
ATOM     10  C   UNL     1       4.594 -35.197  19.025  1.00  0.00    -0.000 C 
BRANCH  10  11
ATOM     11  C   UNL     1       3.967 -36.543  19.427  1.00  0.00    -0.000 C 
BRANCH  11  12
ATOM     12  C   UNL     1       3.138 -37.179  18.296  1.00  0.00    -0.000 C 
BRANCH  12  13
ATOM     13  C   UNL     1       3.063 -36.351  17.000  1.00  0.00    -0.003 C 
ATOM     14  C   UNL     1       3.051 -37.215  15.738  1.00  0.00     0.004 C 
ENDBRANCH  12  13
ENDBRANCH  11  12
ENDBRANCH  10  11
ENDBRANCH   9  10
ENDBRANCH   1   9
TORSDOF 10
ENDMDL
MODEL 2
REMARK VINA RESULT:    -5.126      0.592      1.551
REMARK INTER + INTRA:          -8.901
REMARK INTER:                  -8.241
REMARK INTRA:                  -0.660
REMARK UNBOUND:                -0.777
REMARK SMILES CCCCCCCCCCCC(=O)[O-]
REMARK SMILES IDX 7 1 8 2 9 3 10 4 11 5 12 6 13 7 14 8 6 9 5 10 4 11 3 12 2 13
REMARK SMILES IDX 1 14
REMARK H PARENT
REMARK Flexibility Score: inf
ROOT
ATOM      1  C   UNL     1       5.146 -34.251  20.037  1.00  0.00     0.000 C 
ENDROOT
BRANCH   1   2
ATOM      2  C   UNL     1       4.175 -34.345  21.221  1.00  0.00     0.000 C 
BRANCH   2   3
ATOM      3  C   UNL     1       4.854 -33.902  22.526  1.00  0.00     0.000 C 
BRANCH   3   4
ATOM      4  C   UNL     1       5.520 -35.068  23.279  1.00  0.00     0.006 C 
BRANCH   4   5
ATOM      5  C   UNL     1       4.970 -36.455  22.908  1.00  0.00     0.053 C 
BRANCH   5   6
ATOM      6  C   UNL     1       4.776 -37.324  24.112  1.00  0.00     0.041 C 
ATOM      7  O   UNL     1       4.737 -36.813  25.263  1.00  0.00    -0.550 OA
ATOM      8  O   UNL     1       4.670 -38.701  23.967  1.00  0.00    -0.550 OA
ENDBRANCH   5   6
ENDBRANCH   4   5
ENDBRANCH   3   4
ENDBRANCH   2   3
ENDBRANCH   1   2
BRANCH   1   9
ATOM      9  C   UNL     1       4.640 -35.075  18.843  1.00  0.00     0.000 C 
BRANCH   9  10
ATOM     10  C   UNL     1       3.885 -36.343  19.274  1.00  0.00    -0.000 C 
BRANCH  10  11
ATOM     11  C   UNL     1       3.093 -36.979  18.118  1.00  0.00    -0.000 C 
BRANCH  11  12
ATOM     12  C   UNL     1       3.126 -36.134  16.833  1.00  0.00    -0.000 C 
BRANCH  12  13
ATOM     13  C   UNL     1       2.530 -36.817  15.589  1.00  0.00    -0.003 C 
ATOM     14  C   UNL     1       3.567 -37.083  14.498  1.00  0.00     0.004 C 
ENDBRANCH  12  13
ENDBRANCH  11  12
ENDBRANCH  10  11
ENDBRANCH   9  10
ENDBRANCH   1   9
TORSDOF 10
ENDMDL
MODEL 3
REMARK VINA RESULT:    -5.104      2.722      5.317
REMARK INTER + INTRA:          -8.865
REMARK INTER:                  -7.760
REMARK INTRA:                  -1.105
REMARK UNBOUND:                -0.777
REMARK SMILES CCCCCCCCCCCC(=O)[O-]
REMARK SMILES IDX 7 1 8 2 9 3 10 4 11 5 12 6 13 7 14 8 6 9 5 10 4 11 3 12 2 13
REMARK SMILES IDX 1 14
REMARK H PARENT
REMARK Flexibility Score: inf
ROOT
ATOM      1  C   UNL     1       4.927 -34.042  21.801  1.00  0.00     0.000 C 
ENDROOT
BRANCH   1   2
ATOM      2  C   UNL     1       6.018 -34.627  20.895  1.00  0.00     0.000 C 
BRANCH   2   3
ATOM      3  C   UNL     1       5.419 -35.159  19.585  1.00  0.00     0.000 C 
BRANCH   3   4
ATOM      4  C   UNL     1       4.053 -35.841  19.787  1.00  0.00     0.006 C 
BRANCH   4   5
ATOM      5  C   UNL     1       3.944 -37.238  19.156  1.00  0.00     0.053 C 
BRANCH   5   6
ATOM      6  C   UNL     1       2.735 -37.369  18.283  1.00  0.00     0.041 C 
ATOM      7  O   UNL     1       1.648 -37.786  18.763  1.00  0.00    -0.550 OA
ATOM      8  O   UNL     1       2.817 -37.061  16.930  1.00  0.00    -0.550 OA
ENDBRANCH   5   6
ENDBRANCH   4   5
ENDBRANCH   3   4
ENDBRANCH   2   3
ENDBRANCH   1   2
BRANCH   1   9
ATOM      9  C   UNL     1       5.361 -34.070  23.275  1.00  0.00     0.000 C 
BRANCH   9  10
ATOM     10  C   UNL     1       6.082 -35.373  23.657  1.00  0.00    -0.000 C 
BRANCH  10  11
ATOM     11  C   UNL     1       5.363 -36.137  24.782  1.00  0.00    -0.000 C 
BRANCH  11  12
ATOM     12  C   UNL     1       4.852 -37.519  24.336  1.00  0.00    -0.000 C 
BRANCH  12  13
ATOM     13  C   UNL     1       4.671 -37.686  22.817  1.00  0.00    -0.003 C 
ATOM     14  C   UNL     1       5.074 -39.073  22.315  1.00  0.00     0.004 C 
ENDBRANCH  12  13
ENDBRANCH  11  12
ENDBRANCH  10  11
ENDBRANCH   9  10
ENDBRANCH   1   9
TORSDOF 10
ENDMDL
MODEL 4
REMARK VINA RESULT:    -5.077      3.475      6.182
REMARK INTER + INTRA:          -8.822
REMARK INTER:                  -7.950
REMARK INTRA:                  -0.872
REMARK UNBOUND:                -0.777
REMARK SMILES CCCCCCCCCCCC(=O)[O-]
REMARK SMILES IDX 7 1 8 2 9 3 10 4 11 5 12 6 13 7 14 8 6 9 5 10 4 11 3 12 2 13
REMARK SMILES IDX 1 14
REMARK H PARENT
REMARK Flexibility Score: inf
ROOT
ATOM      1  C   UNL     1       5.831 -34.764  20.841  1.00  0.00     0.000 C 
ENDROOT
BRANCH   1   2
ATOM      2  C   UNL     1       5.084 -35.125  19.550  1.00  0.00     0.000 C 
BRANCH   2   3
ATOM      3  C   UNL     1       3.906 -36.067  19.841  1.00  0.00     0.000 C 
BRANCH   3   4
ATOM      4  C   UNL     1       3.798 -37.219  18.825  1.00  0.00     0.006 C 
BRANCH   4   5
ATOM      5  C   UNL     1       2.450 -37.286  18.088  1.00  0.00     0.053 C 
BRANCH   5   6
ATOM      6  C   UNL     1       2.573 -36.879  16.653  1.00  0.00     0.041 C 
ATOM      7  O   UNL     1       2.050 -35.806  16.251  1.00  0.00    -0.550 OA
ATOM      8  O   UNL     1       3.237 -37.700  15.750  1.00  0.00    -0.550 OA
ENDBRANCH   5   6
ENDBRANCH   4   5
ENDBRANCH   3   4
ENDBRANCH   2   3
ENDBRANCH   1   2
BRANCH   1   9
ATOM      9  C   UNL     1       4.906 -34.031  21.825  1.00  0.00     0.000 C 
BRANCH   9  10
ATOM     10  C   UNL     1       5.413 -34.092  23.274  1.00  0.00    -0.000 C 
BRANCH  10  11
ATOM     11  C   UNL     1       6.123 -35.418  23.597  1.00  0.00    -0.000 C 
BRANCH  11  12
ATOM     12  C   UNL     1       5.470 -36.178  24.765  1.00  0.00    -0.000 C 
BRANCH  12  13
ATOM     13  C   UNL     1       4.670 -37.430  24.362  1.00  0.00    -0.003 C 
ATOM     14  C   UNL     1       4.956 -37.887  22.931  1.00  0.00     0.004 C 
ENDBRANCH  12  13
ENDBRANCH  11  12
ENDBRANCH  10  11
ENDBRANCH   9  10
ENDBRANCH   1   9
TORSDOF 10
ENDMDL
MODEL 5
REMARK VINA RESULT:    -5.041      2.848      5.807
REMARK INTER + INTRA:          -8.765
REMARK INTER:                  -7.903
REMARK INTRA:                  -0.863
REMARK UNBOUND:                -0.777
REMARK SMILES CCCCCCCCCCCC(=O)[O-]
REMARK SMILES IDX 7 1 8 2 9 3 10 4 11 5 12 6 13 7 14 8 6 9 5 10 4 11 3 12 2 13
REMARK SMILES IDX 1 14
REMARK H PARENT
REMARK Flexibility Score: inf
ROOT
ATOM      1  C   UNL     1       4.949 -38.506  23.584  1.00  0.00     0.000 C 
ENDROOT
BRANCH   1   2
ATOM      2  C   UNL     1       4.476 -38.645  22.131  1.00  0.00     0.000 C 
BRANCH   2   3
ATOM      3  C   UNL     1       4.802 -37.381  21.323  1.00  0.00     0.000 C 
BRANCH   3   4
ATOM      4  C   UNL     1       4.637 -37.584  19.805  1.00  0.00     0.006 C 
BRANCH   4   5
ATOM      5  C   UNL     1       3.690 -36.577  19.132  1.00  0.00     0.053 C 
BRANCH   5   6
ATOM      6  C   UNL     1       2.747 -37.242  18.178  1.00  0.00     0.041 C 
ATOM      7  O   UNL     1       3.111 -37.494  16.998  1.00  0.00    -0.550 OA
ATOM      8  O   UNL     1       1.455 -37.555  18.581  1.00  0.00    -0.550 OA
ENDBRANCH   5   6
ENDBRANCH   4   5
ENDBRANCH   3   4
ENDBRANCH   2   3
ENDBRANCH   1   2
BRANCH   1   9
ATOM      9  C   UNL     1       4.698 -37.085  24.110  1.00  0.00     0.000 C 
BRANCH   9  10
ATOM     10  C   UNL     1       5.930 -36.482  24.805  1.00  0.00    -0.000 C 
BRANCH  10  11
ATOM     11  C   UNL     1       6.125 -34.992  24.473  1.00  0.00    -0.000 C 
BRANCH  11  12
ATOM     12  C   UNL     1       5.955 -34.686  22.974  1.00  0.00    -0.000 C 
BRANCH  12  13
ATOM     13  C   UNL     1       5.026 -33.501  22.653  1.00  0.00    -0.003 C 
ATOM     14  C   UNL     1       3.934 -33.853  21.642  1.00  0.00     0.004 C 
ENDBRANCH  12  13
ENDBRANCH  11  12
ENDBRANCH  10  11
ENDBRANCH   9  10
ENDBRANCH   1   9
TORSDOF 10
ENDMDL
MODEL 6
REMARK VINA RESULT:    -4.942      2.507      3.639
REMARK INTER + INTRA:          -8.608
REMARK INTER:                  -7.859
REMARK INTRA:                  -0.750
REMARK UNBOUND:                -0.777
REMARK SMILES CCCCCCCCCCCC(=O)[O-]
REMARK SMILES IDX 7 1 8 2 9 3 10 4 11 5 12 6 13 7 14 8 6 9 5 10 4 11 3 12 2 13
REMARK SMILES IDX 1 14
REMARK H PARENT
REMARK Flexibility Score: inf
ROOT
ATOM      1  C   UNL     1       5.069 -37.548  20.173  1.00  0.00     0.000 C 
ENDROOT
BRANCH   1   2
ATOM      2  C   UNL     1       5.090 -37.861  21.674  1.00  0.00     0.000 C 
BRANCH   2   3
ATOM      3  C   UNL     1       4.654 -36.639  22.497  1.00  0.00     0.000 C 
BRANCH   3   4
ATOM      4  C   UNL     1       5.756 -35.569  22.607  1.00  0.00     0.006 C 
BRANCH   4   5
ATOM      5  C   UNL     1       5.234 -34.123  22.607  1.00  0.00     0.053 C 
BRANCH   5   6
ATOM      6  C   UNL     1       4.372 -33.836  21.417  1.00  0.00     0.041 C 
ATOM      7  O   UNL     1       3.146 -33.585  21.568  1.00  0.00    -0.550 OA
ATOM      8  O   UNL     1       4.914 -33.877  20.139  1.00  0.00    -0.550 OA
ENDBRANCH   5   6
ENDBRANCH   4   5
ENDBRANCH   3   4
ENDBRANCH   2   3
ENDBRANCH   1   2
BRANCH   1   9
ATOM      9  C   UNL     1       3.646 -37.212  19.701  1.00  0.00     0.000 C 
BRANCH   9  10
ATOM     10  C   UNL     1       3.623 -36.522  18.327  1.00  0.00    -0.000 C 
BRANCH  10  11
ATOM     11  C   UNL     1       2.867 -37.342  17.267  1.00  0.00    -0.000 C 
BRANCH  11  12
ATOM     12  C   UNL     1       2.080 -36.462  16.280  1.00  0.00    -0.000 C 
BRANCH  12  13
ATOM     13  C   UNL     1       2.722 -36.310  14.889  1.00  0.00    -0.003 C 
ATOM     14  C   UNL     1       3.700 -37.437  14.555  1.00  0.00     0.004 C 
ENDBRANCH  12  13
ENDBRANCH  11  12
ENDBRANCH  10  11
ENDBRANCH   9  10
ENDBRANCH   1   9
TORSDOF 10
ENDMDL
MODEL 7
REMARK VINA RESULT:    -4.819      1.331      2.705
REMARK INTER + INTRA:          -8.413
REMARK INTER:                  -7.829
REMARK INTRA:                  -0.584
REMARK UNBOUND:                -0.777
REMARK SMILES CCCCCCCCCCCC(=O)[O-]
REMARK SMILES IDX 7 1 8 2 9 3 10 4 11 5 12 6 13 7 14 8 6 9 5 10 4 11 3 12 2 13
REMARK SMILES IDX 1 14
REMARK H PARENT
REMARK Flexibility Score: inf
ROOT
ATOM      1  C   UNL     1       4.359 -37.036  20.240  1.00  0.00     0.000 C 
ENDROOT
BRANCH   1   2
ATOM      2  C   UNL     1       5.287 -35.871  20.606  1.00  0.00     0.000 C 
BRANCH   2   3
ATOM      3  C   UNL     1       4.479 -34.624  20.993  1.00  0.00     0.000 C 
BRANCH   3   4
ATOM      4  C   UNL     1       4.723 -34.181  22.447  1.00  0.00     0.006 C 
BRANCH   4   5
ATOM      5  C   UNL     1       5.985 -34.784  23.087  1.00  0.00     0.053 C 
BRANCH   5   6
ATOM      6  C   UNL     1       5.653 -35.744  24.187  1.00  0.00     0.041 C 
ATOM      7  O   UNL     1       6.123 -35.571  25.343  1.00  0.00    -0.550 OA
ATOM      8  O   UNL     1       4.853 -36.850  23.928  1.00  0.00    -0.550 OA
ENDBRANCH   5   6
ENDBRANCH   4   5
ENDBRANCH   3   4
ENDBRANCH   2   3
ENDBRANCH   1   2
BRANCH   1   9
ATOM      9  C   UNL     1       3.960 -36.977  18.758  1.00  0.00     0.000 C 
BRANCH   9  10
ATOM     10  C   UNL     1       2.483 -37.334  18.525  1.00  0.00    -0.000 C 
BRANCH  10  11
ATOM     11  C   UNL     1       1.995 -36.941  17.120  1.00  0.00    -0.000 C 
BRANCH  11  12
ATOM     12  C   UNL     1       3.084 -36.249  16.280  1.00  0.00    -0.000 C 
BRANCH  12  13
ATOM     13  C   UNL     1       2.996 -36.502  14.764  1.00  0.00    -0.003 C 
ATOM     14  C   UNL     1       3.844 -37.689  14.306  1.00  0.00     0.004 C 
ENDBRANCH  12  13
ENDBRANCH  11  12
ENDBRANCH  10  11
ENDBRANCH   9  10
ENDBRANCH   1   9
TORSDOF 10
ENDMDL
MODEL 8
REMARK VINA RESULT:    -4.380      4.245      6.929
REMARK INTER + INTRA:          -7.717
REMARK INTER:                  -6.873
REMARK INTRA:                  -0.844
REMARK UNBOUND:                -0.777
REMARK SMILES CCCCCCCCCCCC(=O)[O-]
REMARK SMILES IDX 7 1 8 2 9 3 10 4 11 5 12 6 13 7 14 8 6 9 5 10 4 11 3 12 2 13
REMARK SMILES IDX 1 14
REMARK H PARENT
REMARK Flexibility Score: inf
ROOT
ATOM      1  C   UNL     1       3.531 -37.278  20.083  1.00  0.00     0.000 C 
ENDROOT
BRANCH   1   2
ATOM      2  C   UNL     1       3.403 -37.494  18.569  1.00  0.00     0.000 C 
BRANCH   2   3
ATOM      3  C   UNL     1       1.946 -37.328  18.111  1.00  0.00     0.000 C 
BRANCH   3   4
ATOM      4  C   UNL     1       1.817 -36.490  16.825  1.00  0.00     0.006 C 
BRANCH   4   5
ATOM      5  C   UNL     1       3.149 -36.240  16.098  1.00  0.00     0.053 C 
BRANCH   5   6
ATOM      6  C   UNL     1       3.125 -36.752  14.691  1.00  0.00     0.041 C 
ATOM      7  O   UNL     1       2.150 -36.489  13.936  1.00  0.00    -0.550 OA
ATOM      8  O   UNL     1       4.162 -37.548  14.222  1.00  0.00    -0.550 OA
ENDBRANCH   5   6
ENDBRANCH   4   5
ENDBRANCH   3   4
ENDBRANCH   2   3
ENDBRANCH   1   2
BRANCH   1   9
ATOM      9  C   UNL     1       4.980 -36.948  20.471  1.00  0.00     0.000 C 
BRANCH   9  10
ATOM     10  C   UNL     1       5.585 -35.825  19.614  1.00  0.00    -0.000 C 
BRANCH  10  11
ATOM     11  C   UNL     1       5.934 -34.575  20.440  1.00  0.00    -0.000 C 
BRANCH  11  12
ATOM     12  C   UNL     1       5.672 -34.760  21.946  1.00  0.00    -0.000 C 
BRANCH  12  13
ATOM     13  C   UNL     1       4.607 -33.821  22.541  1.00  0.00    -0.003 C 
ATOM     14  C   UNL     1       3.496 -33.473  21.551  1.00  0.00     0.004 C 
ENDBRANCH  12  13
ENDBRANCH  11  12
ENDBRANCH  10  11
ENDBRANCH   9  10
ENDBRANCH   1   9
TORSDOF 10
ENDMDL
MODEL 9
REMARK VINA RESULT:    -4.341      1.701      4.137
REMARK INTER + INTRA:          -7.656
REMARK INTER:                  -6.758
REMARK INTRA:                  -0.898
REMARK UNBOUND:                -0.777
REMARK SMILES CCCCCCCCCCCC(=O)[O-]
REMARK SMILES IDX 7 1 8 2 9 3 10 4 11 5 12 6 13 7 14 8 6 9 5 10 4 11 3 12 2 13
REMARK SMILES IDX 1 14
REMARK H PARENT
REMARK Flexibility Score: inf
ROOT
ATOM      1  C   UNL     1       3.787 -37.535  20.366  1.00  0.00     0.000 C 
ENDROOT
BRANCH   1   2
ATOM      2  C   UNL     1       5.154 -37.996  20.888  1.00  0.00     0.000 C 
BRANCH   2   3
ATOM      3  C   UNL     1       4.995 -39.061  21.983  1.00  0.00     0.000 C 
BRANCH   3   4
ATOM      4  C   UNL     1       4.717 -38.454  23.371  1.00  0.00     0.006 C 
BRANCH   4   5
ATOM      5  C   UNL     1       5.328 -37.059  23.583  1.00  0.00     0.053 C 
BRANCH   5   6
ATOM      6  C   UNL     1       5.228 -36.613  25.009  1.00  0.00     0.041 C 
ATOM      7  O   UNL     1       6.079 -35.815  25.485  1.00  0.00    -0.550 OA
ATOM      8  O   UNL     1       4.215 -37.104  25.823  1.00  0.00    -0.550 OA
ENDBRANCH   5   6
ENDBRANCH   4   5
ENDBRANCH   3   4
ENDBRANCH   2   3
ENDBRANCH   1   2
BRANCH   1   9
ATOM      9  C   UNL     1       3.926 -36.275  19.499  1.00  0.00     0.000 C 
BRANCH   9  10
ATOM     10  C   UNL     1       5.366 -35.741  19.452  1.00  0.00    -0.000 C 
BRANCH  10  11
ATOM     11  C   UNL     1       5.670 -34.760  20.598  1.00  0.00    -0.000 C 
BRANCH  11  12
ATOM     12  C   UNL     1       4.423 -33.998  21.080  1.00  0.00    -0.000 C 
BRANCH  12  13
ATOM     13  C   UNL     1       4.491 -33.491  22.532  1.00  0.00    -0.003 C 
ATOM     14  C   UNL     1       5.921 -33.379  23.060  1.00  0.00     0.004 C 
ENDBRANCH  12  13
ENDBRANCH  11  12
ENDBRANCH  10  11
ENDBRANCH   9  10
ENDBRANCH   1   9
TORSDOF 10
ENDMDL
