MODEL 1
REMARK VINA RESULT:     1.465      0.000      0.000
REMARK INTER + INTRA:           3.310
REMARK INTER:                   3.692
REMARK INTRA:                  -0.382
REMARK UNBOUND:                -0.382
REMARK SMILES CCCCCCCCCCCCCCCCCCCCCCCCCCCC(=O)[O-]
REMARK SMILES IDX 15 1 16 2 17 3 18 4 19 5 20 6 21 7 22 8 23 9 24 10 25 11
REMARK SMILES IDX 26 12 27 13 28 14 29 15 30 16 14 17 13 18 12 19 11 20 10 21
REMARK SMILES IDX 9 22 8 23 7 24 6 25 5 26 4 27 3 28 2 29 1 30
REMARK H PARENT
REMARK Flexibility Score: inf
ROOT
ATOM      1  C   UNL     1      24.691   3.942  -1.474  1.00  0.00     0.000 C 
ENDROOT
BRANCH   1   2
ATOM      2  C   UNL     1      23.771   4.371  -2.628  1.00  0.00     0.000 C 
BRANCH   2   3
ATOM      3  C   UNL     1      22.796   3.260  -3.056  1.00  0.00     0.000 C 
BRANCH   3   4
ATOM      4  C   UNL     1      23.505   1.927  -3.360  1.00  0.00     0.000 C 
BRANCH   4   5
ATOM      5  C   UNL     1      24.230   1.288  -2.162  1.00  0.00     0.000 C 
BRANCH   5   6
ATOM      6  C   UNL     1      23.777  -0.158  -1.890  1.00  0.00     0.000 C 
BRANCH   6   7
ATOM      7  C   UNL     1      23.492  -0.939  -3.182  1.00  0.00     0.000 C 
BRANCH   7   8
ATOM      8  C   UNL     1      24.757  -1.593  -3.765  1.00  0.00     0.000 C 
BRANCH   8   9
ATOM      9  C   UNL     1      25.325  -2.704  -2.862  1.00  0.00     0.000 C 
BRANCH   9  10
ATOM     10  C   UNL     1      26.413  -3.578  -3.512  1.00  0.00     0.000 C 
BRANCH  10  11
ATOM     11  C   UNL     1      25.989  -5.049  -3.660  1.00  0.00     0.000 C 
BRANCH  11  12
ATOM     12  C   UNL     1      27.104  -6.034  -3.257  1.00  0.00     0.006 C 
BRANCH  12  13
ATOM     13  C   UNL     1      28.156  -5.429  -2.313  1.00  0.00     0.053 C 
BRANCH  13  14
ATOM     14  C   UNL     1      27.603  -5.131  -0.953  1.00  0.00     0.041 C 
ATOM     15  O   UNL     1      26.650  -5.814  -0.491  1.00  0.00    -0.550 OA
ATOM     16  O   UNL     1      28.149  -4.106  -0.189  1.00  0.00    -0.550 OA
ENDBRANCH  13  14
ENDBRANCH  12  13
ENDBRANCH  11  12
ENDBRANCH  10  11
ENDBRANCH   9  10
ENDBRANCH   8   9
ENDBRANCH   7   8
ENDBRANCH   6   7
ENDBRANCH   5   6
ENDBRANCH   4   5
ENDBRANCH   3   4
ENDBRANCH   2   3
ENDBRANCH   1   2
BRANCH   1  17
ATOM     17  C   UNL     1      26.181   3.979  -1.856  1.00  0.00     0.000 C 
BRANCH  17  18
ATOM     18  C   UNL     1      27.041   3.041  -0.989  1.00  0.00     0.000 C 
BRANCH  18  19
ATOM     19  C   UNL     1      28.075   3.750  -0.090  1.00  0.00     0.000 C 
BRANCH  19  20
ATOM     20  C   UNL     1      28.835   4.917  -0.753  1.00  0.00     0.000 C 
BRANCH  20  21
ATOM     21  C   UNL     1      29.081   6.134   0.156  1.00  0.00     0.000 C 
BRANCH  21  22
ATOM     22  C   UNL     1      28.382   7.405  -0.345  1.00  0.00    -0.000 C 
BRANCH  22  23
ATOM     23  C   UNL     1      26.974   7.085  -0.868  1.00  0.00    -0.000 C 
BRANCH  23  24
ATOM     24  C   UNL     1      26.666   7.764  -2.215  1.00  0.00    -0.000 C 
BRANCH  24  25
ATOM     25  C   UNL     1      27.290   9.162  -2.405  1.00  0.00    -0.000 C 
BRANCH  25  26
ATOM     26  C   UNL     1      28.760   9.172  -2.862  1.00  0.00    -0.000 C 
BRANCH  26  27
ATOM     27  C   UNL     1      28.991  10.030  -4.118  1.00  0.00    -0.000 C 
BRANCH  27  28
ATOM     28  C   UNL     1      28.247  11.377  -4.068  1.00  0.00    -0.000 C 
BRANCH  28  29
ATOM     29  C   UNL     1      28.966  12.489  -3.282  1.00  0.00    -0.003 C 
ATOM     30  C   UNL     1      29.125  13.781  -4.081  1.00  0.00     0.004 C 
ENDBRANCH  28  29
ENDBRANCH  27  28
ENDBRANCH  26  27
ENDBRANCH  25  26
ENDBRANCH  24  25
ENDBRANCH  23  24
ENDBRANCH  22  23
ENDBRANCH  21  22
ENDBRANCH  20  21
ENDBRANCH  19  20
ENDBRANCH  18  19
ENDBRANCH  17  18
ENDBRANCH   1  17
TORSDOF 26
ENDMDL
MODEL 2
REMARK VINA RESULT:     2.005      6.724     13.522
REMARK INTER + INTRA:           4.670
REMARK INTER:                   4.738
REMARK INTRA:                  -0.067
REMARK UNBOUND:                -0.382
REMARK SMILES CCCCCCCCCCCCCCCCCCCCCCCCCCCC(=O)[O-]
REMARK SMILES IDX 15 1 16 2 17 3 18 4 19 5 20 6 21 7 22 8 23 9 24 10 25 11
REMARK SMILES IDX 26 12 27 13 28 14 29 15 30 16 14 17 13 18 12 19 11 20 10 21
REMARK SMILES IDX 9 22 8 23 7 24 6 25 5 26 4 27 3 28 2 29 1 30
REMARK H PARENT
REMARK Flexibility Score: inf
ROOT
ATOM      1  C   UNL     1      28.345   6.818  -1.040  1.00  0.00     0.000 C 
ENDROOT
BRANCH   1   2
ATOM      2  C   UNL     1      28.745   7.795  -2.158  1.00  0.00     0.000 C 
BRANCH   2   3
ATOM      3  C   UNL     1      27.959   9.116  -2.101  1.00  0.00     0.000 C 
BRANCH   3   4
ATOM      4  C   UNL     1      28.228   9.918  -0.814  1.00  0.00     0.000 C 
BRANCH   4   5
ATOM      5  C   UNL     1      29.103   9.200   0.229  1.00  0.00     0.000 C 
BRANCH   5   6
ATOM      6  C   UNL     1      29.119   9.916   1.591  1.00  0.00     0.000 C 
BRANCH   6   7
ATOM      7  C   UNL     1      28.730   8.985   2.750  1.00  0.00     0.000 C 
BRANCH   7   8
ATOM      8  C   UNL     1      28.769   9.695   4.115  1.00  0.00     0.000 C 
BRANCH   8   9
ATOM      9  C   UNL     1      29.121   8.744   5.274  1.00  0.00     0.000 C 
BRANCH   9  10
ATOM     10  C   UNL     1      28.273   8.925   6.546  1.00  0.00     0.000 C 
BRANCH  10  11
ATOM     11  C   UNL     1      29.124   9.181   7.801  1.00  0.00     0.000 C 
BRANCH  11  12
ATOM     12  C   UNL     1      28.756  10.498   8.512  1.00  0.00     0.006 C 
BRANCH  12  13
ATOM     13  C   UNL     1      28.842  10.422  10.046  1.00  0.00     0.053 C 
BRANCH  13  14
ATOM     14  C   UNL     1      28.272  11.636  10.714  1.00  0.00     0.041 C 
ATOM     15  O   UNL     1      27.435  11.513  11.647  1.00  0.00    -0.550 OA
ATOM     16  O   UNL     1      28.675  12.904  10.313  1.00  0.00    -0.550 OA
ENDBRANCH  13  14
ENDBRANCH  12  13
ENDBRANCH  11  12
ENDBRANCH  10  11
ENDBRANCH   9  10
ENDBRANCH   8   9
ENDBRANCH   7   8
ENDBRANCH   6   7
ENDBRANCH   5   6
ENDBRANCH   4   5
ENDBRANCH   3   4
ENDBRANCH   2   3
ENDBRANCH   1   2
BRANCH   1  17
ATOM     17  C   UNL     1      26.830   6.802  -0.778  1.00  0.00     0.000 C 
BRANCH  17  18
ATOM     18  C   UNL     1      26.061   5.928  -1.785  1.00  0.00     0.000 C 
BRANCH  18  19
ATOM     19  C   UNL     1      25.502   4.610  -1.213  1.00  0.00     0.000 C 
BRANCH  19  20
ATOM     20  C   UNL     1      25.416   3.440  -2.215  1.00  0.00     0.000 C 
BRANCH  20  21
ATOM     21  C   UNL     1      24.082   2.672  -2.206  1.00  0.00     0.000 C 
BRANCH  21  22
ATOM     22  C   UNL     1      24.011   1.587  -3.290  1.00  0.00    -0.000 C 
BRANCH  22  23
ATOM     23  C   UNL     1      23.544   0.250  -2.696  1.00  0.00    -0.000 C 
BRANCH  23  24
ATOM     24  C   UNL     1      24.207  -0.967  -3.366  1.00  0.00    -0.000 C 
BRANCH  24  25
ATOM     25  C   UNL     1      24.587  -2.118  -2.410  1.00  0.00    -0.000 C 
BRANCH  25  26
ATOM     26  C   UNL     1      25.535  -3.179  -2.998  1.00  0.00    -0.000 C 
BRANCH  26  27
ATOM     27  C   UNL     1      26.568  -3.689  -1.979  1.00  0.00    -0.000 C 
BRANCH  27  28
ATOM     28  C   UNL     1      26.740  -5.218  -2.016  1.00  0.00    -0.000 C 
BRANCH  28  29
ATOM     29  C   UNL     1      28.101  -5.709  -2.542  1.00  0.00    -0.003 C 
ATOM     30  C   UNL     1      28.351  -5.332  -4.001  1.00  0.00     0.004 C 
ENDBRANCH  28  29
ENDBRANCH  27  28
ENDBRANCH  26  27
ENDBRANCH  25  26
ENDBRANCH  24  25
ENDBRANCH  23  24
ENDBRANCH  22  23
ENDBRANCH  21  22
ENDBRANCH  20  21
ENDBRANCH  19  20
ENDBRANCH  18  19
ENDBRANCH  17  18
ENDBRANCH   1  17
TORSDOF 26
ENDMDL
MODEL 3
REMARK VINA RESULT:     2.297      1.427      4.852
REMARK INTER + INTRA:           5.407
REMARK INTER:                   5.730
REMARK INTRA:                  -0.323
REMARK UNBOUND:                -0.382
REMARK SMILES CCCCCCCCCCCCCCCCCCCCCCCCCCCC(=O)[O-]
REMARK SMILES IDX 15 1 16 2 17 3 18 4 19 5 20 6 21 7 22 8 23 9 24 10 25 11
REMARK SMILES IDX 26 12 27 13 28 14 29 15 30 16 14 17 13 18 12 19 11 20 10 21
REMARK SMILES IDX 9 22 8 23 7 24 6 25 5 26 4 27 3 28 2 29 1 30
REMARK H PARENT
REMARK Flexibility Score: inf
ROOT
ATOM      1  C   UNL     1      25.209   7.141  -2.776  1.00  0.00     0.000 C 
ENDROOT
BRANCH   1   2
ATOM      2  C   UNL     1      25.780   6.101  -1.798  1.00  0.00     0.000 C 
BRANCH   2   3
ATOM      3  C   UNL     1      25.308   4.670  -2.109  1.00  0.00     0.000 C 
BRANCH   3   4
ATOM      4  C   UNL     1      23.807   4.595  -2.448  1.00  0.00     0.000 C 
BRANCH   4   5
ATOM      5  C   UNL     1      23.385   3.355  -3.256  1.00  0.00     0.000 C 
BRANCH   5   6
ATOM      6  C   UNL     1      24.131   2.079  -2.829  1.00  0.00     0.000 C 
BRANCH   6   7
ATOM      7  C   UNL     1      23.441   0.799  -3.324  1.00  0.00     0.000 C 
BRANCH   7   8
ATOM      8  C   UNL     1      22.267   0.377  -2.423  1.00  0.00     0.000 C 
BRANCH   8   9
ATOM      9  C   UNL     1      22.349  -1.098  -1.987  1.00  0.00     0.000 C 
BRANCH   9  10
ATOM     10  C   UNL     1      23.777  -1.645  -1.808  1.00  0.00     0.000 C 
BRANCH  10  11
ATOM     11  C   UNL     1      24.547  -1.754  -3.135  1.00  0.00     0.000 C 
BRANCH  11  12
ATOM     12  C   UNL     1      25.241  -3.118  -3.311  1.00  0.00     0.006 C 
BRANCH  12  13
ATOM     13  C   UNL     1      26.489  -3.299  -2.431  1.00  0.00     0.053 C 
BRANCH  13  14
ATOM     14  C   UNL     1      27.153  -4.625  -2.643  1.00  0.00     0.041 C 
ATOM     15  O   UNL     1      26.705  -5.657  -2.076  1.00  0.00    -0.550 OA
ATOM     16  O   UNL     1      28.262  -4.723  -3.476  1.00  0.00    -0.550 OA
ENDBRANCH  13  14
ENDBRANCH  12  13
ENDBRANCH  11  12
ENDBRANCH  10  11
ENDBRANCH   9  10
ENDBRANCH   8   9
ENDBRANCH   7   8
ENDBRANCH   6   7
ENDBRANCH   5   6
ENDBRANCH   4   5
ENDBRANCH   3   4
ENDBRANCH   2   3
ENDBRANCH   1   2
BRANCH   1  17
ATOM     17  C   UNL     1      26.246   7.621  -3.806  1.00  0.00     0.000 C 
BRANCH  17  18
ATOM     18  C   UNL     1      27.438   8.346  -3.155  1.00  0.00     0.000 C 
BRANCH  18  19
ATOM     19  C   UNL     1      28.210   9.300  -4.088  1.00  0.00     0.000 C 
BRANCH  19  20
ATOM     20  C   UNL     1      27.725  10.765  -4.080  1.00  0.00     0.000 C 
BRANCH  20  21
ATOM     21  C   UNL     1      28.555  11.722  -3.205  1.00  0.00     0.000 C 
BRANCH  21  22
ATOM     22  C   UNL     1      28.109  11.726  -1.736  1.00  0.00    -0.000 C 
BRANCH  22  23
ATOM     23  C   UNL     1      28.861  10.655  -0.933  1.00  0.00    -0.000 C 
BRANCH  23  24
ATOM     24  C   UNL     1      27.940   9.533  -0.420  1.00  0.00    -0.000 C 
BRANCH  24  25
ATOM     25  C   UNL     1      28.641   8.431   0.401  1.00  0.00    -0.000 C 
BRANCH  25  26
ATOM     26  C   UNL     1      29.124   7.212  -0.406  1.00  0.00    -0.000 C 
BRANCH  26  27
ATOM     27  C   UNL     1      28.176   6.006  -0.294  1.00  0.00    -0.000 C 
BRANCH  27  28
ATOM     28  C   UNL     1      28.895   4.721   0.156  1.00  0.00    -0.000 C 
BRANCH  28  29
ATOM     29  C   UNL     1      28.049   3.437   0.073  1.00  0.00    -0.003 C 
ATOM     30  C   UNL     1      27.893   2.914  -1.354  1.00  0.00     0.004 C 
ENDBRANCH  28  29
ENDBRANCH  27  28
ENDBRANCH  26  27
ENDBRANCH  25  26
ENDBRANCH  24  25
ENDBRANCH  23  24
ENDBRANCH  22  23
ENDBRANCH  21  22
ENDBRANCH  20  21
ENDBRANCH  19  20
ENDBRANCH  18  19
ENDBRANCH  17  18
ENDBRANCH   1  17
TORSDOF 26
ENDMDL
MODEL 4
REMARK VINA RESULT:     2.626      3.155     11.650
REMARK INTER + INTRA:           6.235
REMARK INTER:                   6.153
REMARK INTRA:                   0.083
REMARK UNBOUND:                -0.382
REMARK SMILES CCCCCCCCCCCCCCCCCCCCCCCCCCCC(=O)[O-]
REMARK SMILES IDX 15 1 16 2 17 3 18 4 19 5 20 6 21 7 22 8 23 9 24 10 25 11
REMARK SMILES IDX 26 12 27 13 28 14 29 15 30 16 14 17 13 18 12 19 11 20 10 21
REMARK SMILES IDX 9 22 8 23 7 24 6 25 5 26 4 27 3 28 2 29 1 30
REMARK H PARENT
REMARK Flexibility Score: inf
ROOT
ATOM      1  C   UNL     1      25.242   4.346  -1.615  1.00  0.00     0.000 C 
ENDROOT
BRANCH   1   2
ATOM      2  C   UNL     1      25.877   5.662  -2.092  1.00  0.00     0.000 C 
BRANCH   2   3
ATOM      3  C   UNL     1      25.101   6.309  -3.253  1.00  0.00     0.000 C 
BRANCH   3   4
ATOM      4  C   UNL     1      25.110   7.849  -3.194  1.00  0.00     0.000 C 
BRANCH   4   5
ATOM      5  C   UNL     1      26.483   8.481  -2.905  1.00  0.00     0.000 C 
BRANCH   5   6
ATOM      6  C   UNL     1      27.421   8.457  -4.125  1.00  0.00     0.000 C 
BRANCH   6   7
ATOM      7  C   UNL     1      28.710   9.260  -3.892  1.00  0.00     0.000 C 
BRANCH   7   8
ATOM      8  C   UNL     1      28.437  10.754  -3.645  1.00  0.00     0.000 C 
BRANCH   8   9
ATOM      9  C   UNL     1      28.991  11.247  -2.295  1.00  0.00     0.000 C 
BRANCH   9  10
ATOM     10  C   UNL     1      28.212  10.766  -1.057  1.00  0.00     0.000 C 
BRANCH  10  11
ATOM     11  C   UNL     1      29.125  10.181   0.034  1.00  0.00     0.000 C 
BRANCH  11  12
ATOM     12  C   UNL     1      28.400   9.160   0.932  1.00  0.00     0.006 C 
BRANCH  12  13
ATOM     13  C   UNL     1      27.612   8.095   0.152  1.00  0.00     0.053 C 
BRANCH  13  14
ATOM     14  C   UNL     1      28.505   7.120  -0.552  1.00  0.00     0.041 C 
ATOM     15  O   UNL     1      29.112   7.460  -1.603  1.00  0.00    -0.550 OA
ATOM     16  O   UNL     1      28.678   5.839  -0.041  1.00  0.00    -0.550 OA
ENDBRANCH  13  14
ENDBRANCH  12  13
ENDBRANCH  11  12
ENDBRANCH  10  11
ENDBRANCH   9  10
ENDBRANCH   8   9
ENDBRANCH   7   8
ENDBRANCH   6   7
ENDBRANCH   5   6
ENDBRANCH   4   5
ENDBRANCH   3   4
ENDBRANCH   2   3
ENDBRANCH   1   2
BRANCH   1  17
ATOM     17  C   UNL     1      24.420   3.650  -2.713  1.00  0.00     0.000 C 
BRANCH  17  18
ATOM     18  C   UNL     1      24.406   2.117  -2.564  1.00  0.00     0.000 C 
BRANCH  18  19
ATOM     19  C   UNL     1      23.117   1.533  -1.952  1.00  0.00     0.000 C 
BRANCH  19  20
ATOM     20  C   UNL     1      22.125   0.923  -2.963  1.00  0.00     0.000 C 
BRANCH  20  21
ATOM     21  C   UNL     1      22.309  -0.583  -3.229  1.00  0.00     0.000 C 
BRANCH  21  22
ATOM     22  C   UNL     1      22.458  -1.403  -1.940  1.00  0.00    -0.000 C 
BRANCH  22  23
ATOM     23  C   UNL     1      23.930  -1.758  -1.685  1.00  0.00    -0.000 C 
BRANCH  23  24
ATOM     24  C   UNL     1      24.743  -1.915  -2.983  1.00  0.00    -0.000 C 
BRANCH  24  25
ATOM     25  C   UNL     1      25.944  -2.880  -2.893  1.00  0.00    -0.000 C 
BRANCH  25  26
ATOM     26  C   UNL     1      25.812  -4.176  -3.713  1.00  0.00    -0.000 C 
BRANCH  26  27
ATOM     27  C   UNL     1      27.141  -4.941  -3.841  1.00  0.00    -0.000 C 
BRANCH  27  28
ATOM     28  C   UNL     1      27.720  -5.365  -2.479  1.00  0.00    -0.000 C 
BRANCH  28  29
ATOM     29  C   UNL     1      27.346  -4.452  -1.298  1.00  0.00    -0.003 C 
ATOM     30  C   UNL     1      28.226  -4.671  -0.069  1.00  0.00     0.004 C 
ENDBRANCH  28  29
ENDBRANCH  27  28
ENDBRANCH  26  27
ENDBRANCH  25  26
ENDBRANCH  24  25
ENDBRANCH  23  24
ENDBRANCH  22  23
ENDBRANCH  21  22
ENDBRANCH  20  21
ENDBRANCH  19  20
ENDBRANCH  18  19
ENDBRANCH  17  18
ENDBRANCH   1  17
TORSDOF 26
ENDMDL
MODEL 5
REMARK VINA RESULT:     3.001      1.265      2.302
REMARK INTER + INTRA:           7.180
REMARK INTER:                   9.270
REMARK INTRA:                  -2.090
REMARK UNBOUND:                -0.382
REMARK SMILES CCCCCCCCCCCCCCCCCCCCCCCCCCCC(=O)[O-]
REMARK SMILES IDX 15 1 16 2 17 3 18 4 19 5 20 6 21 7 22 8 23 9 24 10 25 11
REMARK SMILES IDX 26 12 27 13 28 14 29 15 30 16 14 17 13 18 12 19 11 20 10 21
REMARK SMILES IDX 9 22 8 23 7 24 6 25 5 26 4 27 3 28 2 29 1 30
REMARK H PARENT
REMARK Flexibility Score: inf
ROOT
ATOM      1  C   UNL     1      23.909   2.441  -3.090  1.00  0.00     0.000 C 
ENDROOT
BRANCH   1   2
ATOM      2  C   UNL     1      22.554   1.838  -3.496  1.00  0.00     0.000 C 
BRANCH   2   3
ATOM      3  C   UNL     1      21.556   1.779  -2.327  1.00  0.00     0.000 C 
BRANCH   3   4
ATOM      4  C   UNL     1      21.097   0.344  -2.004  1.00  0.00     0.000 C 
BRANCH   4   5
ATOM      5  C   UNL     1      22.012  -0.769  -2.545  1.00  0.00     0.000 C 
BRANCH   5   6
ATOM      6  C   UNL     1      23.024  -1.271  -1.501  1.00  0.00     0.000 C 
BRANCH   6   7
ATOM      7  C   UNL     1      24.450  -1.376  -2.066  1.00  0.00     0.000 C 
BRANCH   7   8
ATOM      8  C   UNL     1      24.690  -2.696  -2.819  1.00  0.00     0.000 C 
BRANCH   8   9
ATOM      9  C   UNL     1      26.073  -2.755  -3.494  1.00  0.00     0.000 C 
BRANCH   9  10
ATOM     10  C   UNL     1      26.432  -4.113  -4.124  1.00  0.00     0.000 C 
BRANCH  10  11
ATOM     11  C   UNL     1      27.726  -4.715  -3.552  1.00  0.00     0.000 C 
BRANCH  11  12
ATOM     12  C   UNL     1      27.490  -6.056  -2.829  1.00  0.00     0.006 C 
BRANCH  12  13
ATOM     13  C   UNL     1      26.867  -5.907  -1.431  1.00  0.00     0.053 C 
BRANCH  13  14
ATOM     14  C   UNL     1      27.600  -4.919  -0.578  1.00  0.00     0.041 C 
ATOM     15  O   UNL     1      27.127  -3.766  -0.391  1.00  0.00    -0.550 OA
ATOM     16  O   UNL     1      28.803  -5.274   0.022  1.00  0.00    -0.550 OA
ENDBRANCH  13  14
ENDBRANCH  12  13
ENDBRANCH  11  12
ENDBRANCH  10  11
ENDBRANCH   9  10
ENDBRANCH   8   9
ENDBRANCH   7   8
ENDBRANCH   6   7
ENDBRANCH   5   6
ENDBRANCH   4   5
ENDBRANCH   3   4
ENDBRANCH   2   3
ENDBRANCH   1   2
BRANCH   1  17
ATOM     17  C   UNL     1      24.087   3.887  -3.582  1.00  0.00     0.000 C 
BRANCH  17  18
ATOM     18  C   UNL     1      24.858   4.766  -2.579  1.00  0.00     0.000 C 
BRANCH  18  19
ATOM     19  C   UNL     1      24.940   4.202  -1.146  1.00  0.00     0.000 C 
BRANCH  19  20
ATOM     20  C   UNL     1      26.217   4.572  -0.365  1.00  0.00     0.000 C 
BRANCH  20  21
ATOM     21  C   UNL     1      27.521   3.976  -0.926  1.00  0.00     0.000 C 
BRANCH  21  22
ATOM     22  C   UNL     1      28.746   4.299  -0.060  1.00  0.00    -0.000 C 
BRANCH  22  23
ATOM     23  C   UNL     1      28.830   5.804   0.231  1.00  0.00    -0.000 C 
BRANCH  23  24
ATOM     24  C   UNL     1      28.991   6.653  -1.044  1.00  0.00    -0.000 C 
BRANCH  24  25
ATOM     25  C   UNL     1      27.733   7.437  -1.475  1.00  0.00    -0.000 C 
BRANCH  25  26
ATOM     26  C   UNL     1      27.318   8.585  -0.537  1.00  0.00    -0.000 C 
BRANCH  26  27
ATOM     27  C   UNL     1      27.970   9.928  -0.909  1.00  0.00    -0.000 C 
BRANCH  27  28
ATOM     28  C   UNL     1      27.930  10.213  -2.422  1.00  0.00    -0.000 C 
BRANCH  28  29
ATOM     29  C   UNL     1      29.115  11.034  -2.962  1.00  0.00    -0.003 C 
ATOM     30  C   UNL     1      28.768  12.504  -3.195  1.00  0.00     0.004 C 
ENDBRANCH  28  29
ENDBRANCH  27  28
ENDBRANCH  26  27
ENDBRANCH  25  26
ENDBRANCH  24  25
ENDBRANCH  23  24
ENDBRANCH  22  23
ENDBRANCH  21  22
ENDBRANCH  20  21
ENDBRANCH  19  20
ENDBRANCH  18  19
ENDBRANCH  17  18
ENDBRANCH   1  17
TORSDOF 26
ENDMDL
MODEL 6
REMARK VINA RESULT:     3.618      3.852     11.850
REMARK INTER + INTRA:           8.734
REMARK INTER:                   6.296
REMARK INTRA:                   2.439
REMARK UNBOUND:                -0.382
REMARK SMILES CCCCCCCCCCCCCCCCCCCCCCCCCCCC(=O)[O-]
REMARK SMILES IDX 15 1 16 2 17 3 18 4 19 5 20 6 21 7 22 8 23 9 24 10 25 11
REMARK SMILES IDX 26 12 27 13 28 14 29 15 30 16 14 17 13 18 12 19 11 20 10 21
REMARK SMILES IDX 9 22 8 23 7 24 6 25 5 26 4 27 3 28 2 29 1 30
REMARK H PARENT
REMARK Flexibility Score: inf
ROOT
ATOM      1  C   UNL     1      27.456   4.466  -1.077  1.00  0.00     0.000 C 
ENDROOT
BRANCH   1   2
ATOM      2  C   UNL     1      28.850   4.680  -0.467  1.00  0.00     0.000 C 
BRANCH   2   3
ATOM      3  C   UNL     1      29.115   6.148  -0.089  1.00  0.00     0.000 C 
BRANCH   3   4
ATOM      4  C   UNL     1      28.248   7.138  -0.889  1.00  0.00     0.000 C 
BRANCH   4   5
ATOM      5  C   UNL     1      26.740   6.831  -0.886  1.00  0.00     0.000 C 
BRANCH   5   6
ATOM      6  C   UNL     1      25.972   7.595  -1.979  1.00  0.00     0.000 C 
BRANCH   6   7
ATOM      7  C   UNL     1      26.728   7.628  -3.317  1.00  0.00     0.000 C 
BRANCH   7   8
ATOM      8  C   UNL     1      27.611   8.879  -3.463  1.00  0.00     0.000 C 
BRANCH   8   9
ATOM      9  C   UNL     1      26.835  10.100  -3.991  1.00  0.00     0.000 C 
BRANCH   9  10
ATOM     10  C   UNL     1      27.664  11.391  -4.122  1.00  0.00     0.000 C 
BRANCH  10  11
ATOM     11  C   UNL     1      29.075  11.259  -3.526  1.00  0.00     0.000 C 
BRANCH  11  12
ATOM     12  C   UNL     1      29.124  10.307  -2.315  1.00  0.00     0.006 C 
BRANCH  12  13
ATOM     13  C   UNL     1      28.801  10.988  -0.975  1.00  0.00     0.053 C 
BRANCH  13  14
ATOM     14  C   UNL     1      28.134  10.061  -0.006  1.00  0.00     0.041 C 
ATOM     15  O   UNL     1      26.877   9.985   0.037  1.00  0.00    -0.550 OA
ATOM     16  O   UNL     1      28.900   9.272   0.844  1.00  0.00    -0.550 OA
ENDBRANCH  13  14
ENDBRANCH  12  13
ENDBRANCH  11  12
ENDBRANCH  10  11
ENDBRANCH   9  10
ENDBRANCH   8   9
ENDBRANCH   7   8
ENDBRANCH   6   7
ENDBRANCH   5   6
ENDBRANCH   4   5
ENDBRANCH   3   4
ENDBRANCH   2   3
ENDBRANCH   1   2
BRANCH   1  17
ATOM     17  C   UNL     1      27.352   3.159  -1.880  1.00  0.00     0.000 C 
BRANCH  17  18
ATOM     18  C   UNL     1      25.997   2.452  -1.694  1.00  0.00     0.000 C 
BRANCH  18  19
ATOM     19  C   UNL     1      24.770   3.255  -2.172  1.00  0.00     0.000 C 
BRANCH  19  20
ATOM     20  C   UNL     1      23.448   2.464  -2.234  1.00  0.00     0.000 C 
BRANCH  20  21
ATOM     21  C   UNL     1      23.500   1.170  -3.067  1.00  0.00     0.000 C 
BRANCH  21  22
ATOM     22  C   UNL     1      23.160  -0.082  -2.246  1.00  0.00    -0.000 C 
BRANCH  22  23
ATOM     23  C   UNL     1      23.226  -1.343  -3.120  1.00  0.00    -0.000 C 
BRANCH  23  24
ATOM     24  C   UNL     1      24.644  -1.638  -3.641  1.00  0.00    -0.000 C 
BRANCH  24  25
ATOM     25  C   UNL     1      25.414  -2.731  -2.869  1.00  0.00    -0.000 C 
BRANCH  25  26
ATOM     26  C   UNL     1      26.573  -3.391  -3.638  1.00  0.00    -0.000 C 
BRANCH  26  27
ATOM     27  C   UNL     1      26.759  -4.876  -3.282  1.00  0.00    -0.000 C 
BRANCH  27  28
ATOM     28  C   UNL     1      28.099  -5.158  -2.578  1.00  0.00    -0.000 C 
BRANCH  28  29
ATOM     29  C   UNL     1      27.999  -5.411  -1.063  1.00  0.00    -0.003 C 
ATOM     30  C   UNL     1      27.121  -4.389  -0.342  1.00  0.00     0.004 C 
ENDBRANCH  28  29
ENDBRANCH  27  28
ENDBRANCH  26  27
ENDBRANCH  25  26
ENDBRANCH  24  25
ENDBRANCH  23  24
ENDBRANCH  22  23
ENDBRANCH  21  22
ENDBRANCH  20  21
ENDBRANCH  19  20
ENDBRANCH  18  19
ENDBRANCH  17  18
ENDBRANCH   1  17
TORSDOF 26
ENDMDL
