MODEL 1
REMARK VINA RESULT:    -6.902      0.000      0.000
REMARK INTER + INTRA:          -7.502
REMARK INTER:                  -7.507
REMARK INTRA:                   0.005
REMARK UNBOUND:                 0.005
REMARK SMILES C[C@@H]1[C@@H](C)CC[C@@]2(C(=O)[O-])CC[C@@]3(C)C(=CC[C@H]4[C@@]5(C)CC[C@H](O)C(C)(C)[C@@H]5CC[C@]43C)[C@@H]12
REMARK SMILES IDX 7 1 6 2 11 3 33 4 5 5 12 6 15 7 2 8 3 9 13 10 16 11 1 12
REMARK SMILES IDX 4 13 14 14 31 15 17 16 18 17 30 18 32 19 19 20 29 21 28 22
REMARK SMILES IDX 21 23 20 24 25 25 22 26 23 27 26 28 27 29 8 30 9 31 10 32
REMARK SMILES IDX 24 33
REMARK H PARENT 24 34
REMARK Flexibility Score: inf
ROOT
ATOM      1  C   UNL     1      -1.669 -14.246 -34.792  1.00  0.00     0.017 C 
ATOM      2  C   UNL     1      -2.636 -13.556 -33.786  1.00  0.00     0.014 C 
ATOM      3  C   UNL     1      -2.534 -15.077 -35.797  1.00  0.00     0.014 C 
ATOM      4  C   UNL     1      -0.785 -13.145 -35.508  1.00  0.00     0.030 C 
ATOM      5  C   UNL     1      -1.921 -12.684 -32.748  1.00  0.00     0.004 C 
ATOM      6  C   UNL     1      -2.175 -14.850 -37.266  1.00  0.00     0.013 C 
ATOM      7  C   UNL     1      -1.513 -12.481 -36.716  1.00  0.00    -0.063 C 
ATOM      8  C   UNL     1      -0.086 -12.174 -34.467  1.00  0.00    -0.003 C 
ATOM      9  C   UNL     1      -1.056 -11.590 -33.399  1.00  0.00    -0.011 C 
ATOM     10  C   UNL     1      -2.289 -13.352 -37.709  1.00  0.00    -0.006 C 
ATOM     11  C   UNL     1      -1.271 -11.206 -37.085  1.00  0.00    -0.027 C 
ATOM     12  C   UNL     1       1.133 -12.826 -33.779  1.00  0.00     0.008 C 
ATOM     13  C   UNL     1      -1.922 -10.438 -33.933  1.00  0.00     0.008 C 
ATOM     14  C   UNL     1      -3.795 -12.947 -37.605  1.00  0.00     0.017 C 
ATOM     15  C   UNL     1      -1.721 -13.110 -39.203  1.00  0.00    -0.020 C 
ATOM     16  C   UNL     1      -1.619 -10.610 -38.421  1.00  0.00     0.032 C 
ATOM     17  C   UNL     1      -1.934 -11.584 -39.617  1.00  0.00     0.006 C 
ATOM     18  C   UNL     1      -0.192 -13.440 -39.283  1.00  0.00     0.008 C 
ATOM     19  C   UNL     1      -2.474 -14.070 -40.179  1.00  0.00     0.012 C 
ATOM     20  C   UNL     1      -1.229 -11.128 -40.986  1.00  0.00    -0.025 C 
ATOM     21  C   UNL     1       0.500 -13.003 -40.588  1.00  0.00     0.005 C 
ATOM     22  C   UNL     1       0.301 -11.492 -40.884  1.00  0.00     0.003 C 
ATOM     23  C   UNL     1      -1.394  -9.580 -41.224  1.00  0.00     0.010 C 
ATOM     24  C   UNL     1      -1.945 -11.810 -42.207  1.00  0.00     0.012 C 
ATOM     25  C   UNL     1       1.229 -10.904 -42.025  1.00  0.00    -0.006 C 
ATOM     26  C   UNL     1      -0.521  -9.034 -42.365  1.00  0.00     0.033 C 
ATOM     27  C   UNL     1       0.960  -9.368 -42.159  1.00  0.00     0.120 C 
ATOM     28  C   UNL     1       2.720 -11.072 -41.618  1.00  0.00     0.014 C 
ATOM     29  C   UNL     1       1.054 -11.616 -43.392  1.00  0.00     0.014 C 
ENDROOT
BRANCH   1  30
ATOM     30  C   UNL     1      -0.784 -15.259 -34.071  1.00  0.00     0.048 C 
ATOM     31  O   UNL     1       0.117 -15.877 -34.700  1.00  0.00    -0.550 OA
ATOM     32  O   UNL     1      -1.037 -15.617 -32.750  1.00  0.00    -0.550 OA
ENDBRANCH   1  30
BRANCH  27  33
ATOM     33  O   UNL     1       1.689  -8.824 -43.235  1.00  0.00    -0.393 OA
ATOM     34  H   UNL     1       1.035  -8.470 -43.892  1.00  0.00     0.210 HD
ENDBRANCH  27  33
TORSDOF 2
ENDMDL
MODEL 2
REMARK VINA RESULT:    -6.758      5.352      9.795
REMARK INTER + INTRA:          -7.345
REMARK INTER:                  -7.351
REMARK INTRA:                   0.006
REMARK UNBOUND:                 0.005
REMARK SMILES C[C@@H]1[C@@H](C)CC[C@@]2(C(=O)[O-])CC[C@@]3(C)C(=CC[C@H]4[C@@]5(C)CC[C@H](O)C(C)(C)[C@@H]5CC[C@]43C)[C@@H]12
REMARK SMILES IDX 7 1 6 2 11 3 33 4 5 5 12 6 15 7 2 8 3 9 13 10 16 11 1 12
REMARK SMILES IDX 4 13 14 14 31 15 17 16 18 17 30 18 32 19 19 20 29 21 28 22
REMARK SMILES IDX 21 23 20 24 25 25 22 26 23 27 26 28 27 29 8 30 9 31 10 32
REMARK SMILES IDX 24 33
REMARK H PARENT 24 34
REMARK Flexibility Score: inf
ROOT
ATOM      1  C   UNL     1      -7.519  -8.050 -45.005  1.00  0.00     0.017 C 
ATOM      2  C   UNL     1      -8.951  -8.618 -44.775  1.00  0.00     0.014 C 
ATOM      3  C   UNL     1      -7.286  -6.900 -43.971  1.00  0.00     0.014 C 
ATOM      4  C   UNL     1      -6.463  -9.222 -44.870  1.00  0.00     0.030 C 
ATOM      5  C   UNL     1      -9.310  -9.776 -45.712  1.00  0.00     0.004 C 
ATOM      6  C   UNL     1      -5.959  -6.999 -43.217  1.00  0.00     0.013 C 
ATOM      7  C   UNL     1      -6.072  -9.510 -43.389  1.00  0.00    -0.063 C 
ATOM      8  C   UNL     1      -6.841 -10.471 -45.771  1.00  0.00    -0.003 C 
ATOM      9  C   UNL     1      -8.315 -10.944 -45.607  1.00  0.00    -0.011 C 
ATOM     10  C   UNL     1      -5.786  -8.346 -42.437  1.00  0.00    -0.006 C 
ATOM     11  C   UNL     1      -5.709 -10.741 -42.972  1.00  0.00    -0.027 C 
ATOM     12  C   UNL     1      -6.520 -10.240 -47.265  1.00  0.00     0.008 C 
ATOM     13  C   UNL     1      -8.549 -11.763 -44.327  1.00  0.00     0.008 C 
ATOM     14  C   UNL     1      -6.877  -8.381 -41.319  1.00  0.00     0.017 C 
ATOM     15  C   UNL     1      -4.305  -8.507 -41.812  1.00  0.00    -0.020 C 
ATOM     16  C   UNL     1      -4.968 -11.040 -41.698  1.00  0.00     0.032 C 
ATOM     17  C   UNL     1      -4.220  -9.860 -40.972  1.00  0.00     0.006 C 
ATOM     18  C   UNL     1      -3.220  -8.552 -42.941  1.00  0.00     0.008 C 
ATOM     19  C   UNL     1      -4.011  -7.264 -40.911  1.00  0.00     0.012 C 
ATOM     20  C   UNL     1      -2.754 -10.277 -40.465  1.00  0.00    -0.025 C 
ATOM     21  C   UNL     1      -1.809  -8.957 -42.472  1.00  0.00     0.005 C 
ATOM     22  C   UNL     1      -1.804 -10.316 -41.722  1.00  0.00     0.003 C 
ATOM     23  C   UNL     1      -2.772 -11.688 -39.768  1.00  0.00     0.010 C 
ATOM     24  C   UNL     1      -2.268  -9.276 -39.357  1.00  0.00     0.012 C 
ATOM     25  C   UNL     1      -0.370 -10.946 -41.486  1.00  0.00    -0.006 C 
ATOM     26  C   UNL     1      -1.372 -12.265 -39.503  1.00  0.00     0.033 C 
ATOM     27  C   UNL     1      -0.534 -12.335 -40.785  1.00  0.00     0.120 C 
ATOM     28  C   UNL     1       0.313 -11.206 -42.859  1.00  0.00     0.014 C 
ATOM     29  C   UNL     1       0.583 -10.028 -40.677  1.00  0.00     0.014 C 
ENDROOT
BRANCH   1  30
ATOM     30  C   UNL     1      -7.422  -7.396 -46.382  1.00  0.00     0.048 C 
ATOM     31  O   UNL     1      -6.320  -6.943 -46.793  1.00  0.00    -0.550 OA
ATOM     32  O   UNL     1      -8.561  -7.167 -47.147  1.00  0.00    -0.550 OA
ENDBRANCH   1  30
BRANCH  27  33
ATOM     33  O   UNL     1       0.722 -12.883 -40.460  1.00  0.00    -0.393 OA
ATOM     34  H   UNL     1       0.682 -13.858 -40.644  1.00  0.00     0.210 HD
ENDBRANCH  27  33
TORSDOF 2
ENDMDL
MODEL 3
REMARK VINA RESULT:    -6.423      1.166      1.381
REMARK INTER + INTRA:          -6.981
REMARK INTER:                  -6.985
REMARK INTRA:                   0.004
REMARK UNBOUND:                 0.005
REMARK SMILES C[C@@H]1[C@@H](C)CC[C@@]2(C(=O)[O-])CC[C@@]3(C)C(=CC[C@H]4[C@@]5(C)CC[C@H](O)C(C)(C)[C@@H]5CC[C@]43C)[C@@H]12
REMARK SMILES IDX 7 1 6 2 11 3 33 4 5 5 12 6 15 7 2 8 3 9 13 10 16 11 1 12
REMARK SMILES IDX 4 13 14 14 31 15 17 16 18 17 30 18 32 19 19 20 29 21 28 22
REMARK SMILES IDX 21 23 20 24 25 25 22 26 23 27 26 28 27 29 8 30 9 31 10 32
REMARK SMILES IDX 24 33
REMARK H PARENT 24 34
REMARK Flexibility Score: inf
ROOT
ATOM      1  C   UNL     1      -1.278 -15.052 -34.070  1.00  0.00     0.017 C 
ATOM      2  C   UNL     1      -1.870 -14.427 -32.773  1.00  0.00     0.014 C 
ATOM      3  C   UNL     1      -2.460 -15.664 -34.892  1.00  0.00     0.014 C 
ATOM      4  C   UNL     1      -0.484 -13.941 -34.872  1.00  0.00     0.030 C 
ATOM      5  C   UNL     1      -0.819 -13.766 -31.875  1.00  0.00     0.004 C 
ATOM      6  C   UNL     1      -2.463 -15.270 -36.370  1.00  0.00     0.013 C 
ATOM      7  C   UNL     1      -1.414 -13.062 -35.762  1.00  0.00    -0.063 C 
ATOM      8  C   UNL     1       0.564 -13.181 -33.955  1.00  0.00    -0.003 C 
ATOM      9  C   UNL     1      -0.028 -12.669 -32.610  1.00  0.00    -0.011 C 
ATOM     10  C   UNL     1      -2.511 -13.723 -36.600  1.00  0.00    -0.006 C 
ATOM     11  C   UNL     1      -1.127 -11.773 -36.040  1.00  0.00    -0.027 C 
ATOM     12  C   UNL     1       1.835 -14.020 -33.692  1.00  0.00     0.008 C 
ATOM     13  C   UNL     1      -0.862 -11.387 -32.764  1.00  0.00     0.008 C 
ATOM     14  C   UNL     1      -3.884 -13.212 -36.055  1.00  0.00     0.017 C 
ATOM     15  C   UNL     1      -2.319 -13.327 -38.155  1.00  0.00    -0.020 C 
ATOM     16  C   UNL     1      -1.733 -10.974 -37.161  1.00  0.00     0.032 C 
ATOM     17  C   UNL     1      -2.451 -11.747 -38.329  1.00  0.00     0.006 C 
ATOM     18  C   UNL     1      -0.909 -13.769 -38.677  1.00  0.00     0.008 C 
ATOM     19  C   UNL     1      -3.400 -14.081 -38.994  1.00  0.00     0.012 C 
ATOM     20  C   UNL     1      -2.070 -11.170 -39.778  1.00  0.00    -0.025 C 
ATOM     21  C   UNL     1      -0.526 -13.218 -40.063  1.00  0.00     0.005 C 
ATOM     22  C   UNL     1      -0.618 -11.670 -40.129  1.00  0.00     0.003 C 
ATOM     23  C   UNL     1      -2.110  -9.596 -39.793  1.00  0.00     0.010 C 
ATOM     24  C   UNL     1      -3.147 -11.618 -40.830  1.00  0.00     0.012 C 
ATOM     25  C   UNL     1       0.052 -11.011 -41.405  1.00  0.00    -0.006 C 
ATOM     26  C   UNL     1      -1.499  -8.974 -41.059  1.00  0.00     0.033 C 
ATOM     27  C   UNL     1      -0.063  -9.455 -41.293  1.00  0.00     0.120 C 
ATOM     28  C   UNL     1       1.568 -11.357 -41.430  1.00  0.00     0.014 C 
ATOM     29  C   UNL     1      -0.546 -11.514 -42.745  1.00  0.00     0.014 C 
ENDROOT
BRANCH   1  30
ATOM     30  C   UNL     1      -0.362 -16.224 -33.726  1.00  0.00     0.048 C 
ATOM     31  O   UNL     1       0.291 -16.807 -34.633  1.00  0.00    -0.550 OA
ATOM     32  O   UNL     1      -0.330 -16.752 -32.439  1.00  0.00    -0.550 OA
ENDBRANCH   1  30
BRANCH  27  33
ATOM     33  O   UNL     1       0.426  -8.833 -42.459  1.00  0.00    -0.393 OA
ATOM     34  H   UNL     1      -0.078  -7.986 -42.581  1.00  0.00     0.210 HD
ENDBRANCH  27  33
TORSDOF 2
ENDMDL
MODEL 4
REMARK VINA RESULT:    -6.262     10.008     12.108
REMARK INTER + INTRA:          -6.806
REMARK INTER:                  -6.814
REMARK INTRA:                   0.008
REMARK UNBOUND:                 0.005
REMARK SMILES C[C@@H]1[C@@H](C)CC[C@@]2(C(=O)[O-])CC[C@@]3(C)C(=CC[C@H]4[C@@]5(C)CC[C@H](O)C(C)(C)[C@@H]5CC[C@]43C)[C@@H]12
REMARK SMILES IDX 7 1 6 2 11 3 33 4 5 5 12 6 15 7 2 8 3 9 13 10 16 11 1 12
REMARK SMILES IDX 4 13 14 14 31 15 17 16 18 17 30 18 32 19 19 20 29 21 28 22
REMARK SMILES IDX 21 23 20 24 25 25 22 26 23 27 26 28 27 29 8 30 9 31 10 32
REMARK SMILES IDX 24 33
REMARK H PARENT 24 34
REMARK Flexibility Score: inf
ROOT
ATOM      1  C   UNL     1       2.218 -19.890 -39.749  1.00  0.00     0.017 C 
ATOM      2  C   UNL     1       1.171 -18.866 -39.222  1.00  0.00     0.014 C 
ATOM      3  C   UNL     1       2.105 -21.184 -38.876  1.00  0.00     0.014 C 
ATOM      4  C   UNL     1       1.958 -20.163 -41.287  1.00  0.00     0.030 C 
ATOM      5  C   UNL     1       1.153 -17.548 -40.006  1.00  0.00     0.004 C 
ATOM      6  C   UNL     1       2.026 -22.478 -39.686  1.00  0.00     0.013 C 
ATOM      7  C   UNL     1       0.846 -21.228 -41.528  1.00  0.00    -0.063 C 
ATOM      8  C   UNL     1       1.859 -18.818 -42.121  1.00  0.00    -0.003 C 
ATOM      9  C   UNL     1       0.892 -17.763 -41.506  1.00  0.00    -0.011 C 
ATOM     10  C   UNL     1       0.825 -22.510 -40.690  1.00  0.00    -0.006 C 
ATOM     11  C   UNL     1       0.058 -21.203 -42.623  1.00  0.00    -0.027 C 
ATOM     12  C   UNL     1       3.243 -18.182 -42.381  1.00  0.00     0.008 C 
ATOM     13  C   UNL     1      -0.590 -18.071 -41.777  1.00  0.00     0.008 C 
ATOM     14  C   UNL     1      -0.490 -22.493 -39.847  1.00  0.00     0.017 C 
ATOM     15  C   UNL     1       0.875 -23.797 -41.666  1.00  0.00    -0.020 C 
ATOM     16  C   UNL     1      -0.759 -22.361 -43.129  1.00  0.00     0.032 C 
ATOM     17  C   UNL     1      -0.411 -23.807 -42.610  1.00  0.00     0.006 C 
ATOM     18  C   UNL     1       2.156 -23.769 -42.569  1.00  0.00     0.008 C 
ATOM     19  C   UNL     1       0.937 -25.085 -40.783  1.00  0.00     0.012 C 
ATOM     20  C   UNL     1      -0.405 -24.900 -43.787  1.00  0.00    -0.025 C 
ATOM     21  C   UNL     1       2.173 -24.808 -43.706  1.00  0.00     0.005 C 
ATOM     22  C   UNL     1       0.920 -24.707 -44.617  1.00  0.00     0.003 C 
ATOM     23  C   UNL     1      -1.654 -24.728 -44.730  1.00  0.00     0.010 C 
ATOM     24  C   UNL     1      -0.545 -26.340 -43.176  1.00  0.00     0.012 C 
ATOM     25  C   UNL     1       1.011 -25.518 -45.975  1.00  0.00    -0.006 C 
ATOM     26  C   UNL     1      -1.573 -25.559 -46.021  1.00  0.00     0.033 C 
ATOM     27  C   UNL     1      -0.290 -25.263 -46.807  1.00  0.00     0.120 C 
ATOM     28  C   UNL     1       2.203 -24.985 -46.818  1.00  0.00     0.014 C 
ATOM     29  C   UNL     1       1.248 -27.037 -45.771  1.00  0.00     0.014 C 
ENDROOT
BRANCH   1  30
ATOM     30  C   UNL     1       3.634 -19.364 -39.529  1.00  0.00     0.048 C 
ATOM     31  O   UNL     1       4.626 -20.014 -39.954  1.00  0.00    -0.550 OA
ATOM     32  O   UNL     1       3.864 -18.235 -38.748  1.00  0.00    -0.550 OA
ENDBRANCH   1  30
BRANCH  27  33
ATOM     33  O   UNL     1      -0.298 -26.050 -47.975  1.00  0.00    -0.393 OA
ATOM     34  H   UNL     1       0.597 -26.470 -48.061  1.00  0.00     0.210 HD
ENDBRANCH  27  33
TORSDOF 2
ENDMDL
MODEL 5
REMARK VINA RESULT:    -6.031      2.755      7.942
REMARK INTER + INTRA:          -6.554
REMARK INTER:                  -6.560
REMARK INTRA:                   0.006
REMARK UNBOUND:                 0.005
REMARK SMILES C[C@@H]1[C@@H](C)CC[C@@]2(C(=O)[O-])CC[C@@]3(C)C(=CC[C@H]4[C@@]5(C)CC[C@H](O)C(C)(C)[C@@H]5CC[C@]43C)[C@@H]12
REMARK SMILES IDX 7 1 6 2 11 3 33 4 5 5 12 6 15 7 2 8 3 9 13 10 16 11 1 12
REMARK SMILES IDX 4 13 14 14 31 15 17 16 18 17 30 18 32 19 19 20 29 21 28 22
REMARK SMILES IDX 21 23 20 24 25 25 22 26 23 27 26 28 27 29 8 30 9 31 10 32
REMARK SMILES IDX 24 33
REMARK H PARENT 24 34
REMARK Flexibility Score: inf
ROOT
ATOM      1  C   UNL     1      -3.788 -11.170 -42.240  1.00  0.00     0.017 C 
ATOM      2  C   UNL     1      -2.964 -10.003 -42.859  1.00  0.00     0.014 C 
ATOM      3  C   UNL     1      -2.983 -12.494 -42.457  1.00  0.00     0.014 C 
ATOM      4  C   UNL     1      -4.064 -10.863 -40.711  1.00  0.00     0.030 C 
ATOM      5  C   UNL     1      -3.628  -8.631 -42.698  1.00  0.00     0.004 C 
ATOM      6  C   UNL     1      -2.846 -13.355 -41.201  1.00  0.00     0.013 C 
ATOM      7  C   UNL     1      -2.870 -11.265 -39.793  1.00  0.00    -0.063 C 
ATOM      8  C   UNL     1      -4.683  -9.419 -40.497  1.00  0.00    -0.003 C 
ATOM      9  C   UNL     1      -3.905  -8.284 -41.225  1.00  0.00    -0.011 C 
ATOM     10  C   UNL     1      -2.163 -12.606 -40.007  1.00  0.00    -0.006 C 
ATOM     11  C   UNL     1      -2.600 -10.611 -38.644  1.00  0.00    -0.027 C 
ATOM     12  C   UNL     1      -6.182  -9.359 -40.866  1.00  0.00     0.008 C 
ATOM     13  C   UNL     1      -2.617  -7.869 -40.496  1.00  0.00     0.008 C 
ATOM     14  C   UNL     1      -0.692 -12.294 -40.432  1.00  0.00     0.017 C 
ATOM     15  C   UNL     1      -2.205 -13.467 -38.640  1.00  0.00    -0.020 C 
ATOM     16  C   UNL     1      -1.740 -11.138 -37.529  1.00  0.00     0.032 C 
ATOM     17  C   UNL     1      -1.430 -12.682 -37.487  1.00  0.00     0.006 C 
ATOM     18  C   UNL     1      -3.680 -13.709 -38.173  1.00  0.00     0.008 C 
ATOM     19  C   UNL     1      -1.551 -14.859 -38.912  1.00  0.00     0.012 C 
ATOM     20  C   UNL     1      -1.565 -13.298 -36.010  1.00  0.00    -0.025 C 
ATOM     21  C   UNL     1      -3.827 -14.295 -36.756  1.00  0.00     0.005 C 
ATOM     22  C   UNL     1      -3.101 -13.436 -35.685  1.00  0.00     0.003 C 
ATOM     23  C   UNL     1      -0.876 -12.371 -34.940  1.00  0.00     0.010 C 
ATOM     24  C   UNL     1      -0.794 -14.664 -35.931  1.00  0.00     0.012 C 
ATOM     25  C   UNL     1      -3.461 -13.792 -34.184  1.00  0.00    -0.006 C 
ATOM     26  C   UNL     1      -1.197 -12.759 -33.488  1.00  0.00     0.033 C 
ATOM     27  C   UNL     1      -2.708 -12.804 -33.232  1.00  0.00     0.120 C 
ATOM     28  C   UNL     1      -4.983 -13.577 -33.952  1.00  0.00     0.014 C 
ATOM     29  C   UNL     1      -3.152 -15.264 -33.806  1.00  0.00     0.014 C 
ENDROOT
BRANCH   1  30
ATOM     30  C   UNL     1      -5.101 -11.354 -42.997  1.00  0.00     0.048 C 
ATOM     31  O   UNL     1      -5.951 -12.195 -42.598  1.00  0.00    -0.550 OA
ATOM     32  O   UNL     1      -5.328 -10.701 -44.204  1.00  0.00    -0.550 OA
ENDBRANCH   1  30
BRANCH  27  33
ATOM     33  O   UNL     1      -2.916 -13.151 -31.883  1.00  0.00    -0.393 OA
ATOM     34  H   UNL     1      -2.255 -12.650 -31.338  1.00  0.00     0.210 HD
ENDBRANCH  27  33
TORSDOF 2
ENDMDL
MODEL 6
REMARK VINA RESULT:    -5.903      4.705      9.194
REMARK INTER + INTRA:          -6.415
REMARK INTER:                  -6.423
REMARK INTRA:                   0.008
REMARK UNBOUND:                 0.005
REMARK SMILES C[C@@H]1[C@@H](C)CC[C@@]2(C(=O)[O-])CC[C@@]3(C)C(=CC[C@H]4[C@@]5(C)CC[C@H](O)C(C)(C)[C@@H]5CC[C@]43C)[C@@H]12
REMARK SMILES IDX 7 1 6 2 11 3 33 4 5 5 12 6 15 7 2 8 3 9 13 10 16 11 1 12
REMARK SMILES IDX 4 13 14 14 31 15 17 16 18 17 30 18 32 19 19 20 29 21 28 22
REMARK SMILES IDX 21 23 20 24 25 25 22 26 23 27 26 28 27 29 8 30 9 31 10 32
REMARK SMILES IDX 24 33
REMARK H PARENT 24 34
REMARK Flexibility Score: inf
ROOT
ATOM      1  C   UNL     1      -6.357  -8.607 -44.830  1.00  0.00     0.017 C 
ATOM      2  C   UNL     1      -7.427  -7.573 -44.375  1.00  0.00     0.014 C 
ATOM      3  C   UNL     1      -4.991  -7.857 -44.966  1.00  0.00     0.014 C 
ATOM      4  C   UNL     1      -6.302  -9.798 -43.788  1.00  0.00     0.030 C 
ATOM      5  C   UNL     1      -8.821  -8.179 -44.178  1.00  0.00     0.004 C 
ATOM      6  C   UNL     1      -3.820  -8.561 -44.279  1.00  0.00     0.013 C 
ATOM      7  C   UNL     1      -5.411  -9.473 -42.551  1.00  0.00    -0.063 C 
ATOM      8  C   UNL     1      -7.739 -10.404 -43.501  1.00  0.00    -0.003 C 
ATOM      9  C   UNL     1      -8.819  -9.335 -43.163  1.00  0.00    -0.011 C 
ATOM     10  C   UNL     1      -4.050  -8.799 -42.749  1.00  0.00    -0.006 C 
ATOM     11  C   UNL     1      -5.658  -9.999 -41.333  1.00  0.00    -0.027 C 
ATOM     12  C   UNL     1      -8.234 -11.317 -44.645  1.00  0.00     0.008 C 
ATOM     13  C   UNL     1      -8.722  -8.812 -41.721  1.00  0.00     0.008 C 
ATOM     14  C   UNL     1      -4.121  -7.397 -42.064  1.00  0.00     0.017 C 
ATOM     15  C   UNL     1      -2.891  -9.712 -42.090  1.00  0.00    -0.020 C 
ATOM     16  C   UNL     1      -4.673 -10.057 -40.198  1.00  0.00     0.032 C 
ATOM     17  C   UNL     1      -3.145  -9.854 -40.521  1.00  0.00     0.006 C 
ATOM     18  C   UNL     1      -2.876 -11.145 -42.723  1.00  0.00     0.008 C 
ATOM     19  C   UNL     1      -1.509  -9.042 -42.379  1.00  0.00     0.012 C 
ATOM     20  C   UNL     1      -2.207 -10.907 -39.754  1.00  0.00    -0.025 C 
ATOM     21  C   UNL     1      -1.985 -12.169 -41.994  1.00  0.00     0.005 C 
ATOM     22  C   UNL     1      -2.340 -12.294 -40.489  1.00  0.00     0.003 C 
ATOM     23  C   UNL     1      -2.635 -11.059 -38.246  1.00  0.00     0.010 C 
ATOM     24  C   UNL     1      -0.731 -10.372 -39.710  1.00  0.00     0.012 C 
ATOM     25  C   UNL     1      -1.691 -13.535 -39.747  1.00  0.00    -0.006 C 
ATOM     26  C   UNL     1      -1.961 -12.239 -37.528  1.00  0.00     0.033 C 
ATOM     27  C   UNL     1      -2.194 -13.562 -38.266  1.00  0.00     0.120 C 
ATOM     28  C   UNL     1      -2.177 -14.851 -40.418  1.00  0.00     0.014 C 
ATOM     29  C   UNL     1      -0.141 -13.547 -39.804  1.00  0.00     0.014 C 
ENDROOT
BRANCH   1  30
ATOM     30  C   UNL     1      -6.683  -9.131 -46.227  1.00  0.00     0.048 C 
ATOM     31  O   UNL     1      -6.006 -10.069 -46.728  1.00  0.00    -0.550 OA
ATOM     32  O   UNL     1      -7.638  -8.503 -47.021  1.00  0.00    -0.550 OA
ENDBRANCH   1  30
BRANCH  27  33
ATOM     33  O   UNL     1      -1.558 -14.589 -37.540  1.00  0.00    -0.393 OA
ATOM     34  H   UNL     1      -1.461 -15.369 -38.146  1.00  0.00     0.210 HD
ENDBRANCH  27  33
TORSDOF 2
ENDMDL
MODEL 7
REMARK VINA RESULT:    -5.864     10.325     12.910
REMARK INTER + INTRA:          -6.373
REMARK INTER:                  -6.457
REMARK INTRA:                   0.084
REMARK UNBOUND:                 0.005
REMARK SMILES C[C@@H]1[C@@H](C)CC[C@@]2(C(=O)[O-])CC[C@@]3(C)C(=CC[C@H]4[C@@]5(C)CC[C@H](O)C(C)(C)[C@@H]5CC[C@]43C)[C@@H]12
REMARK SMILES IDX 7 1 6 2 11 3 33 4 5 5 12 6 15 7 2 8 3 9 13 10 16 11 1 12
REMARK SMILES IDX 4 13 14 14 31 15 17 16 18 17 30 18 32 19 19 20 29 21 28 22
REMARK SMILES IDX 21 23 20 24 25 25 22 26 23 27 26 28 27 29 8 30 9 31 10 32
REMARK SMILES IDX 24 33
REMARK H PARENT 24 34
REMARK Flexibility Score: inf
ROOT
ATOM      1  C   UNL     1       0.005 -25.400 -44.916  1.00  0.00     0.017 C 
ATOM      2  C   UNL     1       0.558 -26.797 -44.508  1.00  0.00     0.014 C 
ATOM      3  C   UNL     1      -1.365 -25.195 -44.189  1.00  0.00     0.014 C 
ATOM      4  C   UNL     1       1.069 -24.287 -44.548  1.00  0.00     0.030 C 
ATOM      5  C   UNL     1       1.919 -27.125 -45.134  1.00  0.00     0.004 C 
ATOM      6  C   UNL     1      -1.500 -23.846 -43.482  1.00  0.00     0.013 C 
ATOM      7  C   UNL     1       0.983 -23.845 -43.056  1.00  0.00    -0.063 C 
ATOM      8  C   UNL     1       2.509 -24.628 -45.116  1.00  0.00    -0.003 C 
ATOM      9  C   UNL     1       2.989 -26.074 -44.793  1.00  0.00    -0.011 C 
ATOM     10  C   UNL     1      -0.384 -23.590 -42.415  1.00  0.00    -0.006 C 
ATOM     11  C   UNL     1       2.065 -23.413 -42.375  1.00  0.00    -0.027 C 
ATOM     12  C   UNL     1       2.625 -24.357 -46.633  1.00  0.00     0.008 C 
ATOM     13  C   UNL     1       3.491 -26.236 -43.349  1.00  0.00     0.008 C 
ATOM     14  C   UNL     1      -0.570 -24.649 -41.280  1.00  0.00     0.017 C 
ATOM     15  C   UNL     1      -0.434 -22.087 -41.822  1.00  0.00    -0.020 C 
ATOM     16  C   UNL     1       2.025 -22.627 -41.093  1.00  0.00     0.032 C 
ATOM     17  C   UNL     1       0.678 -21.917 -40.692  1.00  0.00     0.006 C 
ATOM     18  C   UNL     1      -0.166 -21.031 -42.948  1.00  0.00     0.008 C 
ATOM     19  C   UNL     1      -1.865 -21.829 -41.250  1.00  0.00     0.012 C 
ATOM     20  C   UNL     1       0.905 -20.421 -40.155  1.00  0.00    -0.025 C 
ATOM     21  C   UNL     1       0.059 -19.591 -42.448  1.00  0.00     0.005 C 
ATOM     22  C   UNL     1       1.202 -19.502 -41.401  1.00  0.00     0.003 C 
ATOM     23  C   UNL     1       2.111 -20.354 -39.145  1.00  0.00     0.010 C 
ATOM     24  C   UNL     1      -0.348 -19.955 -39.331  1.00  0.00     0.012 C 
ATOM     25  C   UNL     1       1.701 -18.035 -41.075  1.00  0.00    -0.006 C 
ATOM     26  C   UNL     1       2.552 -18.922 -38.803  1.00  0.00     0.033 C 
ATOM     27  C   UNL     1       2.890 -18.115 -40.061  1.00  0.00     0.120 C 
ATOM     28  C   UNL     1       2.250 -17.375 -42.371  1.00  0.00     0.014 C 
ATOM     29  C   UNL     1       0.580 -17.106 -40.539  1.00  0.00     0.014 C 
ENDROOT
BRANCH   1  30
ATOM     30  C   UNL     1      -0.309 -25.369 -46.410  1.00  0.00     0.048 C 
ATOM     31  O   UNL     1      -0.910 -24.381 -46.912  1.00  0.00    -0.550 OA
ATOM     32  O   UNL     1      -0.062 -26.476 -47.216  1.00  0.00    -0.550 OA
ENDBRANCH   1  30
BRANCH  27  33
ATOM     33  O   UNL     1       3.296 -16.826 -39.662  1.00  0.00    -0.393 OA
ATOM     34  H   UNL     1       4.004 -16.933 -38.975  1.00  0.00     0.210 HD
ENDBRANCH  27  33
TORSDOF 2
ENDMDL
MODEL 8
REMARK VINA RESULT:    -5.785      2.318      3.552
REMARK INTER + INTRA:          -6.287
REMARK INTER:                  -6.295
REMARK INTRA:                   0.008
REMARK UNBOUND:                 0.005
REMARK SMILES C[C@@H]1[C@@H](C)CC[C@@]2(C(=O)[O-])CC[C@@]3(C)C(=CC[C@H]4[C@@]5(C)CC[C@H](O)C(C)(C)[C@@H]5CC[C@]43C)[C@@H]12
REMARK SMILES IDX 7 1 6 2 11 3 33 4 5 5 12 6 15 7 2 8 3 9 13 10 16 11 1 12
REMARK SMILES IDX 4 13 14 14 31 15 17 16 18 17 30 18 32 19 19 20 29 21 28 22
REMARK SMILES IDX 21 23 20 24 25 25 22 26 23 27 26 28 27 29 8 30 9 31 10 32
REMARK SMILES IDX 24 33
REMARK H PARENT 24 34
REMARK Flexibility Score: inf
ROOT
ATOM      1  C   UNL     1      -2.055 -14.249 -34.298  1.00  0.00     0.017 C 
ATOM      2  C   UNL     1      -3.010 -15.382 -33.821  1.00  0.00     0.014 C 
ATOM      3  C   UNL     1      -0.974 -14.891 -35.229  1.00  0.00     0.014 C 
ATOM      4  C   UNL     1      -2.900 -13.122 -35.024  1.00  0.00     0.030 C 
ATOM      5  C   UNL     1      -4.142 -14.888 -32.912  1.00  0.00     0.004 C 
ATOM      6  C   UNL     1      -0.767 -14.149 -36.549  1.00  0.00     0.013 C 
ATOM      7  C   UNL     1      -3.190 -13.459 -36.518  1.00  0.00    -0.063 C 
ATOM      8  C   UNL     1      -4.126 -12.638 -34.144  1.00  0.00    -0.003 C 
ATOM      9  C   UNL     1      -4.998 -13.799 -33.582  1.00  0.00    -0.011 C 
ATOM     10  C   UNL     1      -2.073 -14.022 -37.402  1.00  0.00    -0.006 C 
ATOM     11  C   UNL     1      -4.304 -13.027 -37.145  1.00  0.00    -0.027 C 
ATOM     12  C   UNL     1      -3.695 -11.694 -33.000  1.00  0.00     0.008 C 
ATOM     13  C   UNL     1      -5.951 -14.402 -34.626  1.00  0.00     0.008 C 
ATOM     14  C   UNL     1      -2.498 -15.465 -37.825  1.00  0.00     0.017 C 
ATOM     15  C   UNL     1      -1.872 -13.072 -38.694  1.00  0.00    -0.020 C 
ATOM     16  C   UNL     1      -4.491 -12.970 -38.637  1.00  0.00     0.032 C 
ATOM     17  C   UNL     1      -3.215 -13.045 -39.556  1.00  0.00     0.006 C 
ATOM     18  C   UNL     1      -1.526 -11.605 -38.265  1.00  0.00     0.008 C 
ATOM     19  C   UNL     1      -0.675 -13.624 -39.532  1.00  0.00     0.012 C 
ATOM     20  C   UNL     1      -3.254 -11.977 -40.754  1.00  0.00    -0.025 C 
ATOM     21  C   UNL     1      -1.566 -10.568 -39.402  1.00  0.00     0.005 C 
ATOM     22  C   UNL     1      -2.928 -10.560 -40.147  1.00  0.00     0.003 C 
ATOM     23  C   UNL     1      -4.668 -11.947 -41.446  1.00  0.00     0.010 C 
ATOM     24  C   UNL     1      -2.252 -12.408 -41.884  1.00  0.00     0.012 C 
ATOM     25  C   UNL     1      -3.158  -9.324 -41.111  1.00  0.00    -0.006 C 
ATOM     26  C   UNL     1      -4.858 -10.769 -42.414  1.00  0.00     0.033 C 
ATOM     27  C   UNL     1      -4.591  -9.423 -41.732  1.00  0.00     0.120 C 
ATOM     28  C   UNL     1      -3.107  -8.007 -40.286  1.00  0.00     0.014 C 
ATOM     29  C   UNL     1      -2.083  -9.199 -42.223  1.00  0.00     0.014 C 
ENDROOT
BRANCH   1  30
ATOM     30  C   UNL     1      -1.289 -13.665 -33.114  1.00  0.00     0.048 C 
ATOM     31  O   UNL     1      -0.541 -12.663 -33.273  1.00  0.00    -0.550 OA
ATOM     32  O   UNL     1      -1.295 -14.300 -31.875  1.00  0.00    -0.550 OA
ENDBRANCH   1  30
BRANCH  27  33
ATOM     33  O   UNL     1      -4.798  -8.400 -42.678  1.00  0.00    -0.393 OA
ATOM     34  H   UNL     1      -4.004  -8.375 -43.273  1.00  0.00     0.210 HD
ENDBRANCH  27  33
TORSDOF 2
ENDMDL
