MODEL 1
REMARK VINA RESULT:    -3.777      0.000      0.000
REMARK INTER + INTRA:          -7.994
REMARK INTER:                  -7.310
REMARK INTRA:                  -0.685
REMARK UNBOUND:                -0.685
REMARK SMILES CCCCCCCCCCCCCCCCCC(=O)[O-]
REMARK SMILES IDX 10 1 11 2 12 3 13 4 14 5 15 6 16 7 17 8 18 9 19 10 20 11
REMARK SMILES IDX 9 12 8 13 7 14 6 15 5 16 4 17 3 18 2 19 1 20
REMARK H PARENT
REMARK Flexibility Score: inf
ROOT
ATOM      1  C   UNL     1     120.923  69.443  -0.672  1.00  0.00     0.000 C 
ENDROOT
BRANCH   1   2
ATOM      2  C   UNL     1     120.437  70.034   0.660  1.00  0.00     0.000 C 
BRANCH   2   3
ATOM      3  C   UNL     1     120.768  71.529   0.750  1.00  0.00     0.000 C 
BRANCH   3   4
ATOM      4  C   UNL     1     119.938  72.211   1.847  1.00  0.00     0.000 C 
BRANCH   4   5
ATOM      5  C   UNL     1     119.911  71.415   3.164  1.00  0.00     0.000 C 
BRANCH   5   6
ATOM      6  C   UNL     1     120.865  71.932   4.257  1.00  0.00     0.000 C 
BRANCH   6   7
ATOM      7  C   UNL     1     120.968  70.984   5.460  1.00  0.00     0.006 C 
BRANCH   7   8
ATOM      8  C   UNL     1     119.875  71.282   6.491  1.00  0.00     0.053 C 
BRANCH   8   9
ATOM      9  C   UNL     1     120.383  72.230   7.531  1.00  0.00     0.041 C 
ATOM     10  O   UNL     1     121.211  71.839   8.395  1.00  0.00    -0.550 OA
ATOM     11  O   UNL     1     119.901  73.532   7.580  1.00  0.00    -0.550 OA
ENDBRANCH   8   9
ENDBRANCH   7   8
ENDBRANCH   6   7
ENDBRANCH   5   6
ENDBRANCH   4   5
ENDBRANCH   3   4
ENDBRANCH   2   3
ENDBRANCH   1   2
BRANCH   1  12
ATOM     12  C   UNL     1     119.875  69.566  -1.790  1.00  0.00     0.000 C 
BRANCH  12  13
ATOM     13  C   UNL     1     120.468  69.299  -3.185  1.00  0.00    -0.000 C 
BRANCH  13  14
ATOM     14  C   UNL     1     119.876  70.221  -4.263  1.00  0.00    -0.000 C 
BRANCH  14  15
ATOM     15  C   UNL     1     120.551  70.039  -5.631  1.00  0.00    -0.000 C 
BRANCH  15  16
ATOM     16  C   UNL     1     119.944  68.846  -6.385  1.00  0.00    -0.000 C 
BRANCH  16  17
ATOM     17  C   UNL     1     120.976  67.748  -6.694  1.00  0.00    -0.000 C 
BRANCH  17  18
ATOM     18  C   UNL     1     121.432  67.684  -8.164  1.00  0.00    -0.000 C 
BRANCH  18  19
ATOM     19  C   UNL     1     121.345  66.273  -8.782  1.00  0.00    -0.003 C 
ATOM     20  C   UNL     1     120.968  65.207  -7.754  1.00  0.00     0.004 C 
ENDBRANCH  18  19
ENDBRANCH  17  18
ENDBRANCH  16  17
ENDBRANCH  15  16
ENDBRANCH  14  15
ENDBRANCH  13  14
ENDBRANCH  12  13
ENDBRANCH   1  12
TORSDOF 16
ENDMDL
MODEL 2
REMARK VINA RESULT:    -3.622      1.640      3.090
REMARK INTER + INTRA:          -7.694
REMARK INTER:                  -7.120
REMARK INTRA:                  -0.575
REMARK UNBOUND:                -0.685
REMARK SMILES CCCCCCCCCCCCCCCCCC(=O)[O-]
REMARK SMILES IDX 10 1 11 2 12 3 13 4 14 5 15 6 16 7 17 8 18 9 19 10 20 11
REMARK SMILES IDX 9 12 8 13 7 14 6 15 5 16 4 17 3 18 2 19 1 20
REMARK H PARENT
REMARK Flexibility Score: inf
ROOT
ATOM      1  C   UNL     1     121.158  71.100   1.277  1.00  0.00     0.000 C 
ENDROOT
BRANCH   1   2
ATOM      2  C   UNL     1     120.271  72.288   1.679  1.00  0.00     0.000 C 
BRANCH   2   3
ATOM      3  C   UNL     1     120.765  72.925   2.984  1.00  0.00     0.000 C 
BRANCH   3   4
ATOM      4  C   UNL     1     119.970  72.401   4.188  1.00  0.00     0.000 C 
BRANCH   4   5
ATOM      5  C   UNL     1     120.327  70.949   4.558  1.00  0.00     0.000 C 
BRANCH   5   6
ATOM      6  C   UNL     1     119.875  70.507   5.963  1.00  0.00     0.000 C 
BRANCH   6   7
ATOM      7  C   UNL     1     119.967  71.632   7.004  1.00  0.00     0.006 C 
BRANCH   7   8
ATOM      8  C   UNL     1     120.001  71.063   8.426  1.00  0.00     0.053 C 
BRANCH   8   9
ATOM      9  C   UNL     1     120.371  72.131   9.406  1.00  0.00     0.041 C 
ATOM     10  O   UNL     1     120.644  73.293   9.004  1.00  0.00    -0.550 OA
ATOM     11  O   UNL     1     120.467  71.831  10.758  1.00  0.00    -0.550 OA
ENDBRANCH   8   9
ENDBRANCH   7   8
ENDBRANCH   6   7
ENDBRANCH   5   6
ENDBRANCH   4   5
ENDBRANCH   3   4
ENDBRANCH   2   3
ENDBRANCH   1   2
BRANCH   1  12
ATOM     12  C   UNL     1     120.497  70.202   0.219  1.00  0.00     0.000 C 
BRANCH  12  13
ATOM     13  C   UNL     1     121.527  69.422  -0.618  1.00  0.00    -0.000 C 
BRANCH  13  14
ATOM     14  C   UNL     1     121.354  67.900  -0.496  1.00  0.00    -0.000 C 
BRANCH  14  15
ATOM     15  C   UNL     1     119.918  67.444  -0.791  1.00  0.00    -0.000 C 
BRANCH  15  16
ATOM     16  C   UNL     1     119.883  66.488  -1.993  1.00  0.00    -0.000 C 
BRANCH  16  17
ATOM     17  C   UNL     1     119.912  67.226  -3.342  1.00  0.00    -0.000 C 
BRANCH  17  18
ATOM     18  C   UNL     1     120.165  66.325  -4.567  1.00  0.00    -0.000 C 
BRANCH  18  19
ATOM     19  C   UNL     1     120.560  67.102  -5.839  1.00  0.00    -0.003 C 
ATOM     20  C   UNL     1     120.794  66.182  -7.037  1.00  0.00     0.004 C 
ENDBRANCH  18  19
ENDBRANCH  17  18
ENDBRANCH  16  17
ENDBRANCH  15  16
ENDBRANCH  14  15
ENDBRANCH  13  14
ENDBRANCH  12  13
ENDBRANCH   1  12
TORSDOF 16
ENDMDL
MODEL 3
REMARK VINA RESULT:    -3.514      1.508      2.167
REMARK INTER + INTRA:          -7.486
REMARK INTER:                  -6.973
REMARK INTRA:                  -0.513
REMARK UNBOUND:                -0.685
REMARK SMILES CCCCCCCCCCCCCCCCCC(=O)[O-]
REMARK SMILES IDX 10 1 11 2 12 3 13 4 14 5 15 6 16 7 17 8 18 9 19 10 20 11
REMARK SMILES IDX 9 12 8 13 7 14 6 15 5 16 4 17 3 18 2 19 1 20
REMARK H PARENT
REMARK Flexibility Score: inf
ROOT
ATOM      1  C   UNL     1     120.013  69.531  -0.191  1.00  0.00     0.000 C 
ENDROOT
BRANCH   1   2
ATOM      2  C   UNL     1     120.790  70.732   0.370  1.00  0.00     0.000 C 
BRANCH   2   3
ATOM      3  C   UNL     1     119.985  71.444   1.464  1.00  0.00     0.000 C 
BRANCH   3   4
ATOM      4  C   UNL     1     120.364  70.920   2.856  1.00  0.00     0.000 C 
BRANCH   4   5
ATOM      5  C   UNL     1     120.966  72.008   3.765  1.00  0.00     0.000 C 
BRANCH   5   6
ATOM      6  C   UNL     1     120.057  72.466   4.920  1.00  0.00     0.000 C 
BRANCH   6   7
ATOM      7  C   UNL     1     119.973  71.440   6.059  1.00  0.00     0.006 C 
BRANCH   7   8
ATOM      8  C   UNL     1     120.674  71.959   7.319  1.00  0.00     0.053 C 
BRANCH   8   9
ATOM      9  C   UNL     1     120.324  71.109   8.499  1.00  0.00     0.041 C 
ATOM     10  O   UNL     1     120.037  69.893   8.341  1.00  0.00    -0.550 OA
ATOM     11  O   UNL     1     120.261  71.671   9.767  1.00  0.00    -0.550 OA
ENDBRANCH   8   9
ENDBRANCH   7   8
ENDBRANCH   6   7
ENDBRANCH   5   6
ENDBRANCH   4   5
ENDBRANCH   3   4
ENDBRANCH   2   3
ENDBRANCH   1   2
BRANCH   1  12
ATOM     12  C   UNL     1     120.934  68.365  -0.584  1.00  0.00     0.000 C 
BRANCH  12  13
ATOM     13  C   UNL     1     120.166  67.042  -0.763  1.00  0.00    -0.000 C 
BRANCH  13  14
ATOM     14  C   UNL     1     119.875  66.725  -2.238  1.00  0.00    -0.000 C 
BRANCH  14  15
ATOM     15  C   UNL     1     120.010  67.958  -3.145  1.00  0.00    -0.000 C 
BRANCH  15  16
ATOM     16  C   UNL     1     119.906  67.563  -4.625  1.00  0.00    -0.000 C 
BRANCH  16  17
ATOM     17  C   UNL     1     120.908  66.465  -5.021  1.00  0.00    -0.000 C 
BRANCH  17  18
ATOM     18  C   UNL     1     120.989  66.176  -6.533  1.00  0.00    -0.000 C 
BRANCH  18  19
ATOM     19  C   UNL     1     120.701  67.406  -7.418  1.00  0.00    -0.003 C 
ATOM     20  C   UNL     1     121.432  67.345  -8.759  1.00  0.00     0.004 C 
ENDBRANCH  18  19
ENDBRANCH  17  18
ENDBRANCH  16  17
ENDBRANCH  15  16
ENDBRANCH  14  15
ENDBRANCH  13  14
ENDBRANCH  12  13
ENDBRANCH   1  12
TORSDOF 16
ENDMDL
MODEL 4
REMARK VINA RESULT:    -3.319      5.377     11.945
REMARK INTER + INTRA:          -7.107
REMARK INTER:                  -6.347
REMARK INTRA:                  -0.760
REMARK UNBOUND:                -0.685
REMARK SMILES CCCCCCCCCCCCCCCCCC(=O)[O-]
REMARK SMILES IDX 10 1 11 2 12 3 13 4 14 5 15 6 16 7 17 8 18 9 19 10 20 11
REMARK SMILES IDX 9 12 8 13 7 14 6 15 5 16 4 17 3 18 2 19 1 20
REMARK H PARENT
REMARK Flexibility Score: inf
ROOT
ATOM      1  C   UNL     1     120.230  71.297   0.235  1.00  0.00     0.000 C 
ENDROOT
BRANCH   1   2
ATOM      2  C   UNL     1     120.476  69.784   0.332  1.00  0.00     0.000 C 
BRANCH   2   3
ATOM      3  C   UNL     1     120.996  69.226  -0.998  1.00  0.00     0.000 C 
BRANCH   3   4
ATOM      4  C   UNL     1     120.696  67.726  -1.121  1.00  0.00     0.000 C 
BRANCH   4   5
ATOM      5  C   UNL     1     119.879  67.376  -2.379  1.00  0.00     0.000 C 
BRANCH   5   6
ATOM      6  C   UNL     1     119.882  68.456  -3.477  1.00  0.00     0.000 C 
BRANCH   6   7
ATOM      7  C   UNL     1     120.250  67.902  -4.861  1.00  0.00     0.006 C 
BRANCH   7   8
ATOM      8  C   UNL     1     120.812  66.482  -4.753  1.00  0.00     0.053 C 
BRANCH   8   9
ATOM      9  C   UNL     1     120.759  65.797  -6.082  1.00  0.00     0.041 C 
ATOM     10  O   UNL     1     120.593  64.550  -6.147  1.00  0.00    -0.550 OA
ATOM     11  O   UNL     1     120.949  66.527  -7.248  1.00  0.00    -0.550 OA
ENDBRANCH   8   9
ENDBRANCH   7   8
ENDBRANCH   6   7
ENDBRANCH   5   6
ENDBRANCH   4   5
ENDBRANCH   3   4
ENDBRANCH   2   3
ENDBRANCH   1   2
BRANCH   1  12
ATOM     12  C   UNL     1     120.754  72.060   1.462  1.00  0.00     0.000 C 
BRANCH  12  13
ATOM     13  C   UNL     1     120.473  71.319   2.782  1.00  0.00    -0.000 C 
BRANCH  13  14
ATOM     14  C   UNL     1     119.882  72.240   3.861  1.00  0.00    -0.000 C 
BRANCH  14  15
ATOM     15  C   UNL     1     120.703  72.230   5.159  1.00  0.00    -0.000 C 
BRANCH  15  16
ATOM     16  C   UNL     1     120.438  70.950   5.965  1.00  0.00    -0.000 C 
BRANCH  16  17
ATOM     17  C   UNL     1     120.821  71.088   7.447  1.00  0.00    -0.000 C 
BRANCH  17  18
ATOM     18  C   UNL     1     120.783  72.528   7.996  1.00  0.00    -0.000 C 
BRANCH  18  19
ATOM     19  C   UNL     1     120.002  72.669   9.318  1.00  0.00    -0.003 C 
ATOM     20  C   UNL     1     119.997  74.105   9.844  1.00  0.00     0.004 C 
ENDBRANCH  18  19
ENDBRANCH  17  18
ENDBRANCH  16  17
ENDBRANCH  15  16
ENDBRANCH  14  15
ENDBRANCH  13  14
ENDBRANCH  12  13
ENDBRANCH   1  12
TORSDOF 16
ENDMDL
MODEL 5
REMARK VINA RESULT:    -3.000      1.801      3.595
REMARK INTER + INTRA:          -6.490
REMARK INTER:                  -5.819
REMARK INTRA:                  -0.671
REMARK UNBOUND:                -0.685
REMARK SMILES CCCCCCCCCCCCCCCCCC(=O)[O-]
REMARK SMILES IDX 10 1 11 2 12 3 13 4 14 5 15 6 16 7 17 8 18 9 19 10 20 11
REMARK SMILES IDX 9 12 8 13 7 14 6 15 5 16 4 17 3 18 2 19 1 20
REMARK H PARENT
REMARK Flexibility Score: inf
ROOT
ATOM      1  C   UNL     1     121.323  72.494   2.328  1.00  0.00     0.000 C 
ENDROOT
BRANCH   1   2
ATOM      2  C   UNL     1     120.821  72.314   3.769  1.00  0.00     0.000 C 
BRANCH   2   3
ATOM      3  C   UNL     1     121.241  70.950   4.330  1.00  0.00     0.000 C 
BRANCH   3   4
ATOM      4  C   UNL     1     120.202  70.422   5.328  1.00  0.00     0.000 C 
BRANCH   4   5
ATOM      5  C   UNL     1     119.907  71.412   6.471  1.00  0.00     0.000 C 
BRANCH   5   6
ATOM      6  C   UNL     1     120.901  71.363   7.646  1.00  0.00     0.000 C 
BRANCH   6   7
ATOM      7  C   UNL     1     121.198  72.749   8.238  1.00  0.00     0.006 C 
BRANCH   7   8
ATOM      8  C   UNL     1     119.910  73.436   8.702  1.00  0.00     0.053 C 
BRANCH   8   9
ATOM      9  C   UNL     1     119.965  73.712  10.171  1.00  0.00     0.041 C 
ATOM     10  O   UNL     1     120.142  74.886  10.589  1.00  0.00    -0.550 OA
ATOM     11  O   UNL     1     119.878  72.665  11.079  1.00  0.00    -0.550 OA
ENDBRANCH   8   9
ENDBRANCH   7   8
ENDBRANCH   6   7
ENDBRANCH   5   6
ENDBRANCH   4   5
ENDBRANCH   3   4
ENDBRANCH   2   3
ENDBRANCH   1   2
BRANCH   1  12
ATOM     12  C   UNL     1     120.308  72.002   1.284  1.00  0.00     0.000 C 
BRANCH  12  13
ATOM     13  C   UNL     1     120.903  70.945   0.336  1.00  0.00    -0.000 C 
BRANCH  13  14
ATOM     14  C   UNL     1     119.877  70.420  -0.680  1.00  0.00    -0.000 C 
BRANCH  14  15
ATOM     15  C   UNL     1     120.261  69.047  -1.251  1.00  0.00    -0.000 C 
BRANCH  15  16
ATOM     16  C   UNL     1     120.518  69.135  -2.762  1.00  0.00    -0.000 C 
BRANCH  16  17
ATOM     17  C   UNL     1     120.308  67.793  -3.483  1.00  0.00    -0.000 C 
BRANCH  17  18
ATOM     18  C   UNL     1     120.059  67.904  -5.000  1.00  0.00    -0.000 C 
BRANCH  18  19
ATOM     19  C   UNL     1     119.985  66.542  -5.719  1.00  0.00    -0.003 C 
ATOM     20  C   UNL     1     121.362  65.907  -5.913  1.00  0.00     0.004 C 
ENDBRANCH  18  19
ENDBRANCH  17  18
ENDBRANCH  16  17
ENDBRANCH  15  16
ENDBRANCH  14  15
ENDBRANCH  13  14
ENDBRANCH  12  13
ENDBRANCH   1  12
TORSDOF 16
ENDMDL
MODEL 6
REMARK VINA RESULT:    -2.846      5.795     11.750
REMARK INTER + INTRA:          -6.193
REMARK INTER:                  -5.461
REMARK INTRA:                  -0.732
REMARK UNBOUND:                -0.685
REMARK SMILES CCCCCCCCCCCCCCCCCC(=O)[O-]
REMARK SMILES IDX 10 1 11 2 12 3 13 4 14 5 15 6 16 7 17 8 18 9 19 10 20 11
REMARK SMILES IDX 9 12 8 13 7 14 6 15 5 16 4 17 3 18 2 19 1 20
REMARK H PARENT
REMARK Flexibility Score: inf
ROOT
ATOM      1  C   UNL     1     121.573  70.143  -0.930  1.00  0.00     0.000 C 
ENDROOT
BRANCH   1   2
ATOM      2  C   UNL     1     120.175  70.416  -1.504  1.00  0.00     0.000 C 
BRANCH   2   3
ATOM      3  C   UNL     1     119.974  69.679  -2.834  1.00  0.00     0.000 C 
BRANCH   3   4
ATOM      4  C   UNL     1     120.017  68.158  -2.633  1.00  0.00     0.000 C 
BRANCH   4   5
ATOM      5  C   UNL     1     120.018  67.375  -3.959  1.00  0.00     0.000 C 
BRANCH   5   6
ATOM      6  C   UNL     1     119.939  65.844  -3.810  1.00  0.00     0.000 C 
BRANCH   6   7
ATOM      7  C   UNL     1     120.237  65.099  -5.119  1.00  0.00     0.006 C 
BRANCH   7   8
ATOM      8  C   UNL     1     120.802  66.051  -6.178  1.00  0.00     0.053 C 
BRANCH   8   9
ATOM      9  C   UNL     1     121.211  65.291  -7.399  1.00  0.00     0.041 C 
ATOM     10  O   UNL     1     121.242  64.032  -7.381  1.00  0.00    -0.550 OA
ATOM     11  O   UNL     1     121.612  65.972  -8.540  1.00  0.00    -0.550 OA
ENDBRANCH   8   9
ENDBRANCH   7   8
ENDBRANCH   6   7
ENDBRANCH   5   6
ENDBRANCH   4   5
ENDBRANCH   3   4
ENDBRANCH   2   3
ENDBRANCH   1   2
BRANCH   1  12
ATOM     12  C   UNL     1     121.547  69.868   0.582  1.00  0.00     0.000 C 
BRANCH  12  13
ATOM     13  C   UNL     1     120.434  70.650   1.304  1.00  0.00    -0.000 C 
BRANCH  13  14
ATOM     14  C   UNL     1     120.847  72.093   1.635  1.00  0.00    -0.000 C 
BRANCH  14  15
ATOM     15  C   UNL     1     121.178  72.286   3.122  1.00  0.00    -0.000 C 
BRANCH  15  16
ATOM     16  C   UNL     1     120.115  71.620   4.009  1.00  0.00    -0.000 C 
BRANCH  16  17
ATOM     17  C   UNL     1     120.007  72.268   5.400  1.00  0.00    -0.000 C 
BRANCH  17  18
ATOM     18  C   UNL     1     120.287  71.319   6.581  1.00  0.00    -0.000 C 
BRANCH  18  19
ATOM     19  C   UNL     1     121.167  71.942   7.684  1.00  0.00    -0.003 C 
ATOM     20  C   UNL     1     120.451  73.059   8.442  1.00  0.00     0.004 C 
ENDBRANCH  18  19
ENDBRANCH  17  18
ENDBRANCH  16  17
ENDBRANCH  15  16
ENDBRANCH  14  15
ENDBRANCH  13  14
ENDBRANCH  12  13
ENDBRANCH   1  12
TORSDOF 16
ENDMDL
MODEL 7
REMARK VINA RESULT:    -2.807      5.250     11.474
REMARK INTER + INTRA:          -6.117
REMARK INTER:                  -5.339
REMARK INTRA:                  -0.778
REMARK UNBOUND:                -0.685
REMARK SMILES CCCCCCCCCCCCCCCCCC(=O)[O-]
REMARK SMILES IDX 10 1 11 2 12 3 13 4 14 5 15 6 16 7 17 8 18 9 19 10 20 11
REMARK SMILES IDX 9 12 8 13 7 14 6 15 5 16 4 17 3 18 2 19 1 20
REMARK H PARENT
REMARK Flexibility Score: inf
ROOT
ATOM      1  C   UNL     1     122.133  72.375   3.180  1.00  0.00     0.000 C 
ENDROOT
BRANCH   1   2
ATOM      2  C   UNL     1     121.127  73.496   2.878  1.00  0.00     0.000 C 
BRANCH   2   3
ATOM      3  C   UNL     1     120.879  73.618   1.369  1.00  0.00     0.000 C 
BRANCH   3   4
ATOM      4  C   UNL     1     119.942  72.508   0.874  1.00  0.00     0.000 C 
BRANCH   4   5
ATOM      5  C   UNL     1     120.660  71.161   0.669  1.00  0.00     0.000 C 
BRANCH   5   6
ATOM      6  C   UNL     1     120.018  70.234  -0.380  1.00  0.00     0.000 C 
BRANCH   6   7
ATOM      7  C   UNL     1     120.815  68.941  -0.605  1.00  0.00     0.006 C 
BRANCH   7   8
ATOM      8  C   UNL     1     120.260  67.797   0.250  1.00  0.00     0.053 C 
BRANCH   8   9
ATOM      9  C   UNL     1     120.257  66.519  -0.527  1.00  0.00     0.041 C 
ATOM     10  O   UNL     1     120.227  66.542  -1.785  1.00  0.00    -0.550 OA
ATOM     11  O   UNL     1     120.232  65.301   0.139  1.00  0.00    -0.550 OA
ENDBRANCH   8   9
ENDBRANCH   7   8
ENDBRANCH   6   7
ENDBRANCH   5   6
ENDBRANCH   4   5
ENDBRANCH   3   4
ENDBRANCH   2   3
ENDBRANCH   1   2
BRANCH   1  12
ATOM     12  C   UNL     1     121.671  71.461   4.326  1.00  0.00     0.000 C 
BRANCH  12  13
ATOM     13  C   UNL     1     120.164  71.592   4.614  1.00  0.00    -0.000 C 
BRANCH  13  14
ATOM     14  C   UNL     1     119.875  72.009   6.064  1.00  0.00    -0.000 C 
BRANCH  14  15
ATOM     15  C   UNL     1     120.679  71.189   7.085  1.00  0.00    -0.000 C 
BRANCH  15  16
ATOM     16  C   UNL     1     119.938  71.111   8.428  1.00  0.00    -0.000 C 
BRANCH  16  17
ATOM     17  C   UNL     1     120.832  71.476   9.625  1.00  0.00    -0.000 C 
BRANCH  17  18
ATOM     18  C   UNL     1     120.272  72.583  10.539  1.00  0.00    -0.000 C 
BRANCH  18  19
ATOM     19  C   UNL     1     119.876  73.870   9.787  1.00  0.00    -0.003 C 
ATOM     20  C   UNL     1     119.875  75.100  10.694  1.00  0.00     0.004 C 
ENDBRANCH  18  19
ENDBRANCH  17  18
ENDBRANCH  16  17
ENDBRANCH  15  16
ENDBRANCH  14  15
ENDBRANCH  13  14
ENDBRANCH  12  13
ENDBRANCH   1  12
TORSDOF 16
ENDMDL
