MODEL 1
REMARK VINA RESULT:    -5.239      0.000      0.000
REMARK INTER + INTRA:          -5.284
REMARK INTER:                  -5.545
REMARK INTRA:                   0.262
REMARK UNBOUND:                 0.262
REMARK SMILES CC1=CC[C@H](C(C)C)C=C1
REMARK SMILES IDX 1 1 2 2 3 3 4 4 5 5 9 6 10 7 6 8 7 9 8 10
REMARK H PARENT
REMARK Flexibility Score: inf
ROOT
ATOM      1  C   UNL     1       4.028   4.875  12.804  1.00  0.00     0.044 C 
ATOM      2  C   UNL     1       5.143   5.816  12.456  1.00  0.00    -0.055 C 
ATOM      3  C   UNL     1       6.415   5.394  12.492  1.00  0.00    -0.023 C 
ATOM      4  C   UNL     1       7.543   6.275  12.023  1.00  0.00     0.035 C 
ATOM      5  C   UNL     1       7.245   7.785  12.204  1.00  0.00     0.018 C 
ATOM      6  C   UNL     1       5.801   8.105  11.878  1.00  0.00    -0.023 C 
ATOM      7  C   UNL     1       4.833   7.196  12.027  1.00  0.00    -0.001 C 
ENDROOT
BRANCH   5   8
ATOM      8  C   UNL     1       7.680   8.328  13.599  1.00  0.00    -0.010 C 
ATOM      9  C   UNL     1       9.204   8.442  13.770  1.00  0.00     0.008 C 
ATOM     10  C   UNL     1       7.085   7.485  14.738  1.00  0.00     0.008 C 
ENDBRANCH   5   8
TORSDOF 1
ENDMDL
MODEL 2
REMARK VINA RESULT:    -4.889      0.948      3.888
REMARK INTER + INTRA:          -4.913
REMARK INTER:                  -4.815
REMARK INTRA:                  -0.097
REMARK UNBOUND:                 0.262
REMARK SMILES CC1=CC[C@H](C(C)C)C=C1
REMARK SMILES IDX 1 1 2 2 3 3 4 4 5 5 9 6 10 7 6 8 7 9 8 10
REMARK H PARENT
REMARK Flexibility Score: inf
ROOT
ATOM      1  C   UNL     1       9.038   8.620  13.128  1.00  0.00     0.044 C 
ATOM      2  C   UNL     1       8.121   7.436  13.218  1.00  0.00    -0.055 C 
ATOM      3  C   UNL     1       8.160   6.483  12.276  1.00  0.00    -0.023 C 
ATOM      4  C   UNL     1       7.348   5.221  12.407  1.00  0.00     0.035 C 
ATOM      5  C   UNL     1       6.043   5.426  13.219  1.00  0.00     0.018 C 
ATOM      6  C   UNL     1       6.266   6.352  14.396  1.00  0.00    -0.023 C 
ATOM      7  C   UNL     1       7.209   7.298  14.372  1.00  0.00    -0.001 C 
ENDROOT
BRANCH   5   8
ATOM      8  C   UNL     1       4.836   5.861  12.332  1.00  0.00    -0.010 C 
ATOM      9  C   UNL     1       4.366   7.301  12.595  1.00  0.00     0.008 C 
ATOM     10  C   UNL     1       3.657   4.887  12.476  1.00  0.00     0.008 C 
ENDBRANCH   5   8
TORSDOF 1
ENDMDL
MODEL 3
REMARK VINA RESULT:    -4.316      0.802      3.895
REMARK INTER + INTRA:          -4.306
REMARK INTER:                  -4.535
REMARK INTRA:                   0.229
REMARK UNBOUND:                 0.262
REMARK SMILES CC1=CC[C@H](C(C)C)C=C1
REMARK SMILES IDX 1 1 2 2 3 3 4 4 5 5 9 6 10 7 6 8 7 9 8 10
REMARK H PARENT
REMARK Flexibility Score: inf
ROOT
ATOM      1  C   UNL     1       9.254   8.355  13.546  1.00  0.00     0.044 C 
ATOM      2  C   UNL     1       7.801   8.061  13.318  1.00  0.00    -0.055 C 
ATOM      3  C   UNL     1       7.043   7.596  14.322  1.00  0.00    -0.023 C 
ATOM      4  C   UNL     1       5.556   7.417  14.160  1.00  0.00     0.035 C 
ATOM      5  C   UNL     1       5.141   7.112  12.698  1.00  0.00     0.018 C 
ATOM      6  C   UNL     1       5.954   7.925  11.713  1.00  0.00    -0.023 C 
ATOM      7  C   UNL     1       7.194   8.333  11.999  1.00  0.00    -0.001 C 
ENDROOT
BRANCH   5   8
ATOM      8  C   UNL     1       5.149   5.588  12.369  1.00  0.00    -0.010 C 
ATOM      9  C   UNL     1       3.832   4.875  12.717  1.00  0.00     0.008 C 
ATOM     10  C   UNL     1       6.329   4.875  13.047  1.00  0.00     0.008 C 
ENDBRANCH   5   8
TORSDOF 1
ENDMDL
MODEL 4
REMARK VINA RESULT:    -4.240      1.067      2.374
REMARK INTER + INTRA:          -4.226
REMARK INTER:                  -4.138
REMARK INTRA:                  -0.088
REMARK UNBOUND:                 0.262
REMARK SMILES CC1=CC[C@H](C(C)C)C=C1
REMARK SMILES IDX 1 1 2 2 3 3 4 4 5 5 9 6 10 7 6 8 7 9 8 10
REMARK H PARENT
REMARK Flexibility Score: inf
ROOT
ATOM      1  C   UNL     1       3.654   4.875  11.956  1.00  0.00     0.044 C 
ATOM      2  C   UNL     1       4.683   5.630  12.744  1.00  0.00    -0.055 C 
ATOM      3  C   UNL     1       4.513   6.936  12.996  1.00  0.00    -0.023 C 
ATOM      4  C   UNL     1       5.460   7.688  13.893  1.00  0.00     0.035 C 
ATOM      5  C   UNL     1       6.896   7.103  13.880  1.00  0.00     0.018 C 
ATOM      6  C   UNL     1       6.874   5.590  13.840  1.00  0.00    -0.023 C 
ATOM      7  C   UNL     1       5.860   4.920  13.285  1.00  0.00    -0.001 C 
ENDROOT
BRANCH   5   8
ATOM      8  C   UNL     1       7.794   7.721  12.765  1.00  0.00    -0.010 C 
ATOM      9  C   UNL     1       8.079   6.759  11.600  1.00  0.00     0.008 C 
ATOM     10  C   UNL     1       9.115   8.254  13.342  1.00  0.00     0.008 C 
ENDBRANCH   5   8
TORSDOF 1
ENDMDL
MODEL 5
REMARK VINA RESULT:    -4.089      1.041      3.671
REMARK INTER + INTRA:          -4.066
REMARK INTER:                  -4.158
REMARK INTRA:                   0.092
REMARK UNBOUND:                 0.262
REMARK SMILES CC1=CC[C@H](C(C)C)C=C1
REMARK SMILES IDX 1 1 2 2 3 3 4 4 5 5 9 6 10 7 6 8 7 9 8 10
REMARK H PARENT
REMARK Flexibility Score: inf
ROOT
ATOM      1  C   UNL     1       9.551   8.547  13.488  1.00  0.00     0.044 C 
ATOM      2  C   UNL     1       8.336   7.673  13.384  1.00  0.00    -0.055 C 
ATOM      3  C   UNL     1       8.149   6.907  12.300  1.00  0.00    -0.023 C 
ATOM      4  C   UNL     1       7.010   5.923  12.226  1.00  0.00     0.035 C 
ATOM      5  C   UNL     1       5.780   6.361  13.061  1.00  0.00     0.018 C 
ATOM      6  C   UNL     1       6.199   6.991  14.372  1.00  0.00    -0.023 C 
ATOM      7  C   UNL     1       7.370   7.622  14.501  1.00  0.00    -0.001 C 
ENDROOT
BRANCH   5   8
ATOM      8  C   UNL     1       4.785   7.254  12.257  1.00  0.00    -0.010 C 
ATOM      9  C   UNL     1       5.458   8.439  11.545  1.00  0.00     0.008 C 
ATOM     10  C   UNL     1       3.640   7.757  13.148  1.00  0.00     0.008 C 
ENDBRANCH   5   8
TORSDOF 1
ENDMDL
MODEL 6
REMARK VINA RESULT:    -3.727      1.025      3.947
REMARK INTER + INTRA:          -3.683
REMARK INTER:                  -3.578
REMARK INTRA:                  -0.105
REMARK UNBOUND:                 0.262
REMARK SMILES CC1=CC[C@H](C(C)C)C=C1
REMARK SMILES IDX 1 1 2 2 3 3 4 4 5 5 9 6 10 7 6 8 7 9 8 10
REMARK H PARENT
REMARK Flexibility Score: inf
ROOT
ATOM      1  C   UNL     1       9.384   8.630  14.287  1.00  0.00     0.044 C 
ATOM      2  C   UNL     1       8.268   8.101  13.435  1.00  0.00    -0.055 C 
ATOM      3  C   UNL     1       7.067   8.698  13.453  1.00  0.00    -0.023 C 
ATOM      4  C   UNL     1       5.970   8.272  12.513  1.00  0.00     0.035 C 
ATOM      5  C   UNL     1       6.063   6.777  12.115  1.00  0.00     0.018 C 
ATOM      6  C   UNL     1       7.500   6.353  11.899  1.00  0.00    -0.023 C 
ATOM      7  C   UNL     1       8.509   6.952  12.539  1.00  0.00    -0.001 C 
ENDROOT
BRANCH   5   8
ATOM      8  C   UNL     1       5.300   5.836  13.097  1.00  0.00    -0.010 C 
ATOM      9  C   UNL     1       6.219   4.875  13.869  1.00  0.00     0.008 C 
ATOM     10  C   UNL     1       4.200   5.045  12.373  1.00  0.00     0.008 C 
ENDBRANCH   5   8
TORSDOF 1
ENDMDL
MODEL 7
REMARK VINA RESULT:    -2.863      1.166      2.437
REMARK INTER + INTRA:          -2.769
REMARK INTER:                  -2.779
REMARK INTRA:                   0.011
REMARK UNBOUND:                 0.262
REMARK SMILES CC1=CC[C@H](C(C)C)C=C1
REMARK SMILES IDX 1 1 2 2 3 3 4 4 5 5 9 6 10 7 6 8 7 9 8 10
REMARK H PARENT
REMARK Flexibility Score: inf
ROOT
ATOM      1  C   UNL     1       4.459   8.776  10.875  1.00  0.00     0.044 C 
ATOM      2  C   UNL     1       5.463   7.882  11.542  1.00  0.00    -0.055 C 
ATOM      3  C   UNL     1       5.120   7.180  12.631  1.00  0.00    -0.023 C 
ATOM      4  C   UNL     1       6.063   6.177  13.243  1.00  0.00     0.035 C 
ATOM      5  C   UNL     1       7.554   6.533  13.014  1.00  0.00     0.018 C 
ATOM      6  C   UNL     1       7.781   7.090  11.624  1.00  0.00    -0.023 C 
ATOM      7  C   UNL     1       6.816   7.739  10.965  1.00  0.00    -0.001 C 
ENDROOT
BRANCH   5   8
ATOM      8  C   UNL     1       8.139   7.451  14.131  1.00  0.00    -0.010 C 
ATOM      9  C   UNL     1       7.076   8.288  14.861  1.00  0.00     0.008 C 
ATOM     10  C   UNL     1       9.244   8.366  13.582  1.00  0.00     0.008 C 
ENDBRANCH   5   8
TORSDOF 1
ENDMDL
