MODEL 1
REMARK VINA RESULT:    -5.140      0.000      0.000
REMARK INTER + INTRA:         -13.693
REMARK INTER:                 -11.150
REMARK INTRA:                  -2.544
REMARK UNBOUND:                -2.544
REMARK SMILES CCCCCCCCCCCCCCCCCCCCCC(=O)[O-]
REMARK SMILES IDX 12 1 11 2 10 3 9 4 8 5 7 6 6 7 5 8 4 9 3 10 2 11 1 12 13 13
REMARK SMILES IDX 14 14 15 15 16 16 17 17 18 18 19 19 20 20 21 21 22 22 23 23
REMARK SMILES IDX 24 24
REMARK H PARENT
REMARK Flexibility Score: inf
ROOT
ATOM      1  C   UNL     1      15.894  -4.952  34.097  1.00  0.00     0.000 C 
ENDROOT
BRANCH   1   2
ATOM      2  C   UNL     1      15.984  -5.056  35.629  1.00  0.00     0.000 C 
BRANCH   2   3
ATOM      3  C   UNL     1      17.400  -4.783  36.167  1.00  0.00     0.000 C 
BRANCH   3   4
ATOM      4  C   UNL     1      18.115  -6.000  36.784  1.00  0.00    -0.000 C 
BRANCH   4   5
ATOM      5  C   UNL     1      18.230  -7.185  35.809  1.00  0.00    -0.000 C 
BRANCH   5   6
ATOM      6  C   UNL     1      19.518  -7.135  34.971  1.00  0.00    -0.000 C 
BRANCH   6   7
ATOM      7  C   UNL     1      19.240  -7.150  33.460  1.00  0.00    -0.000 C 
BRANCH   7   8
ATOM      8  C   UNL     1      19.982  -6.008  32.754  1.00  0.00    -0.000 C 
BRANCH   8   9
ATOM      9  C   UNL     1      19.415  -4.641  33.168  1.00  0.00    -0.000 C 
BRANCH   9  10
ATOM     10  C   UNL     1      20.509  -3.694  33.705  1.00  0.00    -0.000 C 
BRANCH  10  11
ATOM     11  C   UNL     1      20.058  -2.856  34.913  1.00  0.00    -0.003 C 
ATOM     12  C   UNL     1      18.850  -1.973  34.612  1.00  0.00     0.004 C 
ENDBRANCH  10  11
ENDBRANCH   9  10
ENDBRANCH   8   9
ENDBRANCH   7   8
ENDBRANCH   6   7
ENDBRANCH   5   6
ENDBRANCH   4   5
ENDBRANCH   3   4
ENDBRANCH   2   3
ENDBRANCH   1   2
BRANCH   1  13
ATOM     13  C   UNL     1      15.547  -6.297  33.436  1.00  0.00     0.000 C 
BRANCH  13  14
ATOM     14  C   UNL     1      16.191  -6.463  32.052  1.00  0.00     0.000 C 
BRANCH  14  15
ATOM     15  C   UNL     1      16.214  -5.129  31.295  1.00  0.00     0.000 C 
BRANCH  15  16
ATOM     16  C   UNL     1      15.783  -5.319  29.833  1.00  0.00     0.000 C 
BRANCH  16  17
ATOM     17  C   UNL     1      15.121  -4.064  29.237  1.00  0.00     0.000 C 
BRANCH  17  18
ATOM     18  C   UNL     1      15.846  -3.461  28.017  1.00  0.00     0.000 C 
BRANCH  18  19
ATOM     19  C   UNL     1      15.544  -1.973  27.744  1.00  0.00     0.000 C 
BRANCH  19  20
ATOM     20  C   UNL     1      14.864  -1.687  26.393  1.00  0.00     0.006 C 
BRANCH  20  21
ATOM     21  C   UNL     1      14.457  -0.216  26.232  1.00  0.00     0.053 C 
BRANCH  21  22
ATOM     22  C   UNL     1      13.238   0.080  27.046  1.00  0.00     0.041 C 
ATOM     23  O   UNL     1      12.097  -0.232  26.616  1.00  0.00    -0.550 OA
ATOM     24  O   UNL     1      13.358   0.746  28.260  1.00  0.00    -0.550 OA
ENDBRANCH  21  22
ENDBRANCH  20  21
ENDBRANCH  19  20
ENDBRANCH  18  19
ENDBRANCH  17  18
ENDBRANCH  16  17
ENDBRANCH  15  16
ENDBRANCH  14  15
ENDBRANCH  13  14
ENDBRANCH   1  13
TORSDOF 20
ENDMDL
MODEL 2
REMARK VINA RESULT:    -5.054      7.438     15.676
REMARK INTER + INTRA:         -13.507
REMARK INTER:                 -11.315
REMARK INTRA:                  -2.192
REMARK UNBOUND:                -2.544
REMARK SMILES CCCCCCCCCCCCCCCCCCCCCC(=O)[O-]
REMARK SMILES IDX 12 1 11 2 10 3 9 4 8 5 7 6 6 7 5 8 4 9 3 10 2 11 1 12 13 13
REMARK SMILES IDX 14 14 15 15 16 16 17 17 18 18 19 19 20 20 21 21 22 22 23 23
REMARK SMILES IDX 24 24
REMARK H PARENT
REMARK Flexibility Score: inf
ROOT
ATOM      1  C   UNL     1      12.400   6.364  21.909  1.00  0.00     0.000 C 
ENDROOT
BRANCH   1   2
ATOM      2  C   UNL     1      10.991   6.641  21.357  1.00  0.00     0.000 C 
BRANCH   2   3
ATOM      3  C   UNL     1      11.005   7.495  20.076  1.00  0.00     0.000 C 
BRANCH   3   4
ATOM      4  C   UNL     1      12.187   7.233  19.124  1.00  0.00    -0.000 C 
BRANCH   4   5
ATOM      5  C   UNL     1      11.915   6.092  18.129  1.00  0.00    -0.000 C 
BRANCH   5   6
ATOM      6  C   UNL     1      12.397   4.728  18.652  1.00  0.00    -0.000 C 
BRANCH   6   7
ATOM      7  C   UNL     1      11.456   3.580  18.257  1.00  0.00    -0.000 C 
BRANCH   7   8
ATOM      8  C   UNL     1      10.495   3.239  19.402  1.00  0.00    -0.000 C 
BRANCH   8   9
ATOM      9  C   UNL     1       9.216   2.575  18.871  1.00  0.00    -0.000 C 
BRANCH   9  10
ATOM     10  C   UNL     1       8.033   3.565  18.792  1.00  0.00    -0.000 C 
BRANCH  10  11
ATOM     11  C   UNL     1       8.402   4.997  19.214  1.00  0.00    -0.003 C 
ATOM     12  C   UNL     1       8.280   6.006  18.075  1.00  0.00     0.004 C 
ENDBRANCH  10  11
ENDBRANCH   9  10
ENDBRANCH   8   9
ENDBRANCH   7   8
ENDBRANCH   6   7
ENDBRANCH   5   6
ENDBRANCH   4   5
ENDBRANCH   3   4
ENDBRANCH   2   3
ENDBRANCH   1   2
BRANCH   1  13
ATOM     13  C   UNL     1      12.527   4.956  22.515  1.00  0.00     0.000 C 
BRANCH  13  14
ATOM     14  C   UNL     1      13.591   4.879  23.620  1.00  0.00     0.000 C 
BRANCH  14  15
ATOM     15  C   UNL     1      13.551   3.518  24.325  1.00  0.00     0.000 C 
BRANCH  15  16
ATOM     16  C   UNL     1      14.950   2.887  24.384  1.00  0.00     0.000 C 
BRANCH  16  17
ATOM     17  C   UNL     1      14.985   1.586  25.205  1.00  0.00     0.000 C 
BRANCH  17  18
ATOM     18  C   UNL     1      13.605   0.962  25.496  1.00  0.00     0.000 C 
BRANCH  18  19
ATOM     19  C   UNL     1      13.358   0.572  26.968  1.00  0.00     0.000 C 
BRANCH  19  20
ATOM     20  C   UNL     1      14.627   0.474  27.834  1.00  0.00     0.006 C 
BRANCH  20  21
ATOM     21  C   UNL     1      14.666  -0.798  28.692  1.00  0.00     0.053 C 
BRANCH  21  22
ATOM     22  C   UNL     1      15.288  -1.924  27.929  1.00  0.00     0.041 C 
ATOM     23  O   UNL     1      15.389  -3.065  28.451  1.00  0.00    -0.550 OA
ATOM     24  O   UNL     1      15.804  -1.700  26.659  1.00  0.00    -0.550 OA
ENDBRANCH  21  22
ENDBRANCH  20  21
ENDBRANCH  19  20
ENDBRANCH  18  19
ENDBRANCH  17  18
ENDBRANCH  16  17
ENDBRANCH  15  16
ENDBRANCH  14  15
ENDBRANCH  13  14
ENDBRANCH   1  13
TORSDOF 20
ENDMDL
MODEL 3
REMARK VINA RESULT:    -5.044      7.952     16.137
REMARK INTER + INTRA:         -13.486
REMARK INTER:                 -10.836
REMARK INTRA:                  -2.650
REMARK UNBOUND:                -2.544
REMARK SMILES CCCCCCCCCCCCCCCCCCCCCC(=O)[O-]
REMARK SMILES IDX 12 1 11 2 10 3 9 4 8 5 7 6 6 7 5 8 4 9 3 10 2 11 1 12 13 13
REMARK SMILES IDX 14 14 15 15 16 16 17 17 18 18 19 19 20 20 21 21 22 22 23 23
REMARK SMILES IDX 24 24
REMARK H PARENT
REMARK Flexibility Score: inf
ROOT
ATOM      1  C   UNL     1       9.925   6.730  21.298  1.00  0.00     0.000 C 
ENDROOT
BRANCH   1   2
ATOM      2  C   UNL     1       9.354   5.334  20.998  1.00  0.00     0.000 C 
BRANCH   2   3
ATOM      3  C   UNL     1       8.153   5.370  20.034  1.00  0.00     0.000 C 
BRANCH   3   4
ATOM      4  C   UNL     1       8.200   4.345  18.887  1.00  0.00    -0.000 C 
BRANCH   4   5
ATOM      5  C   UNL     1       9.284   3.272  19.085  1.00  0.00    -0.000 C 
BRANCH   5   6
ATOM      6  C   UNL     1       9.867   2.771  17.753  1.00  0.00    -0.000 C 
BRANCH   6   7
ATOM      7  C   UNL     1      11.361   3.098  17.604  1.00  0.00    -0.000 C 
BRANCH   7   8
ATOM      8  C   UNL     1      11.819   4.081  18.688  1.00  0.00    -0.000 C 
BRANCH   8   9
ATOM      9  C   UNL     1      12.632   5.234  18.080  1.00  0.00    -0.000 C 
BRANCH   9  10
ATOM     10  C   UNL     1      11.902   6.589  18.197  1.00  0.00    -0.000 C 
BRANCH  10  11
ATOM     11  C   UNL     1      10.587   6.649  17.403  1.00  0.00    -0.003 C 
ATOM     12  C   UNL     1       9.727   7.860  17.758  1.00  0.00     0.004 C 
ENDBRANCH  10  11
ENDBRANCH   9  10
ENDBRANCH   8   9
ENDBRANCH   7   8
ENDBRANCH   6   7
ENDBRANCH   5   6
ENDBRANCH   4   5
ENDBRANCH   3   4
ENDBRANCH   2   3
ENDBRANCH   1   2
BRANCH   1  13
ATOM     13  C   UNL     1      11.415   6.686  21.677  1.00  0.00     0.000 C 
BRANCH  13  14
ATOM     14  C   UNL     1      11.954   5.253  21.802  1.00  0.00     0.000 C 
BRANCH  14  15
ATOM     15  C   UNL     1      13.015   5.161  22.905  1.00  0.00     0.000 C 
BRANCH  15  16
ATOM     16  C   UNL     1      13.201   3.709  23.371  1.00  0.00     0.000 C 
BRANCH  16  17
ATOM     17  C   UNL     1      13.998   3.600  24.683  1.00  0.00     0.000 C 
BRANCH  17  18
ATOM     18  C   UNL     1      14.315   2.160  25.135  1.00  0.00     0.000 C 
BRANCH  18  19
ATOM     19  C   UNL     1      13.129   1.175  25.067  1.00  0.00     0.000 C 
BRANCH  19  20
ATOM     20  C   UNL     1      12.874   0.378  26.358  1.00  0.00     0.006 C 
BRANCH  20  21
ATOM     21  C   UNL     1      13.164  -1.121  26.200  1.00  0.00     0.053 C 
BRANCH  21  22
ATOM     22  C   UNL     1      14.547  -1.437  26.671  1.00  0.00     0.041 C 
ATOM     23  O   UNL     1      14.906  -1.130  27.838  1.00  0.00    -0.550 OA
ATOM     24  O   UNL     1      15.458  -2.028  25.804  1.00  0.00    -0.550 OA
ENDBRANCH  21  22
ENDBRANCH  20  21
ENDBRANCH  19  20
ENDBRANCH  18  19
ENDBRANCH  17  18
ENDBRANCH  16  17
ENDBRANCH  15  16
ENDBRANCH  14  15
ENDBRANCH  13  14
ENDBRANCH   1  13
TORSDOF 20
ENDMDL
MODEL 4
REMARK VINA RESULT:    -5.017      2.695      8.112
REMARK INTER + INTRA:         -13.428
REMARK INTER:                 -10.806
REMARK INTRA:                  -2.622
REMARK UNBOUND:                -2.544
REMARK SMILES CCCCCCCCCCCCCCCCCCCCCC(=O)[O-]
REMARK SMILES IDX 12 1 11 2 10 3 9 4 8 5 7 6 6 7 5 8 4 9 3 10 2 11 1 12 13 13
REMARK SMILES IDX 14 14 15 15 16 16 17 17 18 18 19 19 20 20 21 21 22 22 23 23
REMARK SMILES IDX 24 24
REMARK H PARENT
REMARK Flexibility Score: inf
ROOT
ATOM      1  C   UNL     1      16.321  -5.409  31.851  1.00  0.00     0.000 C 
ENDROOT
BRANCH   1   2
ATOM      2  C   UNL     1      15.883  -5.316  30.379  1.00  0.00     0.000 C 
BRANCH   2   3
ATOM      3  C   UNL     1      15.899  -3.875  29.838  1.00  0.00     0.000 C 
BRANCH   3   4
ATOM      4  C   UNL     1      15.164  -3.667  28.501  1.00  0.00    -0.000 C 
BRANCH   4   5
ATOM      5  C   UNL     1      15.740  -2.503  27.675  1.00  0.00    -0.000 C 
BRANCH   5   6
ATOM      6  C   UNL     1      14.683  -1.840  26.776  1.00  0.00    -0.000 C 
BRANCH   6   7
ATOM      7  C   UNL     1      15.231  -0.616  26.027  1.00  0.00    -0.000 C 
BRANCH   7   8
ATOM      8  C   UNL     1      14.638   0.682  26.589  1.00  0.00    -0.000 C 
BRANCH   8   9
ATOM      9  C   UNL     1      13.459   0.389  27.529  1.00  0.00    -0.000 C 
BRANCH   9  10
ATOM     10  C   UNL     1      13.644   1.038  28.917  1.00  0.00    -0.000 C 
BRANCH  10  11
ATOM     11  C   UNL     1      13.866   0.018  30.047  1.00  0.00    -0.003 C 
ATOM     12  C   UNL     1      15.341  -0.199  30.375  1.00  0.00     0.004 C 
ENDBRANCH  10  11
ENDBRANCH   9  10
ENDBRANCH   8   9
ENDBRANCH   7   8
ENDBRANCH   6   7
ENDBRANCH   5   6
ENDBRANCH   4   5
ENDBRANCH   3   4
ENDBRANCH   2   3
ENDBRANCH   1   2
BRANCH   1  13
ATOM     13  C   UNL     1      16.051  -6.797  32.457  1.00  0.00     0.000 C 
BRANCH  13  14
ATOM     14  C   UNL     1      15.772  -6.741  33.967  1.00  0.00     0.000 C 
BRANCH  14  15
ATOM     15  C   UNL     1      15.949  -5.316  34.505  1.00  0.00     0.000 C 
BRANCH  15  16
ATOM     16  C   UNL     1      16.823  -5.308  35.767  1.00  0.00     0.000 C 
BRANCH  16  17
ATOM     17  C   UNL     1      17.812  -6.486  35.817  1.00  0.00     0.000 C 
BRANCH  17  18
ATOM     18  C   UNL     1      19.241  -6.158  35.336  1.00  0.00     0.000 C 
BRANCH  18  19
ATOM     19  C   UNL     1      19.394  -5.972  33.812  1.00  0.00     0.000 C 
BRANCH  19  20
ATOM     20  C   UNL     1      19.761  -4.545  33.368  1.00  0.00     0.006 C 
BRANCH  20  21
ATOM     21  C   UNL     1      19.784  -3.546  34.533  1.00  0.00     0.053 C 
BRANCH  21  22
ATOM     22  C   UNL     1      18.768  -2.470  34.317  1.00  0.00     0.041 C 
ATOM     23  O   UNL     1      17.883  -2.601  33.432  1.00  0.00    -0.550 OA
ATOM     24  O   UNL     1      18.831  -1.297  35.059  1.00  0.00    -0.550 OA
ENDBRANCH  21  22
ENDBRANCH  20  21
ENDBRANCH  19  20
ENDBRANCH  18  19
ENDBRANCH  17  18
ENDBRANCH  16  17
ENDBRANCH  15  16
ENDBRANCH  14  15
ENDBRANCH  13  14
ENDBRANCH   1  13
TORSDOF 20
ENDMDL
MODEL 5
REMARK VINA RESULT:    -5.003      3.254      8.387
REMARK INTER + INTRA:         -13.396
REMARK INTER:                 -11.142
REMARK INTRA:                  -2.255
REMARK UNBOUND:                -2.544
REMARK SMILES CCCCCCCCCCCCCCCCCCCCCC(=O)[O-]
REMARK SMILES IDX 12 1 11 2 10 3 9 4 8 5 7 6 6 7 5 8 4 9 3 10 2 11 1 12 13 13
REMARK SMILES IDX 14 14 15 15 16 16 17 17 18 18 19 19 20 20 21 21 22 22 23 23
REMARK SMILES IDX 24 24
REMARK H PARENT
REMARK Flexibility Score: inf
ROOT
ATOM      1  C   UNL     1      16.576  -5.622  32.342  1.00  0.00     0.000 C 
ENDROOT
BRANCH   1   2
ATOM      2  C   UNL     1      15.886  -5.623  30.967  1.00  0.00     0.000 C 
BRANCH   2   3
ATOM      3  C   UNL     1      16.077  -4.302  30.199  1.00  0.00     0.000 C 
BRANCH   3   4
ATOM      4  C   UNL     1      15.328  -4.207  28.857  1.00  0.00    -0.000 C 
BRANCH   4   5
ATOM      5  C   UNL     1      15.265  -2.772  28.305  1.00  0.00    -0.000 C 
BRANCH   5   6
ATOM      6  C   UNL     1      16.302  -2.522  27.198  1.00  0.00    -0.000 C 
BRANCH   6   7
ATOM      7  C   UNL     1      15.655  -2.105  25.868  1.00  0.00    -0.000 C 
BRANCH   7   8
ATOM      8  C   UNL     1      14.592  -1.023  26.091  1.00  0.00    -0.000 C 
BRANCH   8   9
ATOM      9  C   UNL     1      15.222   0.379  26.091  1.00  0.00    -0.000 C 
BRANCH   9  10
ATOM     10  C   UNL     1      14.616   1.292  27.178  1.00  0.00    -0.000 C 
BRANCH  10  11
ATOM     11  C   UNL     1      14.734   0.716  28.599  1.00  0.00    -0.003 C 
ATOM     12  C   UNL     1      13.407   0.706  29.353  1.00  0.00     0.004 C 
ENDBRANCH  10  11
ENDBRANCH   9  10
ENDBRANCH   8   9
ENDBRANCH   7   8
ENDBRANCH   6   7
ENDBRANCH   5   6
ENDBRANCH   4   5
ENDBRANCH   3   4
ENDBRANCH   2   3
ENDBRANCH   1   2
BRANCH   1  13
ATOM     13  C   UNL     1      15.890  -6.567  33.343  1.00  0.00     0.000 C 
BRANCH  13  14
ATOM     14  C   UNL     1      16.815  -7.694  33.826  1.00  0.00     0.000 C 
BRANCH  14  15
ATOM     15  C   UNL     1      18.275  -7.400  33.458  1.00  0.00     0.000 C 
BRANCH  15  16
ATOM     16  C   UNL     1      19.137  -7.226  34.716  1.00  0.00     0.000 C 
BRANCH  16  17
ATOM     17  C   UNL     1      18.303  -7.173  36.009  1.00  0.00     0.000 C 
BRANCH  17  18
ATOM     18  C   UNL     1      18.308  -5.811  36.732  1.00  0.00     0.000 C 
BRANCH  18  19
ATOM     19  C   UNL     1      17.359  -4.749  36.139  1.00  0.00     0.000 C 
BRANCH  19  20
ATOM     20  C   UNL     1      18.038  -3.430  35.730  1.00  0.00     0.006 C 
BRANCH  20  21
ATOM     21  C   UNL     1      18.427  -3.396  34.246  1.00  0.00     0.053 C 
BRANCH  21  22
ATOM     22  C   UNL     1      19.899  -3.603  34.088  1.00  0.00     0.041 C 
ATOM     23  O   UNL     1      20.708  -3.027  34.862  1.00  0.00    -0.550 OA
ATOM     24  O   UNL     1      20.382  -4.394  33.053  1.00  0.00    -0.550 OA
ENDBRANCH  21  22
ENDBRANCH  20  21
ENDBRANCH  19  20
ENDBRANCH  18  19
ENDBRANCH  17  18
ENDBRANCH  16  17
ENDBRANCH  15  16
ENDBRANCH  14  15
ENDBRANCH  13  14
ENDBRANCH   1  13
TORSDOF 20
ENDMDL
MODEL 6
REMARK VINA RESULT:    -5.001      3.250      8.011
REMARK INTER + INTRA:         -13.391
REMARK INTER:                 -11.229
REMARK INTRA:                  -2.162
REMARK UNBOUND:                -2.544
REMARK SMILES CCCCCCCCCCCCCCCCCCCCCC(=O)[O-]
REMARK SMILES IDX 12 1 11 2 10 3 9 4 8 5 7 6 6 7 5 8 4 9 3 10 2 11 1 12 13 13
REMARK SMILES IDX 14 14 15 15 16 16 17 17 18 18 19 19 20 20 21 21 22 22 23 23
REMARK SMILES IDX 24 24
REMARK H PARENT
REMARK Flexibility Score: inf
ROOT
ATOM      1  C   UNL     1      16.307  -4.998  33.118  1.00  0.00     0.000 C 
ENDROOT
BRANCH   1   2
ATOM      2  C   UNL     1      16.226  -5.495  31.664  1.00  0.00     0.000 C 
BRANCH   2   3
ATOM      3  C   UNL     1      16.273  -4.350  30.635  1.00  0.00     0.000 C 
BRANCH   3   4
ATOM      4  C   UNL     1      15.495  -4.607  29.331  1.00  0.00    -0.000 C 
BRANCH   4   5
ATOM      5  C   UNL     1      15.295  -3.333  28.492  1.00  0.00    -0.000 C 
BRANCH   5   6
ATOM      6  C   UNL     1      16.371  -3.169  27.406  1.00  0.00    -0.000 C 
BRANCH   6   7
ATOM      7  C   UNL     1      15.900  -2.290  26.236  1.00  0.00    -0.000 C 
BRANCH   7   8
ATOM      8  C   UNL     1      14.785  -1.337  26.682  1.00  0.00    -0.000 C 
BRANCH   8   9
ATOM      9  C   UNL     1      15.211   0.130  26.513  1.00  0.00    -0.000 C 
BRANCH   9  10
ATOM     10  C   UNL     1      14.322   1.094  27.326  1.00  0.00    -0.000 C 
BRANCH  10  11
ATOM     11  C   UNL     1      13.320   0.378  28.246  1.00  0.00    -0.003 C 
ATOM     12  C   UNL     1      13.773   0.331  29.704  1.00  0.00     0.004 C 
ENDBRANCH  10  11
ENDBRANCH   9  10
ENDBRANCH   8   9
ENDBRANCH   7   8
ENDBRANCH   6   7
ENDBRANCH   5   6
ENDBRANCH   4   5
ENDBRANCH   3   4
ENDBRANCH   2   3
ENDBRANCH   1   2
BRANCH   1  13
ATOM     13  C   UNL     1      15.789  -6.039  34.124  1.00  0.00     0.000 C 
BRANCH  13  14
ATOM     14  C   UNL     1      16.706  -7.267  34.233  1.00  0.00     0.000 C 
BRANCH  14  15
ATOM     15  C   UNL     1      17.856  -7.007  35.212  1.00  0.00     0.000 C 
BRANCH  15  16
ATOM     16  C   UNL     1      19.211  -7.350  34.574  1.00  0.00     0.000 C 
BRANCH  16  17
ATOM     17  C   UNL     1      19.291  -6.951  33.090  1.00  0.00     0.000 C 
BRANCH  17  18
ATOM     18  C   UNL     1      20.273  -5.805  32.775  1.00  0.00     0.000 C 
BRANCH  18  19
ATOM     19  C   UNL     1      19.717  -4.383  32.999  1.00  0.00     0.000 C 
BRANCH  19  20
ATOM     20  C   UNL     1      19.933  -3.818  34.414  1.00  0.00     0.006 C 
BRANCH  20  21
ATOM     21  C   UNL     1      18.762  -2.952  34.894  1.00  0.00     0.053 C 
BRANCH  21  22
ATOM     22  C   UNL     1      19.267  -1.681  35.501  1.00  0.00     0.041 C 
ATOM     23  O   UNL     1      20.467  -1.337  35.344  1.00  0.00    -0.550 OA
ATOM     24  O   UNL     1      18.424  -0.903  36.285  1.00  0.00    -0.550 OA
ENDBRANCH  21  22
ENDBRANCH  20  21
ENDBRANCH  19  20
ENDBRANCH  18  19
ENDBRANCH  17  18
ENDBRANCH  16  17
ENDBRANCH  15  16
ENDBRANCH  14  15
ENDBRANCH  13  14
ENDBRANCH   1  13
TORSDOF 20
ENDMDL
MODEL 7
REMARK VINA RESULT:    -4.993      8.123     16.531
REMARK INTER + INTRA:         -13.375
REMARK INTER:                 -11.405
REMARK INTRA:                  -1.969
REMARK UNBOUND:                -2.544
REMARK SMILES CCCCCCCCCCCCCCCCCCCCCC(=O)[O-]
REMARK SMILES IDX 12 1 11 2 10 3 9 4 8 5 7 6 6 7 5 8 4 9 3 10 2 11 1 12 13 13
REMARK SMILES IDX 14 14 15 15 16 16 17 17 18 18 19 19 20 20 21 21 22 22 23 23
REMARK SMILES IDX 24 24
REMARK H PARENT
REMARK Flexibility Score: inf
ROOT
ATOM      1  C   UNL     1      12.132   4.852  19.847  1.00  0.00     0.000 C 
ENDROOT
BRANCH   1   2
ATOM      2  C   UNL     1      12.134   5.547  18.475  1.00  0.00     0.000 C 
BRANCH   2   3
ATOM      3  C   UNL     1      11.685   7.018  18.546  1.00  0.00     0.000 C 
BRANCH   3   4
ATOM      4  C   UNL     1      10.606   7.426  17.526  1.00  0.00    -0.000 C 
BRANCH   4   5
ATOM      5  C   UNL     1       9.598   6.300  17.237  1.00  0.00    -0.000 C 
BRANCH   5   6
ATOM      6  C   UNL     1       8.392   6.330  18.191  1.00  0.00    -0.000 C 
BRANCH   6   7
ATOM      7  C   UNL     1       8.471   5.244  19.275  1.00  0.00    -0.000 C 
BRANCH   7   8
ATOM      8  C   UNL     1       8.099   3.870  18.703  1.00  0.00    -0.000 C 
BRANCH   8   9
ATOM      9  C   UNL     1       9.208   2.841  18.973  1.00  0.00    -0.000 C 
BRANCH   9  10
ATOM     10  C   UNL     1       9.648   2.105  17.689  1.00  0.00    -0.000 C 
BRANCH  10  11
ATOM     11  C   UNL     1       8.876   0.800  17.434  1.00  0.00    -0.003 C 
ATOM     12  C   UNL     1       8.499   0.067  18.719  1.00  0.00     0.004 C 
ENDBRANCH  10  11
ENDBRANCH   9  10
ENDBRANCH   8   9
ENDBRANCH   7   8
ENDBRANCH   6   7
ENDBRANCH   5   6
ENDBRANCH   4   5
ENDBRANCH   3   4
ENDBRANCH   2   3
ENDBRANCH   1   2
BRANCH   1  13
ATOM     13  C   UNL     1      11.597   5.763  20.966  1.00  0.00     0.000 C 
BRANCH  13  14
ATOM     14  C   UNL     1      12.501   5.770  22.208  1.00  0.00     0.000 C 
BRANCH  14  15
ATOM     15  C   UNL     1      12.697   4.349  22.751  1.00  0.00     0.000 C 
BRANCH  15  16
ATOM     16  C   UNL     1      13.647   4.347  23.958  1.00  0.00     0.000 C 
BRANCH  16  17
ATOM     17  C   UNL     1      13.637   3.013  24.724  1.00  0.00     0.000 C 
BRANCH  17  18
ATOM     18  C   UNL     1      14.951   2.209  24.649  1.00  0.00     0.000 C 
BRANCH  18  19
ATOM     19  C   UNL     1      15.152   1.174  25.776  1.00  0.00     0.000 C 
BRANCH  19  20
ATOM     20  C   UNL     1      13.859   0.518  26.291  1.00  0.00     0.006 C 
BRANCH  20  21
ATOM     21  C   UNL     1      13.873  -1.010  26.158  1.00  0.00     0.053 C 
BRANCH  21  22
ATOM     22  C   UNL     1      15.036  -1.588  26.900  1.00  0.00     0.041 C 
ATOM     23  O   UNL     1      15.152  -1.405  28.140  1.00  0.00    -0.550 OA
ATOM     24  O   UNL     1      16.021  -2.287  26.212  1.00  0.00    -0.550 OA
ENDBRANCH  21  22
ENDBRANCH  20  21
ENDBRANCH  19  20
ENDBRANCH  18  19
ENDBRANCH  17  18
ENDBRANCH  16  17
ENDBRANCH  15  16
ENDBRANCH  14  15
ENDBRANCH  13  14
ENDBRANCH   1  13
TORSDOF 20
ENDMDL
MODEL 8
REMARK VINA RESULT:    -4.993      7.945     16.304
REMARK INTER + INTRA:         -13.374
REMARK INTER:                 -11.313
REMARK INTRA:                  -2.061
REMARK UNBOUND:                -2.544
REMARK SMILES CCCCCCCCCCCCCCCCCCCCCC(=O)[O-]
REMARK SMILES IDX 12 1 11 2 10 3 9 4 8 5 7 6 6 7 5 8 4 9 3 10 2 11 1 12 13 13
REMARK SMILES IDX 14 14 15 15 16 16 17 17 18 18 19 19 20 20 21 21 22 22 23 23
REMARK SMILES IDX 24 24
REMARK H PARENT
REMARK Flexibility Score: inf
ROOT
ATOM      1  C   UNL     1      11.297   5.607  21.069  1.00  0.00     0.000 C 
ENDROOT
BRANCH   1   2
ATOM      2  C   UNL     1      11.647   4.494  20.067  1.00  0.00     0.000 C 
BRANCH   2   3
ATOM      3  C   UNL     1      12.243   5.033  18.754  1.00  0.00     0.000 C 
BRANCH   3   4
ATOM      4  C   UNL     1      12.141   6.558  18.563  1.00  0.00    -0.000 C 
BRANCH   4   5
ATOM      5  C   UNL     1      11.037   6.965  17.571  1.00  0.00    -0.000 C 
BRANCH   5   6
ATOM      6  C   UNL     1       9.909   7.765  18.242  1.00  0.00    -0.000 C 
BRANCH   6   7
ATOM      7  C   UNL     1       8.514   7.217  17.901  1.00  0.00    -0.000 C 
BRANCH   7   8
ATOM      8  C   UNL     1       8.558   5.697  17.694  1.00  0.00    -0.000 C 
BRANCH   8   9
ATOM      9  C   UNL     1       8.218   4.953  18.995  1.00  0.00    -0.000 C 
BRANCH   9  10
ATOM     10  C   UNL     1       7.790   3.492  18.737  1.00  0.00    -0.000 C 
BRANCH  10  11
ATOM     11  C   UNL     1       8.958   2.493  18.784  1.00  0.00    -0.003 C 
ATOM     12  C   UNL     1       8.607   1.134  18.181  1.00  0.00     0.004 C 
ENDBRANCH  10  11
ENDBRANCH   9  10
ENDBRANCH   8   9
ENDBRANCH   7   8
ENDBRANCH   6   7
ENDBRANCH   5   6
ENDBRANCH   4   5
ENDBRANCH   3   4
ENDBRANCH   2   3
ENDBRANCH   1   2
BRANCH   1  13
ATOM     13  C   UNL     1      12.339   5.734  22.193  1.00  0.00     0.000 C 
BRANCH  13  14
ATOM     14  C   UNL     1      12.873   4.373  22.665  1.00  0.00     0.000 C 
BRANCH  14  15
ATOM     15  C   UNL     1      13.598   4.505  24.009  1.00  0.00     0.000 C 
BRANCH  15  16
ATOM     16  C   UNL     1      13.725   3.141  24.703  1.00  0.00     0.000 C 
BRANCH  16  17
ATOM     17  C   UNL     1      15.075   2.455  24.430  1.00  0.00     0.000 C 
BRANCH  17  18
ATOM     18  C   UNL     1      15.454   1.342  25.428  1.00  0.00     0.000 C 
BRANCH  18  19
ATOM     19  C   UNL     1      15.077   1.621  26.898  1.00  0.00     0.000 C 
BRANCH  19  20
ATOM     20  C   UNL     1      14.589   0.393  27.686  1.00  0.00     0.006 C 
BRANCH  20  21
ATOM     21  C   UNL     1      13.064   0.363  27.856  1.00  0.00     0.053 C 
BRANCH  21  22
ATOM     22  C   UNL     1      12.410  -0.148  26.612  1.00  0.00     0.041 C 
ATOM     23  O   UNL     1      11.306   0.326  26.235  1.00  0.00    -0.550 OA
ATOM     24  O   UNL     1      12.996  -1.183  25.895  1.00  0.00    -0.550 OA
ENDBRANCH  21  22
ENDBRANCH  20  21
ENDBRANCH  19  20
ENDBRANCH  18  19
ENDBRANCH  17  18
ENDBRANCH  16  17
ENDBRANCH  15  16
ENDBRANCH  14  15
ENDBRANCH  13  14
ENDBRANCH   1  13
TORSDOF 20
ENDMDL
MODEL 9
REMARK VINA RESULT:    -4.986      8.287     13.888
REMARK INTER + INTRA:         -13.360
REMARK INTER:                 -10.992
REMARK INTRA:                  -2.368
REMARK UNBOUND:                -2.544
REMARK SMILES CCCCCCCCCCCCCCCCCCCCCC(=O)[O-]
REMARK SMILES IDX 12 1 11 2 10 3 9 4 8 5 7 6 6 7 5 8 4 9 3 10 2 11 1 12 13 13
REMARK SMILES IDX 14 14 15 15 16 16 17 17 18 18 19 19 20 20 21 21 22 22 23 23
REMARK SMILES IDX 24 24
REMARK H PARENT
REMARK Flexibility Score: inf
ROOT
ATOM      1  C   UNL     1      12.501   5.575  21.886  1.00  0.00     0.000 C 
ENDROOT
BRANCH   1   2
ATOM      2  C   UNL     1      12.513   4.365  22.836  1.00  0.00     0.000 C 
BRANCH   2   3
ATOM      3  C   UNL     1      13.632   4.440  23.891  1.00  0.00     0.000 C 
BRANCH   3   4
ATOM      4  C   UNL     1      13.819   3.171  24.742  1.00  0.00    -0.000 C 
BRANCH   4   5
ATOM      5  C   UNL     1      15.043   2.340  24.319  1.00  0.00    -0.000 C 
BRANCH   5   6
ATOM      6  C   UNL     1      15.655   1.556  25.491  1.00  0.00    -0.000 C 
BRANCH   6   7
ATOM      7  C   UNL     1      14.913   1.798  26.814  1.00  0.00    -0.000 C 
BRANCH   7   8
ATOM      8  C   UNL     1      14.552   0.471  27.492  1.00  0.00    -0.000 C 
BRANCH   8   9
ATOM      9  C   UNL     1      14.610  -0.694  26.492  1.00  0.00    -0.000 C 
BRANCH   9  10
ATOM     10  C   UNL     1      13.207  -1.111  25.999  1.00  0.00    -0.000 C 
BRANCH  10  11
ATOM     11  C   UNL     1      12.065  -0.316  26.652  1.00  0.00    -0.003 C 
ATOM     12  C   UNL     1      11.342   0.606  25.673  1.00  0.00     0.004 C 
ENDBRANCH  10  11
ENDBRANCH   9  10
ENDBRANCH   8   9
ENDBRANCH   7   8
ENDBRANCH   6   7
ENDBRANCH   5   6
ENDBRANCH   4   5
ENDBRANCH   3   4
ENDBRANCH   2   3
ENDBRANCH   1   2
BRANCH   1  13
ATOM     13  C   UNL     1      11.075   6.030  21.532  1.00  0.00     0.000 C 
BRANCH  13  14
ATOM     14  C   UNL     1      11.045   7.396  20.830  1.00  0.00     0.000 C 
BRANCH  14  15
ATOM     15  C   UNL     1      11.979   7.408  19.614  1.00  0.00     0.000 C 
BRANCH  15  16
ATOM     16  C   UNL     1      11.244   6.939  18.350  1.00  0.00     0.000 C 
BRANCH  16  17
ATOM     17  C   UNL     1       9.819   7.509  18.240  1.00  0.00     0.000 C 
BRANCH  17  18
ATOM     18  C   UNL     1       8.718   6.465  17.969  1.00  0.00     0.000 C 
BRANCH  18  19
ATOM     19  C   UNL     1       8.365   5.558  19.166  1.00  0.00     0.000 C 
BRANCH  19  20
ATOM     20  C   UNL     1       8.275   4.057  18.837  1.00  0.00     0.006 C 
BRANCH  20  21
ATOM     21  C   UNL     1       9.532   3.526  18.136  1.00  0.00     0.053 C 
BRANCH  21  22
ATOM     22  C   UNL     1      10.637   3.328  19.123  1.00  0.00     0.041 C 
ATOM     23  O   UNL     1      11.796   3.752  18.872  1.00  0.00    -0.550 OA
ATOM     24  O   UNL     1      10.400   2.629  20.300  1.00  0.00    -0.550 OA
ENDBRANCH  21  22
ENDBRANCH  20  21
ENDBRANCH  19  20
ENDBRANCH  18  19
ENDBRANCH  17  18
ENDBRANCH  16  17
ENDBRANCH  15  16
ENDBRANCH  14  15
ENDBRANCH  13  14
ENDBRANCH   1  13
TORSDOF 20
ENDMDL
