MODEL 1
REMARK VINA RESULT:    -4.222      0.000      0.000
REMARK INTER + INTRA:          -5.194
REMARK INTER:                  -4.963
REMARK INTRA:                  -0.231
REMARK UNBOUND:                -0.231
REMARK SMILES O=c1c(O)c(-c2ccc(O)cc2)oc2cc(O)cc(O)c12
REMARK SMILES IDX 5 1 3 2 2 3 1 4 21 5 19 6 18 7 16 8 15 9 14 10 13 11 6 12
REMARK SMILES IDX 7 13 8 14 9 15 12 16 11 17 10 18 4 20 20 22 17 24
REMARK H PARENT 10 19 4 21 20 23 17 25
REMARK Flexibility Score: inf
ROOT
ATOM      1  C   UNL     1      18.651  34.588  43.519  1.00  0.00     0.180 A 
ATOM      2  C   UNL     1      19.383  33.405  43.315  1.00  0.00     0.208 A 
ATOM      3  C   UNL     1      20.624  33.252  43.955  1.00  0.00     0.238 A 
ATOM      4  O   UNL     1      21.299  32.216  43.726  1.00  0.00    -0.285 OA
ATOM      5  C   UNL     1      21.110  34.278  44.803  1.00  0.00     0.111 A 
ATOM      6  C   UNL     1      22.335  34.212  45.532  1.00  0.00     0.134 A 
ATOM      7  C   UNL     1      22.780  35.338  46.237  1.00  0.00     0.093 A 
ATOM      8  C   UNL     1      22.011  36.504  46.290  1.00  0.00     0.123 A 
ATOM      9  C   UNL     1      20.786  36.556  45.631  1.00  0.00     0.094 A 
ATOM     10  C   UNL     1      20.332  35.462  44.890  1.00  0.00     0.146 A 
ATOM     11  O   UNL     1      19.164  35.558  44.267  1.00  0.00    -0.452 OA
ENDROOT
BRANCH   1  12
ATOM     12  C   UNL     1      17.325  34.810  42.900  1.00  0.00     0.021 A 
ATOM     13  C   UNL     1      16.164  34.652  43.677  1.00  0.00     0.016 A 
ATOM     14  C   UNL     1      14.901  34.836  43.107  1.00  0.00     0.047 A 
ATOM     15  C   UNL     1      14.780  35.164  41.753  1.00  0.00     0.115 A 
ATOM     16  C   UNL     1      17.196  35.121  41.534  1.00  0.00     0.016 A 
ATOM     17  C   UNL     1      15.931  35.304  40.967  1.00  0.00     0.047 A 
BRANCH  15  18
ATOM     18  O   UNL     1      13.514  35.344  41.199  1.00  0.00    -0.508 OA
ATOM     19  H   UNL     1      13.199  34.791  40.411  1.00  0.00     0.293 HD
ENDBRANCH  15  18
ENDBRANCH   1  12
BRANCH   2  20
ATOM     20  O   UNL     1      18.895  32.415  42.458  1.00  0.00    -0.502 OA
ATOM     21  H   UNL     1      19.336  31.508  42.369  1.00  0.00     0.293 HD
ENDBRANCH   2  20
BRANCH   6  22
ATOM     22  O   UNL     1      23.132  33.067  45.620  1.00  0.00    -0.507 OA
ATOM     23  H   UNL     1      23.045  32.259  45.021  1.00  0.00     0.293 HD
ENDBRANCH   6  22
BRANCH   8  24
ATOM     24  O   UNL     1      22.454  37.614  47.007  1.00  0.00    -0.508 OA
ATOM     25  H   UNL     1      22.769  38.456  46.540  1.00  0.00     0.293 HD
ENDBRANCH   8  24
TORSDOF 5
ENDMDL
MODEL 2
REMARK VINA RESULT:    -4.130      2.659      7.355
REMARK INTER + INTRA:          -5.085
REMARK INTER:                  -4.796
REMARK INTRA:                  -0.289
REMARK UNBOUND:                -0.231
REMARK SMILES O=c1c(O)c(-c2ccc(O)cc2)oc2cc(O)cc(O)c12
REMARK SMILES IDX 5 1 3 2 2 3 1 4 21 5 19 6 18 7 16 8 15 9 14 10 13 11 6 12
REMARK SMILES IDX 7 13 8 14 9 15 12 16 11 17 10 18 4 20 20 22 17 24
REMARK H PARENT 10 19 4 21 20 23 17 25
REMARK Flexibility Score: inf
ROOT
ATOM      1  C   UNL     1      23.072  33.961  45.270  1.00  0.00     0.180 A 
ATOM      2  C   UNL     1      23.250  35.015  46.183  1.00  0.00     0.208 A 
ATOM      3  C   UNL     1      22.222  35.957  46.346  1.00  0.00     0.238 A 
ATOM      4  O   UNL     1      22.409  36.927  47.124  1.00  0.00    -0.285 OA
ATOM      5  C   UNL     1      21.022  35.824  45.606  1.00  0.00     0.111 A 
ATOM      6  C   UNL     1      19.899  36.698  45.721  1.00  0.00     0.134 A 
ATOM      7  C   UNL     1      18.815  36.548  44.846  1.00  0.00     0.093 A 
ATOM      8  C   UNL     1      18.788  35.517  43.904  1.00  0.00     0.123 A 
ATOM      9  C   UNL     1      19.852  34.623  43.824  1.00  0.00     0.094 A 
ATOM     10  C   UNL     1      20.963  34.768  44.659  1.00  0.00     0.146 A 
ATOM     11  O   UNL     1      21.962  33.901  44.544  1.00  0.00    -0.452 OA
ENDROOT
BRANCH   1  12
ATOM     12  C   UNL     1      24.100  32.915  45.063  1.00  0.00     0.021 A 
ATOM     13  C   UNL     1      24.093  31.769  45.875  1.00  0.00     0.016 A 
ATOM     14  C   UNL     1      25.067  30.780  45.711  1.00  0.00     0.047 A 
ATOM     15  C   UNL     1      26.067  30.929  44.745  1.00  0.00     0.115 A 
ATOM     16  C   UNL     1      25.120  33.069  44.106  1.00  0.00     0.016 A 
ATOM     17  C   UNL     1      26.093  32.078  43.945  1.00  0.00     0.047 A 
BRANCH  15  18
ATOM     18  O   UNL     1      27.032  29.934  44.593  1.00  0.00    -0.508 OA
ATOM     19  H   UNL     1      27.218  29.263  45.329  1.00  0.00     0.293 HD
ENDBRANCH  15  18
ENDBRANCH   1  12
BRANCH   2  20
ATOM     20  O   UNL     1      24.451  35.139  46.887  1.00  0.00    -0.502 OA
ATOM     21  H   UNL     1      24.521  34.953  47.880  1.00  0.00     0.293 HD
ENDBRANCH   2  20
BRANCH   6  22
ATOM     22  O   UNL     1      19.786  37.701  46.688  1.00  0.00    -0.507 OA
ATOM     23  H   UNL     1      19.666  38.683  46.486  1.00  0.00     0.293 HD
ENDBRANCH   6  22
BRANCH   8  24
ATOM     24  O   UNL     1      17.699  35.366  43.047  1.00  0.00    -0.508 OA
ATOM     25  H   UNL     1      17.658  34.615  42.368  1.00  0.00     0.293 HD
ENDBRANCH   8  24
TORSDOF 5
ENDMDL
MODEL 3
REMARK VINA RESULT:    -4.122      3.485      3.940
REMARK INTER + INTRA:          -5.076
REMARK INTER:                  -4.778
REMARK INTRA:                  -0.298
REMARK UNBOUND:                -0.231
REMARK SMILES O=c1c(O)c(-c2ccc(O)cc2)oc2cc(O)cc(O)c12
REMARK SMILES IDX 5 1 3 2 2 3 1 4 21 5 19 6 18 7 16 8 15 9 14 10 13 11 6 12
REMARK SMILES IDX 7 13 8 14 9 15 12 16 11 17 10 18 4 20 20 22 17 24
REMARK H PARENT 10 19 4 21 20 23 17 25
REMARK Flexibility Score: inf
ROOT
ATOM      1  C   UNL     1      21.410  34.026  42.722  1.00  0.00     0.180 A 
ATOM      2  C   UNL     1      22.710  33.706  43.150  1.00  0.00     0.208 A 
ATOM      3  C   UNL     1      23.173  34.224  44.370  1.00  0.00     0.238 A 
ATOM      4  O   UNL     1      24.355  33.979  44.721  1.00  0.00    -0.285 OA
ATOM      5  C   UNL     1      22.323  35.042  45.155  1.00  0.00     0.111 A 
ATOM      6  C   UNL     1      22.674  35.587  46.427  1.00  0.00     0.134 A 
ATOM      7  C   UNL     1      21.805  36.489  47.054  1.00  0.00     0.093 A 
ATOM      8  C   UNL     1      20.571  36.814  46.486  1.00  0.00     0.123 A 
ATOM      9  C   UNL     1      20.194  36.240  45.275  1.00  0.00     0.094 A 
ATOM     10  C   UNL     1      21.055  35.364  44.607  1.00  0.00     0.146 A 
ATOM     11  O   UNL     1      20.662  34.848  43.449  1.00  0.00    -0.452 OA
ENDROOT
BRANCH   1  12
ATOM     12  C   UNL     1      20.843  33.498  41.460  1.00  0.00     0.021 A 
ATOM     13  C   UNL     1      20.905  34.278  40.294  1.00  0.00     0.016 A 
ATOM     14  C   UNL     1      20.357  33.808  39.097  1.00  0.00     0.047 A 
ATOM     15  C   UNL     1      19.726  32.561  39.053  1.00  0.00     0.115 A 
ATOM     16  C   UNL     1      20.189  32.252  41.414  1.00  0.00     0.016 A 
ATOM     17  C   UNL     1      19.642  31.785  40.216  1.00  0.00     0.047 A 
BRANCH  15  18
ATOM     18  O   UNL     1      19.184  32.105  37.853  1.00  0.00    -0.508 OA
ATOM     19  H   UNL     1      19.663  32.245  36.970  1.00  0.00     0.293 HD
ENDBRANCH  15  18
ENDBRANCH   1  12
BRANCH   2  20
ATOM     20  O   UNL     1      23.539  32.915  42.349  1.00  0.00    -0.502 OA
ATOM     21  H   UNL     1      23.253  32.009  42.001  1.00  0.00     0.293 HD
ENDBRANCH   2  20
BRANCH   6  22
ATOM     22  O   UNL     1      23.840  35.257  47.123  1.00  0.00    -0.507 OA
ATOM     23  H   UNL     1      24.415  35.916  47.628  1.00  0.00     0.293 HD
ENDBRANCH   6  22
BRANCH   8  24
ATOM     24  O   UNL     1      19.706  37.699  47.125  1.00  0.00    -0.508 OA
ATOM     25  H   UNL     1      19.824  37.945  48.101  1.00  0.00     0.293 HD
ENDBRANCH   8  24
TORSDOF 5
ENDMDL
MODEL 4
REMARK VINA RESULT:    -4.030      1.450      3.054
REMARK INTER + INTRA:          -4.968
REMARK INTER:                  -4.668
REMARK INTRA:                  -0.299
REMARK UNBOUND:                -0.231
REMARK SMILES O=c1c(O)c(-c2ccc(O)cc2)oc2cc(O)cc(O)c12
REMARK SMILES IDX 5 1 3 2 2 3 1 4 21 5 19 6 18 7 16 8 15 9 14 10 13 11 6 12
REMARK SMILES IDX 7 13 8 14 9 15 12 16 11 17 10 18 4 20 20 22 17 24
REMARK H PARENT 10 19 4 21 20 23 17 25
REMARK Flexibility Score: inf
ROOT
ATOM      1  C   UNL     1      19.117  34.940  44.587  1.00  0.00     0.180 A 
ATOM      2  C   UNL     1      19.733  36.134  45.003  1.00  0.00     0.208 A 
ATOM      3  C   UNL     1      20.971  36.067  45.662  1.00  0.00     0.238 A 
ATOM      4  O   UNL     1      21.491  37.134  46.080  1.00  0.00    -0.285 OA
ATOM      5  C   UNL     1      21.585  34.810  45.883  1.00  0.00     0.111 A 
ATOM      6  C   UNL     1      22.856  34.629  46.505  1.00  0.00     0.134 A 
ATOM      7  C   UNL     1      23.307  33.333  46.789  1.00  0.00     0.093 A 
ATOM      8  C   UNL     1      22.561  32.213  46.415  1.00  0.00     0.123 A 
ATOM      9  C   UNL     1      21.347  32.379  45.754  1.00  0.00     0.094 A 
ATOM     10  C   UNL     1      20.854  33.659  45.489  1.00  0.00     0.146 A 
ATOM     11  O   UNL     1      19.687  33.774  44.866  1.00  0.00    -0.452 OA
ENDROOT
BRANCH   1  12
ATOM     12  C   UNL     1      17.825  34.931  43.863  1.00  0.00     0.021 A 
ATOM     13  C   UNL     1      16.632  34.746  44.582  1.00  0.00     0.016 A 
ATOM     14  C   UNL     1      15.403  34.712  43.916  1.00  0.00     0.047 A 
ATOM     15  C   UNL     1      15.351  34.847  42.525  1.00  0.00     0.115 A 
ATOM     16  C   UNL     1      17.768  35.045  42.462  1.00  0.00     0.016 A 
ATOM     17  C   UNL     1      16.537  35.011  41.799  1.00  0.00     0.047 A 
BRANCH  15  18
ATOM     18  O   UNL     1      14.119  34.811  41.875  1.00  0.00    -0.508 OA
ATOM     19  H   UNL     1      13.250  34.921  42.385  1.00  0.00     0.293 HD
ENDBRANCH  15  18
ENDBRANCH   1  12
BRANCH   2  20
ATOM     20  O   UNL     1      19.100  37.361  44.794  1.00  0.00    -0.502 OA
ATOM     21  H   UNL     1      18.443  37.754  45.457  1.00  0.00     0.293 HD
ENDBRANCH   2  20
BRANCH   6  22
ATOM     22  O   UNL     1      23.721  35.676  46.835  1.00  0.00    -0.507 OA
ATOM     23  H   UNL     1      24.570  35.899  46.338  1.00  0.00     0.293 HD
ENDBRANCH   6  22
BRANCH   8  24
ATOM     24  O   UNL     1      23.024  30.927  46.688  1.00  0.00    -0.508 OA
ATOM     25  H   UNL     1      23.839  30.769  47.269  1.00  0.00     0.293 HD
ENDBRANCH   8  24
TORSDOF 5
ENDMDL
MODEL 5
REMARK VINA RESULT:    -3.993      2.083      6.975
REMARK INTER + INTRA:          -4.924
REMARK INTER:                  -4.624
REMARK INTRA:                  -0.300
REMARK UNBOUND:                -0.231
REMARK SMILES O=c1c(O)c(-c2ccc(O)cc2)oc2cc(O)cc(O)c12
REMARK SMILES IDX 5 1 3 2 2 3 1 4 21 5 19 6 18 7 16 8 15 9 14 10 13 11 6 12
REMARK SMILES IDX 7 13 8 14 9 15 12 16 11 17 10 18 4 20 20 22 17 24
REMARK H PARENT 10 19 4 21 20 23 17 25
REMARK Flexibility Score: inf
ROOT
ATOM      1  C   UNL     1      17.837  35.316  44.245  1.00  0.00     0.180 A 
ATOM      2  C   UNL     1      16.767  34.793  44.990  1.00  0.00     0.208 A 
ATOM      3  C   UNL     1      15.636  34.309  44.312  1.00  0.00     0.238 A 
ATOM      4  O   UNL     1      14.659  33.892  44.986  1.00  0.00    -0.285 OA
ATOM      5  C   UNL     1      15.598  34.340  42.896  1.00  0.00     0.111 A 
ATOM      6  C   UNL     1      14.521  33.840  42.105  1.00  0.00     0.134 A 
ATOM      7  C   UNL     1      14.531  34.041  40.718  1.00  0.00     0.093 A 
ATOM      8  C   UNL     1      15.611  34.666  40.090  1.00  0.00     0.123 A 
ATOM      9  C   UNL     1      16.694  35.103  40.848  1.00  0.00     0.094 A 
ATOM     10  C   UNL     1      16.696  34.950  42.236  1.00  0.00     0.146 A 
ATOM     11  O   UNL     1      17.744  35.391  42.922  1.00  0.00    -0.452 OA
ENDROOT
BRANCH   1  12
ATOM     12  C   UNL     1      19.072  35.821  44.887  1.00  0.00     0.021 A 
ATOM     13  C   UNL     1      19.194  37.192  45.170  1.00  0.00     0.016 A 
ATOM     14  C   UNL     1      20.361  37.693  45.756  1.00  0.00     0.047 A 
ATOM     15  C   UNL     1      21.424  36.835  46.053  1.00  0.00     0.115 A 
ATOM     16  C   UNL     1      20.154  34.966  45.170  1.00  0.00     0.016 A 
ATOM     17  C   UNL     1      21.319  35.470  45.756  1.00  0.00     0.047 A 
BRANCH  15  18
ATOM     18  O   UNL     1      22.580  37.349  46.637  1.00  0.00    -0.508 OA
ATOM     19  H   UNL     1      22.784  37.207  47.620  1.00  0.00     0.293 HD
ENDBRANCH  15  18
ENDBRANCH   1  12
BRANCH   2  20
ATOM     20  O   UNL     1      16.816  34.791  46.386  1.00  0.00    -0.502 OA
ATOM     21  H   UNL     1      15.985  34.716  46.960  1.00  0.00     0.293 HD
ENDBRANCH   2  20
BRANCH   6  22
ATOM     22  O   UNL     1      13.439  33.120  42.622  1.00  0.00    -0.507 OA
ATOM     23  H   UNL     1      13.397  32.738  43.555  1.00  0.00     0.293 HD
ENDBRANCH   6  22
BRANCH   8  24
ATOM     24  O   UNL     1      15.621  34.848  38.708  1.00  0.00    -0.508 OA
ATOM     25  H   UNL     1      16.484  34.834  38.178  1.00  0.00     0.293 HD
ENDBRANCH   8  24
TORSDOF 5
ENDMDL
MODEL 6
REMARK VINA RESULT:    -3.929      3.447      4.542
REMARK INTER + INTRA:          -4.849
REMARK INTER:                  -4.561
REMARK INTRA:                  -0.289
REMARK UNBOUND:                -0.231
REMARK SMILES O=c1c(O)c(-c2ccc(O)cc2)oc2cc(O)cc(O)c12
REMARK SMILES IDX 5 1 3 2 2 3 1 4 21 5 19 6 18 7 16 8 15 9 14 10 13 11 6 12
REMARK SMILES IDX 7 13 8 14 9 15 12 16 11 17 10 18 4 20 20 22 17 24
REMARK H PARENT 10 19 4 21 20 23 17 25
REMARK Flexibility Score: inf
ROOT
ATOM      1  C   UNL     1      21.675  33.920  42.592  1.00  0.00     0.180 A 
ATOM      2  C   UNL     1      21.062  34.661  43.618  1.00  0.00     0.208 A 
ATOM      3  C   UNL     1      21.779  34.912  44.799  1.00  0.00     0.238 A 
ATOM      4  O   UNL     1      21.205  35.528  45.734  1.00  0.00    -0.285 OA
ATOM      5  C   UNL     1      23.105  34.434  44.934  1.00  0.00     0.111 A 
ATOM      6  C   UNL     1      23.937  34.664  46.070  1.00  0.00     0.134 A 
ATOM      7  C   UNL     1      25.185  34.034  46.151  1.00  0.00     0.093 A 
ATOM      8  C   UNL     1      25.656  33.233  45.107  1.00  0.00     0.123 A 
ATOM      9  C   UNL     1      24.877  33.051  43.968  1.00  0.00     0.094 A 
ATOM     10  C   UNL     1      23.612  33.638  43.873  1.00  0.00     0.146 A 
ATOM     11  O   UNL     1      22.896  33.430  42.775  1.00  0.00    -0.452 OA
ENDROOT
BRANCH   1  12
ATOM     12  C   UNL     1      20.994  33.637  41.309  1.00  0.00     0.021 A 
ATOM     13  C   UNL     1      21.119  34.545  40.244  1.00  0.00     0.016 A 
ATOM     14  C   UNL     1      20.466  34.308  39.031  1.00  0.00     0.047 A 
ATOM     15  C   UNL     1      19.669  33.170  38.871  1.00  0.00     0.115 A 
ATOM     16  C   UNL     1      20.174  32.504  41.148  1.00  0.00     0.016 A 
ATOM     17  C   UNL     1      19.522  32.270  39.934  1.00  0.00     0.047 A 
BRANCH  15  18
ATOM     18  O   UNL     1      19.024  32.947  37.656  1.00  0.00    -0.508 OA
ATOM     19  H   UNL     1      19.524  32.586  36.851  1.00  0.00     0.293 HD
ENDBRANCH  15  18
ENDBRANCH   1  12
BRANCH   2  20
ATOM     20  O   UNL     1      19.745  35.105  43.473  1.00  0.00    -0.502 OA
ATOM     21  H   UNL     1      19.518  36.050  43.191  1.00  0.00     0.293 HD
ENDBRANCH   2  20
BRANCH   6  22
ATOM     22  O   UNL     1      23.600  35.518  47.124  1.00  0.00    -0.507 OA
ATOM     23  H   UNL     1      23.064  36.367  47.028  1.00  0.00     0.293 HD
ENDBRANCH   6  22
BRANCH   8  24
ATOM     24  O   UNL     1      26.906  32.623  45.189  1.00  0.00    -0.508 OA
ATOM     25  H   UNL     1      27.575  32.877  45.906  1.00  0.00     0.293 HD
ENDBRANCH   8  24
TORSDOF 5
ENDMDL
MODEL 7
REMARK VINA RESULT:    -3.918      2.581      3.901
REMARK INTER + INTRA:          -4.836
REMARK INTER:                  -4.547
REMARK INTRA:                  -0.289
REMARK UNBOUND:                -0.231
REMARK SMILES O=c1c(O)c(-c2ccc(O)cc2)oc2cc(O)cc(O)c12
REMARK SMILES IDX 5 1 3 2 2 3 1 4 21 5 19 6 18 7 16 8 15 9 14 10 13 11 6 12
REMARK SMILES IDX 7 13 8 14 9 15 12 16 11 17 10 18 4 20 20 22 17 24
REMARK H PARENT 10 19 4 21 20 23 17 25
REMARK Flexibility Score: inf
ROOT
ATOM      1  C   UNL     1      20.137  34.220  43.073  1.00  0.00     0.180 A 
ATOM      2  C   UNL     1      19.263  35.162  43.642  1.00  0.00     0.208 A 
ATOM      3  C   UNL     1      19.680  35.883  44.773  1.00  0.00     0.238 A 
ATOM      4  O   UNL     1      18.873  36.685  45.310  1.00  0.00    -0.285 OA
ATOM      5  C   UNL     1      20.972  35.664  45.310  1.00  0.00     0.111 A 
ATOM      6  C   UNL     1      21.513  36.367  46.429  1.00  0.00     0.134 A 
ATOM      7  C   UNL     1      22.751  35.978  46.955  1.00  0.00     0.093 A 
ATOM      8  C   UNL     1      23.496  34.954  46.363  1.00  0.00     0.123 A 
ATOM      9  C   UNL     1      23.003  34.303  45.236  1.00  0.00     0.094 A 
ATOM     10  C   UNL     1      21.755  34.644  44.709  1.00  0.00     0.146 A 
ATOM     11  O   UNL     1      21.317  33.991  43.639  1.00  0.00    -0.452 OA
ENDROOT
BRANCH   1  12
ATOM     12  C   UNL     1      19.779  33.440  41.866  1.00  0.00     0.021 A 
ATOM     13  C   UNL     1      20.043  33.975  40.594  1.00  0.00     0.016 A 
ATOM     14  C   UNL     1      19.693  33.266  39.442  1.00  0.00     0.047 A 
ATOM     15  C   UNL     1      19.062  32.022  39.544  1.00  0.00     0.115 A 
ATOM     16  C   UNL     1      19.126  32.198  41.963  1.00  0.00     0.016 A 
ATOM     17  C   UNL     1      18.777  31.491  40.808  1.00  0.00     0.047 A 
BRANCH  15  18
ATOM     18  O   UNL     1      18.720  31.326  38.386  1.00  0.00    -0.508 OA
ATOM     19  H   UNL     1      17.915  30.710  38.358  1.00  0.00     0.293 HD
ENDBRANCH  15  18
ENDBRANCH   1  12
BRANCH   2  20
ATOM     20  O   UNL     1      17.985  35.346  43.109  1.00  0.00    -0.502 OA
ATOM     21  H   UNL     1      17.739  36.155  42.553  1.00  0.00     0.293 HD
ENDBRANCH   2  20
BRANCH   6  22
ATOM     22  O   UNL     1      20.894  37.463  47.036  1.00  0.00    -0.507 OA
ATOM     23  H   UNL     1      21.273  38.398  47.059  1.00  0.00     0.293 HD
ENDBRANCH   6  22
BRANCH   8  24
ATOM     24  O   UNL     1      24.734  34.584  46.884  1.00  0.00    -0.508 OA
ATOM     25  H   UNL     1      25.601  34.915  46.478  1.00  0.00     0.293 HD
ENDBRANCH   8  24
TORSDOF 5
ENDMDL
MODEL 8
REMARK VINA RESULT:    -3.859      2.276      6.873
REMARK INTER + INTRA:          -4.767
REMARK INTER:                  -4.467
REMARK INTRA:                  -0.300
REMARK UNBOUND:                -0.231
REMARK SMILES O=c1c(O)c(-c2ccc(O)cc2)oc2cc(O)cc(O)c12
REMARK SMILES IDX 5 1 3 2 2 3 1 4 21 5 19 6 18 7 16 8 15 9 14 10 13 11 6 12
REMARK SMILES IDX 7 13 8 14 9 15 12 16 11 17 10 18 4 20 20 22 17 24
REMARK H PARENT 10 19 4 21 20 23 17 25
REMARK Flexibility Score: inf
ROOT
ATOM      1  C   UNL     1      17.696  35.277  44.664  1.00  0.00     0.180 A 
ATOM      2  C   UNL     1      17.509  34.916  43.318  1.00  0.00     0.208 A 
ATOM      3  C   UNL     1      16.260  34.415  42.915  1.00  0.00     0.238 A 
ATOM      4  O   UNL     1      16.115  34.043  41.722  1.00  0.00    -0.285 OA
ATOM      5  C   UNL     1      15.211  34.297  43.858  1.00  0.00     0.111 A 
ATOM      6  C   UNL     1      13.894  33.839  43.551  1.00  0.00     0.134 A 
ATOM      7  C   UNL     1      12.973  33.639  44.588  1.00  0.00     0.093 A 
ATOM      8  C   UNL     1      13.303  33.941  45.912  1.00  0.00     0.123 A 
ATOM      9  C   UNL     1      14.566  34.445  46.213  1.00  0.00     0.094 A 
ATOM     10  C   UNL     1      15.518  34.621  45.206  1.00  0.00     0.146 A 
ATOM     11  O   UNL     1      16.713  35.093  45.537  1.00  0.00    -0.452 OA
ENDROOT
BRANCH   1  12
ATOM     12  C   UNL     1      18.975  35.836  45.159  1.00  0.00     0.021 A 
ATOM     13  C   UNL     1      19.925  34.980  45.739  1.00  0.00     0.016 A 
ATOM     14  C   UNL     1      21.130  35.490  46.233  1.00  0.00     0.047 A 
ATOM     15  C   UNL     1      21.393  36.862  46.167  1.00  0.00     0.115 A 
ATOM     16  C   UNL     1      19.238  37.218  45.113  1.00  0.00     0.016 A 
ATOM     17  C   UNL     1      20.443  37.725  45.608  1.00  0.00     0.047 A 
BRANCH  15  18
ATOM     18  O   UNL     1      22.599  37.355  46.663  1.00  0.00    -0.508 OA
ATOM     19  H   UNL     1      23.054  38.157  46.242  1.00  0.00     0.293 HD
ENDBRANCH  15  18
ENDBRANCH   1  12
BRANCH   2  20
ATOM     20  O   UNL     1      18.564  35.020  42.409  1.00  0.00    -0.502 OA
ATOM     21  H   UNL     1      19.424  35.507  42.627  1.00  0.00     0.293 HD
ENDBRANCH   2  20
BRANCH   6  22
ATOM     22  O   UNL     1      13.434  33.596  42.254  1.00  0.00    -0.507 OA
ATOM     23  H   UNL     1      13.602  32.748  41.733  1.00  0.00     0.293 HD
ENDBRANCH   6  22
BRANCH   8  24
ATOM     24  O   UNL     1      12.376  33.753  46.935  1.00  0.00    -0.508 OA
ATOM     25  H   UNL     1      11.379  33.747  46.753  1.00  0.00     0.293 HD
ENDBRANCH   8  24
TORSDOF 5
ENDMDL
MODEL 9
REMARK VINA RESULT:    -3.828      1.458      3.172
REMARK INTER + INTRA:          -4.730
REMARK INTER:                  -4.473
REMARK INTRA:                  -0.257
REMARK UNBOUND:                -0.231
REMARK SMILES O=c1c(O)c(-c2ccc(O)cc2)oc2cc(O)cc(O)c12
REMARK SMILES IDX 5 1 3 2 2 3 1 4 21 5 19 6 18 7 16 8 15 9 14 10 13 11 6 12
REMARK SMILES IDX 7 13 8 14 9 15 12 16 11 17 10 18 4 20 20 22 17 24
REMARK H PARENT 10 19 4 21 20 23 17 25
REMARK Flexibility Score: inf
ROOT
ATOM      1  C   UNL     1      19.004  34.837  44.595  1.00  0.00     0.180 A 
ATOM      2  C   UNL     1      19.143  35.804  45.606  1.00  0.00     0.208 A 
ATOM      3  C   UNL     1      20.407  36.011  46.182  1.00  0.00     0.238 A 
ATOM      4  O   UNL     1      20.515  36.839  47.122  1.00  0.00    -0.285 OA
ATOM      5  C   UNL     1      21.518  35.259  45.729  1.00  0.00     0.111 A 
ATOM      6  C   UNL     1      22.852  35.413  46.214  1.00  0.00     0.134 A 
ATOM      7  C   UNL     1      23.849  34.526  45.787  1.00  0.00     0.093 A 
ATOM      8  C   UNL     1      23.573  33.532  44.846  1.00  0.00     0.123 A 
ATOM      9  C   UNL     1      22.288  33.412  44.322  1.00  0.00     0.094 A 
ATOM     10  C   UNL     1      21.264  34.259  44.754  1.00  0.00     0.146 A 
ATOM     11  O   UNL     1      20.051  34.103  44.238  1.00  0.00    -0.452 OA
ENDROOT
BRANCH   1  12
ATOM     12  C   UNL     1      17.710  34.580  43.923  1.00  0.00     0.021 A 
ATOM     13  C   UNL     1      17.448  35.176  42.677  1.00  0.00     0.016 A 
ATOM     14  C   UNL     1      16.224  34.965  42.035  1.00  0.00     0.047 A 
ATOM     15  C   UNL     1      15.242  34.170  42.635  1.00  0.00     0.115 A 
ATOM     16  C   UNL     1      16.710  33.799  44.530  1.00  0.00     0.016 A 
ATOM     17  C   UNL     1      15.487  33.590  43.885  1.00  0.00     0.047 A 
BRANCH  15  18
ATOM     18  O   UNL     1      14.027  33.969  41.982  1.00  0.00    -0.508 OA
ATOM     19  H   UNL     1      13.722  33.043  41.708  1.00  0.00     0.293 HD
ENDBRANCH  15  18
ENDBRANCH   1  12
BRANCH   2  20
ATOM     20  O   UNL     1      18.029  36.520  46.052  1.00  0.00    -0.502 OA
ATOM     21  H   UNL     1      17.428  36.183  46.794  1.00  0.00     0.293 HD
ENDBRANCH   2  20
BRANCH   6  22
ATOM     22  O   UNL     1      23.253  36.430  47.085  1.00  0.00    -0.507 OA
ATOM     23  H   UNL     1      23.112  36.420  48.084  1.00  0.00     0.293 HD
ENDBRANCH   6  22
BRANCH   8  24
ATOM     24  O   UNL     1      24.574  32.664  44.415  1.00  0.00    -0.508 OA
ATOM     25  H   UNL     1      25.436  32.549  44.935  1.00  0.00     0.293 HD
ENDBRANCH   8  24
TORSDOF 5
ENDMDL
