MODEL 1
REMARK VINA RESULT:    -5.350      0.000      0.000
REMARK INTER + INTRA:          -5.507
REMARK INTER:                  -5.507
REMARK INTRA:                   0.000
REMARK UNBOUND:                 0.000
REMARK SMILES O=c1ccc2ccc(O)cc2o1
REMARK SMILES IDX 6 1 7 2 8 3 10 4 11 5 5 6 4 7 3 8 2 9 1 10 12 11 9 12
REMARK H PARENT 9 13
REMARK Flexibility Score: inf
ROOT
ATOM      1  C   UNL     1      -8.985  -9.985  27.653  1.00  0.00     0.016 A 
ATOM      2  C   UNL     1      -9.922  -9.237  28.372  1.00  0.00     0.047 A 
ATOM      3  C   UNL     1      -9.727  -8.979  29.735  1.00  0.00     0.119 A 
ATOM      4  C   UNL     1      -8.585  -9.472  30.383  1.00  0.00     0.094 A 
ATOM      5  C   UNL     1      -7.642 -10.222  29.671  1.00  0.00     0.142 A 
ATOM      6  C   UNL     1      -7.843 -10.480  28.297  1.00  0.00     0.018 A 
ATOM      7  C   UNL     1      -6.882 -11.231  27.613  1.00  0.00     0.019 A 
ATOM      8  C   UNL     1      -5.763 -11.700  28.300  1.00  0.00     0.094 A 
ATOM      9  C   UNL     1      -5.630 -11.405  29.662  1.00  0.00     0.336 A 
ATOM     10  O   UNL     1      -4.627 -11.820  30.299  1.00  0.00    -0.246 OA
ATOM     11  O   UNL     1      -6.558 -10.688  30.289  1.00  0.00    -0.423 OA
ENDROOT
BRANCH   3  12
ATOM     12  O   UNL     1     -10.672  -8.233  30.434  1.00  0.00    -0.508 OA
ATOM     13  H   UNL     1     -11.094  -8.578  31.287  1.00  0.00     0.293 HD
ENDBRANCH   3  12
TORSDOF 1
ENDMDL
MODEL 2
REMARK VINA RESULT:    -5.099      1.512      2.472
REMARK INTER + INTRA:          -5.248
REMARK INTER:                  -5.248
REMARK INTRA:                   0.000
REMARK UNBOUND:                 0.000
REMARK SMILES O=c1ccc2ccc(O)cc2o1
REMARK SMILES IDX 6 1 7 2 8 3 10 4 11 5 5 6 4 7 3 8 2 9 1 10 12 11 9 12
REMARK H PARENT 9 13
REMARK Flexibility Score: inf
ROOT
ATOM      1  C   UNL     1      -8.367  -8.025  30.952  1.00  0.00     0.016 A 
ATOM      2  C   UNL     1      -9.511  -8.141  30.156  1.00  0.00     0.047 A 
ATOM      3  C   UNL     1      -9.609  -9.161  29.202  1.00  0.00     0.119 A 
ATOM      4  C   UNL     1      -8.556 -10.074  29.043  1.00  0.00     0.094 A 
ATOM      5  C   UNL     1      -7.407  -9.965  29.835  1.00  0.00     0.142 A 
ATOM      6  C   UNL     1      -7.312  -8.934  30.796  1.00  0.00     0.018 A 
ATOM      7  C   UNL     1      -6.152  -8.852  31.572  1.00  0.00     0.019 A 
ATOM      8  C   UNL     1      -5.131  -9.782  31.377  1.00  0.00     0.094 A 
ATOM      9  C   UNL     1      -5.295 -10.777  30.407  1.00  0.00     0.336 A 
ATOM     10  O   UNL     1      -4.384 -11.625  30.217  1.00  0.00    -0.246 OA
ATOM     11  O   UNL     1      -6.409 -10.833  29.682  1.00  0.00    -0.423 OA
ENDROOT
BRANCH   3  12
ATOM     12  O   UNL     1     -10.757  -9.260  28.419  1.00  0.00    -0.508 OA
ATOM     13  H   UNL     1     -11.018  -8.531  27.767  1.00  0.00     0.293 HD
ENDBRANCH   3  12
TORSDOF 1
ENDMDL
MODEL 3
REMARK VINA RESULT:    -5.061      1.924      3.566
REMARK INTER + INTRA:          -5.209
REMARK INTER:                  -5.209
REMARK INTRA:                   0.000
REMARK UNBOUND:                 0.000
REMARK SMILES O=c1ccc2ccc(O)cc2o1
REMARK SMILES IDX 6 1 7 2 8 3 10 4 11 5 5 6 4 7 3 8 2 9 1 10 12 11 9 12
REMARK H PARENT 9 13
REMARK Flexibility Score: inf
ROOT
ATOM      1  C   UNL     1      -9.793  -8.907  28.592  1.00  0.00     0.016 A 
ATOM      2  C   UNL     1      -9.451  -9.705  27.496  1.00  0.00     0.047 A 
ATOM      3  C   UNL     1      -8.227 -10.386  27.471  1.00  0.00     0.119 A 
ATOM      4  C   UNL     1      -7.338 -10.268  28.550  1.00  0.00     0.094 A 
ATOM      5  C   UNL     1      -7.672  -9.471  29.651  1.00  0.00     0.142 A 
ATOM      6  C   UNL     1      -8.908  -8.786  29.672  1.00  0.00     0.018 A 
ATOM      7  C   UNL     1      -9.213  -7.998  30.787  1.00  0.00     0.019 A 
ATOM      8  C   UNL     1      -8.298  -7.911  31.835  1.00  0.00     0.094 A 
ATOM      9  C   UNL     1      -7.094  -8.618  31.744  1.00  0.00     0.336 A 
ATOM     10  O   UNL     1      -6.255  -8.551  32.681  1.00  0.00    -0.246 OA
ATOM     11  O   UNL     1      -6.827  -9.361  30.673  1.00  0.00    -0.423 OA
ENDROOT
BRANCH   3  12
ATOM     12  O   UNL     1      -7.904 -11.176  26.370  1.00  0.00    -0.508 OA
ATOM     13  H   UNL     1      -8.437 -12.006  26.140  1.00  0.00     0.293 HD
ENDBRANCH   3  12
TORSDOF 1
ENDMDL
MODEL 4
REMARK VINA RESULT:    -5.023      2.236      2.967
REMARK INTER + INTRA:          -5.170
REMARK INTER:                  -5.170
REMARK INTRA:                   0.000
REMARK UNBOUND:                 0.000
REMARK SMILES O=c1ccc2ccc(O)cc2o1
REMARK SMILES IDX 6 1 7 2 8 3 10 4 11 5 5 6 4 7 3 8 2 9 1 10 12 11 9 12
REMARK H PARENT 9 13
REMARK Flexibility Score: inf
ROOT
ATOM      1  C   UNL     1      -7.387 -10.109  28.546  1.00  0.00     0.016 A 
ATOM      2  C   UNL     1      -8.694  -9.999  28.061  1.00  0.00     0.047 A 
ATOM      3  C   UNL     1      -9.642  -9.232  28.750  1.00  0.00     0.119 A 
ATOM      4  C   UNL     1      -9.281  -8.569  29.933  1.00  0.00     0.094 A 
ATOM      5  C   UNL     1      -7.975  -8.674  30.425  1.00  0.00     0.142 A 
ATOM      6  C   UNL     1      -7.022  -9.449  29.727  1.00  0.00     0.018 A 
ATOM      7  C   UNL     1      -5.725  -9.534  30.244  1.00  0.00     0.019 A 
ATOM      8  C   UNL     1      -5.413  -8.858  31.423  1.00  0.00     0.094 A 
ATOM      9  C   UNL     1      -6.408  -8.109  32.060  1.00  0.00     0.336 A 
ATOM     10  O   UNL     1      -6.145  -7.492  33.125  1.00  0.00    -0.246 OA
ATOM     11  O   UNL     1      -7.634  -8.044  31.547  1.00  0.00    -0.423 OA
ENDROOT
BRANCH   3  12
ATOM     12  O   UNL     1     -10.939  -9.135  28.252  1.00  0.00    -0.508 OA
ATOM     13  H   UNL     1     -11.333  -8.246  27.969  1.00  0.00     0.293 HD
ENDBRANCH   3  12
TORSDOF 1
ENDMDL
MODEL 5
REMARK VINA RESULT:    -5.016      1.486      4.083
REMARK INTER + INTRA:          -5.163
REMARK INTER:                  -5.163
REMARK INTRA:                   0.000
REMARK UNBOUND:                 0.000
REMARK SMILES O=c1ccc2ccc(O)cc2o1
REMARK SMILES IDX 6 1 7 2 8 3 10 4 11 5 5 6 4 7 3 8 2 9 1 10 12 11 9 12
REMARK H PARENT 9 13
REMARK Flexibility Score: inf
ROOT
ATOM      1  C   UNL     1      -8.320 -10.373  27.725  1.00  0.00     0.016 A 
ATOM      2  C   UNL     1      -7.256 -11.256  27.517  1.00  0.00     0.047 A 
ATOM      3  C   UNL     1      -6.241 -11.379  28.475  1.00  0.00     0.119 A 
ATOM      4  C   UNL     1      -6.291 -10.615  29.650  1.00  0.00     0.094 A 
ATOM      5  C   UNL     1      -7.352  -9.729  29.866  1.00  0.00     0.142 A 
ATOM      6  C   UNL     1      -8.374  -9.606  28.898  1.00  0.00     0.018 A 
ATOM      7  C   UNL     1      -9.422  -8.713  29.144  1.00  0.00     0.019 A 
ATOM      8  C   UNL     1      -9.428  -7.975  30.326  1.00  0.00     0.094 A 
ATOM      9  C   UNL     1      -8.382  -8.148  31.240  1.00  0.00     0.336 A 
ATOM     10  O   UNL     1      -8.371  -7.489  32.313  1.00  0.00    -0.246 OA
ATOM     11  O   UNL     1      -7.398  -9.004  30.982  1.00  0.00    -0.423 OA
ENDROOT
BRANCH   3  12
ATOM     12  O   UNL     1      -5.189 -12.264  28.249  1.00  0.00    -0.508 OA
ATOM     13  H   UNL     1      -4.440 -12.042  27.605  1.00  0.00     0.293 HD
ENDBRANCH   3  12
TORSDOF 1
ENDMDL
MODEL 6
REMARK VINA RESULT:    -4.640      8.475      9.393
REMARK INTER + INTRA:          -4.775
REMARK INTER:                  -4.775
REMARK INTRA:                   0.000
REMARK UNBOUND:                 0.000
REMARK SMILES O=c1ccc2ccc(O)cc2o1
REMARK SMILES IDX 6 1 7 2 8 3 10 4 11 5 5 6 4 7 3 8 2 9 1 10 12 11 9 12
REMARK H PARENT 9 13
REMARK Flexibility Score: inf
ROOT
ATOM      1  C   UNL     1      -9.206 -13.935  19.188  1.00  0.00     0.016 A 
ATOM      2  C   UNL     1      -9.765 -12.689  18.887  1.00  0.00     0.047 A 
ATOM      3  C   UNL     1     -10.448 -11.964  19.871  1.00  0.00     0.119 A 
ATOM      4  C   UNL     1     -10.573 -12.488  21.167  1.00  0.00     0.094 A 
ATOM      5  C   UNL     1     -10.017 -13.734  21.476  1.00  0.00     0.142 A 
ATOM      6  C   UNL     1      -9.328 -14.463  20.480  1.00  0.00     0.018 A 
ATOM      7  C   UNL     1      -8.782 -15.704  20.821  1.00  0.00     0.019 A 
ATOM      8  C   UNL     1      -8.932 -16.184  22.121  1.00  0.00     0.094 A 
ATOM      9  C   UNL     1      -9.626 -15.408  23.055  1.00  0.00     0.336 A 
ATOM     10  O   UNL     1      -9.772 -15.825  24.234  1.00  0.00    -0.246 OA
ATOM     11  O   UNL     1     -10.136 -14.229  22.706  1.00  0.00    -0.423 OA
ENDROOT
BRANCH   3  12
ATOM     12  O   UNL     1     -10.999 -10.725  19.552  1.00  0.00    -0.508 OA
ATOM     13  H   UNL     1     -11.456 -10.152  20.252  1.00  0.00     0.293 HD
ENDBRANCH   3  12
TORSDOF 1
ENDMDL
MODEL 7
REMARK VINA RESULT:    -4.611     14.806     15.737
REMARK INTER + INTRA:          -4.746
REMARK INTER:                  -4.746
REMARK INTRA:                   0.000
REMARK UNBOUND:                 0.000
REMARK SMILES O=c1ccc2ccc(O)cc2o1
REMARK SMILES IDX 6 1 7 2 8 3 10 4 11 5 5 6 4 7 3 8 2 9 1 10 12 11 9 12
REMARK H PARENT 9 13
REMARK Flexibility Score: inf
ROOT
ATOM      1  C   UNL     1     -18.046 -19.695  18.679  1.00  0.00     0.016 A 
ATOM      2  C   UNL     1     -18.692 -18.820  17.801  1.00  0.00     0.047 A 
ATOM      3  C   UNL     1     -18.255 -17.496  17.671  1.00  0.00     0.119 A 
ATOM      4  C   UNL     1     -17.161 -17.044  18.425  1.00  0.00     0.094 A 
ATOM      5  C   UNL     1     -16.508 -17.913  19.306  1.00  0.00     0.142 A 
ATOM      6  C   UNL     1     -16.953 -19.248  19.434  1.00  0.00     0.018 A 
ATOM      7  C   UNL     1     -16.279 -20.092  20.322  1.00  0.00     0.019 A 
ATOM      8  C   UNL     1     -15.198 -19.597  21.049  1.00  0.00     0.094 A 
ATOM      9  C   UNL     1     -14.813 -18.264  20.871  1.00  0.00     0.336 A 
ATOM     10  O   UNL     1     -13.839 -17.800  21.520  1.00  0.00    -0.246 OA
ATOM     11  O   UNL     1     -15.471 -17.481  20.020  1.00  0.00    -0.423 OA
ENDROOT
BRANCH   3  12
ATOM     12  O   UNL     1     -18.912 -16.639  16.792  1.00  0.00    -0.508 OA
ATOM     13  H   UNL     1     -19.050 -16.883  15.819  1.00  0.00     0.293 HD
ENDBRANCH   3  12
TORSDOF 1
ENDMDL
MODEL 8
REMARK VINA RESULT:    -4.600     13.819     15.057
REMARK INTER + INTRA:          -4.734
REMARK INTER:                  -4.734
REMARK INTRA:                   0.000
REMARK UNBOUND:                 0.000
REMARK SMILES O=c1ccc2ccc(O)cc2o1
REMARK SMILES IDX 6 1 7 2 8 3 10 4 11 5 5 6 4 7 3 8 2 9 1 10 12 11 9 12
REMARK H PARENT 9 13
REMARK Flexibility Score: inf
ROOT
ATOM      1  C   UNL     1     -15.477 -20.279  21.301  1.00  0.00     0.016 A 
ATOM      2  C   UNL     1     -14.346 -19.935  22.048  1.00  0.00     0.047 A 
ATOM      3  C   UNL     1     -13.726 -18.692  21.863  1.00  0.00     0.119 A 
ATOM      4  C   UNL     1     -14.242 -17.786  20.924  1.00  0.00     0.094 A 
ATOM      5  C   UNL     1     -15.372 -18.123  20.172  1.00  0.00     0.142 A 
ATOM      6  C   UNL     1     -15.994 -19.377  20.361  1.00  0.00     0.018 A 
ATOM      7  C   UNL     1     -17.124 -19.683  19.595  1.00  0.00     0.019 A 
ATOM      8  C   UNL     1     -17.598 -18.751  18.674  1.00  0.00     0.094 A 
ATOM      9  C   UNL     1     -16.931 -17.529  18.540  1.00  0.00     0.336 A 
ATOM     10  O   UNL     1     -17.346 -16.675  17.713  1.00  0.00    -0.246 OA
ATOM     11  O   UNL     1     -15.860 -17.261  19.281  1.00  0.00    -0.423 OA
ENDROOT
BRANCH   3  12
ATOM     12  O   UNL     1     -12.601 -18.368  22.617  1.00  0.00    -0.508 OA
ATOM     13  H   UNL     1     -12.628 -18.353  23.629  1.00  0.00     0.293 HD
ENDBRANCH   3  12
TORSDOF 1
ENDMDL
MODEL 9
REMARK VINA RESULT:    -4.563      7.962      8.826
REMARK INTER + INTRA:          -4.697
REMARK INTER:                  -4.697
REMARK INTRA:                   0.000
REMARK UNBOUND:                 0.000
REMARK SMILES O=c1ccc2ccc(O)cc2o1
REMARK SMILES IDX 6 1 7 2 8 3 10 4 11 5 5 6 4 7 3 8 2 9 1 10 12 11 9 12
REMARK H PARENT 9 13
REMARK Flexibility Score: inf
ROOT
ATOM      1  C   UNL     1      -9.875 -13.181  19.929  1.00  0.00     0.016 A 
ATOM      2  C   UNL     1     -10.701 -12.880  21.016  1.00  0.00     0.047 A 
ATOM      3  C   UNL     1     -10.172 -12.818  22.311  1.00  0.00     0.119 A 
ATOM      4  C   UNL     1      -8.806 -13.058  22.521  1.00  0.00     0.094 A 
ATOM      5  C   UNL     1      -7.972 -13.361  21.439  1.00  0.00     0.142 A 
ATOM      6  C   UNL     1      -8.510 -13.423  20.134  1.00  0.00     0.018 A 
ATOM      7  C   UNL     1      -7.650 -13.726  19.073  1.00  0.00     0.019 A 
ATOM      8  C   UNL     1      -6.300 -13.958  19.332  1.00  0.00     0.094 A 
ATOM      9  C   UNL     1      -5.838 -13.880  20.650  1.00  0.00     0.336 A 
ATOM     10  O   UNL     1      -4.622 -14.086  20.902  1.00  0.00    -0.246 OA
ATOM     11  O   UNL     1      -6.676 -13.589  21.641  1.00  0.00    -0.423 OA
ENDROOT
BRANCH   3  12
ATOM     12  O   UNL     1     -11.011 -12.516  23.381  1.00  0.00    -0.508 OA
ATOM     13  H   UNL     1     -11.977 -12.820  23.399  1.00  0.00     0.293 HD
ENDBRANCH   3  12
TORSDOF 1
ENDMDL
