MODEL 1
REMARK VINA RESULT:     0.635      0.000      0.000
REMARK INTER + INTRA:          -0.404
REMARK INTER:                   1.673
REMARK INTRA:                  -2.078
REMARK UNBOUND:                -2.078
REMARK SMILES CCCCCCCCCCCCCCCCCCCCCCCCCCCCCC(=O)[O-]
REMARK SMILES IDX 16 1 17 2 18 3 19 4 20 5 21 6 22 7 23 8 24 9 25 10 26 11
REMARK SMILES IDX 27 12 28 13 29 14 30 15 31 16 32 17 15 18 14 19 13 20 12 21
REMARK SMILES IDX 11 22 10 23 9 24 8 25 7 26 6 27 5 28 4 29 3 30 2 31 1 32
REMARK H PARENT
REMARK Flexibility Score: inf
ROOT
ATOM      1  C   UNL     1      14.943   4.440  14.702  1.00  0.00     0.000 C 
ENDROOT
BRANCH   1   2
ATOM      2  C   UNL     1      14.657   5.879  14.226  1.00  0.00     0.000 C 
BRANCH   2   3
ATOM      3  C   UNL     1      13.640   6.668  15.071  1.00  0.00     0.000 C 
BRANCH   3   4
ATOM      4  C   UNL     1      14.039   8.139  15.274  1.00  0.00     0.000 C 
BRANCH   4   5
ATOM      5  C   UNL     1      12.830   9.093  15.281  1.00  0.00     0.000 C 
BRANCH   5   6
ATOM      6  C   UNL     1      13.146  10.562  14.937  1.00  0.00     0.000 C 
BRANCH   6   7
ATOM      7  C   UNL     1      11.893  11.369  14.553  1.00  0.00     0.000 C 
BRANCH   7   8
ATOM      8  C   UNL     1      11.771  12.686  15.336  1.00  0.00     0.000 C 
BRANCH   8   9
ATOM      9  C   UNL     1      13.101  13.461  15.403  1.00  0.00     0.000 C 
BRANCH   9  10
ATOM     10  C   UNL     1      12.914  14.974  15.209  1.00  0.00     0.000 C 
BRANCH  10  11
ATOM     11  C   UNL     1      13.829  15.550  14.116  1.00  0.00     0.000 C 
BRANCH  11  12
ATOM     12  C   UNL     1      13.046  16.229  12.978  1.00  0.00     0.000 C 
BRANCH  12  13
ATOM     13  C   UNL     1      12.971  15.416  11.671  1.00  0.00     0.006 C 
BRANCH  13  14
ATOM     14  C   UNL     1      11.761  14.470  11.623  1.00  0.00     0.053 C 
BRANCH  14  15
ATOM     15  C   UNL     1      12.205  13.042  11.535  1.00  0.00     0.041 C 
ATOM     16  O   UNL     1      11.532  12.205  10.875  1.00  0.00    -0.550 OA
ATOM     17  O   UNL     1      13.356  12.627  12.198  1.00  0.00    -0.550 OA
ENDBRANCH  14  15
ENDBRANCH  13  14
ENDBRANCH  12  13
ENDBRANCH  11  12
ENDBRANCH  10  11
ENDBRANCH   9  10
ENDBRANCH   8   9
ENDBRANCH   7   8
ENDBRANCH   6   7
ENDBRANCH   5   6
ENDBRANCH   4   5
ENDBRANCH   3   4
ENDBRANCH   2   3
ENDBRANCH   1   2
BRANCH   1  18
ATOM     18  C   UNL     1      14.642   4.156  16.185  1.00  0.00     0.000 C 
BRANCH  18  19
ATOM     19  C   UNL     1      13.181   3.744  16.439  1.00  0.00     0.000 C 
BRANCH  19  20
ATOM     20  C   UNL     1      13.056   2.448  17.258  1.00  0.00     0.000 C 
BRANCH  20  21
ATOM     21  C   UNL     1      12.860   2.629  18.779  1.00  0.00     0.000 C 
BRANCH  21  22
ATOM     22  C   UNL     1      11.698   3.567  19.169  1.00  0.00     0.000 C 
BRANCH  22  23
ATOM     23  C   UNL     1      12.162   4.954  19.653  1.00  0.00     0.000 C 
BRANCH  23  24
ATOM     24  C   UNL     1      12.248   5.981  18.513  1.00  0.00    -0.000 C 
BRANCH  24  25
ATOM     25  C   UNL     1      13.463   6.918  18.643  1.00  0.00    -0.000 C 
BRANCH  25  26
ATOM     26  C   UNL     1      14.649   6.264  19.377  1.00  0.00    -0.000 C 
BRANCH  26  27
ATOM     27  C   UNL     1      15.617   7.249  20.065  1.00  0.00    -0.000 C 
BRANCH  27  28
ATOM     28  C   UNL     1      16.784   6.593  20.824  1.00  0.00    -0.000 C 
BRANCH  28  29
ATOM     29  C   UNL     1      16.342   5.908  22.126  1.00  0.00    -0.000 C 
BRANCH  29  30
ATOM     30  C   UNL     1      17.505   5.844  23.128  1.00  0.00    -0.000 C 
BRANCH  30  31
ATOM     31  C   UNL     1      18.186   4.466  23.160  1.00  0.00    -0.003 C 
ATOM     32  C   UNL     1      19.687   4.555  23.432  1.00  0.00     0.004 C 
ENDBRANCH  30  31
ENDBRANCH  29  30
ENDBRANCH  28  29
ENDBRANCH  27  28
ENDBRANCH  26  27
ENDBRANCH  25  26
ENDBRANCH  24  25
ENDBRANCH  23  24
ENDBRANCH  22  23
ENDBRANCH  21  22
ENDBRANCH  20  21
ENDBRANCH  19  20
ENDBRANCH  18  19
ENDBRANCH   1  18
TORSDOF 28
ENDMDL
MODEL 2
REMARK VINA RESULT:     0.660      5.574     11.234
REMARK INTER + INTRA:          -0.338
REMARK INTER:                   1.108
REMARK INTRA:                  -1.446
REMARK UNBOUND:                -2.078
REMARK SMILES CCCCCCCCCCCCCCCCCCCCCCCCCCCCCC(=O)[O-]
REMARK SMILES IDX 16 1 17 2 18 3 19 4 20 5 21 6 22 7 23 8 24 9 25 10 26 11
REMARK SMILES IDX 27 12 28 13 29 14 30 15 31 16 32 17 15 18 14 19 13 20 12 21
REMARK SMILES IDX 11 22 10 23 9 24 8 25 7 26 6 27 5 28 4 29 3 30 2 31 1 32
REMARK H PARENT
REMARK Flexibility Score: inf
ROOT
ATOM      1  C   UNL     1      12.858   2.870  17.778  1.00  0.00     0.000 C 
ENDROOT
BRANCH   1   2
ATOM      2  C   UNL     1      13.611   3.552  16.619  1.00  0.00     0.000 C 
BRANCH   2   3
ATOM      3  C   UNL     1      15.090   3.153  16.463  1.00  0.00     0.000 C 
BRANCH   3   4
ATOM      4  C   UNL     1      15.886   4.130  15.580  1.00  0.00     0.000 C 
BRANCH   4   5
ATOM      5  C   UNL     1      15.213   4.394  14.221  1.00  0.00     0.000 C 
BRANCH   5   6
ATOM      6  C   UNL     1      16.162   4.835  13.089  1.00  0.00     0.000 C 
BRANCH   6   7
ATOM      7  C   UNL     1      17.647   4.703  13.467  1.00  0.00     0.000 C 
BRANCH   7   8
ATOM      8  C   UNL     1      18.265   3.376  12.997  1.00  0.00     0.000 C 
BRANCH   8   9
ATOM      9  C   UNL     1      18.308   3.253  11.463  1.00  0.00     0.000 C 
BRANCH   9  10
ATOM     10  C   UNL     1      19.700   2.863  10.940  1.00  0.00     0.000 C 
BRANCH  10  11
ATOM     11  C   UNL     1      20.355   1.747  11.771  1.00  0.00     0.000 C 
BRANCH  11  12
ATOM     12  C   UNL     1      21.720   1.308  11.210  1.00  0.00     0.000 C 
BRANCH  12  13
ATOM     13  C   UNL     1      22.386   0.145  11.971  1.00  0.00     0.006 C 
BRANCH  13  14
ATOM     14  C   UNL     1      23.634   0.579  12.756  1.00  0.00     0.053 C 
BRANCH  14  15
ATOM     15  C   UNL     1      23.416   0.422  14.229  1.00  0.00     0.041 C 
ATOM     16  O   UNL     1      23.457  -0.720  14.760  1.00  0.00    -0.550 OA
ATOM     17  O   UNL     1      23.150   1.537  15.018  1.00  0.00    -0.550 OA
ENDBRANCH  14  15
ENDBRANCH  13  14
ENDBRANCH  12  13
ENDBRANCH  11  12
ENDBRANCH  10  11
ENDBRANCH   9  10
ENDBRANCH   8   9
ENDBRANCH   7   8
ENDBRANCH   6   7
ENDBRANCH   5   6
ENDBRANCH   4   5
ENDBRANCH   3   4
ENDBRANCH   2   3
ENDBRANCH   1   2
BRANCH   1  18
ATOM     18  C   UNL     1      12.527   3.771  18.981  1.00  0.00     0.000 C 
BRANCH  18  19
ATOM     19  C   UNL     1      11.860   5.099  18.579  1.00  0.00     0.000 C 
BRANCH  19  20
ATOM     20  C   UNL     1      12.870   6.160  18.107  1.00  0.00     0.000 C 
BRANCH  20  21
ATOM     21  C   UNL     1      12.463   6.966  16.855  1.00  0.00     0.000 C 
BRANCH  21  22
ATOM     22  C   UNL     1      13.480   6.908  15.695  1.00  0.00     0.000 C 
BRANCH  22  23
ATOM     23  C   UNL     1      13.701   8.265  15.002  1.00  0.00     0.000 C 
BRANCH  23  24
ATOM     24  C   UNL     1      12.799   9.374  15.570  1.00  0.00    -0.000 C 
BRANCH  24  25
ATOM     25  C   UNL     1      13.242  10.784  15.138  1.00  0.00    -0.000 C 
BRANCH  25  26
ATOM     26  C   UNL     1      12.149  11.548  14.368  1.00  0.00    -0.000 C 
BRANCH  26  27
ATOM     27  C   UNL     1      11.727  12.894  14.993  1.00  0.00    -0.000 C 
BRANCH  27  28
ATOM     28  C   UNL     1      12.890  13.819  15.394  1.00  0.00    -0.000 C 
BRANCH  28  29
ATOM     29  C   UNL     1      12.736  15.246  14.846  1.00  0.00    -0.000 C 
BRANCH  29  30
ATOM     30  C   UNL     1      13.801  15.534  13.776  1.00  0.00    -0.000 C 
BRANCH  30  31
ATOM     31  C   UNL     1      13.213  15.607  12.358  1.00  0.00    -0.003 C 
ATOM     32  C   UNL     1      12.468  14.332  11.961  1.00  0.00     0.004 C 
ENDBRANCH  30  31
ENDBRANCH  29  30
ENDBRANCH  28  29
ENDBRANCH  27  28
ENDBRANCH  26  27
ENDBRANCH  25  26
ENDBRANCH  24  25
ENDBRANCH  23  24
ENDBRANCH  22  23
ENDBRANCH  21  22
ENDBRANCH  20  21
ENDBRANCH  19  20
ENDBRANCH  18  19
ENDBRANCH   1  18
TORSDOF 28
ENDMDL
MODEL 3
REMARK VINA RESULT:     0.982      5.606     11.781
REMARK INTER + INTRA:           0.512
REMARK INTER:                   2.282
REMARK INTRA:                  -1.770
REMARK UNBOUND:                -2.078
REMARK SMILES CCCCCCCCCCCCCCCCCCCCCCCCCCCCCC(=O)[O-]
REMARK SMILES IDX 16 1 17 2 18 3 19 4 20 5 21 6 22 7 23 8 24 9 25 10 26 11
REMARK SMILES IDX 27 12 28 13 29 14 30 15 31 16 32 17 15 18 14 19 13 20 12 21
REMARK SMILES IDX 11 22 10 23 9 24 8 25 7 26 6 27 5 28 4 29 3 30 2 31 1 32
REMARK H PARENT
REMARK Flexibility Score: inf
ROOT
ATOM      1  C   UNL     1      12.876   5.539  18.058  1.00  0.00     0.000 C 
ENDROOT
BRANCH   1   2
ATOM      2  C   UNL     1      13.061   4.080  17.592  1.00  0.00     0.000 C 
BRANCH   2   3
ATOM      3  C   UNL     1      13.464   3.900  16.116  1.00  0.00     0.000 C 
BRANCH   3   4
ATOM      4  C   UNL     1      14.778   4.617  15.762  1.00  0.00     0.000 C 
BRANCH   4   5
ATOM      5  C   UNL     1      14.847   5.046  14.285  1.00  0.00     0.000 C 
BRANCH   5   6
ATOM      6  C   UNL     1      16.186   4.764  13.576  1.00  0.00     0.000 C 
BRANCH   6   7
ATOM      7  C   UNL     1      16.009   4.345  12.106  1.00  0.00     0.000 C 
BRANCH   7   8
ATOM      8  C   UNL     1      17.223   3.578  11.556  1.00  0.00     0.000 C 
BRANCH   8   9
ATOM      9  C   UNL     1      18.485   3.771  12.417  1.00  0.00     0.000 C 
BRANCH   9  10
ATOM     10  C   UNL     1      19.221   2.449  12.691  1.00  0.00     0.000 C 
BRANCH  10  11
ATOM     11  C   UNL     1      20.283   2.130  11.627  1.00  0.00     0.000 C 
BRANCH  11  12
ATOM     12  C   UNL     1      21.073   0.846  11.939  1.00  0.00     0.000 C 
BRANCH  12  13
ATOM     13  C   UNL     1      22.584   0.930  11.646  1.00  0.00     0.006 C 
BRANCH  13  14
ATOM     14  C   UNL     1      23.384  -0.213  12.290  1.00  0.00     0.053 C 
BRANCH  14  15
ATOM     15  C   UNL     1      23.650   0.073  13.736  1.00  0.00     0.041 C 
ATOM     16  O   UNL     1      23.831   1.258  14.127  1.00  0.00    -0.550 OA
ATOM     17  O   UNL     1      23.717  -0.970  14.654  1.00  0.00    -0.550 OA
ENDBRANCH  14  15
ENDBRANCH  13  14
ENDBRANCH  12  13
ENDBRANCH  11  12
ENDBRANCH  10  11
ENDBRANCH   9  10
ENDBRANCH   8   9
ENDBRANCH   7   8
ENDBRANCH   6   7
ENDBRANCH   5   6
ENDBRANCH   4   5
ENDBRANCH   3   4
ENDBRANCH   2   3
ENDBRANCH   1   2
BRANCH   1  18
ATOM     18  C   UNL     1      12.139   6.465  17.073  1.00  0.00     0.000 C 
BRANCH  18  19
ATOM     19  C   UNL     1      12.910   7.761  16.767  1.00  0.00     0.000 C 
BRANCH  19  20
ATOM     20  C   UNL     1      13.234   7.928  15.272  1.00  0.00     0.000 C 
BRANCH  20  21
ATOM     21  C   UNL     1      13.477   9.375  14.793  1.00  0.00     0.000 C 
BRANCH  21  22
ATOM     22  C   UNL     1      12.279  10.328  14.994  1.00  0.00     0.000 C 
BRANCH  22  23
ATOM     23  C   UNL     1      12.607  11.801  14.690  1.00  0.00     0.000 C 
BRANCH  23  24
ATOM     24  C   UNL     1      13.221  12.532  15.896  1.00  0.00    -0.000 C 
BRANCH  24  25
ATOM     25  C   UNL     1      13.728  13.942  15.544  1.00  0.00    -0.000 C 
BRANCH  25  26
ATOM     26  C   UNL     1      12.597  14.902  15.129  1.00  0.00    -0.000 C 
BRANCH  26  27
ATOM     27  C   UNL     1      13.017  16.033  14.168  1.00  0.00    -0.000 C 
BRANCH  27  28
ATOM     28  C   UNL     1      13.725  15.567  12.883  1.00  0.00    -0.000 C 
BRANCH  28  29
ATOM     29  C   UNL     1      12.904  15.842  11.614  1.00  0.00    -0.000 C 
BRANCH  29  30
ATOM     30  C   UNL     1      11.888  14.715  11.370  1.00  0.00    -0.000 C 
BRANCH  30  31
ATOM     31  C   UNL     1      12.357  13.362  11.928  1.00  0.00    -0.003 C 
ATOM     32  C   UNL     1      12.199  12.222  10.923  1.00  0.00     0.004 C 
ENDBRANCH  30  31
ENDBRANCH  29  30
ENDBRANCH  28  29
ENDBRANCH  27  28
ENDBRANCH  26  27
ENDBRANCH  25  26
ENDBRANCH  24  25
ENDBRANCH  23  24
ENDBRANCH  22  23
ENDBRANCH  21  22
ENDBRANCH  20  21
ENDBRANCH  19  20
ENDBRANCH  18  19
ENDBRANCH   1  18
TORSDOF 28
ENDMDL
MODEL 4
REMARK VINA RESULT:     1.232      4.250      6.678
REMARK INTER + INTRA:           1.170
REMARK INTER:                   2.134
REMARK INTRA:                  -0.964
REMARK UNBOUND:                -2.078
REMARK SMILES CCCCCCCCCCCCCCCCCCCCCCCCCCCCCC(=O)[O-]
REMARK SMILES IDX 16 1 17 2 18 3 19 4 20 5 21 6 22 7 23 8 24 9 25 10 26 11
REMARK SMILES IDX 27 12 28 13 29 14 30 15 31 16 32 17 15 18 14 19 13 20 12 21
REMARK SMILES IDX 11 22 10 23 9 24 8 25 7 26 6 27 5 28 4 29 3 30 2 31 1 32
REMARK H PARENT
REMARK Flexibility Score: inf
ROOT
ATOM      1  C   UNL     1      12.261   5.373  18.531  1.00  0.00     0.000 C 
ENDROOT
BRANCH   1   2
ATOM      2  C   UNL     1      13.050   6.608  18.051  1.00  0.00     0.000 C 
BRANCH   2   3
ATOM      3  C   UNL     1      12.456   7.343  16.835  1.00  0.00     0.000 C 
BRANCH   3   4
ATOM      4  C   UNL     1      13.368   7.293  15.598  1.00  0.00     0.000 C 
BRANCH   4   5
ATOM      5  C   UNL     1      13.751   8.691  15.078  1.00  0.00     0.000 C 
BRANCH   5   6
ATOM      6  C   UNL     1      12.605   9.720  15.044  1.00  0.00     0.000 C 
BRANCH   6   7
ATOM      7  C   UNL     1      12.860  10.869  14.052  1.00  0.00     0.000 C 
BRANCH   7   8
ATOM      8  C   UNL     1      11.580  11.643  13.697  1.00  0.00     0.000 C 
BRANCH   8   9
ATOM      9  C   UNL     1      11.612  12.217  12.268  1.00  0.00     0.000 C 
BRANCH   9  10
ATOM     10  C   UNL     1      12.757  13.222  12.062  1.00  0.00     0.000 C 
BRANCH  10  11
ATOM     11  C   UNL     1      12.253  14.649  11.794  1.00  0.00     0.000 C 
BRANCH  11  12
ATOM     12  C   UNL     1      13.214  15.730  12.321  1.00  0.00     0.000 C 
BRANCH  12  13
ATOM     13  C   UNL     1      13.869  15.405  13.678  1.00  0.00     0.006 C 
BRANCH  13  14
ATOM     14  C   UNL     1      12.869  15.420  14.845  1.00  0.00     0.053 C 
BRANCH  14  15
ATOM     15  C   UNL     1      12.860  14.101  15.554  1.00  0.00     0.041 C 
ATOM     16  O   UNL     1      13.933  13.608  15.996  1.00  0.00    -0.550 OA
ATOM     17  O   UNL     1      11.667  13.403  15.713  1.00  0.00    -0.550 OA
ENDBRANCH  14  15
ENDBRANCH  13  14
ENDBRANCH  12  13
ENDBRANCH  11  12
ENDBRANCH  10  11
ENDBRANCH   9  10
ENDBRANCH   8   9
ENDBRANCH   7   8
ENDBRANCH   6   7
ENDBRANCH   5   6
ENDBRANCH   4   5
ENDBRANCH   3   4
ENDBRANCH   2   3
ENDBRANCH   1   2
BRANCH   1  18
ATOM     18  C   UNL     1      12.928   4.011  18.265  1.00  0.00     0.000 C 
BRANCH  18  19
ATOM     19  C   UNL     1      13.091   3.697  16.767  1.00  0.00     0.000 C 
BRANCH  19  20
ATOM     20  C   UNL     1      14.563   3.585  16.334  1.00  0.00     0.000 C 
BRANCH  20  21
ATOM     21  C   UNL     1      14.976   4.453  15.125  1.00  0.00     0.000 C 
BRANCH  21  22
ATOM     22  C   UNL     1      16.471   4.361  14.750  1.00  0.00     0.000 C 
BRANCH  22  23
ATOM     23  C   UNL     1      16.740   4.551  13.245  1.00  0.00     0.000 C 
BRANCH  23  24
ATOM     24  C   UNL     1      18.096   3.974  12.808  1.00  0.00    -0.000 C 
BRANCH  24  25
ATOM     25  C   UNL     1      18.020   3.220  11.468  1.00  0.00    -0.000 C 
BRANCH  25  26
ATOM     26  C   UNL     1      19.407   2.880  10.891  1.00  0.00    -0.000 C 
BRANCH  26  27
ATOM     27  C   UNL     1      20.315   2.043  11.816  1.00  0.00    -0.000 C 
BRANCH  27  28
ATOM     28  C   UNL     1      21.380   1.198  11.094  1.00  0.00    -0.000 C 
BRANCH  28  29
ATOM     29  C   UNL     1      22.121   0.238  12.036  1.00  0.00    -0.000 C 
BRANCH  29  30
ATOM     30  C   UNL     1      23.590   0.661  12.197  1.00  0.00    -0.000 C 
BRANCH  30  31
ATOM     31  C   UNL     1      23.947   1.030  13.645  1.00  0.00    -0.003 C 
ATOM     32  C   UNL     1      22.865   0.618  14.644  1.00  0.00     0.004 C 
ENDBRANCH  30  31
ENDBRANCH  29  30
ENDBRANCH  28  29
ENDBRANCH  27  28
ENDBRANCH  26  27
ENDBRANCH  25  26
ENDBRANCH  24  25
ENDBRANCH  23  24
ENDBRANCH  22  23
ENDBRANCH  21  22
ENDBRANCH  20  21
ENDBRANCH  19  20
ENDBRANCH  18  19
ENDBRANCH   1  18
TORSDOF 28
ENDMDL
MODEL 5
REMARK VINA RESULT:     1.275      3.891     10.621
REMARK INTER + INTRA:           1.284
REMARK INTER:                   2.332
REMARK INTRA:                  -1.048
REMARK UNBOUND:                -2.078
REMARK SMILES CCCCCCCCCCCCCCCCCCCCCCCCCCCCCC(=O)[O-]
REMARK SMILES IDX 16 1 17 2 18 3 19 4 20 5 21 6 22 7 23 8 24 9 25 10 26 11
REMARK SMILES IDX 27 12 28 13 29 14 30 15 31 16 32 17 15 18 14 19 13 20 12 21
REMARK SMILES IDX 11 22 10 23 9 24 8 25 7 26 6 27 5 28 4 29 3 30 2 31 1 32
REMARK H PARENT
REMARK Flexibility Score: inf
ROOT
ATOM      1  C   UNL     1      15.477   4.764  15.321  1.00  0.00     0.000 C 
ENDROOT
BRANCH   1   2
ATOM      2  C   UNL     1      14.709   3.592  15.966  1.00  0.00     0.000 C 
BRANCH   2   3
ATOM      3  C   UNL     1      13.365   3.960  16.622  1.00  0.00     0.000 C 
BRANCH   3   4
ATOM      4  C   UNL     1      12.850   2.877  17.585  1.00  0.00     0.000 C 
BRANCH   4   5
ATOM      5  C   UNL     1      12.476   3.436  18.970  1.00  0.00     0.000 C 
BRANCH   5   6
ATOM      6  C   UNL     1      11.771   4.807  18.961  1.00  0.00     0.000 C 
BRANCH   6   7
ATOM      7  C   UNL     1      12.431   5.813  18.003  1.00  0.00     0.000 C 
BRANCH   7   8
ATOM      8  C   UNL     1      13.294   6.854  18.735  1.00  0.00     0.000 C 
BRANCH   8   9
ATOM      9  C   UNL     1      14.563   6.240  19.355  1.00  0.00     0.000 C 
BRANCH   9  10
ATOM     10  C   UNL     1      15.494   7.299  19.967  1.00  0.00     0.000 C 
BRANCH  10  11
ATOM     11  C   UNL     1      16.644   6.681  20.778  1.00  0.00     0.000 C 
BRANCH  11  12
ATOM     12  C   UNL     1      16.160   5.979  22.060  1.00  0.00     0.000 C 
BRANCH  12  13
ATOM     13  C   UNL     1      17.231   5.832  23.159  1.00  0.00     0.006 C 
BRANCH  13  14
ATOM     14  C   UNL     1      18.091   4.569  22.992  1.00  0.00     0.053 C 
BRANCH  14  15
ATOM     15  C   UNL     1      19.518   4.848  23.351  1.00  0.00     0.041 C 
ATOM     16  O   UNL     1      20.066   5.926  22.994  1.00  0.00    -0.550 OA
ATOM     17  O   UNL     1      20.254   3.908  24.067  1.00  0.00    -0.550 OA
ENDBRANCH  14  15
ENDBRANCH  13  14
ENDBRANCH  12  13
ENDBRANCH  11  12
ENDBRANCH  10  11
ENDBRANCH   9  10
ENDBRANCH   8   9
ENDBRANCH   7   8
ENDBRANCH   6   7
ENDBRANCH   5   6
ENDBRANCH   4   5
ENDBRANCH   3   4
ENDBRANCH   2   3
ENDBRANCH   1   2
BRANCH   1  18
ATOM     18  C   UNL     1      15.000   5.182  13.918  1.00  0.00     0.000 C 
BRANCH  18  19
ATOM     19  C   UNL     1      14.032   6.378  13.937  1.00  0.00     0.000 C 
BRANCH  19  20
ATOM     20  C   UNL     1      14.387   7.420  15.012  1.00  0.00     0.000 C 
BRANCH  20  21
ATOM     21  C   UNL     1      13.253   8.391  15.408  1.00  0.00     0.000 C 
BRANCH  21  22
ATOM     22  C   UNL     1      13.430   9.832  14.885  1.00  0.00     0.000 C 
BRANCH  22  23
ATOM     23  C   UNL     1      12.212  10.736  15.150  1.00  0.00     0.000 C 
BRANCH  23  24
ATOM     24  C   UNL     1      12.484  12.212  14.815  1.00  0.00    -0.000 C 
BRANCH  24  25
ATOM     25  C   UNL     1      13.473  12.873  15.794  1.00  0.00    -0.000 C 
BRANCH  25  26
ATOM     26  C   UNL     1      13.388  14.411  15.785  1.00  0.00    -0.000 C 
BRANCH  26  27
ATOM     27  C   UNL     1      12.746  15.024  14.524  1.00  0.00    -0.000 C 
BRANCH  27  28
ATOM     28  C   UNL     1      13.697  15.861  13.649  1.00  0.00    -0.000 C 
BRANCH  28  29
ATOM     29  C   UNL     1      13.304  15.854  12.164  1.00  0.00    -0.000 C 
BRANCH  29  30
ATOM     30  C   UNL     1      12.158  14.862  11.910  1.00  0.00    -0.000 C 
BRANCH  30  31
ATOM     31  C   UNL     1      12.660  13.454  11.551  1.00  0.00    -0.003 C 
ATOM     32  C   UNL     1      11.567  12.391  11.664  1.00  0.00     0.004 C 
ENDBRANCH  30  31
ENDBRANCH  29  30
ENDBRANCH  28  29
ENDBRANCH  27  28
ENDBRANCH  26  27
ENDBRANCH  25  26
ENDBRANCH  24  25
ENDBRANCH  23  24
ENDBRANCH  22  23
ENDBRANCH  21  22
ENDBRANCH  20  21
ENDBRANCH  19  20
ENDBRANCH  18  19
ENDBRANCH   1  18
TORSDOF 28
ENDMDL
MODEL 6
REMARK VINA RESULT:     1.403      1.124      2.240
REMARK INTER + INTRA:           1.622
REMARK INTER:                   3.843
REMARK INTRA:                  -2.221
REMARK UNBOUND:                -2.078
REMARK SMILES CCCCCCCCCCCCCCCCCCCCCCCCCCCCCC(=O)[O-]
REMARK SMILES IDX 16 1 17 2 18 3 19 4 20 5 21 6 22 7 23 8 24 9 25 10 26 11
REMARK SMILES IDX 27 12 28 13 29 14 30 15 31 16 32 17 15 18 14 19 13 20 12 21
REMARK SMILES IDX 11 22 10 23 9 24 8 25 7 26 6 27 5 28 4 29 3 30 2 31 1 32
REMARK H PARENT
REMARK Flexibility Score: inf
ROOT
ATOM      1  C   UNL     1      14.740   3.168  16.482  1.00  0.00     0.000 C 
ENDROOT
BRANCH   1   2
ATOM      2  C   UNL     1      14.023   4.377  15.847  1.00  0.00     0.000 C 
BRANCH   2   3
ATOM      3  C   UNL     1      14.816   5.123  14.759  1.00  0.00     0.000 C 
BRANCH   3   4
ATOM      4  C   UNL     1      14.350   6.576  14.565  1.00  0.00     0.000 C 
BRANCH   4   5
ATOM      5  C   UNL     1      13.351   7.034  15.644  1.00  0.00     0.000 C 
BRANCH   5   6
ATOM      6  C   UNL     1      13.366   8.542  15.960  1.00  0.00     0.000 C 
BRANCH   6   7
ATOM      7  C   UNL     1      13.172   9.418  14.710  1.00  0.00     0.000 C 
BRANCH   7   8
ATOM      8  C   UNL     1      11.821  10.153  14.702  1.00  0.00     0.000 C 
BRANCH   8   9
ATOM      9  C   UNL     1      11.903  11.535  14.029  1.00  0.00     0.000 C 
BRANCH   9  10
ATOM     10  C   UNL     1      11.842  12.690  15.042  1.00  0.00     0.000 C 
BRANCH  10  11
ATOM     11  C   UNL     1      13.170  12.895  15.788  1.00  0.00     0.000 C 
BRANCH  11  12
ATOM     12  C   UNL     1      13.771  14.294  15.564  1.00  0.00     0.000 C 
BRANCH  12  13
ATOM     13  C   UNL     1      12.868  15.267  14.781  1.00  0.00     0.006 C 
BRANCH  13  14
ATOM     14  C   UNL     1      13.622  16.032  13.682  1.00  0.00     0.053 C 
BRANCH  14  15
ATOM     15  C   UNL     1      13.188  15.577  12.323  1.00  0.00     0.041 C 
ATOM     16  O   UNL     1      12.841  14.380  12.134  1.00  0.00    -0.550 OA
ATOM     17  O   UNL     1      13.181  16.470  11.256  1.00  0.00    -0.550 OA
ENDBRANCH  14  15
ENDBRANCH  13  14
ENDBRANCH  12  13
ENDBRANCH  11  12
ENDBRANCH  10  11
ENDBRANCH   9  10
ENDBRANCH   8   9
ENDBRANCH   7   8
ENDBRANCH   6   7
ENDBRANCH   5   6
ENDBRANCH   4   5
ENDBRANCH   3   4
ENDBRANCH   2   3
ENDBRANCH   1   2
BRANCH   1  18
ATOM     18  C   UNL     1      13.837   2.181  17.243  1.00  0.00     0.000 C 
BRANCH  18  19
ATOM     19  C   UNL     1      12.502   2.803  17.693  1.00  0.00     0.000 C 
BRANCH  19  20
ATOM     20  C   UNL     1      12.122   2.429  19.136  1.00  0.00     0.000 C 
BRANCH  20  21
ATOM     21  C   UNL     1      11.772   3.611  20.066  1.00  0.00     0.000 C 
BRANCH  21  22
ATOM     22  C   UNL     1      11.270   4.876  19.337  1.00  0.00     0.000 C 
BRANCH  22  23
ATOM     23  C   UNL     1      12.392   5.670  18.643  1.00  0.00     0.000 C 
BRANCH  23  24
ATOM     24  C   UNL     1      13.605   5.905  19.557  1.00  0.00    -0.000 C 
BRANCH  24  25
ATOM     25  C   UNL     1      14.539   7.013  19.037  1.00  0.00    -0.000 C 
BRANCH  25  26
ATOM     26  C   UNL     1      15.566   7.475  20.089  1.00  0.00    -0.000 C 
BRANCH  26  27
ATOM     27  C   UNL     1      16.778   6.539  20.277  1.00  0.00    -0.000 C 
BRANCH  27  28
ATOM     28  C   UNL     1      17.417   6.574  21.677  1.00  0.00    -0.000 C 
BRANCH  28  29
ATOM     29  C   UNL     1      16.798   5.550  22.642  1.00  0.00    -0.000 C 
BRANCH  29  30
ATOM     30  C   UNL     1      17.817   4.457  23.000  1.00  0.00    -0.000 C 
BRANCH  30  31
ATOM     31  C   UNL     1      19.230   5.015  23.235  1.00  0.00    -0.003 C 
ATOM     32  C   UNL     1      20.163   4.002  23.896  1.00  0.00     0.004 C 
ENDBRANCH  30  31
ENDBRANCH  29  30
ENDBRANCH  28  29
ENDBRANCH  27  28
ENDBRANCH  26  27
ENDBRANCH  25  26
ENDBRANCH  24  25
ENDBRANCH  23  24
ENDBRANCH  22  23
ENDBRANCH  21  22
ENDBRANCH  20  21
ENDBRANCH  19  20
ENDBRANCH  18  19
ENDBRANCH   1  18
TORSDOF 28
ENDMDL
MODEL 7
REMARK VINA RESULT:     1.677      3.600      9.807
REMARK INTER + INTRA:           2.344
REMARK INTER:                   4.780
REMARK INTRA:                  -2.436
REMARK UNBOUND:                -2.078
REMARK SMILES CCCCCCCCCCCCCCCCCCCCCCCCCCCCCC(=O)[O-]
REMARK SMILES IDX 16 1 17 2 18 3 19 4 20 5 21 6 22 7 23 8 24 9 25 10 26 11
REMARK SMILES IDX 27 12 28 13 29 14 30 15 31 16 32 17 15 18 14 19 13 20 12 21
REMARK SMILES IDX 11 22 10 23 9 24 8 25 7 26 6 27 5 28 4 29 3 30 2 31 1 32
REMARK H PARENT
REMARK Flexibility Score: inf
ROOT
ATOM      1  C   UNL     1      11.744   5.642  19.029  1.00  0.00     0.000 C 
ENDROOT
BRANCH   1   2
ATOM      2  C   UNL     1      12.712   4.600  19.626  1.00  0.00     0.000 C 
BRANCH   2   3
ATOM      3  C   UNL     1      12.072   3.264  20.048  1.00  0.00     0.000 C 
BRANCH   3   4
ATOM      4  C   UNL     1      12.239   2.159  18.991  1.00  0.00     0.000 C 
BRANCH   4   5
ATOM      5  C   UNL     1      12.609   2.709  17.602  1.00  0.00     0.000 C 
BRANCH   5   6
ATOM      6  C   UNL     1      13.952   2.212  17.031  1.00  0.00     0.000 C 
BRANCH   6   7
ATOM      7  C   UNL     1      14.878   3.360  16.593  1.00  0.00     0.000 C 
BRANCH   7   8
ATOM      8  C   UNL     1      14.339   4.128  15.375  1.00  0.00     0.000 C 
BRANCH   8   9
ATOM      9  C   UNL     1      15.444   4.888  14.619  1.00  0.00     0.000 C 
BRANCH   9  10
ATOM     10  C   UNL     1      14.913   5.619  13.375  1.00  0.00     0.000 C 
BRANCH  10  11
ATOM     11  C   UNL     1      14.118   4.694  12.438  1.00  0.00     0.000 C 
BRANCH  11  12
ATOM     12  C   UNL     1      14.838   4.437  11.102  1.00  0.00     0.000 C 
BRANCH  12  13
ATOM     13  C   UNL     1      15.885   3.306  11.139  1.00  0.00     0.006 C 
BRANCH  13  14
ATOM     14  C   UNL     1      17.330   3.824  11.062  1.00  0.00     0.053 C 
BRANCH  14  15
ATOM     15  C   UNL     1      18.004   3.715  12.395  1.00  0.00     0.041 C 
ATOM     16  O   UNL     1      18.387   2.594  12.825  1.00  0.00    -0.550 OA
ATOM     17  O   UNL     1      18.196   4.852  13.174  1.00  0.00    -0.550 OA
ENDBRANCH  14  15
ENDBRANCH  13  14
ENDBRANCH  12  13
ENDBRANCH  11  12
ENDBRANCH  10  11
ENDBRANCH   9  10
ENDBRANCH   8   9
ENDBRANCH   7   8
ENDBRANCH   6   7
ENDBRANCH   5   6
ENDBRANCH   4   5
ENDBRANCH   3   4
ENDBRANCH   2   3
ENDBRANCH   1   2
BRANCH   1  18
ATOM     18  C   UNL     1      11.900   5.910  17.522  1.00  0.00     0.000 C 
BRANCH  18  19
ATOM     19  C   UNL     1      12.633   7.229  17.213  1.00  0.00     0.000 C 
BRANCH  19  20
ATOM     20  C   UNL     1      13.213   7.273  15.789  1.00  0.00     0.000 C 
BRANCH  20  21
ATOM     21  C   UNL     1      13.750   8.644  15.324  1.00  0.00     0.000 C 
BRANCH  21  22
ATOM     22  C   UNL     1      12.705   9.540  14.624  1.00  0.00     0.000 C 
BRANCH  22  23
ATOM     23  C   UNL     1      12.951  11.046  14.829  1.00  0.00     0.000 C 
BRANCH  23  24
ATOM     24  C   UNL     1      11.647  11.839  15.019  1.00  0.00    -0.000 C 
BRANCH  24  25
ATOM     25  C   UNL     1      11.893  13.296  15.452  1.00  0.00    -0.000 C 
BRANCH  25  26
ATOM     26  C   UNL     1      13.380  13.604  15.707  1.00  0.00    -0.000 C 
BRANCH  26  27
ATOM     27  C   UNL     1      13.910  14.883  15.026  1.00  0.00    -0.000 C 
BRANCH  27  28
ATOM     28  C   UNL     1      12.894  15.612  14.128  1.00  0.00    -0.000 C 
BRANCH  28  29
ATOM     29  C   UNL     1      13.403  15.814  12.692  1.00  0.00    -0.000 C 
BRANCH  29  30
ATOM     30  C   UNL     1      12.613  14.936  11.709  1.00  0.00    -0.000 C 
BRANCH  30  31
ATOM     31  C   UNL     1      12.803  13.433  11.969  1.00  0.00    -0.003 C 
ATOM     32  C   UNL     1      11.552  12.615  11.649  1.00  0.00     0.004 C 
ENDBRANCH  30  31
ENDBRANCH  29  30
ENDBRANCH  28  29
ENDBRANCH  27  28
ENDBRANCH  26  27
ENDBRANCH  25  26
ENDBRANCH  24  25
ENDBRANCH  23  24
ENDBRANCH  22  23
ENDBRANCH  21  22
ENDBRANCH  20  21
ENDBRANCH  19  20
ENDBRANCH  18  19
ENDBRANCH   1  18
TORSDOF 28
ENDMDL
MODEL 8
REMARK VINA RESULT:     1.689      5.057      7.312
REMARK INTER + INTRA:           2.375
REMARK INTER:                   3.882
REMARK INTRA:                  -1.507
REMARK UNBOUND:                -2.078
REMARK SMILES CCCCCCCCCCCCCCCCCCCCCCCCCCCCCC(=O)[O-]
REMARK SMILES IDX 16 1 17 2 18 3 19 4 20 5 21 6 22 7 23 8 24 9 25 10 26 11
REMARK SMILES IDX 27 12 28 13 29 14 30 15 31 16 32 17 15 18 14 19 13 20 12 21
REMARK SMILES IDX 11 22 10 23 9 24 8 25 7 26 6 27 5 28 4 29 3 30 2 31 1 32
REMARK H PARENT
REMARK Flexibility Score: inf
ROOT
ATOM      1  C   UNL     1      13.715   4.426  17.209  1.00  0.00     0.000 C 
ENDROOT
BRANCH   1   2
ATOM      2  C   UNL     1      12.486   5.285  17.569  1.00  0.00     0.000 C 
BRANCH   2   3
ATOM      3  C   UNL     1      12.688   6.808  17.466  1.00  0.00     0.000 C 
BRANCH   3   4
ATOM      4  C   UNL     1      12.410   7.357  16.056  1.00  0.00     0.000 C 
BRANCH   4   5
ATOM      5  C   UNL     1      13.697   7.619  15.251  1.00  0.00     0.000 C 
BRANCH   5   6
ATOM      6  C   UNL     1      14.005   9.101  14.962  1.00  0.00     0.000 C 
BRANCH   6   7
ATOM      7  C   UNL     1      12.840  10.037  15.328  1.00  0.00     0.000 C 
BRANCH   7   8
ATOM      8  C   UNL     1      13.233  11.523  15.277  1.00  0.00     0.000 C 
BRANCH   8   9
ATOM      9  C   UNL     1      12.010  12.457  15.229  1.00  0.00     0.000 C 
BRANCH   9  10
ATOM     10  C   UNL     1      11.259  12.378  13.890  1.00  0.00     0.000 C 
BRANCH  10  11
ATOM     11  C   UNL     1      12.152  11.896  12.736  1.00  0.00     0.000 C 
BRANCH  11  12
ATOM     12  C   UNL     1      12.820  13.055  11.974  1.00  0.00     0.000 C 
BRANCH  12  13
ATOM     13  C   UNL     1      12.070  14.399  12.055  1.00  0.00     0.006 C 
BRANCH  13  14
ATOM     14  C   UNL     1      13.006  15.614  11.970  1.00  0.00     0.053 C 
BRANCH  14  15
ATOM     15  C   UNL     1      13.483  16.014  13.333  1.00  0.00     0.041 C 
ATOM     16  O   UNL     1      14.480  16.775  13.460  1.00  0.00    -0.550 OA
ATOM     17  O   UNL     1      12.837  15.533  14.467  1.00  0.00    -0.550 OA
ENDBRANCH  14  15
ENDBRANCH  13  14
ENDBRANCH  12  13
ENDBRANCH  11  12
ENDBRANCH  10  11
ENDBRANCH   9  10
ENDBRANCH   8   9
ENDBRANCH   7   8
ENDBRANCH   6   7
ENDBRANCH   5   6
ENDBRANCH   4   5
ENDBRANCH   3   4
ENDBRANCH   2   3
ENDBRANCH   1   2
BRANCH   1  18
ATOM     18  C   UNL     1      13.967   4.222  15.704  1.00  0.00     0.000 C 
BRANCH  18  19
ATOM     19  C   UNL     1      15.461   4.234  15.331  1.00  0.00     0.000 C 
BRANCH  19  20
ATOM     20  C   UNL     1      15.713   4.667  13.877  1.00  0.00     0.000 C 
BRANCH  20  21
ATOM     21  C   UNL     1      17.192   4.707  13.434  1.00  0.00     0.000 C 
BRANCH  21  22
ATOM     22  C   UNL     1      17.622   3.533  12.528  1.00  0.00     0.000 C 
BRANCH  22  23
ATOM     23  C   UNL     1      19.107   3.582  12.123  1.00  0.00     0.000 C 
BRANCH  23  24
ATOM     24  C   UNL     1      19.562   2.313  11.383  1.00  0.00    -0.000 C 
BRANCH  24  25
ATOM     25  C   UNL     1      20.543   1.460  12.208  1.00  0.00    -0.000 C 
BRANCH  25  26
ATOM     26  C   UNL     1      21.817   1.087  11.427  1.00  0.00    -0.000 C 
BRANCH  26  27
ATOM     27  C   UNL     1      22.165  -0.416  11.420  1.00  0.00    -0.000 C 
BRANCH  27  28
ATOM     28  C   UNL     1      23.663  -0.739  11.573  1.00  0.00    -0.000 C 
BRANCH  28  29
ATOM     29  C   UNL     1      24.111  -0.814  13.041  1.00  0.00    -0.000 C 
BRANCH  29  30
ATOM     30  C   UNL     1      24.125   0.585  13.676  1.00  0.00    -0.000 C 
BRANCH  30  31
ATOM     31  C   UNL     1      23.603   0.586  15.122  1.00  0.00    -0.003 C 
ATOM     32  C   UNL     1      22.397   1.507  15.314  1.00  0.00     0.004 C 
ENDBRANCH  30  31
ENDBRANCH  29  30
ENDBRANCH  28  29
ENDBRANCH  27  28
ENDBRANCH  26  27
ENDBRANCH  25  26
ENDBRANCH  24  25
ENDBRANCH  23  24
ENDBRANCH  22  23
ENDBRANCH  21  22
ENDBRANCH  20  21
ENDBRANCH  19  20
ENDBRANCH  18  19
ENDBRANCH   1  18
TORSDOF 28
ENDMDL
MODEL 9
REMARK VINA RESULT:     1.748      4.244      6.483
REMARK INTER + INTRA:           2.533
REMARK INTER:                   4.366
REMARK INTRA:                  -1.833
REMARK UNBOUND:                -2.078
REMARK SMILES CCCCCCCCCCCCCCCCCCCCCCCCCCCCCC(=O)[O-]
REMARK SMILES IDX 16 1 17 2 18 3 19 4 20 5 21 6 22 7 23 8 24 9 25 10 26 11
REMARK SMILES IDX 27 12 28 13 29 14 30 15 31 16 32 17 15 18 14 19 13 20 12 21
REMARK SMILES IDX 11 22 10 23 9 24 8 25 7 26 6 27 5 28 4 29 3 30 2 31 1 32
REMARK H PARENT
REMARK Flexibility Score: inf
ROOT
ATOM      1  C   UNL     1      13.175   4.855  17.663  1.00  0.00     0.000 C 
ENDROOT
BRANCH   1   2
ATOM      2  C   UNL     1      12.139   5.818  17.050  1.00  0.00     0.000 C 
BRANCH   2   3
ATOM      3  C   UNL     1      12.583   7.288  16.939  1.00  0.00     0.000 C 
BRANCH   3   4
ATOM      4  C   UNL     1      12.464   7.846  15.510  1.00  0.00     0.000 C 
BRANCH   4   5
ATOM      5  C   UNL     1      13.772   8.483  15.005  1.00  0.00     0.000 C 
BRANCH   5   6
ATOM      6  C   UNL     1      13.898  10.002  15.232  1.00  0.00     0.000 C 
BRANCH   6   7
ATOM      7  C   UNL     1      12.535  10.713  15.295  1.00  0.00     0.000 C 
BRANCH   7   8
ATOM      8  C   UNL     1      12.579  12.135  14.711  1.00  0.00     0.000 C 
BRANCH   8   9
ATOM      9  C   UNL     1      13.245  13.145  15.663  1.00  0.00     0.000 C 
BRANCH   9  10
ATOM     10  C   UNL     1      12.894  14.602  15.318  1.00  0.00     0.000 C 
BRANCH  10  11
ATOM     11  C   UNL     1      13.761  15.168  14.182  1.00  0.00     0.000 C 
BRANCH  11  12
ATOM     12  C   UNL     1      12.964  16.054  13.208  1.00  0.00     0.000 C 
BRANCH  12  13
ATOM     13  C   UNL     1      12.160  15.283  12.144  1.00  0.00     0.006 C 
BRANCH  13  14
ATOM     14  C   UNL     1      12.972  14.164  11.474  1.00  0.00     0.053 C 
BRANCH  14  15
ATOM     15  C   UNL     1      12.199  12.881  11.460  1.00  0.00     0.041 C 
ATOM     16  O   UNL     1      12.755  11.806  11.106  1.00  0.00    -0.550 OA
ATOM     17  O   UNL     1      10.856  12.872  11.821  1.00  0.00    -0.550 OA
ENDBRANCH  14  15
ENDBRANCH  13  14
ENDBRANCH  12  13
ENDBRANCH  11  12
ENDBRANCH  10  11
ENDBRANCH   9  10
ENDBRANCH   8   9
ENDBRANCH   7   8
ENDBRANCH   6   7
ENDBRANCH   5   6
ENDBRANCH   4   5
ENDBRANCH   3   4
ENDBRANCH   2   3
ENDBRANCH   1   2
BRANCH   1  18
ATOM     18  C   UNL     1      13.550   3.639  16.795  1.00  0.00     0.000 C 
BRANCH  18  19
ATOM     19  C   UNL     1      14.761   3.897  15.880  1.00  0.00     0.000 C 
BRANCH  19  20
ATOM     20  C   UNL     1      14.460   4.902  14.755  1.00  0.00     0.000 C 
BRANCH  20  21
ATOM     21  C   UNL     1      15.498   4.965  13.614  1.00  0.00     0.000 C 
BRANCH  21  22
ATOM     22  C   UNL     1      14.944   4.591  12.222  1.00  0.00     0.000 C 
BRANCH  22  23
ATOM     23  C   UNL     1      16.041   4.257  11.193  1.00  0.00     0.000 C 
BRANCH  23  24
ATOM     24  C   UNL     1      16.995   3.154  11.681  1.00  0.00    -0.000 C 
BRANCH  24  25
ATOM     25  C   UNL     1      18.478   3.543  11.541  1.00  0.00    -0.000 C 
BRANCH  25  26
ATOM     26  C   UNL     1      19.425   2.566  12.263  1.00  0.00    -0.000 C 
BRANCH  26  27
ATOM     27  C   UNL     1      20.446   1.850  11.353  1.00  0.00    -0.000 C 
BRANCH  27  28
ATOM     28  C   UNL     1      21.357   0.836  12.068  1.00  0.00    -0.000 C 
BRANCH  28  29
ATOM     29  C   UNL     1      22.835   0.980  11.675  1.00  0.00    -0.000 C 
BRANCH  29  30
ATOM     30  C   UNL     1      23.718   1.118  12.926  1.00  0.00    -0.000 C 
BRANCH  30  31
ATOM     31  C   UNL     1      23.033   0.591  14.197  1.00  0.00    -0.003 C 
ATOM     32  C   UNL     1      23.640  -0.720  14.696  1.00  0.00     0.004 C 
ENDBRANCH  30  31
ENDBRANCH  29  30
ENDBRANCH  28  29
ENDBRANCH  27  28
ENDBRANCH  26  27
ENDBRANCH  25  26
ENDBRANCH  24  25
ENDBRANCH  23  24
ENDBRANCH  22  23
ENDBRANCH  21  22
ENDBRANCH  20  21
ENDBRANCH  19  20
ENDBRANCH  18  19
ENDBRANCH   1  18
TORSDOF 28
ENDMDL
