MODEL 1
REMARK VINA RESULT:    -3.149      0.000      0.000
REMARK INTER + INTRA:          -3.149
REMARK INTER:                  -3.149
REMARK INTRA:                   0.000
REMARK UNBOUND:                 0.000
REMARK SMILES CC1(C)O[C@]2(C)CC[C@H]1CC2
REMARK SMILES IDX 1 1 2 2 9 3 8 4 7 5 5 6 4 7 11 8 10 9 6 10 3 11
REMARK H PARENT
REMARK Flexibility Score: inf
ROOT
ATOM      1  C   UNL     1     119.952 120.173 114.477  1.00  0.00     0.042 C 
ATOM      2  C   UNL     1     118.711 119.254 114.420  1.00  0.00     0.066 C 
ATOM      3  C   UNL     1     117.770 119.660 113.222  1.00  0.00     0.021 C 
ATOM      4  C   UNL     1     116.575 118.678 113.182  1.00  0.00     0.009 C 
ATOM      5  C   UNL     1     117.110 117.226 113.190  1.00  0.00     0.035 C 
ATOM      6  C   UNL     1     118.666 117.237 113.142  1.00  0.00     0.066 C 
ATOM      7  O   UNL     1     119.166 117.898 114.305  1.00  0.00    -0.369 OA
ATOM      8  C   UNL     1     119.126 118.013 111.875  1.00  0.00     0.035 C 
ATOM      9  C   UNL     1     118.544 119.447 111.898  1.00  0.00     0.009 C 
ATOM     10  C   UNL     1     119.208 115.804 113.115  1.00  0.00     0.042 C 
ATOM     11  C   UNL     1     117.972 119.398 115.768  1.00  0.00     0.042 C 
ENDROOT
TORSDOF 0
ENDMDL
MODEL 2
REMARK VINA RESULT:    -3.126      2.771      4.209
REMARK INTER + INTRA:          -3.126
REMARK INTER:                  -3.126
REMARK INTRA:                   0.000
REMARK UNBOUND:                 0.000
REMARK SMILES CC1(C)O[C@]2(C)CC[C@H]1CC2
REMARK SMILES IDX 1 1 2 2 9 3 8 4 7 5 5 6 4 7 11 8 10 9 6 10 3 11
REMARK H PARENT
REMARK Flexibility Score: inf
ROOT
ATOM      1  C   UNL     1     113.246 120.123 114.668  1.00  0.00     0.042 C 
ATOM      2  C   UNL     1     114.085 118.855 114.394  1.00  0.00     0.066 C 
ATOM      3  C   UNL     1     113.574 118.118 113.096  1.00  0.00     0.021 C 
ATOM      4  C   UNL     1     114.479 116.890 112.843  1.00  0.00     0.009 C 
ATOM      5  C   UNL     1     115.960 117.338 112.855  1.00  0.00     0.035 C 
ATOM      6  C   UNL     1     116.043 118.882 113.026  1.00  0.00     0.066 C 
ATOM      7  O   UNL     1     115.461 119.247 114.278  1.00  0.00    -0.369 OA
ATOM      8  C   UNL     1     115.246 119.560 111.875  1.00  0.00     0.035 C 
ATOM      9  C   UNL     1     113.781 119.060 111.885  1.00  0.00     0.009 C 
ATOM     10  C   UNL     1     117.504 119.344 113.006  1.00  0.00     0.042 C 
ATOM     11  C   UNL     1     113.950 117.940 115.631  1.00  0.00     0.042 C 
ENDROOT
TORSDOF 0
ENDMDL
MODEL 3
REMARK VINA RESULT:    -3.123      1.155      2.675
REMARK INTER + INTRA:          -3.123
REMARK INTER:                  -3.123
REMARK INTRA:                   0.000
REMARK UNBOUND:                 0.000
REMARK SMILES CC1(C)O[C@]2(C)CC[C@H]1CC2
REMARK SMILES IDX 1 1 2 2 9 3 8 4 7 5 5 6 4 7 11 8 10 9 6 10 3 11
REMARK H PARENT
REMARK Flexibility Score: inf
ROOT
ATOM      1  C   UNL     1     115.730 119.070 114.358  1.00  0.00     0.042 C 
ATOM      2  C   UNL     1     116.629 118.820 113.127  1.00  0.00     0.066 C 
ATOM      3  C   UNL     1     117.960 119.659 113.228  1.00  0.00     0.021 C 
ATOM      4  C   UNL     1     118.840 119.330 111.999  1.00  0.00     0.009 C 
ATOM      5  C   UNL     1     118.989 117.795 111.875  1.00  0.00     0.035 C 
ATOM      6  C   UNL     1     118.284 117.098 113.075  1.00  0.00     0.066 C 
ATOM      7  O   UNL     1     116.891 117.411 113.045  1.00  0.00    -0.369 OA
ATOM      8  C   UNL     1     118.899 117.631 114.400  1.00  0.00     0.035 C 
ATOM      9  C   UNL     1     118.753 119.171 114.465  1.00  0.00     0.009 C 
ATOM     10  C   UNL     1     118.452 115.578 112.983  1.00  0.00     0.042 C 
ATOM     11  C   UNL     1     115.819 119.229 111.877  1.00  0.00     0.042 C 
ENDROOT
TORSDOF 0
ENDMDL
MODEL 4
REMARK VINA RESULT:    -3.117      2.164      4.452
REMARK INTER + INTRA:          -3.117
REMARK INTER:                  -3.117
REMARK INTRA:                   0.000
REMARK UNBOUND:                 0.000
REMARK SMILES CC1(C)O[C@]2(C)CC[C@H]1CC2
REMARK SMILES IDX 1 1 2 2 9 3 8 4 7 5 5 6 4 7 11 8 10 9 6 10 3 11
REMARK H PARENT
REMARK Flexibility Score: inf
ROOT
ATOM      1  C   UNL     1     116.561 113.985 111.875  1.00  0.00     0.042 C 
ATOM      2  C   UNL     1     117.136 114.662 113.139  1.00  0.00     0.066 C 
ATOM      3  C   UNL     1     118.599 114.149 113.430  1.00  0.00     0.021 C 
ATOM      4  C   UNL     1     119.142 114.896 114.671  1.00  0.00     0.009 C 
ATOM      5  C   UNL     1     118.962 116.420 114.467  1.00  0.00     0.035 C 
ATOM      6  C   UNL     1     118.384 116.697 113.049  1.00  0.00     0.066 C 
ATOM      7  O   UNL     1     117.099 116.083 112.939  1.00  0.00    -0.369 OA
ATOM      8  C   UNL     1     119.337 116.081 111.985  1.00  0.00     0.035 C 
ATOM      9  C   UNL     1     119.508 114.566 112.248  1.00  0.00     0.009 C 
ATOM     10  C   UNL     1     118.233 118.204 112.820  1.00  0.00     0.042 C 
ATOM     11  C   UNL     1     116.193 114.318 114.313  1.00  0.00     0.042 C 
ENDROOT
TORSDOF 0
ENDMDL
MODEL 5
REMARK VINA RESULT:    -3.043      2.641      4.591
REMARK INTER + INTRA:          -3.043
REMARK INTER:                  -3.043
REMARK INTRA:                   0.000
REMARK UNBOUND:                 0.000
REMARK SMILES CC1(C)O[C@]2(C)CC[C@H]1CC2
REMARK SMILES IDX 1 1 2 2 9 3 8 4 7 5 5 6 4 7 11 8 10 9 6 10 3 11
REMARK H PARENT
REMARK Flexibility Score: inf
ROOT
ATOM      1  C   UNL     1     114.114 116.043 114.367  1.00  0.00     0.042 C 
ATOM      2  C   UNL     1     114.423 116.923 113.136  1.00  0.00     0.066 C 
ATOM      3  C   UNL     1     113.612 118.275 113.198  1.00  0.00     0.021 C 
ATOM      4  C   UNL     1     113.999 119.134 111.971  1.00  0.00     0.009 C 
ATOM      5  C   UNL     1     115.541 119.246 111.894  1.00  0.00     0.035 C 
ATOM      6  C   UNL     1     116.183 118.539 113.123  1.00  0.00     0.066 C 
ATOM      7  O   UNL     1     115.840 117.153 113.096  1.00  0.00    -0.369 OA
ATOM      8  C   UNL     1     115.623 119.180 114.424  1.00  0.00     0.035 C 
ATOM      9  C   UNL     1     114.079 119.069 114.442  1.00  0.00     0.009 C 
ATOM     10  C   UNL     1     117.709 118.672 113.077  1.00  0.00     0.042 C 
ATOM     11  C   UNL     1     114.035 116.110 111.882  1.00  0.00     0.042 C 
ENDROOT
TORSDOF 0
ENDMDL
MODEL 6
REMARK VINA RESULT:    -3.038      2.217      4.205
REMARK INTER + INTRA:          -3.038
REMARK INTER:                  -3.038
REMARK INTRA:                   0.000
REMARK UNBOUND:                 0.000
REMARK SMILES CC1(C)O[C@]2(C)CC[C@H]1CC2
REMARK SMILES IDX 1 1 2 2 9 3 8 4 7 5 5 6 4 7 11 8 10 9 6 10 3 11
REMARK H PARENT
REMARK Flexibility Score: inf
ROOT
ATOM      1  C   UNL     1     118.804 117.394 114.313  1.00  0.00     0.042 C 
ATOM      2  C   UNL     1     118.627 116.437 113.112  1.00  0.00     0.066 C 
ATOM      3  C   UNL     1     119.319 115.050 113.398  1.00  0.00     0.021 C 
ATOM      4  C   UNL     1     119.066 114.118 112.188  1.00  0.00     0.009 C 
ATOM      5  C   UNL     1     117.551 114.092 111.875  1.00  0.00     0.035 C 
ATOM      6  C   UNL     1     116.779 114.934 112.932  1.00  0.00     0.066 C 
ATOM      7  O   UNL     1     117.220 116.290 112.864  1.00  0.00    -0.369 OA
ATOM      8  C   UNL     1     117.084 114.368 114.348  1.00  0.00     0.035 C 
ATOM      9  C   UNL     1     118.610 114.388 114.604  1.00  0.00     0.009 C 
ATOM     10  C   UNL     1     115.273 114.889 112.653  1.00  0.00     0.042 C 
ATOM     11  C   UNL     1     119.261 117.122 111.883  1.00  0.00     0.042 C 
ENDROOT
TORSDOF 0
ENDMDL
MODEL 7
REMARK VINA RESULT:    -3.018      1.396      2.906
REMARK INTER + INTRA:          -3.018
REMARK INTER:                  -3.018
REMARK INTRA:                   0.000
REMARK UNBOUND:                 0.000
REMARK SMILES CC1(C)O[C@]2(C)CC[C@H]1CC2
REMARK SMILES IDX 1 1 2 2 9 3 8 4 7 5 5 6 4 7 11 8 10 9 6 10 3 11
REMARK H PARENT
REMARK Flexibility Score: inf
ROOT
ATOM      1  C   UNL     1     119.222 117.058 111.876  1.00  0.00     0.042 C 
ATOM      2  C   UNL     1     118.352 117.472 113.083  1.00  0.00     0.066 C 
ATOM      3  C   UNL     1     118.632 118.971 113.485  1.00  0.00     0.021 C 
ATOM      4  C   UNL     1     117.700 119.345 114.661  1.00  0.00     0.009 C 
ATOM      5  C   UNL     1     116.242 118.982 114.290  1.00  0.00     0.035 C 
ATOM      6  C   UNL     1     116.187 118.449 112.829  1.00  0.00     0.066 C 
ATOM      7  O   UNL     1     116.976 117.262 112.733  1.00  0.00    -0.369 OA
ATOM      8  C   UNL     1     116.772 119.530 111.875  1.00  0.00     0.035 C 
ATOM      9  C   UNL     1     118.217 119.880 112.303  1.00  0.00     0.009 C 
ATOM     10  C   UNL     1     114.744 118.117 112.437  1.00  0.00     0.042 C 
ATOM     11  C   UNL     1     118.700 116.520 114.248  1.00  0.00     0.042 C 
ENDROOT
TORSDOF 0
ENDMDL
MODEL 8
REMARK VINA RESULT:    -2.982      9.275     10.774
REMARK INTER + INTRA:          -2.982
REMARK INTER:                  -2.982
REMARK INTRA:                   0.000
REMARK UNBOUND:                 0.000
REMARK SMILES CC1(C)O[C@]2(C)CC[C@H]1CC2
REMARK SMILES IDX 1 1 2 2 9 3 8 4 7 5 5 6 4 7 11 8 10 9 6 10 3 11
REMARK H PARENT
REMARK Flexibility Score: inf
ROOT
ATOM      1  C   UNL     1     111.219 122.378 117.123  1.00  0.00     0.042 C 
ATOM      2  C   UNL     1     110.757 123.807 117.482  1.00  0.00     0.066 C 
ATOM      3  C   UNL     1     111.996 124.738 117.773  1.00  0.00     0.021 C 
ATOM      4  C   UNL     1     111.478 126.164 118.074  1.00  0.00     0.009 C 
ATOM      5  C   UNL     1     110.522 126.608 116.942  1.00  0.00     0.035 C 
ATOM      6  C   UNL     1     110.472 125.515 115.835  1.00  0.00     0.066 C 
ATOM      7  O   UNL     1     109.961 124.304 116.395  1.00  0.00    -0.369 OA
ATOM      8  C   UNL     1     111.914 125.264 115.307  1.00  0.00     0.035 C 
ATOM      9  C   UNL     1     112.837 124.852 116.479  1.00  0.00     0.009 C 
ATOM     10  C   UNL     1     109.555 125.956 114.690  1.00  0.00     0.042 C 
ATOM     11  C   UNL     1     109.851 123.698 118.728  1.00  0.00     0.042 C 
ENDROOT
TORSDOF 0
ENDMDL
MODEL 9
REMARK VINA RESULT:    -2.971      0.916      3.294
REMARK INTER + INTRA:          -2.971
REMARK INTER:                  -2.971
REMARK INTRA:                   0.000
REMARK UNBOUND:                 0.000
REMARK SMILES CC1(C)O[C@]2(C)CC[C@H]1CC2
REMARK SMILES IDX 1 1 2 2 9 3 8 4 7 5 5 6 4 7 11 8 10 9 6 10 3 11
REMARK H PARENT
REMARK Flexibility Score: inf
ROOT
ATOM      1  C   UNL     1     118.081 115.953 113.991  1.00  0.00     0.042 C 
ATOM      2  C   UNL     1     118.391 117.201 113.136  1.00  0.00     0.066 C 
ATOM      3  C   UNL     1     117.061 117.952 112.742  1.00  0.00     0.021 C 
ATOM      4  C   UNL     1     117.434 119.217 111.934  1.00  0.00     0.009 C 
ATOM      5  C   UNL     1     118.488 120.031 112.721  1.00  0.00     0.035 C 
ATOM      6  C   UNL     1     118.754 119.358 114.099  1.00  0.00     0.066 C 
ATOM      7  O   UNL     1     119.277 118.046 113.886  1.00  0.00    -0.369 OA
ATOM      8  C   UNL     1     117.410 119.251 114.876  1.00  0.00     0.035 C 
ATOM      9  C   UNL     1     116.381 118.456 114.037  1.00  0.00     0.009 C 
ATOM     10  C   UNL     1     119.771 120.172 114.903  1.00  0.00     0.042 C 
ATOM     11  C   UNL     1     119.141 116.720 111.875  1.00  0.00     0.042 C 
ENDROOT
TORSDOF 0
ENDMDL
