MODEL 1
REMARK VINA RESULT:    -7.209      0.000      0.000
REMARK INTER + INTRA:         -10.869
REMARK INTER:                  -9.526
REMARK INTRA:                  -1.342
REMARK UNBOUND:                -1.342
REMARK SMILES CC[C@H](C=C[C@@H](C)[C@@H]1CC[C@@H]2[C@H]3CC=C4C[C@H](O)CC[C@]4(C)[C@@H]3CC[C@]21C)C(C)C
REMARK SMILES IDX 6 1 7 2 5 3 4 4 3 5 2 6 1 7 28 8 29 9 30 10 8 11 9 12 26 13
REMARK SMILES IDX 10 14 11 15 25 16 27 17 12 18 24 19 23 20 13 21 21 22 14 23
REMARK SMILES IDX 15 24 20 25 22 26 16 27 19 28 17 29 18 30
REMARK H PARENT 18 31
REMARK Flexibility Score: inf
ROOT
ATOM      1  C   UNL     1     131.553 128.129 137.726  1.00  0.00     0.012 C 
ATOM      2  C   UNL     1     130.870 126.753 137.725  1.00  0.00     0.012 C 
ENDROOT
BRANCH   1   3
ATOM      3  C   UNL     1     132.333 128.246 136.436  1.00  0.00    -0.028 C 
ATOM      4  C   UNL     1     133.675 128.320 136.417  1.00  0.00    -0.027 C 
BRANCH   4   5
ATOM      5  C   UNL     1     134.486 128.611 135.162  1.00  0.00     0.014 C 
BRANCH   5   6
ATOM      6  C   UNL     1     135.596 129.670 135.421  1.00  0.00     0.004 C 
ATOM      7  C   UNL     1     135.064 131.066 135.745  1.00  0.00     0.004 C 
ENDBRANCH   5   6
BRANCH   5   8
ATOM      8  C   UNL     1     134.948 127.262 134.514  1.00  0.00    -0.011 C 
ATOM      9  C   UNL     1     135.736 126.345 135.462  1.00  0.00     0.008 C 
ATOM     10  C   UNL     1     135.714 127.453 133.195  1.00  0.00     0.008 C 
ENDBRANCH   5   8
ENDBRANCH   4   5
ENDBRANCH   1   3
BRANCH   1  11
ATOM     11  C   UNL     1     132.492 128.302 138.959  1.00  0.00     0.002 C 
ATOM     12  C   UNL     1     132.122 127.370 140.144  1.00  0.00     0.005 C 
ATOM     13  C   UNL     1     132.555 129.711 139.617  1.00  0.00    -0.026 C 
ATOM     14  C   UNL     1     132.499 128.113 141.436  1.00  0.00     0.005 C 
ATOM     15  C   UNL     1     133.229 129.357 140.951  1.00  0.00    -0.001 C 
ATOM     16  C   UNL     1     133.471 130.735 138.905  1.00  0.00     0.007 C 
ATOM     17  C   UNL     1     131.118 130.302 139.790  1.00  0.00     0.012 C 
ATOM     18  C   UNL     1     133.360 130.558 141.914  1.00  0.00     0.000 C 
ATOM     19  C   UNL     1     133.691 131.992 139.778  1.00  0.00     0.005 C 
ATOM     20  C   UNL     1     134.199 131.673 141.223  1.00  0.00     0.003 C 
ATOM     21  C   UNL     1     134.092 130.133 143.195  1.00  0.00     0.031 C 
ATOM     22  C   UNL     1     134.374 132.947 142.150  1.00  0.00    -0.008 C 
ATOM     23  C   UNL     1     134.309 131.307 144.097  1.00  0.00    -0.027 C 
ATOM     24  C   UNL     1     134.489 132.567 143.641  1.00  0.00    -0.065 C 
ATOM     25  C   UNL     1     133.160 133.923 142.019  1.00  0.00     0.014 C 
ATOM     26  C   UNL     1     135.675 133.676 141.720  1.00  0.00     0.016 C 
ATOM     27  C   UNL     1     134.540 133.695 144.651  1.00  0.00     0.063 C 
ATOM     28  C   UNL     1     133.159 135.076 143.047  1.00  0.00     0.033 C 
ATOM     29  C   UNL     1     133.293 134.579 144.494  1.00  0.00     0.118 C 
BRANCH  29  30
ATOM     30  O   UNL     1     132.135 133.870 144.858  1.00  0.00    -0.393 OA
ATOM     31  H   UNL     1     131.905 134.149 145.780  1.00  0.00     0.210 HD
ENDBRANCH  29  30
ENDBRANCH   1  11
TORSDOF 6
ENDMDL
MODEL 2
REMARK VINA RESULT:    -6.946      1.876      2.719
REMARK INTER + INTRA:         -10.522
REMARK INTER:                  -9.148
REMARK INTRA:                  -1.373
REMARK UNBOUND:                -1.342
REMARK SMILES CC[C@H](C=C[C@@H](C)[C@@H]1CC[C@@H]2[C@H]3CC=C4C[C@H](O)CC[C@]4(C)[C@@H]3CC[C@]21C)C(C)C
REMARK SMILES IDX 6 1 7 2 5 3 4 4 3 5 2 6 1 7 28 8 29 9 30 10 8 11 9 12 26 13
REMARK SMILES IDX 10 14 11 15 25 16 27 17 12 18 24 19 23 20 13 21 21 22 14 23
REMARK SMILES IDX 15 24 20 25 22 26 16 27 19 28 17 29 18 30
REMARK H PARENT 18 31
REMARK Flexibility Score: inf
ROOT
ATOM      1  C   UNL     1     134.003 125.531 138.513  1.00  0.00     0.012 C 
ATOM      2  C   UNL     1     134.250 124.015 138.543  1.00  0.00     0.012 C 
ENDROOT
BRANCH   1   3
ATOM      3  C   UNL     1     134.489 126.040 137.174  1.00  0.00    -0.028 C 
ATOM      4  C   UNL     1     135.796 126.161 136.887  1.00  0.00    -0.027 C 
BRANCH   4   5
ATOM      5  C   UNL     1     136.325 126.827 135.624  1.00  0.00     0.014 C 
BRANCH   5   6
ATOM      6  C   UNL     1     136.890 125.788 134.613  1.00  0.00     0.004 C 
ATOM      7  C   UNL     1     136.906 124.351 135.136  1.00  0.00     0.004 C 
ENDBRANCH   5   6
BRANCH   5   8
ATOM      8  C   UNL     1     135.254 127.825 135.071  1.00  0.00    -0.011 C 
ATOM      9  C   UNL     1     134.711 127.460 133.680  1.00  0.00     0.008 C 
ATOM     10  C   UNL     1     135.719 129.290 135.095  1.00  0.00     0.008 C 
ENDBRANCH   5   8
ENDBRANCH   4   5
ENDBRANCH   1   3
BRANCH   1  11
ATOM     11  C   UNL     1     134.741 126.254 139.682  1.00  0.00     0.002 C 
ATOM     12  C   UNL     1     134.643 125.493 141.030  1.00  0.00     0.005 C 
ATOM     13  C   UNL     1     134.265 127.691 140.045  1.00  0.00    -0.026 C 
ATOM     14  C   UNL     1     134.653 126.551 142.146  1.00  0.00     0.005 C 
ATOM     15  C   UNL     1     134.931 127.857 141.419  1.00  0.00    -0.001 C 
ATOM     16  C   UNL     1     134.809 128.820 139.139  1.00  0.00     0.007 C 
ATOM     17  C   UNL     1     132.703 127.754 140.106  1.00  0.00     0.012 C 
ATOM     18  C   UNL     1     134.572 129.184 142.123  1.00  0.00     0.000 C 
ATOM     19  C   UNL     1     134.518 130.214 139.743  1.00  0.00     0.005 C 
ATOM     20  C   UNL     1     135.011 130.373 141.219  1.00  0.00     0.003 C 
ATOM     21  C   UNL     1     135.321 129.297 143.458  1.00  0.00     0.031 C 
ATOM     22  C   UNL     1     134.669 131.777 141.873  1.00  0.00    -0.008 C 
ATOM     23  C   UNL     1     135.055 130.618 144.108  1.00  0.00    -0.027 C 
ATOM     24  C   UNL     1     134.813 131.750 143.409  1.00  0.00    -0.065 C 
ATOM     25  C   UNL     1     133.202 132.214 141.558  1.00  0.00     0.014 C 
ATOM     26  C   UNL     1     135.658 132.826 141.299  1.00  0.00     0.016 C 
ATOM     27  C   UNL     1     134.401 132.991 144.174  1.00  0.00     0.063 C 
ATOM     28  C   UNL     1     132.731 133.463 142.337  1.00  0.00     0.033 C 
ATOM     29  C   UNL     1     132.936 133.328 143.853  1.00  0.00     0.118 C 
BRANCH  29  30
ATOM     30  O   UNL     1     132.078 132.335 144.358  1.00  0.00    -0.393 OA
ATOM     31  H   UNL     1     131.588 132.738 145.118  1.00  0.00     0.210 HD
ENDBRANCH  29  30
ENDBRANCH   1  11
TORSDOF 6
ENDMDL
MODEL 3
REMARK VINA RESULT:    -6.822      2.626      8.212
REMARK INTER + INTRA:         -10.358
REMARK INTER:                  -9.739
REMARK INTRA:                  -0.619
REMARK UNBOUND:                -1.342
REMARK SMILES CC[C@H](C=C[C@@H](C)[C@@H]1CC[C@@H]2[C@H]3CC=C4C[C@H](O)CC[C@]4(C)[C@@H]3CC[C@]21C)C(C)C
REMARK SMILES IDX 6 1 7 2 5 3 4 4 3 5 2 6 1 7 28 8 29 9 30 10 8 11 9 12 26 13
REMARK SMILES IDX 10 14 11 15 25 16 27 17 12 18 24 19 23 20 13 21 21 22 14 23
REMARK SMILES IDX 15 24 20 25 22 26 16 27 19 28 17 29 18 30
REMARK H PARENT 18 31
REMARK Flexibility Score: inf
ROOT
ATOM      1  C   UNL     1     135.332 134.075 139.655  1.00  0.00     0.012 C 
ATOM      2  C   UNL     1     136.688 134.656 140.087  1.00  0.00     0.012 C 
ENDROOT
BRANCH   1   3
ATOM      3  C   UNL     1     134.380 134.241 140.816  1.00  0.00    -0.028 C 
ATOM      4  C   UNL     1     134.801 134.237 142.093  1.00  0.00    -0.027 C 
BRANCH   4   5
ATOM      5  C   UNL     1     133.863 134.229 143.292  1.00  0.00     0.014 C 
BRANCH   5   6
ATOM      6  C   UNL     1     134.121 133.009 144.223  1.00  0.00     0.004 C 
ATOM      7  C   UNL     1     133.107 131.877 144.066  1.00  0.00     0.004 C 
ENDBRANCH   5   6
BRANCH   5   8
ATOM      8  C   UNL     1     133.871 135.639 143.972  1.00  0.00    -0.011 C 
ATOM      9  C   UNL     1     134.935 135.802 145.069  1.00  0.00     0.008 C 
ATOM     10  C   UNL     1     132.491 136.068 144.498  1.00  0.00     0.008 C 
ENDBRANCH   5   8
ENDBRANCH   4   5
ENDBRANCH   1   3
BRANCH   1  11
ATOM     11  C   UNL     1     135.456 132.574 139.250  1.00  0.00     0.002 C 
ATOM     12  C   UNL     1     135.976 132.372 137.801  1.00  0.00     0.005 C 
ATOM     13  C   UNL     1     134.157 131.715 139.287  1.00  0.00    -0.026 C 
ATOM     14  C   UNL     1     135.335 131.080 137.268  1.00  0.00     0.005 C 
ATOM     15  C   UNL     1     134.617 130.496 138.475  1.00  0.00    -0.001 C 
ATOM     16  C   UNL     1     133.744 131.198 140.685  1.00  0.00     0.007 C 
ATOM     17  C   UNL     1     132.970 132.486 138.624  1.00  0.00     0.012 C 
ATOM     18  C   UNL     1     133.498 129.457 138.235  1.00  0.00     0.000 C 
ATOM     19  C   UNL     1     132.626 130.136 140.582  1.00  0.00     0.005 C 
ATOM     20  C   UNL     1     132.967 128.957 139.611  1.00  0.00     0.003 C 
ATOM     21  C   UNL     1     134.052 128.248 137.469  1.00  0.00     0.031 C 
ATOM     22  C   UNL     1     131.807 127.889 139.448  1.00  0.00    -0.008 C 
ATOM     23  C   UNL     1     133.003 127.192 137.311  1.00  0.00    -0.027 C 
ATOM     24  C   UNL     1     132.021 126.985 138.216  1.00  0.00    -0.065 C 
ATOM     25  C   UNL     1     130.413 128.575 139.276  1.00  0.00     0.014 C 
ATOM     26  C   UNL     1     131.794 127.000 140.721  1.00  0.00     0.016 C 
ATOM     27  C   UNL     1     130.925 125.997 137.872  1.00  0.00     0.063 C 
ATOM     28  C   UNL     1     129.271 127.607 138.900  1.00  0.00     0.033 C 
ATOM     29  C   UNL     1     129.601 126.750 137.669  1.00  0.00     0.118 C 
BRANCH  29  30
ATOM     30  O   UNL     1     129.669 127.570 136.529  1.00  0.00    -0.393 OA
ATOM     31  H   UNL     1     130.560 127.425 136.123  1.00  0.00     0.210 HD
ENDBRANCH  29  30
ENDBRANCH   1  11
TORSDOF 6
ENDMDL
MODEL 4
REMARK VINA RESULT:    -6.362      2.712      8.291
REMARK INTER + INTRA:          -9.750
REMARK INTER:                  -9.550
REMARK INTRA:                  -0.200
REMARK UNBOUND:                -1.342
REMARK SMILES CC[C@H](C=C[C@@H](C)[C@@H]1CC[C@@H]2[C@H]3CC=C4C[C@H](O)CC[C@]4(C)[C@@H]3CC[C@]21C)C(C)C
REMARK SMILES IDX 6 1 7 2 5 3 4 4 3 5 2 6 1 7 28 8 29 9 30 10 8 11 9 12 26 13
REMARK SMILES IDX 10 14 11 15 25 16 27 17 12 18 24 19 23 20 13 21 21 22 14 23
REMARK SMILES IDX 15 24 20 25 22 26 16 27 19 28 17 29 18 30
REMARK H PARENT 18 31
REMARK Flexibility Score: inf
ROOT
ATOM      1  C   UNL     1     133.866 133.736 140.008  1.00  0.00     0.012 C 
ATOM      2  C   UNL     1     135.391 133.876 139.888  1.00  0.00     0.012 C 
ENDROOT
BRANCH   1   3
ATOM      3  C   UNL     1     133.554 133.424 141.454  1.00  0.00    -0.028 C 
ATOM      4  C   UNL     1     134.496 133.460 142.412  1.00  0.00    -0.027 C 
BRANCH   4   5
ATOM      5  C   UNL     1     134.265 132.989 143.842  1.00  0.00     0.014 C 
BRANCH   5   6
ATOM      6  C   UNL     1     132.937 133.548 144.430  1.00  0.00     0.004 C 
ATOM      7  C   UNL     1     132.884 135.073 144.516  1.00  0.00     0.004 C 
ENDBRANCH   5   6
BRANCH   5   8
ATOM      8  C   UNL     1     134.463 131.438 143.920  1.00  0.00    -0.011 C 
ATOM      9  C   UNL     1     135.579 130.900 143.010  1.00  0.00     0.008 C 
ATOM     10  C   UNL     1     133.164 130.647 143.697  1.00  0.00     0.008 C 
ENDBRANCH   5   8
ENDBRANCH   4   5
ENDBRANCH   1   3
BRANCH   1  11
ATOM     11  C   UNL     1     133.318 132.618 139.069  1.00  0.00     0.002 C 
ATOM     12  C   UNL     1     132.307 131.672 139.771  1.00  0.00     0.005 C 
ATOM     13  C   UNL     1     134.354 131.637 138.446  1.00  0.00    -0.026 C 
ATOM     14  C   UNL     1     132.459 130.287 139.120  1.00  0.00     0.005 C 
ATOM     15  C   UNL     1     133.414 130.524 137.960  1.00  0.00    -0.001 C 
ATOM     16  C   UNL     1     135.107 132.169 137.204  1.00  0.00     0.007 C 
ATOM     17  C   UNL     1     135.373 131.154 139.529  1.00  0.00     0.012 C 
ATOM     18  C   UNL     1     134.155 129.311 137.355  1.00  0.00     0.000 C 
ATOM     19  C   UNL     1     135.890 131.038 136.496  1.00  0.00     0.005 C 
ATOM     20  C   UNL     1     135.013 129.791 136.147  1.00  0.00     0.003 C 
ATOM     21  C   UNL     1     133.146 128.273 136.843  1.00  0.00     0.031 C 
ATOM     22  C   UNL     1     135.812 128.599 135.473  1.00  0.00    -0.008 C 
ATOM     23  C   UNL     1     133.848 127.136 136.171  1.00  0.00    -0.027 C 
ATOM     24  C   UNL     1     135.018 127.277 135.508  1.00  0.00    -0.065 C 
ATOM     25  C   UNL     1     137.171 128.336 136.200  1.00  0.00     0.014 C 
ATOM     26  C   UNL     1     136.080 128.979 133.993  1.00  0.00     0.016 C 
ATOM     27  C   UNL     1     135.712 126.027 135.006  1.00  0.00     0.063 C 
ATOM     28  C   UNL     1     137.901 127.057 135.735  1.00  0.00     0.033 C 
ATOM     29  C   UNL     1     137.010 125.808 135.800  1.00  0.00     0.118 C 
BRANCH  29  30
ATOM     30  O   UNL     1     136.723 125.503 137.142  1.00  0.00    -0.393 OA
ATOM     31  H   UNL     1     137.222 126.153 137.698  1.00  0.00     0.210 HD
ENDBRANCH  29  30
ENDBRANCH   1  11
TORSDOF 6
ENDMDL
MODEL 5
REMARK VINA RESULT:    -6.233      2.654      8.176
REMARK INTER + INTRA:          -9.579
REMARK INTER:                  -9.223
REMARK INTRA:                  -0.357
REMARK UNBOUND:                -1.342
REMARK SMILES CC[C@H](C=C[C@@H](C)[C@@H]1CC[C@@H]2[C@H]3CC=C4C[C@H](O)CC[C@]4(C)[C@@H]3CC[C@]21C)C(C)C
REMARK SMILES IDX 6 1 7 2 5 3 4 4 3 5 2 6 1 7 28 8 29 9 30 10 8 11 9 12 26 13
REMARK SMILES IDX 10 14 11 15 25 16 27 17 12 18 24 19 23 20 13 21 21 22 14 23
REMARK SMILES IDX 15 24 20 25 22 26 16 27 19 28 17 29 18 30
REMARK H PARENT 18 31
REMARK Flexibility Score: inf
ROOT
ATOM      1  C   UNL     1     133.062 133.088 139.783  1.00  0.00     0.012 C 
ATOM      2  C   UNL     1     134.421 133.553 139.236  1.00  0.00     0.012 C 
ENDROOT
BRANCH   1   3
ATOM      3  C   UNL     1     133.143 133.134 141.291  1.00  0.00    -0.028 C 
ATOM      4  C   UNL     1     134.312 133.268 141.941  1.00  0.00    -0.027 C 
BRANCH   4   5
ATOM      5  C   UNL     1     134.458 133.147 143.451  1.00  0.00     0.014 C 
BRANCH   5   6
ATOM      6  C   UNL     1     133.363 133.952 144.207  1.00  0.00     0.004 C 
ATOM      7  C   UNL     1     133.541 135.469 144.136  1.00  0.00     0.004 C 
ENDBRANCH   5   6
BRANCH   5   8
ATOM      8  C   UNL     1     134.609 131.639 143.843  1.00  0.00    -0.011 C 
ATOM      9  C   UNL     1     135.451 130.813 142.856  1.00  0.00     0.008 C 
ATOM     10  C   UNL     1     133.264 130.943 144.110  1.00  0.00     0.008 C 
ENDBRANCH   5   8
ENDBRANCH   4   5
ENDBRANCH   1   3
BRANCH   1  11
ATOM     11  C   UNL     1     132.708 131.651 139.290  1.00  0.00     0.002 C 
ATOM     12  C   UNL     1     132.356 130.678 140.447  1.00  0.00     0.005 C 
ATOM     13  C   UNL     1     133.801 130.881 138.492  1.00  0.00    -0.026 C 
ATOM     14  C   UNL     1     132.803 129.274 140.006  1.00  0.00     0.005 C 
ATOM     15  C   UNL     1     133.229 129.457 138.557  1.00  0.00    -0.001 C 
ATOM     16  C   UNL     1     133.917 131.254 136.996  1.00  0.00     0.007 C 
ATOM     17  C   UNL     1     135.192 131.018 139.193  1.00  0.00     0.012 C 
ATOM     18  C   UNL     1     134.149 128.392 137.919  1.00  0.00     0.000 C 
ATOM     19  C   UNL     1     134.815 130.250 136.236  1.00  0.00     0.005 C 
ATOM     20  C   UNL     1     134.387 128.757 136.424  1.00  0.00     0.003 C 
ATOM     21  C   UNL     1     133.481 127.011 137.974  1.00  0.00     0.031 C 
ATOM     22  C   UNL     1     135.331 127.711 135.699  1.00  0.00    -0.008 C 
ATOM     23  C   UNL     1     134.319 125.987 137.277  1.00  0.00    -0.027 C 
ATOM     24  C   UNL     1     135.114 126.276 136.222  1.00  0.00    -0.065 C 
ATOM     25  C   UNL     1     136.841 128.053 135.915  1.00  0.00     0.014 C 
ATOM     26  C   UNL     1     135.004 127.742 134.182  1.00  0.00     0.016 C 
ATOM     27  C   UNL     1     136.035 125.191 135.701  1.00  0.00     0.063 C 
ATOM     28  C   UNL     1     137.816 126.963 135.420  1.00  0.00     0.033 C 
ATOM     29  C   UNL     1     137.494 125.575 135.994  1.00  0.00     0.118 C 
BRANCH  29  30
ATOM     30  O   UNL     1     137.738 125.570 137.379  1.00  0.00    -0.393 OA
ATOM     31  H   UNL     1     138.012 126.489 137.626  1.00  0.00     0.210 HD
ENDBRANCH  29  30
ENDBRANCH   1  11
TORSDOF 6
ENDMDL
MODEL 6
REMARK VINA RESULT:    -6.189      1.883      4.710
REMARK INTER + INTRA:          -9.522
REMARK INTER:                 -10.368
REMARK INTRA:                   0.847
REMARK UNBOUND:                -1.342
REMARK SMILES CC[C@H](C=C[C@@H](C)[C@@H]1CC[C@@H]2[C@H]3CC=C4C[C@H](O)CC[C@]4(C)[C@@H]3CC[C@]21C)C(C)C
REMARK SMILES IDX 6 1 7 2 5 3 4 4 3 5 2 6 1 7 28 8 29 9 30 10 8 11 9 12 26 13
REMARK SMILES IDX 10 14 11 15 25 16 27 17 12 18 24 19 23 20 13 21 21 22 14 23
REMARK SMILES IDX 15 24 20 25 22 26 16 27 19 28 17 29 18 30
REMARK H PARENT 18 31
REMARK Flexibility Score: inf
ROOT
ATOM      1  C   UNL     1     135.730 128.357 134.337  1.00  0.00     0.012 C 
ATOM      2  C   UNL     1     134.674 127.716 133.424  1.00  0.00     0.012 C 
ENDROOT
BRANCH   1   3
ATOM      3  C   UNL     1     136.212 127.288 135.290  1.00  0.00    -0.028 C 
ATOM      4  C   UNL     1     135.727 126.035 135.264  1.00  0.00    -0.027 C 
BRANCH   4   5
ATOM      5  C   UNL     1     136.056 124.979 136.310  1.00  0.00     0.014 C 
BRANCH   5   6
ATOM      6  C   UNL     1     137.581 124.920 136.616  1.00  0.00     0.004 C 
ATOM      7  C   UNL     1     138.461 125.525 135.522  1.00  0.00     0.004 C 
ENDBRANCH   5   6
BRANCH   5   8
ATOM      8  C   UNL     1     135.105 125.149 137.542  1.00  0.00    -0.011 C 
ATOM      9  C   UNL     1     135.729 125.919 138.717  1.00  0.00     0.008 C 
ATOM     10  C   UNL     1     134.503 123.822 138.032  1.00  0.00     0.008 C 
ENDBRANCH   5   8
ENDBRANCH   4   5
ENDBRANCH   1   3
BRANCH   1  11
ATOM     11  C   UNL     1     135.148 129.575 135.119  1.00  0.00     0.002 C 
ATOM     12  C   UNL     1     136.091 130.808 135.119  1.00  0.00     0.005 C 
ATOM     13  C   UNL     1     134.827 129.367 136.628  1.00  0.00    -0.026 C 
ATOM     14  C   UNL     1     135.860 131.551 136.446  1.00  0.00     0.005 C 
ATOM     15  C   UNL     1     134.679 130.828 137.076  1.00  0.00    -0.001 C 
ATOM     16  C   UNL     1     133.484 128.662 136.930  1.00  0.00     0.007 C 
ATOM     17  C   UNL     1     136.002 128.620 137.341  1.00  0.00     0.012 C 
ATOM     18  C   UNL     1     134.442 130.987 138.595  1.00  0.00     0.000 C 
ATOM     19  C   UNL     1     133.126 128.758 138.431  1.00  0.00     0.005 C 
ATOM     20  C   UNL     1     133.146 130.219 138.989  1.00  0.00     0.003 C 
ATOM     21  C   UNL     1     134.247 132.468 138.950  1.00  0.00     0.031 C 
ATOM     22  C   UNL     1     132.837 130.330 140.540  1.00  0.00    -0.008 C 
ATOM     23  C   UNL     1     133.924 132.629 140.402  1.00  0.00    -0.027 C 
ATOM     24  C   UNL     1     133.247 131.702 141.115  1.00  0.00    -0.065 C 
ATOM     25  C   UNL     1     133.606 129.243 141.358  1.00  0.00     0.014 C 
ATOM     26  C   UNL     1     131.309 130.144 140.738  1.00  0.00     0.016 C 
ATOM     27  C   UNL     1     133.119 131.902 142.612  1.00  0.00     0.063 C 
ATOM     28  C   UNL     1     133.523 129.423 142.889  1.00  0.00     0.033 C 
ATOM     29  C   UNL     1     133.940 130.829 143.344  1.00  0.00     0.118 C 
BRANCH  29  30
ATOM     30  O   UNL     1     135.314 131.012 143.108  1.00  0.00    -0.393 OA
ATOM     31  H   UNL     1     135.612 130.256 142.543  1.00  0.00     0.210 HD
ENDBRANCH  29  30
ENDBRANCH   1  11
TORSDOF 6
ENDMDL
MODEL 7
REMARK VINA RESULT:    -6.033      3.276      7.237
REMARK INTER + INTRA:          -9.316
REMARK INTER:                  -9.242
REMARK INTRA:                  -0.073
REMARK UNBOUND:                -1.342
REMARK SMILES CC[C@H](C=C[C@@H](C)[C@@H]1CC[C@@H]2[C@H]3CC=C4C[C@H](O)CC[C@]4(C)[C@@H]3CC[C@]21C)C(C)C
REMARK SMILES IDX 6 1 7 2 5 3 4 4 3 5 2 6 1 7 28 8 29 9 30 10 8 11 9 12 26 13
REMARK SMILES IDX 10 14 11 15 25 16 27 17 12 18 24 19 23 20 13 21 21 22 14 23
REMARK SMILES IDX 15 24 20 25 22 26 16 27 19 28 17 29 18 30
REMARK H PARENT 18 31
REMARK Flexibility Score: inf
ROOT
ATOM      1  C   UNL     1     134.552 124.945 141.809  1.00  0.00     0.012 C 
ATOM      2  C   UNL     1     133.734 123.771 142.370  1.00  0.00     0.012 C 
ENDROOT
BRANCH   1   3
ATOM      3  C   UNL     1     134.416 126.094 142.782  1.00  0.00    -0.028 C 
ATOM      4  C   UNL     1     135.442 126.915 143.065  1.00  0.00    -0.027 C 
BRANCH   4   5
ATOM      5  C   UNL     1     135.399 127.973 144.160  1.00  0.00     0.014 C 
BRANCH   5   6
ATOM      6  C   UNL     1     136.723 128.016 144.977  1.00  0.00     0.004 C 
ATOM      7  C   UNL     1     137.847 127.161 144.391  1.00  0.00     0.004 C 
ENDBRANCH   5   6
BRANCH   5   8
ATOM      8  C   UNL     1     134.909 129.331 143.556  1.00  0.00    -0.011 C 
ATOM      9  C   UNL     1     135.918 130.482 143.695  1.00  0.00     0.008 C 
ATOM     10  C   UNL     1     133.529 129.764 144.076  1.00  0.00     0.008 C 
ENDBRANCH   5   8
ENDBRANCH   4   5
ENDBRANCH   1   3
BRANCH   1  11
ATOM     11  C   UNL     1     134.059 125.360 140.388  1.00  0.00     0.002 C 
ATOM     12  C   UNL     1     134.630 124.463 139.258  1.00  0.00     0.005 C 
ATOM     13  C   UNL     1     134.397 126.802 139.909  1.00  0.00    -0.026 C 
ATOM     14  C   UNL     1     134.766 125.347 138.007  1.00  0.00     0.005 C 
ATOM     15  C   UNL     1     134.110 126.660 138.407  1.00  0.00    -0.001 C 
ATOM     16  C   UNL     1     133.466 127.914 140.445  1.00  0.00     0.007 C 
ATOM     17  C   UNL     1     135.889 127.149 140.221  1.00  0.00     0.012 C 
ATOM     18  C   UNL     1     134.445 127.930 137.592  1.00  0.00     0.000 C 
ATOM     19  C   UNL     1     133.699 129.248 139.698  1.00  0.00     0.005 C 
ATOM     20  C   UNL     1     133.606 129.121 138.141  1.00  0.00     0.003 C 
ATOM     21  C   UNL     1     134.077 127.726 136.116  1.00  0.00     0.031 C 
ATOM     22  C   UNL     1     133.900 130.467 137.357  1.00  0.00    -0.008 C 
ATOM     23  C   UNL     1     134.309 128.979 135.332  1.00  0.00    -0.027 C 
ATOM     24  C   UNL     1     134.182 130.217 135.862  1.00  0.00    -0.065 C 
ATOM     25  C   UNL     1     135.145 131.211 137.940  1.00  0.00     0.014 C 
ATOM     26  C   UNL     1     132.647 131.376 137.482  1.00  0.00     0.016 C 
ATOM     27  C   UNL     1     134.597 131.404 135.017  1.00  0.00     0.063 C 
ATOM     28  C   UNL     1     135.617 132.415 137.096  1.00  0.00     0.033 C 
ATOM     29  C   UNL     1     135.852 132.050 135.623  1.00  0.00     0.118 C 
BRANCH  29  30
ATOM     30  O   UNL     1     136.953 131.180 135.523  1.00  0.00    -0.393 OA
ATOM     31  H   UNL     1     137.225 131.169 134.571  1.00  0.00     0.210 HD
ENDBRANCH  29  30
ENDBRANCH   1  11
TORSDOF 6
ENDMDL
MODEL 8
REMARK VINA RESULT:    -5.889      2.805      7.199
REMARK INTER + INTRA:          -9.125
REMARK INTER:                  -9.577
REMARK INTRA:                   0.452
REMARK UNBOUND:                -1.342
REMARK SMILES CC[C@H](C=C[C@@H](C)[C@@H]1CC[C@@H]2[C@H]3CC=C4C[C@H](O)CC[C@]4(C)[C@@H]3CC[C@]21C)C(C)C
REMARK SMILES IDX 6 1 7 2 5 3 4 4 3 5 2 6 1 7 28 8 29 9 30 10 8 11 9 12 26 13
REMARK SMILES IDX 10 14 11 15 25 16 27 17 12 18 24 19 23 20 13 21 21 22 14 23
REMARK SMILES IDX 15 24 20 25 22 26 16 27 19 28 17 29 18 30
REMARK H PARENT 18 31
REMARK Flexibility Score: inf
ROOT
ATOM      1  C   UNL     1     133.895 131.833 143.916  1.00  0.00     0.012 C 
ATOM      2  C   UNL     1     132.518 132.483 144.119  1.00  0.00     0.012 C 
ENDROOT
BRANCH   1   3
ATOM      3  C   UNL     1     134.551 132.521 142.741  1.00  0.00    -0.028 C 
ATOM      4  C   UNL     1     133.854 133.278 141.876  1.00  0.00    -0.027 C 
BRANCH   4   5
ATOM      5  C   UNL     1     134.438 133.845 140.589  1.00  0.00     0.014 C 
BRANCH   5   6
ATOM      6  C   UNL     1     135.994 133.821 140.598  1.00  0.00     0.004 C 
ATOM      7  C   UNL     1     136.636 134.515 139.396  1.00  0.00     0.004 C 
ENDBRANCH   5   6
BRANCH   5   8
ATOM      8  C   UNL     1     133.738 133.179 139.358  1.00  0.00    -0.011 C 
ATOM      9  C   UNL     1     132.285 132.748 139.617  1.00  0.00     0.008 C 
ATOM     10  C   UNL     1     134.542 132.013 138.759  1.00  0.00     0.008 C 
ENDBRANCH   5   8
ENDBRANCH   4   5
ENDBRANCH   1   3
BRANCH   1  11
ATOM     11  C   UNL     1     133.773 130.298 143.662  1.00  0.00     0.002 C 
ATOM     12  C   UNL     1     134.805 129.462 144.463  1.00  0.00     0.005 C 
ATOM     13  C   UNL     1     133.963 129.800 142.199  1.00  0.00    -0.026 C 
ATOM     14  C   UNL     1     135.136 128.222 143.614  1.00  0.00     0.005 C 
ATOM     15  C   UNL     1     134.160 128.298 142.449  1.00  0.00    -0.001 C 
ATOM     16  C   UNL     1     132.727 129.948 141.281  1.00  0.00     0.007 C 
ATOM     17  C   UNL     1     135.207 130.484 141.543  1.00  0.00     0.012 C 
ATOM     18  C   UNL     1     134.479 127.495 141.168  1.00  0.00     0.000 C 
ATOM     19  C   UNL     1     132.917 129.175 139.955  1.00  0.00     0.005 C 
ATOM     20  C   UNL     1     133.310 127.674 140.154  1.00  0.00     0.003 C 
ATOM     21  C   UNL     1     134.603 126.001 141.495  1.00  0.00     0.031 C 
ATOM     22  C   UNL     1     133.566 126.882 138.805  1.00  0.00    -0.008 C 
ATOM     23  C   UNL     1     134.819 125.200 140.250  1.00  0.00    -0.027 C 
ATOM     24  C   UNL     1     134.316 125.555 139.046  1.00  0.00    -0.065 C 
ATOM     25  C   UNL     1     134.425 127.718 137.803  1.00  0.00     0.014 C 
ATOM     26  C   UNL     1     132.187 126.565 138.168  1.00  0.00     0.016 C 
ATOM     27  C   UNL     1     134.732 124.753 137.830  1.00  0.00     0.063 C 
ATOM     28  C   UNL     1     134.893 126.931 136.559  1.00  0.00     0.033 C 
ATOM     29  C   UNL     1     135.613 125.624 136.920  1.00  0.00     0.118 C 
BRANCH  29  30
ATOM     30  O   UNL     1     136.836 125.918 137.550  1.00  0.00    -0.393 OA
ATOM     31  H   UNL     1     136.721 125.710 138.511  1.00  0.00     0.210 HD
ENDBRANCH  29  30
ENDBRANCH   1  11
TORSDOF 6
ENDMDL
MODEL 9
REMARK VINA RESULT:    -5.885      3.332      7.109
REMARK INTER + INTRA:          -9.119
REMARK INTER:                  -8.780
REMARK INTRA:                  -0.340
REMARK UNBOUND:                -1.342
REMARK SMILES CC[C@H](C=C[C@@H](C)[C@@H]1CC[C@@H]2[C@H]3CC=C4C[C@H](O)CC[C@]4(C)[C@@H]3CC[C@]21C)C(C)C
REMARK SMILES IDX 6 1 7 2 5 3 4 4 3 5 2 6 1 7 28 8 29 9 30 10 8 11 9 12 26 13
REMARK SMILES IDX 10 14 11 15 25 16 27 17 12 18 24 19 23 20 13 21 21 22 14 23
REMARK SMILES IDX 15 24 20 25 22 26 16 27 19 28 17 29 18 30
REMARK H PARENT 18 31
REMARK Flexibility Score: inf
ROOT
ATOM      1  C   UNL     1     135.301 125.060 142.155  1.00  0.00     0.012 C 
ATOM      2  C   UNL     1     134.669 124.263 143.307  1.00  0.00     0.012 C 
ENDROOT
BRANCH   1   3
ATOM      3  C   UNL     1     135.753 126.387 142.720  1.00  0.00    -0.028 C 
ATOM      4  C   UNL     1     135.715 126.655 144.036  1.00  0.00    -0.027 C 
BRANCH   4   5
ATOM      5  C   UNL     1     135.997 128.029 144.628  1.00  0.00     0.014 C 
BRANCH   5   6
ATOM      6  C   UNL     1     137.510 128.235 144.923  1.00  0.00     0.004 C 
ATOM      7  C   UNL     1     138.333 126.946 144.899  1.00  0.00     0.004 C 
ENDBRANCH   5   6
BRANCH   5   8
ATOM      8  C   UNL     1     135.301 129.127 143.755  1.00  0.00    -0.011 C 
ATOM      9  C   UNL     1     136.125 130.413 143.588  1.00  0.00     0.008 C 
ATOM     10  C   UNL     1     133.875 129.461 144.223  1.00  0.00     0.008 C 
ENDBRANCH   5   8
ENDBRANCH   4   5
ENDBRANCH   1   3
BRANCH   1  11
ATOM     11  C   UNL     1     134.293 125.271 140.983  1.00  0.00     0.002 C 
ATOM     12  C   UNL     1     134.781 124.666 139.641  1.00  0.00     0.005 C 
ATOM     13  C   UNL     1     133.933 126.738 140.607  1.00  0.00    -0.026 C 
ATOM     14  C   UNL     1     134.212 125.547 138.516  1.00  0.00     0.005 C 
ATOM     15  C   UNL     1     133.282 126.513 139.235  1.00  0.00    -0.001 C 
ATOM     16  C   UNL     1     132.871 127.413 141.506  1.00  0.00     0.007 C 
ATOM     17  C   UNL     1     135.223 127.620 140.539  1.00  0.00     0.012 C 
ATOM     18  C   UNL     1     132.882 127.822 138.518  1.00  0.00     0.000 C 
ATOM     19  C   UNL     1     132.378 128.743 140.890  1.00  0.00     0.005 C 
ATOM     20  C   UNL     1     131.877 128.604 139.415  1.00  0.00     0.003 C 
ATOM     21  C   UNL     1     132.189 127.508 137.185  1.00  0.00     0.031 C 
ATOM     22  C   UNL     1     131.422 129.969 138.748  1.00  0.00    -0.008 C 
ATOM     23  C   UNL     1     131.712 128.763 136.524  1.00  0.00    -0.027 C 
ATOM     24  C   UNL     1     131.316 129.856 137.214  1.00  0.00    -0.065 C 
ATOM     25  C   UNL     1     132.432 131.122 139.054  1.00  0.00     0.014 C 
ATOM     26  C   UNL     1     130.026 130.337 139.318  1.00  0.00     0.016 C 
ATOM     27  C   UNL     1     131.007 131.120 136.437  1.00  0.00     0.063 C 
ATOM     28  C   UNL     1     132.169 132.422 138.264  1.00  0.00     0.033 C 
ATOM     29  C   UNL     1     132.068 132.186 136.750  1.00  0.00     0.118 C 
BRANCH  29  30
ATOM     30  O   UNL     1     133.323 131.796 136.249  1.00  0.00    -0.393 OA
ATOM     31  H   UNL     1     133.949 132.542 136.431  1.00  0.00     0.210 HD
ENDBRANCH  29  30
ENDBRANCH   1  11
TORSDOF 6
ENDMDL
