MODEL 1
REMARK VINA RESULT:    -4.648      0.000      0.000
REMARK INTER + INTRA:         -12.860
REMARK INTER:                 -10.082
REMARK INTRA:                  -2.778
REMARK UNBOUND:                -2.778
REMARK SMILES CCCCCCCCCCCCCCCCCCCCCC(=O)[O-]
REMARK SMILES IDX 12 1 11 2 10 3 9 4 8 5 7 6 6 7 5 8 4 9 3 10 2 11 1 12 13 13
REMARK SMILES IDX 14 14 15 15 16 16 17 17 18 18 19 19 20 20 21 21 22 22 23 23
REMARK SMILES IDX 24 24
REMARK H PARENT
REMARK Flexibility Score: inf
ROOT
ATOM      1  C   UNL     1     149.937 286.715 277.561  1.00  0.00     0.000 C 
ENDROOT
BRANCH   1   2
ATOM      2  C   UNL     1     148.620 285.956 277.813  1.00  0.00     0.000 C 
BRANCH   2   3
ATOM      3  C   UNL     1     147.604 286.752 278.655  1.00  0.00     0.000 C 
BRANCH   3   4
ATOM      4  C   UNL     1     147.414 286.154 280.060  1.00  0.00    -0.000 C 
BRANCH   4   5
ATOM      5  C   UNL     1     148.341 284.949 280.328  1.00  0.00    -0.000 C 
BRANCH   5   6
ATOM      6  C   UNL     1     149.074 285.009 281.682  1.00  0.00    -0.000 C 
BRANCH   6   7
ATOM      7  C   UNL     1     150.162 283.940 281.891  1.00  0.00    -0.000 C 
BRANCH   7   8
ATOM      8  C   UNL     1     150.507 283.634 283.361  1.00  0.00    -0.000 C 
BRANCH   8   9
ATOM      9  C   UNL     1     151.432 284.686 283.991  1.00  0.00    -0.000 C 
BRANCH   9  10
ATOM     10  C   UNL     1     152.820 284.662 283.332  1.00  0.00    -0.000 C 
BRANCH  10  11
ATOM     11  C   UNL     1     153.639 283.423 283.725  1.00  0.00    -0.003 C 
ATOM     12  C   UNL     1     154.837 283.191 282.805  1.00  0.00     0.004 C 
ENDBRANCH  10  11
ENDBRANCH   9  10
ENDBRANCH   8   9
ENDBRANCH   7   8
ENDBRANCH   6   7
ENDBRANCH   5   6
ENDBRANCH   4   5
ENDBRANCH   3   4
ENDBRANCH   2   3
ENDBRANCH   1   2
BRANCH   1  13
ATOM     13  C   UNL     1     149.845 288.195 277.974  1.00  0.00     0.000 C 
BRANCH  13  14
ATOM     14  C   UNL     1     150.882 288.574 279.043  1.00  0.00     0.000 C 
BRANCH  14  15
ATOM     15  C   UNL     1     150.489 288.080 280.447  1.00  0.00     0.000 C 
BRANCH  15  16
ATOM     16  C   UNL     1     151.705 287.689 281.300  1.00  0.00     0.000 C 
BRANCH  16  17
ATOM     17  C   UNL     1     152.321 288.892 282.036  1.00  0.00     0.000 C 
BRANCH  17  18
ATOM     18  C   UNL     1     153.820 289.055 281.737  1.00  0.00     0.000 C 
BRANCH  18  19
ATOM     19  C   UNL     1     154.597 287.732 281.856  1.00  0.00     0.000 C 
BRANCH  19  20
ATOM     20  C   UNL     1     155.366 287.370 280.572  1.00  0.00     0.006 C 
BRANCH  20  21
ATOM     21  C   UNL     1     154.988 288.235 279.355  1.00  0.00     0.053 C 
BRANCH  21  22
ATOM     22  C   UNL     1     156.184 288.822 278.669  1.00  0.00     0.041 C 
ATOM     23  O   UNL     1     156.035 289.656 277.738  1.00  0.00    -0.550 OA
ATOM     24  O   UNL     1     157.463 288.424 279.036  1.00  0.00    -0.550 OA
ENDBRANCH  21  22
ENDBRANCH  20  21
ENDBRANCH  19  20
ENDBRANCH  18  19
ENDBRANCH  17  18
ENDBRANCH  16  17
ENDBRANCH  15  16
ENDBRANCH  14  15
ENDBRANCH  13  14
ENDBRANCH   1  13
TORSDOF 20
ENDMDL
MODEL 2
REMARK VINA RESULT:    -4.451      5.237      9.091
REMARK INTER + INTRA:         -12.433
REMARK INTER:                  -8.574
REMARK INTRA:                  -3.860
REMARK UNBOUND:                -2.778
REMARK SMILES CCCCCCCCCCCCCCCCCCCCCC(=O)[O-]
REMARK SMILES IDX 12 1 11 2 10 3 9 4 8 5 7 6 6 7 5 8 4 9 3 10 2 11 1 12 13 13
REMARK SMILES IDX 14 14 15 15 16 16 17 17 18 18 19 19 20 20 21 21 22 22 23 23
REMARK SMILES IDX 24 24
REMARK H PARENT
REMARK Flexibility Score: inf
ROOT
ATOM      1  C   UNL     1     156.130 283.779 286.965  1.00  0.00     0.000 C 
ENDROOT
BRANCH   1   2
ATOM      2  C   UNL     1     156.669 285.222 286.958  1.00  0.00     0.000 C 
BRANCH   2   3
ATOM      3  C   UNL     1     155.902 286.160 286.006  1.00  0.00     0.000 C 
BRANCH   3   4
ATOM      4  C   UNL     1     156.722 286.522 284.755  1.00  0.00    -0.000 C 
BRANCH   4   5
ATOM      5  C   UNL     1     157.729 285.420 284.361  1.00  0.00    -0.000 C 
BRANCH   5   6
ATOM      6  C   UNL     1     157.310 284.601 283.124  1.00  0.00    -0.000 C 
BRANCH   6   7
ATOM      7  C   UNL     1     156.450 283.358 283.416  1.00  0.00    -0.000 C 
BRANCH   7   8
ATOM      8  C   UNL     1     155.094 283.311 282.687  1.00  0.00    -0.000 C 
BRANCH   8   9
ATOM      9  C   UNL     1     153.896 283.443 283.640  1.00  0.00    -0.000 C 
BRANCH   9  10
ATOM     10  C   UNL     1     153.465 284.911 283.778  1.00  0.00    -0.000 C 
BRANCH  10  11
ATOM     11  C   UNL     1     152.030 285.154 283.286  1.00  0.00    -0.003 C 
ATOM     12  C   UNL     1     151.241 283.858 283.104  1.00  0.00     0.004 C 
ENDBRANCH  10  11
ENDBRANCH   9  10
ENDBRANCH   8   9
ENDBRANCH   7   8
ENDBRANCH   6   7
ENDBRANCH   5   6
ENDBRANCH   4   5
ENDBRANCH   3   4
ENDBRANCH   2   3
ENDBRANCH   1   2
BRANCH   1  13
ATOM     13  C   UNL     1     155.723 283.315 288.375  1.00  0.00     0.000 C 
BRANCH  13  14
ATOM     14  C   UNL     1     154.902 282.017 288.355  1.00  0.00     0.000 C 
BRANCH  14  15
ATOM     15  C   UNL     1     153.972 281.927 287.132  1.00  0.00     0.000 C 
BRANCH  15  16
ATOM     16  C   UNL     1     152.489 282.094 287.501  1.00  0.00     0.000 C 
BRANCH  16  17
ATOM     17  C   UNL     1     151.756 283.076 286.570  1.00  0.00     0.000 C 
BRANCH  17  18
ATOM     18  C   UNL     1     151.403 284.396 287.273  1.00  0.00     0.000 C 
BRANCH  18  19
ATOM     19  C   UNL     1     152.578 285.390 287.293  1.00  0.00     0.000 C 
BRANCH  19  20
ATOM     20  C   UNL     1     152.848 285.970 288.694  1.00  0.00     0.006 C 
BRANCH  20  21
ATOM     21  C   UNL     1     153.450 287.387 288.676  1.00  0.00     0.053 C 
BRANCH  21  22
ATOM     22  C   UNL     1     154.624 287.528 289.596  1.00  0.00     0.041 C 
ATOM     23  O   UNL     1     154.511 287.246 290.818  1.00  0.00    -0.550 OA
ATOM     24  O   UNL     1     155.836 288.003 289.112  1.00  0.00    -0.550 OA
ENDBRANCH  21  22
ENDBRANCH  20  21
ENDBRANCH  19  20
ENDBRANCH  18  19
ENDBRANCH  17  18
ENDBRANCH  16  17
ENDBRANCH  15  16
ENDBRANCH  14  15
ENDBRANCH  13  14
ENDBRANCH   1  13
TORSDOF 20
ENDMDL
MODEL 3
REMARK VINA RESULT:    -4.439      2.072      6.907
REMARK INTER + INTRA:         -12.407
REMARK INTER:                  -9.713
REMARK INTRA:                  -2.694
REMARK UNBOUND:                -2.778
REMARK SMILES CCCCCCCCCCCCCCCCCCCCCC(=O)[O-]
REMARK SMILES IDX 12 1 11 2 10 3 9 4 8 5 7 6 6 7 5 8 4 9 3 10 2 11 1 12 13 13
REMARK SMILES IDX 14 14 15 15 16 16 17 17 18 18 19 19 20 20 21 21 22 22 23 23
REMARK SMILES IDX 24 24
REMARK H PARENT
REMARK Flexibility Score: inf
ROOT
ATOM      1  C   UNL     1     153.858 283.731 284.462  1.00  0.00     0.000 C 
ENDROOT
BRANCH   1   2
ATOM      2  C   UNL     1     154.116 283.064 283.098  1.00  0.00     0.000 C 
BRANCH   2   3
ATOM      3  C   UNL     1     155.607 283.013 282.711  1.00  0.00     0.000 C 
BRANCH   3   4
ATOM      4  C   UNL     1     156.519 283.561 283.823  1.00  0.00    -0.000 C 
BRANCH   4   5
ATOM      5  C   UNL     1     157.356 284.775 283.365  1.00  0.00    -0.000 C 
BRANCH   5   6
ATOM      6  C   UNL     1     156.641 286.130 283.533  1.00  0.00    -0.000 C 
BRANCH   6   7
ATOM      7  C   UNL     1     156.619 287.024 282.279  1.00  0.00    -0.000 C 
BRANCH   7   8
ATOM      8  C   UNL     1     155.302 287.001 281.480  1.00  0.00    -0.000 C 
BRANCH   8   9
ATOM      9  C   UNL     1     154.068 287.283 282.350  1.00  0.00    -0.000 C 
BRANCH   9  10
ATOM     10  C   UNL     1     153.480 288.667 282.034  1.00  0.00    -0.000 C 
BRANCH  10  11
ATOM     11  C   UNL     1     154.184 289.354 280.854  1.00  0.00    -0.003 C 
ATOM     12  C   UNL     1     153.283 290.353 280.129  1.00  0.00     0.004 C 
ENDBRANCH  10  11
ENDBRANCH   9  10
ENDBRANCH   8   9
ENDBRANCH   7   8
ENDBRANCH   6   7
ENDBRANCH   5   6
ENDBRANCH   4   5
ENDBRANCH   3   4
ENDBRANCH   2   3
ENDBRANCH   1   2
BRANCH   1  13
ATOM     13  C   UNL     1     152.647 284.681 284.427  1.00  0.00     0.000 C 
BRANCH  13  14
ATOM     14  C   UNL     1     151.349 283.967 284.019  1.00  0.00     0.000 C 
BRANCH  14  15
ATOM     15  C   UNL     1     150.739 284.544 282.729  1.00  0.00     0.000 C 
BRANCH  15  16
ATOM     16  C   UNL     1     149.778 283.565 282.037  1.00  0.00     0.000 C 
BRANCH  16  17
ATOM     17  C   UNL     1     148.527 284.262 281.476  1.00  0.00     0.000 C 
BRANCH  17  18
ATOM     18  C   UNL     1     148.869 285.291 280.387  1.00  0.00     0.000 C 
BRANCH  18  19
ATOM     19  C   UNL     1     148.086 286.606 280.546  1.00  0.00     0.000 C 
BRANCH  19  20
ATOM     20  C   UNL     1     148.999 287.847 280.581  1.00  0.00     0.006 C 
BRANCH  20  21
ATOM     21  C   UNL     1     150.479 287.538 280.296  1.00  0.00     0.053 C 
BRANCH  21  22
ATOM     22  C   UNL     1     150.884 287.890 278.896  1.00  0.00     0.041 C 
ATOM     23  O   UNL     1     150.256 288.774 278.258  1.00  0.00    -0.550 OA
ATOM     24  O   UNL     1     151.935 287.218 278.285  1.00  0.00    -0.550 OA
ENDBRANCH  21  22
ENDBRANCH  20  21
ENDBRANCH  19  20
ENDBRANCH  18  19
ENDBRANCH  17  18
ENDBRANCH  16  17
ENDBRANCH  15  16
ENDBRANCH  14  15
ENDBRANCH  13  14
ENDBRANCH   1  13
TORSDOF 20
ENDMDL
MODEL 4
REMARK VINA RESULT:    -4.429      5.559      8.850
REMARK INTER + INTRA:         -12.385
REMARK INTER:                  -8.405
REMARK INTRA:                  -3.979
REMARK UNBOUND:                -2.778
REMARK SMILES CCCCCCCCCCCCCCCCCCCCCC(=O)[O-]
REMARK SMILES IDX 12 1 11 2 10 3 9 4 8 5 7 6 6 7 5 8 4 9 3 10 2 11 1 12 13 13
REMARK SMILES IDX 14 14 15 15 16 16 17 17 18 18 19 19 20 20 21 21 22 22 23 23
REMARK SMILES IDX 24 24
REMARK H PARENT
REMARK Flexibility Score: inf
ROOT
ATOM      1  C   UNL     1     155.067 283.216 287.767  1.00  0.00     0.000 C 
ENDROOT
BRANCH   1   2
ATOM      2  C   UNL     1     155.504 284.380 286.856  1.00  0.00     0.000 C 
BRANCH   2   3
ATOM      3  C   UNL     1     156.740 284.055 285.996  1.00  0.00     0.000 C 
BRANCH   3   4
ATOM      4  C   UNL     1     157.135 285.224 285.076  1.00  0.00    -0.000 C 
BRANCH   4   5
ATOM      5  C   UNL     1     157.195 284.819 283.587  1.00  0.00    -0.000 C 
BRANCH   5   6
ATOM      6  C   UNL     1     156.679 283.395 283.303  1.00  0.00    -0.000 C 
BRANCH   6   7
ATOM      7  C   UNL     1     155.294 283.316 282.634  1.00  0.00    -0.000 C 
BRANCH   7   8
ATOM      8  C   UNL     1     154.106 283.159 283.601  1.00  0.00    -0.000 C 
BRANCH   8   9
ATOM      9  C   UNL     1     153.060 284.273 283.453  1.00  0.00    -0.000 C 
BRANCH   9  10
ATOM     10  C   UNL     1     153.570 285.589 284.061  1.00  0.00    -0.000 C 
BRANCH  10  11
ATOM     11  C   UNL     1     153.765 286.690 283.008  1.00  0.00    -0.003 C 
ATOM     12  C   UNL     1     154.840 287.702 283.406  1.00  0.00     0.004 C 
ENDBRANCH  10  11
ENDBRANCH   9  10
ENDBRANCH   8   9
ENDBRANCH   7   8
ENDBRANCH   6   7
ENDBRANCH   5   6
ENDBRANCH   4   5
ENDBRANCH   3   4
ENDBRANCH   2   3
ENDBRANCH   1   2
BRANCH   1  13
ATOM     13  C   UNL     1     153.833 282.478 287.219  1.00  0.00     0.000 C 
BRANCH  13  14
ATOM     14  C   UNL     1     152.533 282.904 287.918  1.00  0.00     0.000 C 
BRANCH  14  15
ATOM     15  C   UNL     1     151.590 283.686 286.986  1.00  0.00     0.000 C 
BRANCH  15  16
ATOM     16  C   UNL     1     151.803 285.205 287.065  1.00  0.00     0.000 C 
BRANCH  16  17
ATOM     17  C   UNL     1     151.831 285.724 288.513  1.00  0.00     0.000 C 
BRANCH  17  18
ATOM     18  C   UNL     1     152.541 287.081 288.635  1.00  0.00     0.000 C 
BRANCH  18  19
ATOM     19  C   UNL     1     153.584 287.307 287.526  1.00  0.00     0.000 C 
BRANCH  19  20
ATOM     20  C   UNL     1     154.823 288.079 288.017  1.00  0.00     0.006 C 
BRANCH  20  21
ATOM     21  C   UNL     1     155.551 287.404 289.194  1.00  0.00     0.053 C 
BRANCH  21  22
ATOM     22  C   UNL     1     155.473 288.205 290.458  1.00  0.00     0.041 C 
ATOM     23  O   UNL     1     154.716 287.840 291.395  1.00  0.00    -0.550 OA
ATOM     24  O   UNL     1     156.213 289.374 290.589  1.00  0.00    -0.550 OA
ENDBRANCH  21  22
ENDBRANCH  20  21
ENDBRANCH  19  20
ENDBRANCH  18  19
ENDBRANCH  17  18
ENDBRANCH  16  17
ENDBRANCH  15  16
ENDBRANCH  14  15
ENDBRANCH  13  14
ENDBRANCH   1  13
TORSDOF 20
ENDMDL
MODEL 5
REMARK VINA RESULT:    -4.418      2.499      5.304
REMARK INTER + INTRA:         -12.362
REMARK INTER:                  -9.933
REMARK INTRA:                  -2.429
REMARK UNBOUND:                -2.778
REMARK SMILES CCCCCCCCCCCCCCCCCCCCCC(=O)[O-]
REMARK SMILES IDX 12 1 11 2 10 3 9 4 8 5 7 6 6 7 5 8 4 9 3 10 2 11 1 12 13 13
REMARK SMILES IDX 14 14 15 15 16 16 17 17 18 18 19 19 20 20 21 21 22 22 23 23
REMARK SMILES IDX 24 24
REMARK H PARENT
REMARK Flexibility Score: inf
ROOT
ATOM      1  C   UNL     1     149.273 285.320 280.950  1.00  0.00     0.000 C 
ENDROOT
BRANCH   1   2
ATOM      2  C   UNL     1     148.028 286.201 280.728  1.00  0.00     0.000 C 
BRANCH   2   3
ATOM      3  C   UNL     1     148.359 287.693 280.527  1.00  0.00     0.000 C 
BRANCH   3   4
ATOM      4  C   UNL     1     148.068 288.168 279.092  1.00  0.00    -0.000 C 
BRANCH   4   5
ATOM      5  C   UNL     1     149.345 288.582 278.330  1.00  0.00    -0.000 C 
BRANCH   5   6
ATOM      6  C   UNL     1     150.303 287.413 278.031  1.00  0.00    -0.000 C 
BRANCH   6   7
ATOM      7  C   UNL     1     151.709 287.539 278.646  1.00  0.00    -0.000 C 
BRANCH   7   8
ATOM      8  C   UNL     1     151.840 288.580 279.774  1.00  0.00    -0.000 C 
BRANCH   8   9
ATOM      9  C   UNL     1     151.889 287.946 281.173  1.00  0.00    -0.000 C 
BRANCH   9  10
ATOM     10  C   UNL     1     153.010 288.568 282.018  1.00  0.00    -0.000 C 
BRANCH  10  11
ATOM     11  C   UNL     1     154.308 287.747 281.974  1.00  0.00    -0.003 C 
ATOM     12  C   UNL     1     154.348 286.649 283.037  1.00  0.00     0.004 C 
ENDBRANCH  10  11
ENDBRANCH   9  10
ENDBRANCH   8   9
ENDBRANCH   7   8
ENDBRANCH   6   7
ENDBRANCH   5   6
ENDBRANCH   4   5
ENDBRANCH   3   4
ENDBRANCH   2   3
ENDBRANCH   1   2
BRANCH   1  13
ATOM     13  C   UNL     1     148.907 283.844 281.190  1.00  0.00     0.000 C 
BRANCH  13  14
ATOM     14  C   UNL     1     149.877 283.146 282.155  1.00  0.00     0.000 C 
BRANCH  14  15
ATOM     15  C   UNL     1     150.405 284.093 283.248  1.00  0.00     0.000 C 
BRANCH  15  16
ATOM     16  C   UNL     1     149.801 283.800 284.630  1.00  0.00     0.000 C 
BRANCH  16  17
ATOM     17  C   UNL     1     150.716 284.249 285.782  1.00  0.00     0.000 C 
BRANCH  17  18
ATOM     18  C   UNL     1     152.117 284.650 285.295  1.00  0.00     0.000 C 
BRANCH  18  19
ATOM     19  C   UNL     1     153.169 283.554 285.545  1.00  0.00     0.000 C 
BRANCH  19  20
ATOM     20  C   UNL     1     153.937 283.158 284.270  1.00  0.00     0.006 C 
BRANCH  20  21
ATOM     21  C   UNL     1     155.463 283.092 284.458  1.00  0.00     0.053 C 
BRANCH  21  22
ATOM     22  C   UNL     1     156.215 283.362 283.190  1.00  0.00     0.041 C 
ATOM     23  O   UNL     1     155.872 282.799 282.117  1.00  0.00    -0.550 OA
ATOM     24  O   UNL     1     157.315 284.210 283.199  1.00  0.00    -0.550 OA
ENDBRANCH  21  22
ENDBRANCH  20  21
ENDBRANCH  19  20
ENDBRANCH  18  19
ENDBRANCH  17  18
ENDBRANCH  16  17
ENDBRANCH  15  16
ENDBRANCH  14  15
ENDBRANCH  13  14
ENDBRANCH   1  13
TORSDOF 20
ENDMDL
MODEL 6
REMARK VINA RESULT:    -4.416      4.019      6.060
REMARK INTER + INTRA:         -12.357
REMARK INTER:                  -8.124
REMARK INTRA:                  -4.233
REMARK UNBOUND:                -2.778
REMARK SMILES CCCCCCCCCCCCCCCCCCCCCC(=O)[O-]
REMARK SMILES IDX 12 1 11 2 10 3 9 4 8 5 7 6 6 7 5 8 4 9 3 10 2 11 1 12 13 13
REMARK SMILES IDX 14 14 15 15 16 16 17 17 18 18 19 19 20 20 21 21 22 22 23 23
REMARK SMILES IDX 24 24
REMARK H PARENT
REMARK Flexibility Score: inf
ROOT
ATOM      1  C   UNL     1     152.917 283.905 283.377  1.00  0.00     0.000 C 
ENDROOT
BRANCH   1   2
ATOM      2  C   UNL     1     152.360 284.677 284.589  1.00  0.00     0.000 C 
BRANCH   2   3
ATOM      3  C   UNL     1     151.031 284.109 285.122  1.00  0.00     0.000 C 
BRANCH   3   4
ATOM      4  C   UNL     1     150.721 284.586 286.551  1.00  0.00    -0.000 C 
BRANCH   4   5
ATOM      5  C   UNL     1     150.626 283.422 287.562  1.00  0.00    -0.000 C 
BRANCH   5   6
ATOM      6  C   UNL     1     151.622 282.277 287.296  1.00  0.00    -0.000 C 
BRANCH   6   7
ATOM      7  C   UNL     1     152.933 282.344 288.101  1.00  0.00    -0.000 C 
BRANCH   7   8
ATOM      8  C   UNL     1     154.162 282.837 287.314  1.00  0.00    -0.000 C 
BRANCH   8   9
ATOM      9  C   UNL     1     154.760 284.132 287.884  1.00  0.00    -0.000 C 
BRANCH   9  10
ATOM     10  C   UNL     1     153.850 284.723 288.972  1.00  0.00    -0.000 C 
BRANCH  10  11
ATOM     11  C   UNL     1     153.402 286.158 288.653  1.00  0.00    -0.003 C 
ATOM     12  C   UNL     1     153.860 286.626 287.271  1.00  0.00     0.004 C 
ENDBRANCH  10  11
ENDBRANCH   9  10
ENDBRANCH   8   9
ENDBRANCH   7   8
ENDBRANCH   6   7
ENDBRANCH   5   6
ENDBRANCH   4   5
ENDBRANCH   3   4
ENDBRANCH   2   3
ENDBRANCH   1   2
BRANCH   1  13
ATOM     13  C   UNL     1     154.155 283.065 283.740  1.00  0.00     0.000 C 
BRANCH  13  14
ATOM     14  C   UNL     1     155.223 283.082 282.636  1.00  0.00     0.000 C 
BRANCH  14  15
ATOM     15  C   UNL     1     156.585 283.589 283.141  1.00  0.00     0.000 C 
BRANCH  15  16
ATOM     16  C   UNL     1     156.578 283.914 284.643  1.00  0.00     0.000 C 
BRANCH  16  17
ATOM     17  C   UNL     1     156.882 285.395 284.929  1.00  0.00     0.000 C 
BRANCH  17  18
ATOM     18  C   UNL     1     156.571 286.299 283.726  1.00  0.00     0.000 C 
BRANCH  18  19
ATOM     19  C   UNL     1     155.229 287.039 283.870  1.00  0.00     0.000 C 
BRANCH  19  20
ATOM     20  C   UNL     1     154.465 287.160 282.538  1.00  0.00     0.006 C 
BRANCH  20  21
ATOM     21  C   UNL     1     155.339 286.918 281.295  1.00  0.00     0.053 C 
BRANCH  21  22
ATOM     22  C   UNL     1     155.734 288.191 280.609  1.00  0.00     0.041 C 
ATOM     23  O   UNL     1     155.102 289.255 280.834  1.00  0.00    -0.550 OA
ATOM     24  O   UNL     1     156.781 288.194 279.695  1.00  0.00    -0.550 OA
ENDBRANCH  21  22
ENDBRANCH  20  21
ENDBRANCH  19  20
ENDBRANCH  18  19
ENDBRANCH  17  18
ENDBRANCH  16  17
ENDBRANCH  15  16
ENDBRANCH  14  15
ENDBRANCH  13  14
ENDBRANCH   1  13
TORSDOF 20
ENDMDL
MODEL 7
REMARK VINA RESULT:    -4.408      6.074      8.604
REMARK INTER + INTRA:         -12.340
REMARK INTER:                  -8.030
REMARK INTRA:                  -4.310
REMARK UNBOUND:                -2.778
REMARK SMILES CCCCCCCCCCCCCCCCCCCCCC(=O)[O-]
REMARK SMILES IDX 12 1 11 2 10 3 9 4 8 5 7 6 6 7 5 8 4 9 3 10 2 11 1 12 13 13
REMARK SMILES IDX 14 14 15 15 16 16 17 17 18 18 19 19 20 20 21 21 22 22 23 23
REMARK SMILES IDX 24 24
REMARK H PARENT
REMARK Flexibility Score: inf
ROOT
ATOM      1  C   UNL     1     153.377 283.868 284.171  1.00  0.00     0.000 C 
ENDROOT
BRANCH   1   2
ATOM      2  C   UNL     1     154.302 283.659 282.956  1.00  0.00     0.000 C 
BRANCH   2   3
ATOM      3  C   UNL     1     155.641 282.986 283.312  1.00  0.00     0.000 C 
BRANCH   3   4
ATOM      4  C   UNL     1     156.803 283.993 283.376  1.00  0.00    -0.000 C 
BRANCH   4   5
ATOM      5  C   UNL     1     157.106 284.465 284.815  1.00  0.00    -0.000 C 
BRANCH   5   6
ATOM      6  C   UNL     1     156.596 283.507 285.910  1.00  0.00    -0.000 C 
BRANCH   6   7
ATOM      7  C   UNL     1     156.892 283.942 287.357  1.00  0.00    -0.000 C 
BRANCH   7   8
ATOM      8  C   UNL     1     155.717 283.786 288.341  1.00  0.00    -0.000 C 
BRANCH   8   9
ATOM      9  C   UNL     1     154.374 284.241 287.750  1.00  0.00    -0.000 C 
BRANCH   9  10
ATOM     10  C   UNL     1     153.541 284.994 288.798  1.00  0.00    -0.000 C 
BRANCH  10  11
ATOM     11  C   UNL     1     152.458 285.882 288.166  1.00  0.00    -0.003 C 
ATOM     12  C   UNL     1     152.087 287.076 289.045  1.00  0.00     0.004 C 
ENDBRANCH  10  11
ENDBRANCH   9  10
ENDBRANCH   8   9
ENDBRANCH   7   8
ENDBRANCH   6   7
ENDBRANCH   5   6
ENDBRANCH   4   5
ENDBRANCH   3   4
ENDBRANCH   2   3
ENDBRANCH   1   2
BRANCH   1  13
ATOM     13  C   UNL     1     153.310 285.343 284.605  1.00  0.00     0.000 C 
BRANCH  13  14
ATOM     14  C   UNL     1     153.924 286.293 283.565  1.00  0.00     0.000 C 
BRANCH  14  15
ATOM     15  C   UNL     1     154.964 287.247 284.179  1.00  0.00     0.000 C 
BRANCH  15  16
ATOM     16  C   UNL     1     154.988 287.189 285.715  1.00  0.00     0.000 C 
BRANCH  16  17
ATOM     17  C   UNL     1     154.549 288.513 286.363  1.00  0.00     0.000 C 
BRANCH  17  18
ATOM     18  C   UNL     1     155.139 288.700 287.770  1.00  0.00     0.000 C 
BRANCH  18  19
ATOM     19  C   UNL     1     156.235 287.670 288.095  1.00  0.00     0.000 C 
BRANCH  19  20
ATOM     20  C   UNL     1     156.250 287.259 289.580  1.00  0.00     0.006 C 
BRANCH  20  21
ATOM     21  C   UNL     1     155.481 288.222 290.501  1.00  0.00     0.053 C 
BRANCH  21  22
ATOM     22  C   UNL     1     156.381 288.969 291.438  1.00  0.00     0.041 C 
ATOM     23  O   UNL     1     155.895 289.618 292.402  1.00  0.00    -0.550 OA
ATOM     24  O   UNL     1     157.754 288.974 291.229  1.00  0.00    -0.550 OA
ENDBRANCH  21  22
ENDBRANCH  20  21
ENDBRANCH  19  20
ENDBRANCH  18  19
ENDBRANCH  17  18
ENDBRANCH  16  17
ENDBRANCH  15  16
ENDBRANCH  14  15
ENDBRANCH  13  14
ENDBRANCH   1  13
TORSDOF 20
ENDMDL
MODEL 8
REMARK VINA RESULT:    -4.370      5.762      8.734
REMARK INTER + INTRA:         -12.257
REMARK INTER:                  -8.494
REMARK INTRA:                  -3.763
REMARK UNBOUND:                -2.778
REMARK SMILES CCCCCCCCCCCCCCCCCCCCCC(=O)[O-]
REMARK SMILES IDX 12 1 11 2 10 3 9 4 8 5 7 6 6 7 5 8 4 9 3 10 2 11 1 12 13 13
REMARK SMILES IDX 14 14 15 15 16 16 17 17 18 18 19 19 20 20 21 21 22 22 23 23
REMARK SMILES IDX 24 24
REMARK H PARENT
REMARK Flexibility Score: inf
ROOT
ATOM      1  C   UNL     1     154.574 282.189 288.195  1.00  0.00     0.000 C 
ENDROOT
BRANCH   1   2
ATOM      2  C   UNL     1     153.235 282.623 287.568  1.00  0.00     0.000 C 
BRANCH   2   3
ATOM      3  C   UNL     1     152.592 283.834 288.270  1.00  0.00     0.000 C 
BRANCH   3   4
ATOM      4  C   UNL     1     151.914 284.794 287.276  1.00  0.00    -0.000 C 
BRANCH   4   5
ATOM      5  C   UNL     1     150.842 284.098 286.410  1.00  0.00    -0.000 C 
BRANCH   5   6
ATOM      6  C   UNL     1     151.104 284.188 284.894  1.00  0.00    -0.000 C 
BRANCH   6   7
ATOM      7  C   UNL     1     152.529 284.616 284.496  1.00  0.00    -0.000 C 
BRANCH   7   8
ATOM      8  C   UNL     1     153.228 283.698 283.476  1.00  0.00    -0.000 C 
BRANCH   8   9
ATOM      9  C   UNL     1     154.501 283.042 284.033  1.00  0.00    -0.000 C 
BRANCH   9  10
ATOM     10  C   UNL     1     155.614 283.018 282.975  1.00  0.00    -0.000 C 
BRANCH  10  11
ATOM     11  C   UNL     1     156.794 283.933 283.337  1.00  0.00    -0.003 C 
ATOM     12  C   UNL     1     156.526 285.401 283.004  1.00  0.00     0.004 C 
ENDBRANCH  10  11
ENDBRANCH   9  10
ENDBRANCH   8   9
ENDBRANCH   7   8
ENDBRANCH   6   7
ENDBRANCH   5   6
ENDBRANCH   4   5
ENDBRANCH   3   4
ENDBRANCH   2   3
ENDBRANCH   1   2
BRANCH   1  13
ATOM     13  C   UNL     1     155.537 283.374 288.389  1.00  0.00     0.000 C 
BRANCH  13  14
ATOM     14  C   UNL     1     156.375 283.664 287.134  1.00  0.00     0.000 C 
BRANCH  14  15
ATOM     15  C   UNL     1     156.604 285.170 286.913  1.00  0.00     0.000 C 
BRANCH  15  16
ATOM     16  C   UNL     1     155.311 285.920 286.557  1.00  0.00     0.000 C 
BRANCH  16  17
ATOM     17  C   UNL     1     155.200 287.278 287.272  1.00  0.00     0.000 C 
BRANCH  17  18
ATOM     18  C   UNL     1     154.150 287.263 288.395  1.00  0.00     0.000 C 
BRANCH  18  19
ATOM     19  C   UNL     1     154.757 286.928 289.770  1.00  0.00     0.000 C 
BRANCH  19  20
ATOM     20  C   UNL     1     156.218 287.393 289.910  1.00  0.00     0.006 C 
BRANCH  20  21
ATOM     21  C   UNL     1     156.439 288.423 291.033  1.00  0.00     0.053 C 
BRANCH  21  22
ATOM     22  C   UNL     1     156.335 289.837 290.549  1.00  0.00     0.041 C 
ATOM     23  O   UNL     1     156.324 290.790 291.372  1.00  0.00    -0.550 OA
ATOM     24  O   UNL     1     156.218 290.102 289.190  1.00  0.00    -0.550 OA
ENDBRANCH  21  22
ENDBRANCH  20  21
ENDBRANCH  19  20
ENDBRANCH  18  19
ENDBRANCH  17  18
ENDBRANCH  16  17
ENDBRANCH  15  16
ENDBRANCH  14  15
ENDBRANCH  13  14
ENDBRANCH   1  13
TORSDOF 20
ENDMDL
MODEL 9
REMARK VINA RESULT:    -4.366      5.944      8.885
REMARK INTER + INTRA:         -12.250
REMARK INTER:                  -7.905
REMARK INTRA:                  -4.344
REMARK UNBOUND:                -2.778
REMARK SMILES CCCCCCCCCCCCCCCCCCCCCC(=O)[O-]
REMARK SMILES IDX 12 1 11 2 10 3 9 4 8 5 7 6 6 7 5 8 4 9 3 10 2 11 1 12 13 13
REMARK SMILES IDX 14 14 15 15 16 16 17 17 18 18 19 19 20 20 21 21 22 22 23 23
REMARK SMILES IDX 24 24
REMARK H PARENT
REMARK Flexibility Score: inf
ROOT
ATOM      1  C   UNL     1     155.217 282.709 286.017  1.00  0.00     0.000 C 
ENDROOT
BRANCH   1   2
ATOM      2  C   UNL     1     156.077 283.068 284.791  1.00  0.00     0.000 C 
BRANCH   2   3
ATOM      3  C   UNL     1     155.254 283.293 283.508  1.00  0.00     0.000 C 
BRANCH   3   4
ATOM      4  C   UNL     1     153.748 283.426 283.795  1.00  0.00    -0.000 C 
BRANCH   4   5
ATOM      5  C   UNL     1     153.258 284.889 283.749  1.00  0.00    -0.000 C 
BRANCH   5   6
ATOM      6  C   UNL     1     154.263 285.868 283.111  1.00  0.00    -0.000 C 
BRANCH   6   7
ATOM      7  C   UNL     1     154.733 287.017 284.022  1.00  0.00    -0.000 C 
BRANCH   7   8
ATOM      8  C   UNL     1     154.611 286.747 285.534  1.00  0.00    -0.000 C 
BRANCH   8   9
ATOM      9  C   UNL     1     155.946 286.897 286.279  1.00  0.00    -0.000 C 
BRANCH   9  10
ATOM     10  C   UNL     1     157.131 286.595 285.350  1.00  0.00    -0.000 C 
BRANCH  10  11
ATOM     11  C   UNL     1     158.244 285.801 286.050  1.00  0.00    -0.003 C 
ATOM     12  C   UNL     1     158.277 286.038 287.560  1.00  0.00     0.004 C 
ENDBRANCH  10  11
ENDBRANCH   9  10
ENDBRANCH   8   9
ENDBRANCH   7   8
ENDBRANCH   6   7
ENDBRANCH   5   6
ENDBRANCH   4   5
ENDBRANCH   3   4
ENDBRANCH   2   3
ENDBRANCH   1   2
BRANCH   1  13
ATOM     13  C   UNL     1     155.801 283.275 287.325  1.00  0.00     0.000 C 
BRANCH  13  14
ATOM     14  C   UNL     1     154.739 283.968 288.193  1.00  0.00     0.000 C 
BRANCH  14  15
ATOM     15  C   UNL     1     153.350 283.978 287.530  1.00  0.00     0.000 C 
BRANCH  15  16
ATOM     16  C   UNL     1     152.258 284.548 288.448  1.00  0.00     0.000 C 
BRANCH  16  17
ATOM     17  C   UNL     1     151.786 285.944 288.009  1.00  0.00     0.000 C 
BRANCH  17  18
ATOM     18  C   UNL     1     152.124 287.029 289.044  1.00  0.00     0.000 C 
BRANCH  18  19
ATOM     19  C   UNL     1     153.598 287.467 288.985  1.00  0.00     0.000 C 
BRANCH  19  20
ATOM     20  C   UNL     1     154.376 287.128 290.271  1.00  0.00     0.006 C 
BRANCH  20  21
ATOM     21  C   UNL     1     155.905 287.144 290.095  1.00  0.00     0.053 C 
BRANCH  21  22
ATOM     22  C   UNL     1     156.560 288.273 290.831  1.00  0.00     0.041 C 
ATOM     23  O   UNL     1     155.910 289.318 291.098  1.00  0.00    -0.550 OA
ATOM     24  O   UNL     1     157.899 288.186 291.192  1.00  0.00    -0.550 OA
ENDBRANCH  21  22
ENDBRANCH  20  21
ENDBRANCH  19  20
ENDBRANCH  18  19
ENDBRANCH  17  18
ENDBRANCH  16  17
ENDBRANCH  15  16
ENDBRANCH  14  15
ENDBRANCH  13  14
ENDBRANCH   1  13
TORSDOF 20
ENDMDL
