MODEL 1
REMARK VINA RESULT:    -6.529      0.000      0.000
REMARK INTER + INTRA:          -7.936
REMARK INTER:                  -7.674
REMARK INTRA:                  -0.262
REMARK UNBOUND:                -0.262
REMARK SMILES O=c1cc(-c2ccc(O)c(O)c2)oc2cc(O)cc(O)c12
REMARK SMILES IDX 4 1 3 2 2 3 1 4 21 5 19 6 18 7 16 8 15 9 14 10 13 11 5 12
REMARK SMILES IDX 6 13 7 14 8 15 12 16 10 17 9 18 11 20 20 22 17 24
REMARK H PARENT 9 19 11 21 20 23 17 25
REMARK Flexibility Score: inf
ROOT
ATOM      1  C   UNL     1     479.585  37.673 459.461  1.00  0.00     0.138 A 
ATOM      2  C   UNL     1     478.722  38.739 459.753  1.00  0.00     0.100 A 
ATOM      3  C   UNL     1     477.658  38.544 460.635  1.00  0.00     0.197 A 
ATOM      4  O   UNL     1     476.870  39.503 460.834  1.00  0.00    -0.289 OA
ATOM      5  C   UNL     1     477.479  37.283 461.254  1.00  0.00     0.107 A 
ATOM      6  C   UNL     1     476.451  36.978 462.197  1.00  0.00     0.134 A 
ATOM      7  C   UNL     1     476.314  35.666 462.668  1.00  0.00     0.093 A 
ATOM      8  C   UNL     1     477.205  34.663 462.276  1.00  0.00     0.123 A 
ATOM      9  C   UNL     1     478.241  34.962 461.396  1.00  0.00     0.094 A 
ATOM     10  C   UNL     1     478.383  36.253 460.882  1.00  0.00     0.146 A 
ATOM     11  O   UNL     1     479.376  36.491 460.031  1.00  0.00    -0.456 OA
ENDROOT
BRANCH   1  12
ATOM     12  C   UNL     1     480.735  37.825 458.532  1.00  0.00     0.021 A 
ATOM     13  C   UNL     1     480.674  37.373 457.200  1.00  0.00     0.016 A 
ATOM     14  C   UNL     1     481.776  37.520 456.353  1.00  0.00     0.051 A 
ATOM     15  C   UNL     1     482.953  38.110 456.817  1.00  0.00     0.157 A 
ATOM     16  C   UNL     1     481.927  38.405 458.998  1.00  0.00     0.062 A 
ATOM     17  C   UNL     1     483.033  38.554 458.147  1.00  0.00     0.158 A 
BRANCH  15  18
ATOM     18  O   UNL     1     484.035  38.244 455.947  1.00  0.00    -0.504 OA
ATOM     19  H   UNL     1     484.992  38.279 456.279  1.00  0.00     0.293 HD
ENDBRANCH  15  18
BRANCH  17  20
ATOM     20  O   UNL     1     484.205  39.140 458.620  1.00  0.00    -0.504 OA
ATOM     21  H   UNL     1     484.485  39.062 459.590  1.00  0.00     0.293 HD
ENDBRANCH  17  20
ENDBRANCH   1  12
BRANCH   6  22
ATOM     22  O   UNL     1     475.558  37.921 462.715  1.00  0.00    -0.507 OA
ATOM     23  H   UNL     1     474.559  37.908 462.581  1.00  0.00     0.293 HD
ENDBRANCH   6  22
BRANCH   8  24
ATOM     24  O   UNL     1     477.069  33.365 462.763  1.00  0.00    -0.508 OA
ATOM     25  H   UNL     1     476.720  33.181 463.696  1.00  0.00     0.293 HD
ENDBRANCH   8  24
TORSDOF 5
ENDMDL
MODEL 2
REMARK VINA RESULT:    -5.993      1.602      7.116
REMARK INTER + INTRA:          -7.306
REMARK INTER:                  -7.031
REMARK INTRA:                  -0.275
REMARK UNBOUND:                -0.262
REMARK SMILES O=c1cc(-c2ccc(O)c(O)c2)oc2cc(O)cc(O)c12
REMARK SMILES IDX 4 1 3 2 2 3 1 4 21 5 19 6 18 7 16 8 15 9 14 10 13 11 5 12
REMARK SMILES IDX 6 13 7 14 8 15 12 16 10 17 9 18 11 20 20 22 17 24
REMARK H PARENT 9 19 11 21 20 23 17 25
REMARK Flexibility Score: inf
ROOT
ATOM      1  C   UNL     1     479.828  38.055 459.218  1.00  0.00     0.138 A 
ATOM      2  C   UNL     1     479.489  38.551 457.951  1.00  0.00     0.100 A 
ATOM      3  C   UNL     1     480.493  39.002 457.094  1.00  0.00     0.197 A 
ATOM      4  O   UNL     1     480.152  39.491 455.987  1.00  0.00    -0.289 OA
ATOM      5  C   UNL     1     481.849  38.923 457.495  1.00  0.00     0.107 A 
ATOM      6  C   UNL     1     482.960  39.320 456.692  1.00  0.00     0.134 A 
ATOM      7  C   UNL     1     484.251  39.287 457.235  1.00  0.00     0.093 A 
ATOM      8  C   UNL     1     484.476  38.816 458.531  1.00  0.00     0.123 A 
ATOM      9  C   UNL     1     483.404  38.379 459.304  1.00  0.00     0.094 A 
ATOM     10  C   UNL     1     482.101  38.432 458.804  1.00  0.00     0.146 A 
ATOM     11  O   UNL     1     481.105  38.021 459.583  1.00  0.00    -0.456 OA
ENDROOT
BRANCH   1  12
ATOM     12  C   UNL     1     478.801  37.559 460.169  1.00  0.00     0.021 A 
ATOM     13  C   UNL     1     477.824  38.414 460.715  1.00  0.00     0.016 A 
ATOM     14  C   UNL     1     476.876  37.921 461.615  1.00  0.00     0.051 A 
ATOM     15  C   UNL     1     476.889  36.576 461.992  1.00  0.00     0.157 A 
ATOM     16  C   UNL     1     478.818  36.210 460.563  1.00  0.00     0.062 A 
ATOM     17  C   UNL     1     477.865  35.715 461.466  1.00  0.00     0.158 A 
BRANCH  15  18
ATOM     18  O   UNL     1     475.928  36.114 462.892  1.00  0.00    -0.504 OA
ATOM     19  H   UNL     1     475.474  35.215 462.779  1.00  0.00     0.293 HD
ENDBRANCH  15  18
BRANCH  17  20
ATOM     20  O   UNL     1     477.887  34.372 461.840  1.00  0.00    -0.504 OA
ATOM     21  H   UNL     1     478.612  33.742 461.517  1.00  0.00     0.293 HD
ENDBRANCH  17  20
ENDBRANCH   1  12
BRANCH   6  22
ATOM     22  O   UNL     1     482.857  39.731 455.359  1.00  0.00    -0.507 OA
ATOM     23  H   UNL     1     482.819  39.114 454.564  1.00  0.00     0.293 HD
ENDBRANCH   6  22
BRANCH   8  24
ATOM     24  O   UNL     1     485.766  38.773 459.056  1.00  0.00    -0.508 OA
ATOM     25  H   UNL     1     485.952  38.384 459.973  1.00  0.00     0.293 HD
ENDBRANCH   8  24
TORSDOF 5
ENDMDL
MODEL 3
REMARK VINA RESULT:    -5.952      1.452      7.222
REMARK INTER + INTRA:          -7.257
REMARK INTER:                  -6.988
REMARK INTRA:                  -0.269
REMARK UNBOUND:                -0.262
REMARK SMILES O=c1cc(-c2ccc(O)c(O)c2)oc2cc(O)cc(O)c12
REMARK SMILES IDX 4 1 3 2 2 3 1 4 21 5 19 6 18 7 16 8 15 9 14 10 13 11 5 12
REMARK SMILES IDX 6 13 7 14 8 15 12 16 10 17 9 18 11 20 20 22 17 24
REMARK H PARENT 9 19 11 21 20 23 17 25
REMARK Flexibility Score: inf
ROOT
ATOM      1  C   UNL     1     480.167  37.997 459.378  1.00  0.00     0.138 A 
ATOM      2  C   UNL     1     480.100  37.914 457.980  1.00  0.00     0.100 A 
ATOM      3  C   UNL     1     481.257  38.102 457.222  1.00  0.00     0.197 A 
ATOM      4  O   UNL     1     481.154  38.076 455.969  1.00  0.00    -0.289 OA
ATOM      5  C   UNL     1     482.492  38.340 457.870  1.00  0.00     0.107 A 
ATOM      6  C   UNL     1     483.743  38.512 457.201  1.00  0.00     0.134 A 
ATOM      7  C   UNL     1     484.883  38.841 457.945  1.00  0.00     0.093 A 
ATOM      8  C   UNL     1     484.831  38.945 459.337  1.00  0.00     0.123 A 
ATOM      9  C   UNL     1     483.627  38.729 460.003  1.00  0.00     0.094 A 
ATOM     10  C   UNL     1     482.465  38.434 459.287  1.00  0.00     0.146 A 
ATOM     11  O   UNL     1     481.333  38.254 459.960  1.00  0.00    -0.456 OA
ENDROOT
BRANCH   1  12
ATOM     12  C   UNL     1     478.969  37.802 460.235  1.00  0.00     0.021 A 
ATOM     13  C   UNL     1     478.048  38.842 460.466  1.00  0.00     0.016 A 
ATOM     14  C   UNL     1     476.935  38.632 461.285  1.00  0.00     0.051 A 
ATOM     15  C   UNL     1     476.726  37.391 461.891  1.00  0.00     0.157 A 
ATOM     16  C   UNL     1     478.760  36.560 460.859  1.00  0.00     0.062 A 
ATOM     17  C   UNL     1     477.643  36.349 461.680  1.00  0.00     0.158 A 
BRANCH  15  18
ATOM     18  O   UNL     1     475.605  37.212 462.702  1.00  0.00    -0.504 OA
ATOM     19  H   UNL     1     475.264  36.292 462.953  1.00  0.00     0.293 HD
ENDBRANCH  15  18
BRANCH  17  20
ATOM     20  O   UNL     1     477.443  35.109 462.284  1.00  0.00    -0.504 OA
ATOM     21  H   UNL     1     477.494  34.245 461.756  1.00  0.00     0.293 HD
ENDBRANCH  17  20
ENDBRANCH   1  12
BRANCH   6  22
ATOM     22  O   UNL     1     483.923  38.353 455.823  1.00  0.00    -0.507 OA
ATOM     23  H   UNL     1     484.788  38.087 455.380  1.00  0.00     0.293 HD
ENDBRANCH   6  22
BRANCH   8  24
ATOM     24  O   UNL     1     485.974  39.257 460.069  1.00  0.00    -0.508 OA
ATOM     25  H   UNL     1     486.066  40.138 460.561  1.00  0.00     0.293 HD
ENDBRANCH   8  24
TORSDOF 5
ENDMDL
MODEL 4
REMARK VINA RESULT:    -5.921      1.650      7.082
REMARK INTER + INTRA:          -7.221
REMARK INTER:                  -6.957
REMARK INTRA:                  -0.264
REMARK UNBOUND:                -0.262
REMARK SMILES O=c1cc(-c2ccc(O)c(O)c2)oc2cc(O)cc(O)c12
REMARK SMILES IDX 4 1 3 2 2 3 1 4 21 5 19 6 18 7 16 8 15 9 14 10 13 11 5 12
REMARK SMILES IDX 6 13 7 14 8 15 12 16 10 17 9 18 11 20 20 22 17 24
REMARK H PARENT 9 19 11 21 20 23 17 25
REMARK Flexibility Score: inf
ROOT
ATOM      1  C   UNL     1     479.929  37.802 459.283  1.00  0.00     0.138 A 
ATOM      2  C   UNL     1     479.496  38.425 458.105  1.00  0.00     0.100 A 
ATOM      3  C   UNL     1     480.429  39.032 457.262  1.00  0.00     0.197 A 
ATOM      4  O   UNL     1     480.003  39.631 456.242  1.00  0.00    -0.289 OA
ATOM      5  C   UNL     1     481.806  38.983 457.586  1.00  0.00     0.107 A 
ATOM      6  C   UNL     1     482.851  39.536 456.784  1.00  0.00     0.134 A 
ATOM      7  C   UNL     1     484.169  39.512 457.257  1.00  0.00     0.093 A 
ATOM      8  C   UNL     1     484.488  38.902 458.472  1.00  0.00     0.123 A 
ATOM      9  C   UNL     1     483.484  38.315 459.237  1.00  0.00     0.094 A 
ATOM     10  C   UNL     1     482.154  38.354 458.810  1.00  0.00     0.146 A 
ATOM     11  O   UNL     1     481.225  37.797 459.580  1.00  0.00    -0.456 OA
ENDROOT
BRANCH   1  12
ATOM     12  C   UNL     1     478.981  37.137 460.215  1.00  0.00     0.021 A 
ATOM     13  C   UNL     1     478.980  35.741 460.397  1.00  0.00     0.016 A 
ATOM     14  C   UNL     1     478.070  35.143 461.272  1.00  0.00     0.051 A 
ATOM     15  C   UNL     1     477.144  35.920 461.972  1.00  0.00     0.157 A 
ATOM     16  C   UNL     1     478.038  37.913 460.910  1.00  0.00     0.062 A 
ATOM     17  C   UNL     1     477.125  37.312 461.790  1.00  0.00     0.158 A 
BRANCH  15  18
ATOM     18  O   UNL     1     476.249  35.294 462.840  1.00  0.00    -0.504 OA
ATOM     19  H   UNL     1     475.569  35.815 463.380  1.00  0.00     0.293 HD
ENDBRANCH  15  18
BRANCH  17  20
ATOM     20  O   UNL     1     476.202  38.095 462.482  1.00  0.00    -0.504 OA
ATOM     21  H   UNL     1     475.355  38.433 462.041  1.00  0.00     0.293 HD
ENDBRANCH  17  20
ENDBRANCH   1  12
BRANCH   6  22
ATOM     22  O   UNL     1     482.654  40.098 455.519  1.00  0.00    -0.507 OA
ATOM     23  H   UNL     1     481.774  40.127 455.029  1.00  0.00     0.293 HD
ENDBRANCH   6  22
BRANCH   8  24
ATOM     24  O   UNL     1     485.805  38.870 458.926  1.00  0.00    -0.508 OA
ATOM     25  H   UNL     1     486.114  38.189 459.610  1.00  0.00     0.293 HD
ENDBRANCH   8  24
TORSDOF 5
ENDMDL
MODEL 5
REMARK VINA RESULT:    -5.565      1.527      6.988
REMARK INTER + INTRA:          -6.803
REMARK INTER:                  -6.525
REMARK INTRA:                  -0.278
REMARK UNBOUND:                -0.262
REMARK SMILES O=c1cc(-c2ccc(O)c(O)c2)oc2cc(O)cc(O)c12
REMARK SMILES IDX 4 1 3 2 2 3 1 4 21 5 19 6 18 7 16 8 15 9 14 10 13 11 5 12
REMARK SMILES IDX 6 13 7 14 8 15 12 16 10 17 9 18 11 20 20 22 17 24
REMARK H PARENT 9 19 11 21 20 23 17 25
REMARK Flexibility Score: inf
ROOT
ATOM      1  C   UNL     1     479.154  37.477 460.609  1.00  0.00     0.138 A 
ATOM      2  C   UNL     1     479.993  38.451 461.168  1.00  0.00     0.100 A 
ATOM      3  C   UNL     1     480.993  39.031 460.387  1.00  0.00     0.197 A 
ATOM      4  O   UNL     1     481.764  39.861 460.933  1.00  0.00    -0.289 OA
ATOM      5  C   UNL     1     481.130  38.658 459.028  1.00  0.00     0.107 A 
ATOM      6  C   UNL     1     482.091  39.209 458.126  1.00  0.00     0.134 A 
ATOM      7  C   UNL     1     482.196  38.689 456.830  1.00  0.00     0.093 A 
ATOM      8  C   UNL     1     481.337  37.682 456.385  1.00  0.00     0.123 A 
ATOM      9  C   UNL     1     480.363  37.174 457.240  1.00  0.00     0.094 A 
ATOM     10  C   UNL     1     480.255  37.646 458.551  1.00  0.00     0.146 A 
ATOM     11  O   UNL     1     479.324  37.121 459.340  1.00  0.00    -0.456 OA
ENDROOT
BRANCH   1  12
ATOM     12  C   UNL     1     478.071  36.828 461.393  1.00  0.00     0.021 A 
ATOM     13  C   UNL     1     477.027  37.576 461.971  1.00  0.00     0.016 A 
ATOM     14  C   UNL     1     476.028  36.940 462.712  1.00  0.00     0.051 A 
ATOM     15  C   UNL     1     476.054  35.555 462.895  1.00  0.00     0.157 A 
ATOM     16  C   UNL     1     478.100  35.437 461.593  1.00  0.00     0.062 A 
ATOM     17  C   UNL     1     477.096  34.798 462.336  1.00  0.00     0.158 A 
BRANCH  15  18
ATOM     18  O   UNL     1     475.041  34.949 463.639  1.00  0.00    -0.504 OA
ATOM     19  H   UNL     1     474.503  35.459 464.329  1.00  0.00     0.293 HD
ENDBRANCH  15  18
BRANCH  17  20
ATOM     20  O   UNL     1     477.132  33.417 462.517  1.00  0.00    -0.504 OA
ATOM     21  H   UNL     1     477.354  33.004 463.416  1.00  0.00     0.293 HD
ENDBRANCH  17  20
ENDBRANCH   1  12
BRANCH   6  22
ATOM     22  O   UNL     1     482.945  40.270 458.442  1.00  0.00    -0.507 OA
ATOM     23  H   UNL     1     482.672  41.104 458.938  1.00  0.00     0.293 HD
ENDBRANCH   6  22
BRANCH   8  24
ATOM     24  O   UNL     1     481.439  37.182 455.088  1.00  0.00    -0.508 OA
ATOM     25  H   UNL     1     481.231  37.758 454.280  1.00  0.00     0.293 HD
ENDBRANCH   8  24
TORSDOF 5
ENDMDL
MODEL 6
REMARK VINA RESULT:    -5.529      1.867      2.622
REMARK INTER + INTRA:          -6.761
REMARK INTER:                  -6.455
REMARK INTRA:                  -0.306
REMARK UNBOUND:                -0.262
REMARK SMILES O=c1cc(-c2ccc(O)c(O)c2)oc2cc(O)cc(O)c12
REMARK SMILES IDX 4 1 3 2 2 3 1 4 21 5 19 6 18 7 16 8 15 9 14 10 13 11 5 12
REMARK SMILES IDX 6 13 7 14 8 15 12 16 10 17 9 18 11 20 20 22 17 24
REMARK H PARENT 9 19 11 21 20 23 17 25
REMARK Flexibility Score: inf
ROOT
ATOM      1  C   UNL     1     480.791  39.435 460.262  1.00  0.00     0.138 A 
ATOM      2  C   UNL     1     480.032  40.609 460.367  1.00  0.00     0.100 A 
ATOM      3  C   UNL     1     478.724  40.544 460.848  1.00  0.00     0.197 A 
ATOM      4  O   UNL     1     478.051  41.606 460.879  1.00  0.00    -0.289 OA
ATOM      5  C   UNL     1     478.186  39.301 461.260  1.00  0.00     0.107 A 
ATOM      6  C   UNL     1     476.876  39.120 461.799  1.00  0.00     0.134 A 
ATOM      7  C   UNL     1     476.418  37.826 462.079  1.00  0.00     0.093 A 
ATOM      8  C   UNL     1     477.244  36.714 461.895  1.00  0.00     0.123 A 
ATOM      9  C   UNL     1     478.540  36.885 461.417  1.00  0.00     0.094 A 
ATOM     10  C   UNL     1     479.014  38.159 461.096  1.00  0.00     0.146 A 
ATOM     11  O   UNL     1     480.252  38.276 460.625  1.00  0.00    -0.456 OA
ENDROOT
BRANCH   1  12
ATOM     12  C   UNL     1     482.189  39.446 459.760  1.00  0.00     0.021 A 
ATOM     13  C   UNL     1     483.033  40.558 459.944  1.00  0.00     0.016 A 
ATOM     14  C   UNL     1     484.340  40.543 459.451  1.00  0.00     0.051 A 
ATOM     15  C   UNL     1     484.826  39.428 458.764  1.00  0.00     0.157 A 
ATOM     16  C   UNL     1     482.679  38.332 459.055  1.00  0.00     0.062 A 
ATOM     17  C   UNL     1     483.992  38.317 458.562  1.00  0.00     0.158 A 
BRANCH  15  18
ATOM     18  O   UNL     1     486.137  39.443 458.286  1.00  0.00    -0.504 OA
ATOM     19  H   UNL     1     486.853  38.834 458.662  1.00  0.00     0.293 HD
ENDBRANCH  15  18
BRANCH  17  20
ATOM     20  O   UNL     1     484.468  37.202 457.874  1.00  0.00    -0.504 OA
ATOM     21  H   UNL     1     484.073  36.917 456.985  1.00  0.00     0.293 HD
ENDBRANCH  17  20
ENDBRANCH   1  12
BRANCH   6  22
ATOM     22  O   UNL     1     475.998  40.167 462.097  1.00  0.00    -0.507 OA
ATOM     23  H   UNL     1     475.050  40.241 461.764  1.00  0.00     0.293 HD
ENDBRANCH   6  22
BRANCH   8  24
ATOM     24  O   UNL     1     476.785  35.432 462.191  1.00  0.00    -0.508 OA
ATOM     25  H   UNL     1     475.865  35.118 461.904  1.00  0.00     0.293 HD
ENDBRANCH   8  24
TORSDOF 5
ENDMDL
MODEL 7
REMARK VINA RESULT:    -5.470      1.582      7.148
REMARK INTER + INTRA:          -6.691
REMARK INTER:                  -6.428
REMARK INTRA:                  -0.263
REMARK UNBOUND:                -0.262
REMARK SMILES O=c1cc(-c2ccc(O)c(O)c2)oc2cc(O)cc(O)c12
REMARK SMILES IDX 4 1 3 2 2 3 1 4 21 5 19 6 18 7 16 8 15 9 14 10 13 11 5 12
REMARK SMILES IDX 6 13 7 14 8 15 12 16 10 17 9 18 11 20 20 22 17 24
REMARK H PARENT 9 19 11 21 20 23 17 25
REMARK Flexibility Score: inf
ROOT
ATOM      1  C   UNL     1     480.064  37.592 459.296  1.00  0.00     0.138 A 
ATOM      2  C   UNL     1     481.151  38.330 459.784  1.00  0.00     0.100 A 
ATOM      3  C   UNL     1     482.047  38.915 458.888  1.00  0.00     0.197 A 
ATOM      4  O   UNL     1     483.042  39.524 459.358  1.00  0.00    -0.289 OA
ATOM      5  C   UNL     1     481.832  38.788 457.495  1.00  0.00     0.107 A 
ATOM      6  C   UNL     1     482.660  39.370 456.487  1.00  0.00     0.134 A 
ATOM      7  C   UNL     1     482.403  39.093 455.138  1.00  0.00     0.093 A 
ATOM      8  C   UNL     1     481.314  38.303 454.759  1.00  0.00     0.123 A 
ATOM      9  C   UNL     1     480.472  37.772 455.732  1.00  0.00     0.094 A 
ATOM     10  C   UNL     1     480.721  38.002 457.087  1.00  0.00     0.146 A 
ATOM     11  O   UNL     1     479.903  37.461 457.984  1.00  0.00    -0.456 OA
ENDROOT
BRANCH   1  12
ATOM     12  C   UNL     1     479.078  36.951 460.204  1.00  0.00     0.021 A 
ATOM     13  C   UNL     1     479.026  35.554 460.372  1.00  0.00     0.016 A 
ATOM     14  C   UNL     1     478.080  34.979 461.225  1.00  0.00     0.051 A 
ATOM     15  C   UNL     1     477.169  35.781 461.917  1.00  0.00     0.157 A 
ATOM     16  C   UNL     1     478.150  37.752 460.892  1.00  0.00     0.062 A 
ATOM     17  C   UNL     1     477.201  37.175 461.750  1.00  0.00     0.158 A 
BRANCH  15  18
ATOM     18  O   UNL     1     476.238  35.177 462.763  1.00  0.00    -0.504 OA
ATOM     19  H   UNL     1     475.266  35.066 462.500  1.00  0.00     0.293 HD
ENDBRANCH  15  18
BRANCH  17  20
ATOM     20  O   UNL     1     476.294  37.982 462.433  1.00  0.00    -0.504 OA
ATOM     21  H   UNL     1     476.070  37.823 463.409  1.00  0.00     0.293 HD
ENDBRANCH  17  20
ENDBRANCH   1  12
BRANCH   6  22
ATOM     22  O   UNL     1     483.724  40.238 456.751  1.00  0.00    -0.507 OA
ATOM     23  H   UNL     1     484.099  40.909 456.100  1.00  0.00     0.293 HD
ENDBRANCH   6  22
BRANCH   8  24
ATOM     24  O   UNL     1     481.058  38.046 453.414  1.00  0.00    -0.508 OA
ATOM     25  H   UNL     1     480.296  38.497 452.923  1.00  0.00     0.293 HD
ENDBRANCH   8  24
TORSDOF 5
ENDMDL
MODEL 8
REMARK VINA RESULT:    -5.459      1.217      2.777
REMARK INTER + INTRA:          -6.678
REMARK INTER:                  -6.407
REMARK INTRA:                  -0.271
REMARK UNBOUND:                -0.262
REMARK SMILES O=c1cc(-c2ccc(O)c(O)c2)oc2cc(O)cc(O)c12
REMARK SMILES IDX 4 1 3 2 2 3 1 4 21 5 19 6 18 7 16 8 15 9 14 10 13 11 5 12
REMARK SMILES IDX 6 13 7 14 8 15 12 16 10 17 9 18 11 20 20 22 17 24
REMARK H PARENT 9 19 11 21 20 23 17 25
REMARK Flexibility Score: inf
ROOT
ATOM      1  C   UNL     1     479.690  37.514 459.468  1.00  0.00     0.138 A 
ATOM      2  C   UNL     1     479.407  36.240 459.978  1.00  0.00     0.100 A 
ATOM      3  C   UNL     1     478.373  36.080 460.902  1.00  0.00     0.197 A 
ATOM      4  O   UNL     1     478.180  34.934 461.382  1.00  0.00    -0.289 OA
ATOM      5  C   UNL     1     477.598  37.199 461.290  1.00  0.00     0.107 A 
ATOM      6  C   UNL     1     476.497  37.150 462.199  1.00  0.00     0.134 A 
ATOM      7  C   UNL     1     475.867  38.340 462.584  1.00  0.00     0.093 A 
ATOM      8  C   UNL     1     476.259  39.569 462.047  1.00  0.00     0.123 A 
ATOM      9  C   UNL     1     477.298  39.621 461.122  1.00  0.00     0.094 A 
ATOM     10  C   UNL     1     477.969  38.456 460.745  1.00  0.00     0.146 A 
ATOM     11  O   UNL     1     478.968  38.553 459.873  1.00  0.00    -0.456 OA
ENDROOT
BRANCH   1  12
ATOM     12  C   UNL     1     480.776  37.741 458.479  1.00  0.00     0.021 A 
ATOM     13  C   UNL     1     480.680  37.273 457.155  1.00  0.00     0.016 A 
ATOM     14  C   UNL     1     481.722  37.492 456.250  1.00  0.00     0.051 A 
ATOM     15  C   UNL     1     482.875  38.173 456.648  1.00  0.00     0.157 A 
ATOM     16  C   UNL     1     481.944  38.413 458.878  1.00  0.00     0.062 A 
ATOM     17  C   UNL     1     482.989  38.635 457.969  1.00  0.00     0.158 A 
BRANCH  15  18
ATOM     18  O   UNL     1     483.897  38.378 455.721  1.00  0.00    -0.504 OA
ATOM     19  H   UNL     1     484.367  37.608 455.260  1.00  0.00     0.293 HD
ENDBRANCH  15  18
BRANCH  17  20
ATOM     20  O   UNL     1     484.138  39.312 458.375  1.00  0.00    -0.504 OA
ATOM     21  H   UNL     1     484.144  39.904 459.197  1.00  0.00     0.293 HD
ENDBRANCH  17  20
ENDBRANCH   1  12
BRANCH   6  22
ATOM     22  O   UNL     1     475.973  35.968 462.733  1.00  0.00    -0.507 OA
ATOM     23  H   UNL     1     476.050  35.057 462.309  1.00  0.00     0.293 HD
ENDBRANCH   6  22
BRANCH   8  24
ATOM     24  O   UNL     1     475.615  40.746 462.425  1.00  0.00    -0.508 OA
ATOM     25  H   UNL     1     474.996  41.239 461.791  1.00  0.00     0.293 HD
ENDBRANCH   8  24
TORSDOF 5
ENDMDL
MODEL 9
REMARK VINA RESULT:    -5.265      2.299      7.388
REMARK INTER + INTRA:          -6.451
REMARK INTER:                  -6.179
REMARK INTRA:                  -0.272
REMARK UNBOUND:                -0.262
REMARK SMILES O=c1cc(-c2ccc(O)c(O)c2)oc2cc(O)cc(O)c12
REMARK SMILES IDX 4 1 3 2 2 3 1 4 21 5 19 6 18 7 16 8 15 9 14 10 13 11 5 12
REMARK SMILES IDX 6 13 7 14 8 15 12 16 10 17 9 18 11 20 20 22 17 24
REMARK H PARENT 9 19 11 21 20 23 17 25
REMARK Flexibility Score: inf
ROOT
ATOM      1  C   UNL     1     480.800  38.991 461.294  1.00  0.00     0.138 A 
ATOM      2  C   UNL     1     481.699  39.464 462.260  1.00  0.00     0.100 A 
ATOM      3  C   UNL     1     483.053  39.580 461.944  1.00  0.00     0.197 A 
ATOM      4  O   UNL     1     483.842  39.955 462.849  1.00  0.00    -0.289 OA
ATOM      5  C   UNL     1     483.503  39.253 460.642  1.00  0.00     0.107 A 
ATOM      6  C   UNL     1     484.855  39.365 460.196  1.00  0.00     0.134 A 
ATOM      7  C   UNL     1     485.197  38.918 458.914  1.00  0.00     0.093 A 
ATOM      8  C   UNL     1     484.227  38.418 458.041  1.00  0.00     0.123 A 
ATOM      9  C   UNL     1     482.897  38.352 458.449  1.00  0.00     0.094 A 
ATOM     10  C   UNL     1     482.530  38.758 459.734  1.00  0.00     0.146 A 
ATOM     11  O   UNL     1     481.252  38.660 460.089  1.00  0.00    -0.456 OA
ENDROOT
BRANCH   1  12
ATOM     12  C   UNL     1     479.347  38.851 461.574  1.00  0.00     0.021 A 
ATOM     13  C   UNL     1     478.520  39.973 461.768  1.00  0.00     0.016 A 
ATOM     14  C   UNL     1     477.159  39.811 462.040  1.00  0.00     0.051 A 
ATOM     15  C   UNL     1     476.603  38.533 462.130  1.00  0.00     0.157 A 
ATOM     16  C   UNL     1     478.785  37.567 461.680  1.00  0.00     0.062 A 
ATOM     17  C   UNL     1     477.418  37.404 461.952  1.00  0.00     0.158 A 
BRANCH  15  18
ATOM     18  O   UNL     1     475.240  38.403 462.402  1.00  0.00    -0.504 OA
ATOM     19  H   UNL     1     474.701  37.607 462.081  1.00  0.00     0.293 HD
ENDBRANCH  15  18
BRANCH  17  20
ATOM     20  O   UNL     1     476.871  36.125 462.044  1.00  0.00    -0.504 OA
ATOM     21  H   UNL     1     477.301  35.402 462.610  1.00  0.00     0.293 HD
ENDBRANCH  17  20
ENDBRANCH   1  12
BRANCH   6  22
ATOM     22  O   UNL     1     485.888  39.922 460.956  1.00  0.00    -0.507 OA
ATOM     23  H   UNL     1     486.647  40.473 460.587  1.00  0.00     0.293 HD
ENDBRANCH   6  22
BRANCH   8  24
ATOM     24  O   UNL     1     484.575  37.990 456.762  1.00  0.00    -0.508 OA
ATOM     25  H   UNL     1     485.110  37.143 456.613  1.00  0.00     0.293 HD
ENDBRANCH   8  24
TORSDOF 5
ENDMDL
