MODEL 1
REMARK VINA RESULT:    -5.699      0.000      0.000
REMARK INTER + INTRA:         -12.137
REMARK INTER:                 -11.030
REMARK INTRA:                  -1.107
REMARK UNBOUND:                -1.107
REMARK SMILES CCCCCCCCCCCCCCCCCC(=O)[O-]
REMARK SMILES IDX 10 1 11 2 12 3 13 4 14 5 15 6 16 7 17 8 18 9 19 10 20 11
REMARK SMILES IDX 9 12 8 13 7 14 6 15 5 16 4 17 3 18 2 19 1 20
REMARK H PARENT
REMARK Flexibility Score: inf
ROOT
ATOM      1  C   UNL     1      22.815  13.918   8.847  1.00  0.00     0.000 C 
ENDROOT
BRANCH   1   2
ATOM      2  C   UNL     1      24.087  13.136   8.482  1.00  0.00     0.000 C 
BRANCH   2   3
ATOM      3  C   UNL     1      25.375  13.867   8.903  1.00  0.00     0.000 C 
BRANCH   3   4
ATOM      4  C   UNL     1      26.211  14.322   7.695  1.00  0.00     0.000 C 
BRANCH   4   5
ATOM      5  C   UNL     1      27.465  15.108   8.115  1.00  0.00     0.000 C 
BRANCH   5   6
ATOM      6  C   UNL     1      27.497  16.536   7.540  1.00  0.00     0.000 C 
BRANCH   6   7
ATOM      7  C   UNL     1      26.837  17.610   8.423  1.00  0.00     0.006 C 
BRANCH   7   8
ATOM      8  C   UNL     1      26.277  18.787   7.615  1.00  0.00     0.053 C 
BRANCH   8   9
ATOM      9  C   UNL     1      24.968  18.415   6.993  1.00  0.00     0.041 C 
ATOM     10  O   UNL     1      24.487  19.114   6.062  1.00  0.00    -0.550 OA
ATOM     11  O   UNL     1      24.306  17.264   7.404  1.00  0.00    -0.550 OA
ENDBRANCH   8   9
ENDBRANCH   7   8
ENDBRANCH   6   7
ENDBRANCH   5   6
ENDBRANCH   4   5
ENDBRANCH   3   4
ENDBRANCH   2   3
ENDBRANCH   1   2
BRANCH   1  12
ATOM     12  C   UNL     1      22.300  13.592  10.256  1.00  0.00     0.000 C 
BRANCH  12  13
ATOM     13  C   UNL     1      22.564  12.121  10.610  1.00  0.00    -0.000 C 
BRANCH  13  14
ATOM     14  C   UNL     1      21.273  11.289  10.680  1.00  0.00    -0.000 C 
BRANCH  14  15
ATOM     15  C   UNL     1      21.548   9.780  10.801  1.00  0.00    -0.000 C 
BRANCH  15  16
ATOM     16  C   UNL     1      22.468   9.433  11.986  1.00  0.00    -0.000 C 
BRANCH  16  17
ATOM     17  C   UNL     1      21.740   9.149  13.315  1.00  0.00    -0.000 C 
BRANCH  17  18
ATOM     18  C   UNL     1      20.737   7.985  13.212  1.00  0.00    -0.000 C 
BRANCH  18  19
ATOM     19  C   UNL     1      19.330   8.378  13.691  1.00  0.00    -0.003 C 
ATOM     20  C   UNL     1      19.090   9.887  13.654  1.00  0.00     0.004 C 
ENDBRANCH  18  19
ENDBRANCH  17  18
ENDBRANCH  16  17
ENDBRANCH  15  16
ENDBRANCH  14  15
ENDBRANCH  13  14
ENDBRANCH  12  13
ENDBRANCH   1  12
TORSDOF 16
ENDMDL
MODEL 2
REMARK VINA RESULT:    -5.580      2.767      4.195
REMARK INTER + INTRA:         -11.905
REMARK INTER:                 -10.486
REMARK INTRA:                  -1.419
REMARK UNBOUND:                -1.107
REMARK SMILES CCCCCCCCCCCCCCCCCC(=O)[O-]
REMARK SMILES IDX 10 1 11 2 12 3 13 4 14 5 15 6 16 7 17 8 18 9 19 10 20 11
REMARK SMILES IDX 9 12 8 13 7 14 6 15 5 16 4 17 3 18 2 19 1 20
REMARK H PARENT
REMARK Flexibility Score: inf
ROOT
ATOM      1  C   UNL     1      25.617  12.136  11.765  1.00  0.00     0.000 C 
ENDROOT
BRANCH   1   2
ATOM      2  C   UNL     1      27.136  11.921  11.667  1.00  0.00     0.000 C 
BRANCH   2   3
ATOM      3  C   UNL     1      27.742  12.536  10.392  1.00  0.00     0.000 C 
BRANCH   3   4
ATOM      4  C   UNL     1      27.045  13.845   9.985  1.00  0.00     0.000 C 
BRANCH   4   5
ATOM      5  C   UNL     1      27.098  14.087   8.466  1.00  0.00     0.000 C 
BRANCH   5   6
ATOM      6  C   UNL     1      25.756  13.800   7.767  1.00  0.00     0.000 C 
BRANCH   6   7
ATOM      7  C   UNL     1      24.505  14.086   8.617  1.00  0.00     0.006 C 
BRANCH   7   8
ATOM      8  C   UNL     1      23.379  13.071   8.381  1.00  0.00     0.053 C 
BRANCH   8   9
ATOM      9  C   UNL     1      22.467  13.023   9.567  1.00  0.00     0.041 C 
ATOM     10  O   UNL     1      22.163  11.917  10.089  1.00  0.00    -0.550 OA
ATOM     11  O   UNL     1      21.997  14.203  10.131  1.00  0.00    -0.550 OA
ENDBRANCH   8   9
ENDBRANCH   7   8
ENDBRANCH   6   7
ENDBRANCH   5   6
ENDBRANCH   4   5
ENDBRANCH   3   4
ENDBRANCH   2   3
ENDBRANCH   1   2
BRANCH   1  12
ATOM     12  C   UNL     1      25.058  11.801  13.156  1.00  0.00     0.000 C 
BRANCH  12  13
ATOM     13  C   UNL     1      25.696  10.518  13.710  1.00  0.00    -0.000 C 
BRANCH  13  14
ATOM     14  C   UNL     1      24.655   9.433  14.032  1.00  0.00    -0.000 C 
BRANCH  14  15
ATOM     15  C   UNL     1      23.239   9.818  13.570  1.00  0.00    -0.000 C 
BRANCH  15  16
ATOM     16  C   UNL     1      22.824   9.115  12.264  1.00  0.00    -0.000 C 
BRANCH  16  17
ATOM     17  C   UNL     1      21.358   9.337  11.843  1.00  0.00    -0.000 C 
BRANCH  17  18
ATOM     18  C   UNL     1      20.422   9.592  13.039  1.00  0.00    -0.000 C 
BRANCH  18  19
ATOM     19  C   UNL     1      19.761   8.302  13.553  1.00  0.00    -0.003 C 
ATOM     20  C   UNL     1      19.057   8.492  14.897  1.00  0.00     0.004 C 
ENDBRANCH  18  19
ENDBRANCH  17  18
ENDBRANCH  16  17
ENDBRANCH  15  16
ENDBRANCH  14  15
ENDBRANCH  13  14
ENDBRANCH  12  13
ENDBRANCH   1  12
TORSDOF 16
ENDMDL
MODEL 3
REMARK VINA RESULT:    -5.496      1.540      2.711
REMARK INTER + INTRA:         -11.744
REMARK INTER:                 -10.836
REMARK INTRA:                  -0.907
REMARK UNBOUND:                -1.107
REMARK SMILES CCCCCCCCCCCCCCCCCC(=O)[O-]
REMARK SMILES IDX 10 1 11 2 12 3 13 4 14 5 15 6 16 7 17 8 18 9 19 10 20 11
REMARK SMILES IDX 9 12 8 13 7 14 6 15 5 16 4 17 3 18 2 19 1 20
REMARK H PARENT
REMARK Flexibility Score: inf
ROOT
ATOM      1  C   UNL     1      25.066  14.495   8.135  1.00  0.00     0.000 C 
ENDROOT
BRANCH   1   2
ATOM      2  C   UNL     1      26.573  14.353   7.868  1.00  0.00     0.000 C 
BRANCH   2   3
ATOM      3  C   UNL     1      27.389  15.536   8.419  1.00  0.00     0.000 C 
BRANCH   3   4
ATOM      4  C   UNL     1      27.253  16.797   7.549  1.00  0.00     0.000 C 
BRANCH   4   5
ATOM      5  C   UNL     1      26.304  17.836   8.171  1.00  0.00     0.000 C 
BRANCH   5   6
ATOM      6  C   UNL     1      25.629  18.736   7.120  1.00  0.00     0.000 C 
BRANCH   6   7
ATOM      7  C   UNL     1      24.119  18.501   6.934  1.00  0.00     0.006 C 
BRANCH   7   8
ATOM      8  C   UNL     1      23.549  19.219   5.704  1.00  0.00     0.053 C 
BRANCH   8   9
ATOM      9  C   UNL     1      22.230  19.844   6.032  1.00  0.00     0.041 C 
ATOM     10  O   UNL     1      21.518  20.339   5.118  1.00  0.00    -0.550 OA
ATOM     11  O   UNL     1      21.761  19.832   7.341  1.00  0.00    -0.550 OA
ENDBRANCH   8   9
ENDBRANCH   7   8
ENDBRANCH   6   7
ENDBRANCH   5   6
ENDBRANCH   4   5
ENDBRANCH   3   4
ENDBRANCH   2   3
ENDBRANCH   1   2
BRANCH   1  12
ATOM     12  C   UNL     1      24.445  13.221   8.727  1.00  0.00     0.000 C 
BRANCH  12  13
ATOM     13  C   UNL     1      24.859  13.039  10.195  1.00  0.00    -0.000 C 
BRANCH  13  14
ATOM     14  C   UNL     1      23.686  12.604  11.089  1.00  0.00    -0.000 C 
BRANCH  14  15
ATOM     15  C   UNL     1      22.374  12.436  10.302  1.00  0.00    -0.000 C 
BRANCH  15  16
ATOM     16  C   UNL     1      21.565  11.203  10.745  1.00  0.00    -0.000 C 
BRANCH  16  17
ATOM     17  C   UNL     1      22.148  10.440  11.951  1.00  0.00    -0.000 C 
BRANCH  17  18
ATOM     18  C   UNL     1      21.245   9.288  12.426  1.00  0.00    -0.000 C 
BRANCH  18  19
ATOM     19  C   UNL     1      19.936   9.789  13.058  1.00  0.00    -0.003 C 
ATOM     20  C   UNL     1      19.380   8.830  14.110  1.00  0.00     0.004 C 
ENDBRANCH  18  19
ENDBRANCH  17  18
ENDBRANCH  16  17
ENDBRANCH  15  16
ENDBRANCH  14  15
ENDBRANCH  13  14
ENDBRANCH  12  13
ENDBRANCH   1  12
TORSDOF 16
ENDMDL
MODEL 4
REMARK VINA RESULT:    -5.349      3.060      8.341
REMARK INTER + INTRA:         -11.459
REMARK INTER:                  -9.782
REMARK INTRA:                  -1.677
REMARK UNBOUND:                -1.107
REMARK SMILES CCCCCCCCCCCCCCCCCC(=O)[O-]
REMARK SMILES IDX 10 1 11 2 12 3 13 4 14 5 15 6 16 7 17 8 18 9 19 10 20 11
REMARK SMILES IDX 9 12 8 13 7 14 6 15 5 16 4 17 3 18 2 19 1 20
REMARK H PARENT
REMARK Flexibility Score: inf
ROOT
ATOM      1  C   UNL     1      21.874  11.865  10.732  1.00  0.00     0.000 C 
ENDROOT
BRANCH   1   2
ATOM      2  C   UNL     1      21.218  10.478  10.835  1.00  0.00     0.000 C 
BRANCH   2   3
ATOM      3  C   UNL     1      20.594  10.217  12.217  1.00  0.00     0.000 C 
BRANCH   3   4
ATOM      4  C   UNL     1      21.098   8.909  12.849  1.00  0.00     0.000 C 
BRANCH   4   5
ATOM      5  C   UNL     1      22.632   8.790  12.801  1.00  0.00     0.000 C 
BRANCH   5   6
ATOM      6  C   UNL     1      23.338   9.760  13.766  1.00  0.00     0.000 C 
BRANCH   6   7
ATOM      7  C   UNL     1      24.789  10.112  13.391  1.00  0.00     0.006 C 
BRANCH   7   8
ATOM      8  C   UNL     1      24.942  11.549  12.877  1.00  0.00     0.053 C 
BRANCH   8   9
ATOM      9  C   UNL     1      26.368  11.990  12.983  1.00  0.00     0.041 C 
ATOM     10  O   UNL     1      27.154  11.835  12.011  1.00  0.00    -0.550 OA
ATOM     11  O   UNL     1      26.815  12.622  14.137  1.00  0.00    -0.550 OA
ENDBRANCH   8   9
ENDBRANCH   7   8
ENDBRANCH   6   7
ENDBRANCH   5   6
ENDBRANCH   4   5
ENDBRANCH   3   4
ENDBRANCH   2   3
ENDBRANCH   1   2
BRANCH   1  12
ATOM     12  C   UNL     1      22.516  12.119   9.360  1.00  0.00     0.000 C 
BRANCH  12  13
ATOM     13  C   UNL     1      22.702  13.623   9.111  1.00  0.00    -0.000 C 
BRANCH  13  14
ATOM     14  C   UNL     1      24.110  13.966   8.596  1.00  0.00    -0.000 C 
BRANCH  14  15
ATOM     15  C   UNL     1      25.220  13.280   9.410  1.00  0.00    -0.000 C 
BRANCH  15  16
ATOM     16  C   UNL     1      26.634  13.663   8.936  1.00  0.00    -0.000 C 
BRANCH  16  17
ATOM     17  C   UNL     1      26.688  14.413   7.591  1.00  0.00    -0.000 C 
BRANCH  17  18
ATOM     18  C   UNL     1      27.900  15.356   7.478  1.00  0.00    -0.000 C 
BRANCH  18  19
ATOM     19  C   UNL     1      27.554  16.806   7.852  1.00  0.00    -0.003 C 
ATOM     20  C   UNL     1      26.055  17.098   7.769  1.00  0.00     0.004 C 
ENDBRANCH  18  19
ENDBRANCH  17  18
ENDBRANCH  16  17
ENDBRANCH  15  16
ENDBRANCH  14  15
ENDBRANCH  13  14
ENDBRANCH  12  13
ENDBRANCH   1  12
TORSDOF 16
ENDMDL
MODEL 5
REMARK VINA RESULT:    -5.338      3.021      8.777
REMARK INTER + INTRA:         -11.438
REMARK INTER:                 -10.290
REMARK INTRA:                  -1.148
REMARK UNBOUND:                -1.107
REMARK SMILES CCCCCCCCCCCCCCCCCC(=O)[O-]
REMARK SMILES IDX 10 1 11 2 12 3 13 4 14 5 15 6 16 7 17 8 18 9 19 10 20 11
REMARK SMILES IDX 9 12 8 13 7 14 6 15 5 16 4 17 3 18 2 19 1 20
REMARK H PARENT
REMARK Flexibility Score: inf
ROOT
ATOM      1  C   UNL     1      22.618  12.465   8.927  1.00  0.00     0.000 C 
ENDROOT
BRANCH   1   2
ATOM      2  C   UNL     1      22.141  12.146  10.353  1.00  0.00     0.000 C 
BRANCH   2   3
ATOM      3  C   UNL     1      21.640  10.698  10.502  1.00  0.00     0.000 C 
BRANCH   3   4
ATOM      4  C   UNL     1      20.721  10.519  11.722  1.00  0.00     0.000 C 
BRANCH   4   5
ATOM      5  C   UNL     1      21.420   9.778  12.876  1.00  0.00     0.000 C 
BRANCH   5   6
ATOM      6  C   UNL     1      22.834   9.293  12.506  1.00  0.00     0.000 C 
BRANCH   6   7
ATOM      7  C   UNL     1      23.961   9.822  13.410  1.00  0.00     0.006 C 
BRANCH   7   8
ATOM      8  C   UNL     1      24.340  11.276  13.105  1.00  0.00     0.053 C 
BRANCH   8   9
ATOM      9  C   UNL     1      25.828  11.422  13.039  1.00  0.00     0.041 C 
ATOM     10  O   UNL     1      26.379  11.826  11.980  1.00  0.00    -0.550 OA
ATOM     11  O   UNL     1      26.603  11.164  14.164  1.00  0.00    -0.550 OA
ENDBRANCH   8   9
ENDBRANCH   7   8
ENDBRANCH   6   7
ENDBRANCH   5   6
ENDBRANCH   4   5
ENDBRANCH   3   4
ENDBRANCH   2   3
ENDBRANCH   1   2
BRANCH   1  12
ATOM     12  C   UNL     1      23.478  13.736   8.859  1.00  0.00     0.000 C 
BRANCH  12  13
ATOM     13  C   UNL     1      24.971  13.396   8.973  1.00  0.00    -0.000 C 
BRANCH  13  14
ATOM     14  C   UNL     1      25.837  14.204   7.993  1.00  0.00    -0.000 C 
BRANCH  14  15
ATOM     15  C   UNL     1      26.774  15.192   8.710  1.00  0.00    -0.000 C 
BRANCH  15  16
ATOM     16  C   UNL     1      27.147  16.404   7.837  1.00  0.00    -0.000 C 
BRANCH  16  17
ATOM     17  C   UNL     1      27.004  17.774   8.530  1.00  0.00    -0.000 C 
BRANCH  17  18
ATOM     18  C   UNL     1      25.935  18.668   7.877  1.00  0.00    -0.000 C 
BRANCH  18  19
ATOM     19  C   UNL     1      24.769  17.857   7.289  1.00  0.00    -0.003 C 
ATOM     20  C   UNL     1      23.837  18.702   6.419  1.00  0.00     0.004 C 
ENDBRANCH  18  19
ENDBRANCH  17  18
ENDBRANCH  16  17
ENDBRANCH  15  16
ENDBRANCH  14  15
ENDBRANCH  13  14
ENDBRANCH  12  13
ENDBRANCH   1  12
TORSDOF 16
ENDMDL
MODEL 6
REMARK VINA RESULT:    -5.331      1.723      2.628
REMARK INTER + INTRA:         -11.425
REMARK INTER:                 -10.490
REMARK INTRA:                  -0.934
REMARK UNBOUND:                -1.107
REMARK SMILES CCCCCCCCCCCCCCCCCC(=O)[O-]
REMARK SMILES IDX 10 1 11 2 12 3 13 4 14 5 15 6 16 7 17 8 18 9 19 10 20 11
REMARK SMILES IDX 9 12 8 13 7 14 6 15 5 16 4 17 3 18 2 19 1 20
REMARK H PARENT
REMARK Flexibility Score: inf
ROOT
ATOM      1  C   UNL     1      25.254  13.293   9.673  1.00  0.00     0.000 C 
ENDROOT
BRANCH   1   2
ATOM      2  C   UNL     1      25.592  13.902   8.302  1.00  0.00     0.000 C 
BRANCH   2   3
ATOM      3  C   UNL     1      27.058  14.360   8.200  1.00  0.00     0.000 C 
BRANCH   3   4
ATOM      4  C   UNL     1      27.190  15.775   7.613  1.00  0.00     0.000 C 
BRANCH   4   5
ATOM      5  C   UNL     1      25.903  16.600   7.783  1.00  0.00     0.000 C 
BRANCH   5   6
ATOM      6  C   UNL     1      26.162  18.118   7.788  1.00  0.00     0.000 C 
BRANCH   6   7
ATOM      7  C   UNL     1      25.417  18.910   6.698  1.00  0.00     0.006 C 
BRANCH   7   8
ATOM      8  C   UNL     1      23.914  18.607   6.660  1.00  0.00     0.053 C 
BRANCH   8   9
ATOM      9  C   UNL     1      23.203  19.613   5.811  1.00  0.00     0.041 C 
ATOM     10  O   UNL     1      23.678  20.771   5.667  1.00  0.00    -0.550 OA
ATOM     11  O   UNL     1      22.043  19.255   5.134  1.00  0.00    -0.550 OA
ENDBRANCH   8   9
ENDBRANCH   7   8
ENDBRANCH   6   7
ENDBRANCH   5   6
ENDBRANCH   4   5
ENDBRANCH   3   4
ENDBRANCH   2   3
ENDBRANCH   1   2
BRANCH   1  12
ATOM     12  C   UNL     1      26.493  12.760  10.408  1.00  0.00     0.000 C 
BRANCH  12  13
ATOM     13  C   UNL     1      26.096  12.050  11.710  1.00  0.00    -0.000 C 
BRANCH  13  14
ATOM     14  C   UNL     1      24.574  12.024  11.928  1.00  0.00    -0.000 C 
BRANCH  14  15
ATOM     15  C   UNL     1      24.150  11.022  13.016  1.00  0.00    -0.000 C 
BRANCH  15  16
ATOM     16  C   UNL     1      23.128   9.987  12.511  1.00  0.00    -0.000 C 
BRANCH  16  17
ATOM     17  C   UNL     1      21.964  10.571  11.686  1.00  0.00    -0.000 C 
BRANCH  17  18
ATOM     18  C   UNL     1      20.581  10.175  12.236  1.00  0.00    -0.000 C 
BRANCH  18  19
ATOM     19  C   UNL     1      20.677   9.355  13.533  1.00  0.00    -0.003 C 
ATOM     20  C   UNL     1      19.618   8.256  13.621  1.00  0.00     0.004 C 
ENDBRANCH  18  19
ENDBRANCH  17  18
ENDBRANCH  16  17
ENDBRANCH  15  16
ENDBRANCH  14  15
ENDBRANCH  13  14
ENDBRANCH  12  13
ENDBRANCH   1  12
TORSDOF 16
ENDMDL
MODEL 7
REMARK VINA RESULT:    -5.318      1.421      1.792
REMARK INTER + INTRA:         -11.398
REMARK INTER:                 -10.323
REMARK INTRA:                  -1.075
REMARK UNBOUND:                -1.107
REMARK SMILES CCCCCCCCCCCCCCCCCC(=O)[O-]
REMARK SMILES IDX 10 1 11 2 12 3 13 4 14 5 15 6 16 7 17 8 18 9 19 10 20 11
REMARK SMILES IDX 9 12 8 13 7 14 6 15 5 16 4 17 3 18 2 19 1 20
REMARK H PARENT
REMARK Flexibility Score: inf
ROOT
ATOM      1  C   UNL     1      23.962  13.017  10.077  1.00  0.00     0.000 C 
ENDROOT
BRANCH   1   2
ATOM      2  C   UNL     1      24.022  13.613   8.661  1.00  0.00     0.000 C 
BRANCH   2   3
ATOM      3  C   UNL     1      25.463  13.755   8.138  1.00  0.00     0.000 C 
BRANCH   3   4
ATOM      4  C   UNL     1      25.822  15.212   7.800  1.00  0.00     0.000 C 
BRANCH   4   5
ATOM      5  C   UNL     1      26.984  15.741   8.660  1.00  0.00     0.000 C 
BRANCH   5   6
ATOM      6  C   UNL     1      27.528  17.093   8.164  1.00  0.00     0.000 C 
BRANCH   6   7
ATOM      7  C   UNL     1      26.506  18.245   8.158  1.00  0.00     0.006 C 
BRANCH   7   8
ATOM      8  C   UNL     1      26.292  18.847   6.764  1.00  0.00     0.053 C 
BRANCH   8   9
ATOM      9  C   UNL     1      24.830  18.949   6.462  1.00  0.00     0.041 C 
ATOM     10  O   UNL     1      24.410  19.810   5.644  1.00  0.00    -0.550 OA
ATOM     11  O   UNL     1      23.936  18.056   7.042  1.00  0.00    -0.550 OA
ENDBRANCH   8   9
ENDBRANCH   7   8
ENDBRANCH   6   7
ENDBRANCH   5   6
ENDBRANCH   4   5
ENDBRANCH   3   4
ENDBRANCH   2   3
ENDBRANCH   1   2
BRANCH   1  12
ATOM     12  C   UNL     1      25.313  13.076  10.805  1.00  0.00     0.000 C 
BRANCH  12  13
ATOM     13  C   UNL     1      25.434  11.938  11.830  1.00  0.00    -0.000 C 
BRANCH  13  14
ATOM     14  C   UNL     1      24.067  11.454  12.340  1.00  0.00    -0.000 C 
BRANCH  14  15
ATOM     15  C   UNL     1      24.186  10.278  13.325  1.00  0.00    -0.000 C 
BRANCH  15  16
ATOM     16  C   UNL     1      22.925   9.396  13.359  1.00  0.00    -0.000 C 
BRANCH  16  17
ATOM     17  C   UNL     1      21.895   9.689  12.250  1.00  0.00    -0.000 C 
BRANCH  17  18
ATOM     18  C   UNL     1      20.452   9.775  12.778  1.00  0.00    -0.000 C 
BRANCH  18  19
ATOM     19  C   UNL     1      19.957   8.439  13.357  1.00  0.00    -0.003 C 
ATOM     20  C   UNL     1      19.118   8.615  14.622  1.00  0.00     0.004 C 
ENDBRANCH  18  19
ENDBRANCH  17  18
ENDBRANCH  16  17
ENDBRANCH  15  16
ENDBRANCH  14  15
ENDBRANCH  13  14
ENDBRANCH  12  13
ENDBRANCH   1  12
TORSDOF 16
ENDMDL
MODEL 8
REMARK VINA RESULT:    -5.301      7.714     10.631
REMARK INTER + INTRA:         -11.365
REMARK INTER:                  -9.120
REMARK INTRA:                  -2.245
REMARK UNBOUND:                -1.107
REMARK SMILES CCCCCCCCCCCCCCCCCC(=O)[O-]
REMARK SMILES IDX 10 1 11 2 12 3 13 4 14 5 15 6 16 7 17 8 18 9 19 10 20 11
REMARK SMILES IDX 9 12 8 13 7 14 6 15 5 16 4 17 3 18 2 19 1 20
REMARK H PARENT
REMARK Flexibility Score: inf
ROOT
ATOM      1  C   UNL     1      26.816  21.364   6.270  1.00  0.00     0.000 C 
ENDROOT
BRANCH   1   2
ATOM      2  C   UNL     1      27.053  21.021   4.790  1.00  0.00     0.000 C 
BRANCH   2   3
ATOM      3  C   UNL     1      26.986  22.257   3.876  1.00  0.00     0.000 C 
BRANCH   3   4
ATOM      4  C   UNL     1      27.437  23.540   4.593  1.00  0.00     0.000 C 
BRANCH   4   5
ATOM      5  C   UNL     1      26.349  24.629   4.581  1.00  0.00     0.000 C 
BRANCH   5   6
ATOM      6  C   UNL     1      26.178  25.318   5.947  1.00  0.00     0.000 C 
BRANCH   6   7
ATOM      7  C   UNL     1      24.729  25.395   6.462  1.00  0.00     0.006 C 
BRANCH   7   8
ATOM      8  C   UNL     1      24.468  26.632   7.330  1.00  0.00     0.053 C 
BRANCH   8   9
ATOM      9  C   UNL     1      24.971  26.406   8.721  1.00  0.00     0.041 C 
ATOM     10  O   UNL     1      25.853  27.163   9.207  1.00  0.00    -0.550 OA
ATOM     11  O   UNL     1      24.426  25.393   9.501  1.00  0.00    -0.550 OA
ENDBRANCH   8   9
ENDBRANCH   7   8
ENDBRANCH   6   7
ENDBRANCH   5   6
ENDBRANCH   4   5
ENDBRANCH   3   4
ENDBRANCH   2   3
ENDBRANCH   1   2
BRANCH   1  12
ATOM     12  C   UNL     1      27.071  20.171   7.205  1.00  0.00     0.000 C 
BRANCH  12  13
ATOM     13  C   UNL     1      26.540  18.868   6.590  1.00  0.00    -0.000 C 
BRANCH  13  14
ATOM     14  C   UNL     1      25.538  18.149   7.508  1.00  0.00    -0.000 C 
BRANCH  14  15
ATOM     15  C   UNL     1      24.075  18.423   7.117  1.00  0.00    -0.000 C 
BRANCH  15  16
ATOM     16  C   UNL     1      23.934  18.999   5.696  1.00  0.00    -0.000 C 
BRANCH  16  17
ATOM     17  C   UNL     1      22.563  19.630   5.382  1.00  0.00    -0.000 C 
BRANCH  17  18
ATOM     18  C   UNL     1      22.289  20.906   6.198  1.00  0.00    -0.000 C 
BRANCH  18  19
ATOM     19  C   UNL     1      23.232  22.060   5.817  1.00  0.00    -0.003 C 
ATOM     20  C   UNL     1      23.444  22.179   4.307  1.00  0.00     0.004 C 
ENDBRANCH  18  19
ENDBRANCH  17  18
ENDBRANCH  16  17
ENDBRANCH  15  16
ENDBRANCH  14  15
ENDBRANCH  13  14
ENDBRANCH  12  13
ENDBRANCH   1  12
TORSDOF 16
ENDMDL
MODEL 9
REMARK VINA RESULT:    -5.248      1.758      2.994
REMARK INTER + INTRA:         -11.263
REMARK INTER:                  -9.929
REMARK INTRA:                  -1.334
REMARK UNBOUND:                -1.107
REMARK SMILES CCCCCCCCCCCCCCCCCC(=O)[O-]
REMARK SMILES IDX 10 1 11 2 12 3 13 4 14 5 15 6 16 7 17 8 18 9 19 10 20 11
REMARK SMILES IDX 9 12 8 13 7 14 6 15 5 16 4 17 3 18 2 19 1 20
REMARK H PARENT
REMARK Flexibility Score: inf
ROOT
ATOM      1  C   UNL     1      22.502  12.131   9.262  1.00  0.00     0.000 C 
ENDROOT
BRANCH   1   2
ATOM      2  C   UNL     1      23.341  13.418   9.197  1.00  0.00     0.000 C 
BRANCH   2   3
ATOM      3  C   UNL     1      24.703  13.274   9.901  1.00  0.00     0.000 C 
BRANCH   3   4
ATOM      4  C   UNL     1      25.883  13.402   8.924  1.00  0.00     0.000 C 
BRANCH   4   5
ATOM      5  C   UNL     1      25.829  14.706   8.110  1.00  0.00     0.000 C 
BRANCH   5   6
ATOM      6  C   UNL     1      26.848  15.755   8.592  1.00  0.00     0.000 C 
BRANCH   6   7
ATOM      7  C   UNL     1      27.074  16.935   7.629  1.00  0.00     0.006 C 
BRANCH   7   8
ATOM      8  C   UNL     1      26.315  18.201   8.047  1.00  0.00     0.053 C 
BRANCH   8   9
ATOM      9  C   UNL     1      25.326  18.586   6.991  1.00  0.00     0.041 C 
ATOM     10  O   UNL     1      25.619  19.465   6.139  1.00  0.00    -0.550 OA
ATOM     11  O   UNL     1      24.101  17.933   6.916  1.00  0.00    -0.550 OA
ENDBRANCH   8   9
ENDBRANCH   7   8
ENDBRANCH   6   7
ENDBRANCH   5   6
ENDBRANCH   4   5
ENDBRANCH   3   4
ENDBRANCH   2   3
ENDBRANCH   1   2
BRANCH   1  12
ATOM     12  C   UNL     1      21.819  11.935  10.624  1.00  0.00     0.000 C 
BRANCH  12  13
ATOM     13  C   UNL     1      21.333  10.488  10.791  1.00  0.00    -0.000 C 
BRANCH  13  14
ATOM     14  C   UNL     1      20.688  10.236  12.164  1.00  0.00    -0.000 C 
BRANCH  14  15
ATOM     15  C   UNL     1      21.388   9.112  12.948  1.00  0.00    -0.000 C 
BRANCH  15  16
ATOM     16  C   UNL     1      22.881   8.978  12.598  1.00  0.00    -0.000 C 
BRANCH  16  17
ATOM     17  C   UNL     1      23.842   9.714  13.553  1.00  0.00    -0.000 C 
BRANCH  17  18
ATOM     18  C   UNL     1      24.504  10.944  12.908  1.00  0.00    -0.000 C 
BRANCH  18  19
ATOM     19  C   UNL     1      25.914  11.210  13.461  1.00  0.00    -0.003 C 
ATOM     20  C   UNL     1      26.831  11.892  12.445  1.00  0.00     0.004 C 
ENDBRANCH  18  19
ENDBRANCH  17  18
ENDBRANCH  16  17
ENDBRANCH  15  16
ENDBRANCH  14  15
ENDBRANCH  13  14
ENDBRANCH  12  13
ENDBRANCH   1  12
TORSDOF 16
ENDMDL
